MODEL 1
REMARK VINA RESULT:     -11.1      0.000      0.000
REMARK SMILES O=C(NCCCNC(=O)[C@H](CCC(F)(F)F)Cc1ccccc1)c1ccc(-c2c3nc(c(-c4cccc(S(=O)(=O)[O-])c4F)c4ccc([nH]4)c(-c4cccc(S(=O)(=O)[O-])c4F)c4nc(c(-c5cccc(S(=O)(=O)[O-])c5F)c5ccc2[nH]5)C=C4)C=C3)cc1
REMARK SMILES IDX 5 1 4 2 3 3 1 4 2 5 24 7 25 8 86 9 26 10 85 11 27 12 28 13
REMARK SMILES IDX 29 14 79 15 30 16 84 17 78 18 80 19 31 20 83 21 77 22 76 23
REMARK SMILES IDX 32 25 64 26 44 27 63 28 45 29 48 30 62 31 81 32 46 33 47 34
REMARK SMILES IDX 61 36 82 37 49 38 33 39 34 40 42 41 35 42 37 43 43 44 36 45
REMARK SMILES IDX 38 46 39 47 40 48 41 49 65 50 66 51 74 52 67 53 69 54 75 55
REMARK SMILES IDX 68 56 70 57 71 58 72 59 73 60 50 61 51 62 59 63 52 64 54 65
REMARK SMILES IDX 60 66 53 67 55 68 56 69 57 70 58 71 6 72 7 73 8 74 9 76
REMARK SMILES IDX 10 77 17 78 18 79 19 80 23 81 20 82 22 83 21 84 11 85 12 86
REMARK SMILES IDX 13 87 14 88 15 89 16 90
REMARK H PARENT 3 6 80 24 48 35 7 75
REMARK Flexibility Score: inf
ROOT
ATOM      1  C   UNL A   1      32.575  28.892  24.200  1.00  0.00     0.042 C 
ENDROOT
BRANCH   1   2
ATOM      2  C   UNL A   1      32.950  29.171  25.643  1.00  0.00     0.118 C 
BRANCH   2   3
ATOM      3  N   UNL A   1      32.561  30.504  26.088  1.00  0.00    -0.352 N 
ATOM      4  O   UNL A   1      32.557  32.375  27.334  1.00  0.00    -0.269 OA
ATOM      5  C   UNL A   1      33.146  31.358  27.003  1.00  0.00     0.251 C 
ATOM      6  H   UNL A   1      31.744  30.855  25.665  1.00  0.00     0.163 HD
BRANCH   5   7
ATOM      7  C   UNL A   1      34.463  31.026  27.603  1.00  0.00     0.039 A 
ATOM      8  C   UNL A   1      34.772  29.721  27.976  1.00  0.00     0.014 A 
ATOM      9  C   UNL A   1      35.410  32.039  27.791  1.00  0.00     0.014 A 
ATOM     10  C   UNL A   1      35.908  29.467  28.732  1.00  0.00     0.010 A 
ATOM     11  C   UNL A   1      36.619  31.754  28.439  1.00  0.00     0.010 A 
ATOM     12  C   UNL A   1      36.856  30.477  28.965  1.00  0.00    -0.014 A 
BRANCH  12  13
ATOM     13  C   UNL A   1      38.096  30.134  29.713  1.00  0.00     0.031 A 
ATOM     14  C   UNL A   1      38.311  30.586  31.134  1.00  0.00     0.074 A 
ATOM     15  C   UNL A   1      39.022  29.363  29.106  1.00  0.00     0.049 A 
ATOM     16  N   UNL A   1      39.298  30.296  31.945  1.00  0.00    -0.248 NA
ATOM     17  C   UNL A   1      37.304  31.485  31.720  1.00  0.00     0.031 C 
ATOM     18  C   UNL A   1      38.950  28.902  27.716  1.00  0.00     0.029 A 
ATOM     19  N   UNL A   1      40.185  28.811  29.575  1.00  0.00    -0.354 N 
ATOM     20  C   UNL A   1      39.062  31.014  33.111  1.00  0.00     0.074 A 
ATOM     21  C   UNL A   1      37.837  31.756  32.905  1.00  0.00     0.031 C 
ATOM     22  C   UNL A   1      39.985  28.089  27.466  1.00  0.00     0.029 A 
ATOM     23  C   UNL A   1      40.828  28.018  28.652  1.00  0.00     0.049 A 
ATOM     24  H   UNL A   1      40.529  28.966  30.485  1.00  0.00     0.167 HD
ATOM     25  C   UNL A   1      39.789  31.041  34.254  1.00  0.00     0.034 A 
ATOM     26  C   UNL A   1      41.971  27.312  28.744  1.00  0.00     0.034 A 
ATOM     27  C   UNL A   1      40.975  30.255  34.477  1.00  0.00     0.049 A 
ATOM     28  C   UNL A   1      42.724  27.318  30.041  1.00  0.00     0.074 A 
ATOM     29  C   UNL A   1      41.736  30.154  35.628  1.00  0.00     0.029 A 
ATOM     30  N   UNL A   1      41.574  29.438  33.530  1.00  0.00    -0.354 N 
ATOM     31  N   UNL A   1      42.410  27.900  31.173  1.00  0.00    -0.248 NA
ATOM     32  C   UNL A   1      43.977  26.553  30.082  1.00  0.00     0.031 C 
ATOM     33  C   UNL A   1      42.807  29.290  35.372  1.00  0.00     0.029 A 
ATOM     34  C   UNL A   1      42.701  28.837  34.067  1.00  0.00     0.049 A 
ATOM     35  H   UNL A   1      41.247  29.305  32.612  1.00  0.00     0.167 HD
ATOM     36  C   UNL A   1      43.413  27.553  32.069  1.00  0.00     0.074 A 
ATOM     37  C   UNL A   1      44.329  26.685  31.355  1.00  0.00     0.031 C 
ATOM     38  C   UNL A   1      43.574  27.936  33.359  1.00  0.00     0.034 A 
BRANCH  25  39
ATOM     39  C   UNL A   1      39.307  31.925  35.378  1.00  0.00     0.023 A 
ATOM     40  C   UNL A   1      38.417  31.408  36.340  1.00  0.00     0.012 A 
ATOM     41  C   UNL A   1      39.787  33.242  35.519  1.00  0.00     0.148 A 
ATOM     42  C   UNL A   1      37.990  32.197  37.409  1.00  0.00     0.002 A 
ATOM     43  C   UNL A   1      39.387  34.010  36.608  1.00  0.00     0.091 A 
ATOM     44  F   UNL A   1      40.615  33.726  34.582  1.00  0.00    -0.205 F 
ATOM     45  C   UNL A   1      38.482  33.492  37.548  1.00  0.00     0.022 A 
BRANCH  43  46
ATOM     46  S   UNL A   1      40.030  35.660  36.912  1.00  0.00     0.127 S 
ATOM     47  O   UNL A   1      39.352  36.017  38.157  1.00  0.00    -0.237 OA
ATOM     48  O   UNL A   1      41.466  35.415  37.050  1.00  0.00    -0.237 OA
ATOM     49  O   UNL A   1      39.662  36.451  35.745  1.00  0.00    -0.744 OA
ENDBRANCH  43  46
ENDBRANCH  25  39
BRANCH  26  50
ATOM     50  C   UNL A   1      42.426  26.490  27.588  1.00  0.00     0.023 A 
ATOM     51  C   UNL A   1      43.325  27.044  26.657  1.00  0.00     0.012 A 
ATOM     52  C   UNL A   1      42.022  25.149  27.437  1.00  0.00     0.148 A 
ATOM     53  C   UNL A   1      43.799  26.284  25.586  1.00  0.00     0.002 A 
ATOM     54  C   UNL A   1      42.545  24.379  26.404  1.00  0.00     0.091 A 
ATOM     55  F   UNL A   1      41.150  24.644  28.322  1.00  0.00    -0.205 F 
ATOM     56  C   UNL A   1      43.420  24.948  25.468  1.00  0.00     0.022 A 
BRANCH  54  57
ATOM     57  S   UNL A   1      42.226  22.616  26.274  1.00  0.00     0.127 S 
ATOM     58  O   UNL A   1      40.769  22.582  26.189  1.00  0.00    -0.237 OA
ATOM     59  O   UNL A   1      42.925  22.270  25.035  1.00  0.00    -0.237 OA
ATOM     60  O   UNL A   1      42.809  22.027  27.472  1.00  0.00    -0.744 OA
ENDBRANCH  54  57
ENDBRANCH  26  50
BRANCH  38  61
ATOM     61  C   UNL A   1      44.774  27.400  34.091  1.00  0.00     0.023 A 
ATOM     62  C   UNL A   1      45.981  28.126  34.077  1.00  0.00     0.012 A 
ATOM     63  C   UNL A   1      44.692  26.208  34.837  1.00  0.00     0.148 A 
ATOM     64  C   UNL A   1      47.099  27.655  34.765  1.00  0.00     0.002 A 
ATOM     65  C   UNL A   1      45.796  25.769  35.557  1.00  0.00     0.091 A 
ATOM     66  F   UNL A   1      43.542  25.518  34.820  1.00  0.00    -0.205 F 
ATOM     67  C   UNL A   1      47.004  26.485  35.513  1.00  0.00     0.022 A 
BRANCH  65  68
ATOM     68  S   UNL A   1      45.727  24.321  36.619  1.00  0.00     0.127 S 
ATOM     69  O   UNL A   1      44.657  24.682  37.547  1.00  0.00    -0.237 OA
ATOM     70  O   UNL A   1      45.383  23.255  35.675  1.00  0.00    -0.237 OA
ATOM     71  O   UNL A   1      47.055  24.196  37.203  1.00  0.00    -0.744 OA
ENDBRANCH  65  68
ENDBRANCH  38  61
ENDBRANCH  12  13
ENDBRANCH   5   7
ENDBRANCH   2   3
ENDBRANCH   1   2
BRANCH   1  72
ATOM     72  C   UNL A   1      31.865  27.570  23.998  1.00  0.00     0.117 C 
BRANCH  72  73
ATOM     73  N   UNL A   1      31.366  26.949  25.209  1.00  0.00    -0.356 N 
ATOM     74  C   UNL A   1      31.706  25.751  25.770  1.00  0.00     0.223 C 
ATOM     75  H   UNL A   1      30.683  27.464  25.696  1.00  0.00     0.163 HD
ATOM     76  O   UNL A   1      31.263  25.499  26.894  1.00  0.00    -0.275 OA
BRANCH  74  77
ATOM     77  C   UNL A   1      32.545  24.700  25.010  1.00  0.00     0.083 C 
BRANCH  77  78
ATOM     78  C   UNL A   1      34.008  24.962  25.416  1.00  0.00     0.049 C 
BRANCH  78  79
ATOM     79  C   UNL A   1      35.135  24.059  24.968  1.00  0.00    -0.047 A 
ATOM     80  C   UNL A   1      35.493  23.831  23.639  1.00  0.00     0.004 A 
ATOM     81  C   UNL A   1      35.850  23.372  25.967  1.00  0.00     0.004 A 
ATOM     82  C   UNL A   1      36.412  22.829  23.307  1.00  0.00     0.000 A 
ATOM     83  C   UNL A   1      36.814  22.416  25.641  1.00  0.00     0.000 A 
ATOM     84  C   UNL A   1      37.065  22.115  24.307  1.00  0.00     0.000 A 
ENDBRANCH  78  79
ENDBRANCH  77  78
BRANCH  77  85
ATOM     85  C   UNL A   1      31.852  23.304  25.029  1.00  0.00     0.023 C 
BRANCH  85  86
ATOM     86  C   UNL A   1      32.370  22.061  25.776  1.00  0.00     0.116 C 
BRANCH  86  87
ATOM     87  C   UNL A   1      32.967  20.894  25.016  1.00  0.00     0.389 C 
ATOM     88  F   UNL A   1      33.479  21.303  23.834  1.00  0.00    -0.171 F 
ATOM     89  F   UNL A   1      33.985  20.356  25.726  1.00  0.00    -0.171 F 
ATOM     90  F   UNL A   1      32.084  19.915  24.766  1.00  0.00    -0.171 F 
ENDBRANCH  86  87
ENDBRANCH  85  86
ENDBRANCH  77  85
ENDBRANCH  74  77
ENDBRANCH  72  73
ENDBRANCH   1  72
TORSDOF 18
ENDMDL
MODEL 2
REMARK VINA RESULT:     -10.9      1.755      2.529
REMARK SMILES O=C(NCCCNC(=O)[C@H](CCC(F)(F)F)Cc1ccccc1)c1ccc(-c2c3nc(c(-c4cccc(S(=O)(=O)[O-])c4F)c4ccc([nH]4)c(-c4cccc(S(=O)(=O)[O-])c4F)c4nc(c(-c5cccc(S(=O)(=O)[O-])c5F)c5ccc2[nH]5)C=C4)C=C3)cc1
REMARK SMILES IDX 5 1 4 2 3 3 1 4 2 5 24 7 25 8 86 9 26 10 85 11 27 12 28 13
REMARK SMILES IDX 29 14 79 15 30 16 84 17 78 18 80 19 31 20 83 21 77 22 76 23
REMARK SMILES IDX 32 25 64 26 44 27 63 28 45 29 48 30 62 31 81 32 46 33 47 34
REMARK SMILES IDX 61 36 82 37 49 38 33 39 34 40 42 41 35 42 37 43 43 44 36 45
REMARK SMILES IDX 38 46 39 47 40 48 41 49 65 50 66 51 74 52 67 53 69 54 75 55
REMARK SMILES IDX 68 56 70 57 71 58 72 59 73 60 50 61 51 62 59 63 52 64 54 65
REMARK SMILES IDX 60 66 53 67 55 68 56 69 57 70 58 71 6 72 7 73 8 74 9 76
REMARK SMILES IDX 10 77 17 78 18 79 19 80 23 81 20 82 22 83 21 84 11 85 12 86
REMARK SMILES IDX 13 87 14 88 15 89 16 90
REMARK H PARENT 3 6 80 24 48 35 7 75
REMARK Flexibility Score: inf
ROOT
ATOM      1  C   UNL A   1      32.808  29.208  24.238  1.00  0.00     0.042 C 
ENDROOT
BRANCH   1   2
ATOM      2  C   UNL A   1      32.511  29.349  25.719  1.00  0.00     0.118 C 
BRANCH   2   3
ATOM      3  N   UNL A   1      32.182  30.715  26.111  1.00  0.00    -0.352 N 
ATOM      4  O   UNL A   1      32.271  32.637  27.272  1.00  0.00    -0.269 OA
ATOM      5  C   UNL A   1      32.814  31.584  26.978  1.00  0.00     0.251 C 
ATOM      6  H   UNL A   1      31.373  31.079  25.684  1.00  0.00     0.163 HD
BRANCH   5   7
ATOM      7  C   UNL A   1      34.126  31.227  27.573  1.00  0.00     0.039 A 
ATOM      8  C   UNL A   1      34.411  29.916  27.945  1.00  0.00     0.014 A 
ATOM      9  C   UNL A   1      35.093  32.221  27.758  1.00  0.00     0.014 A 
ATOM     10  C   UNL A   1      35.545  29.640  28.698  1.00  0.00     0.010 A 
ATOM     11  C   UNL A   1      36.299  31.913  28.402  1.00  0.00     0.010 A 
ATOM     12  C   UNL A   1      36.513  30.631  28.928  1.00  0.00    -0.014 A 
BRANCH  12  13
ATOM     13  C   UNL A   1      37.749  30.265  29.671  1.00  0.00     0.031 A 
ATOM     14  C   UNL A   1      37.967  30.692  31.099  1.00  0.00     0.074 A 
ATOM     15  C   UNL A   1      38.667  29.494  29.054  1.00  0.00     0.049 A 
ATOM     16  N   UNL A   1      38.950  30.380  31.906  1.00  0.00    -0.248 NA
ATOM     17  C   UNL A   1      36.968  31.592  31.698  1.00  0.00     0.031 C 
ATOM     18  C   UNL A   1      38.593  29.055  27.656  1.00  0.00     0.029 A 
ATOM     19  N   UNL A   1      39.825  28.923  29.515  1.00  0.00    -0.354 N 
ATOM     20  C   UNL A   1      38.720  31.083  33.084  1.00  0.00     0.074 A 
ATOM     21  C   UNL A   1      37.503  31.840  32.887  1.00  0.00     0.031 C 
ATOM     22  C   UNL A   1      39.619  28.235  27.394  1.00  0.00     0.029 A 
ATOM     23  C   UNL A   1      40.461  28.138  28.580  1.00  0.00     0.049 A 
ATOM     24  H   UNL A   1      40.169  29.061  30.427  1.00  0.00     0.167 HD
ATOM     25  C   UNL A   1      39.446  31.085  34.228  1.00  0.00     0.034 A 
ATOM     26  C   UNL A   1      41.596  27.419  28.662  1.00  0.00     0.034 A 
ATOM     27  C   UNL A   1      40.624  30.284  34.439  1.00  0.00     0.049 A 
ATOM     28  C   UNL A   1      42.348  27.398  29.960  1.00  0.00     0.074 A 
ATOM     29  C   UNL A   1      41.383  30.157  35.589  1.00  0.00     0.029 A 
ATOM     30  N   UNL A   1      41.216  29.475  33.480  1.00  0.00    -0.354 N 
ATOM     31  N   UNL A   1      42.038  27.965  31.101  1.00  0.00    -0.248 NA
ATOM     32  C   UNL A   1      43.593  26.620  29.991  1.00  0.00     0.031 C 
ATOM     33  C   UNL A   1      42.445  29.286  35.321  1.00  0.00     0.029 A 
ATOM     34  C   UNL A   1      42.336  28.855  34.008  1.00  0.00     0.049 A 
ATOM     35  H   UNL A   1      40.888  29.360  32.560  1.00  0.00     0.167 HD
ATOM     36  C   UNL A   1      43.037  27.595  31.992  1.00  0.00     0.074 A 
ATOM     37  C   UNL A   1      43.945  26.729  31.265  1.00  0.00     0.031 C 
ATOM     38  C   UNL A   1      43.200  27.956  33.288  1.00  0.00     0.034 A 
BRANCH  25  39
ATOM     39  C   UNL A   1      38.972  31.957  35.364  1.00  0.00     0.023 A 
ATOM     40  C   UNL A   1      39.147  33.353  35.293  1.00  0.00     0.012 A 
ATOM     41  C   UNL A   1      38.293  31.402  36.466  1.00  0.00     0.148 A 
ATOM     42  C   UNL A   1      38.680  34.181  36.315  1.00  0.00     0.002 A 
ATOM     43  C   UNL A   1      37.796  32.236  37.463  1.00  0.00     0.091 A 
ATOM     44  F   UNL A   1      38.155  30.070  36.530  1.00  0.00    -0.205 F 
ATOM     45  C   UNL A   1      37.997  33.624  37.393  1.00  0.00     0.022 A 
BRANCH  43  46
ATOM     46  S   UNL A   1      36.836  31.616  38.849  1.00  0.00     0.127 S 
ATOM     47  O   UNL A   1      37.786  31.756  39.953  1.00  0.00    -0.237 OA
ATOM     48  O   UNL A   1      35.711  32.552  38.893  1.00  0.00    -0.237 OA
ATOM     49  O   UNL A   1      36.472  30.251  38.501  1.00  0.00    -0.744 OA
ENDBRANCH  43  46
ENDBRANCH  25  39
BRANCH  26  50
ATOM     50  C   UNL A   1      42.044  26.610  27.494  1.00  0.00     0.023 A 
ATOM     51  C   UNL A   1      42.845  27.211  26.504  1.00  0.00     0.012 A 
ATOM     52  C   UNL A   1      41.733  25.240  27.388  1.00  0.00     0.148 A 
ATOM     53  C   UNL A   1      43.311  26.466  25.419  1.00  0.00     0.002 A 
ATOM     54  C   UNL A   1      42.252  24.491  26.338  1.00  0.00     0.091 A 
ATOM     55  F   UNL A   1      40.953  24.690  28.330  1.00  0.00    -0.205 F 
ATOM     56  C   UNL A   1      43.027  25.105  25.344  1.00  0.00     0.022 A 
BRANCH  54  57
ATOM     57  S   UNL A   1      42.058  22.707  26.254  1.00  0.00     0.127 S 
ATOM     58  O   UNL A   1      42.733  22.276  27.474  1.00  0.00    -0.237 OA
ATOM     59  O   UNL A   1      40.602  22.557  26.267  1.00  0.00    -0.237 OA
ATOM     60  O   UNL A   1      42.686  22.308  25.002  1.00  0.00    -0.744 OA
ENDBRANCH  54  57
ENDBRANCH  26  50
BRANCH  38  61
ATOM     61  C   UNL A   1      44.395  27.397  34.013  1.00  0.00     0.023 A 
ATOM     62  C   UNL A   1      45.625  28.081  33.962  1.00  0.00     0.012 A 
ATOM     63  C   UNL A   1      44.285  26.226  34.788  1.00  0.00     0.148 A 
ATOM     64  C   UNL A   1      46.738  27.589  34.642  1.00  0.00     0.002 A 
ATOM     65  C   UNL A   1      45.387  25.767  35.500  1.00  0.00     0.091 A 
ATOM     66  F   UNL A   1      43.112  25.575  34.806  1.00  0.00    -0.205 F 
ATOM     67  C   UNL A   1      46.616  26.440  35.419  1.00  0.00     0.022 A 
BRANCH  65  68
ATOM     68  S   UNL A   1      45.287  24.347  36.597  1.00  0.00     0.127 S 
ATOM     69  O   UNL A   1      44.847  23.294  35.683  1.00  0.00    -0.237 OA
ATOM     70  O   UNL A   1      46.669  24.212  37.062  1.00  0.00    -0.237 OA
ATOM     71  O   UNL A   1      44.339  24.718  37.638  1.00  0.00    -0.744 OA
ENDBRANCH  65  68
ENDBRANCH  38  61
ENDBRANCH  12  13
ENDBRANCH   5   7
ENDBRANCH   2   3
ENDBRANCH   1   2
BRANCH   1  72
ATOM     72  C   UNL A   1      33.997  28.322  23.935  1.00  0.00     0.117 C 
BRANCH  72  73
ATOM     73  N   UNL A   1      33.933  27.618  22.670  1.00  0.00    -0.356 N 
ATOM     74  C   UNL A   1      33.507  26.347  22.408  1.00  0.00     0.223 C 
ATOM     75  H   UNL A   1      34.243  28.129  21.887  1.00  0.00     0.163 HD
ATOM     76  O   UNL A   1      33.393  26.014  21.225  1.00  0.00    -0.275 OA
BRANCH  74  77
ATOM     77  C   UNL A   1      33.251  25.322  23.534  1.00  0.00     0.083 C 
BRANCH  77  78
ATOM     78  C   UNL A   1      32.378  24.220  22.904  1.00  0.00     0.049 C 
BRANCH  78  79
ATOM     79  C   UNL A   1      32.183  22.876  23.570  1.00  0.00    -0.047 A 
ATOM     80  C   UNL A   1      31.735  22.693  24.879  1.00  0.00     0.004 A 
ATOM     81  C   UNL A   1      32.518  21.729  22.825  1.00  0.00     0.004 A 
ATOM     82  C   UNL A   1      31.777  21.430  25.479  1.00  0.00     0.000 A 
ATOM     83  C   UNL A   1      32.500  20.459  23.402  1.00  0.00     0.000 A 
ATOM     84  C   UNL A   1      32.169  20.314  24.744  1.00  0.00     0.000 A 
ENDBRANCH  78  79
ENDBRANCH  77  78
BRANCH  77  85
ATOM     85  C   UNL A   1      34.542  25.067  24.369  1.00  0.00     0.023 C 
BRANCH  85  86
ATOM     86  C   UNL A   1      35.443  23.823  24.261  1.00  0.00     0.116 C 
BRANCH  86  87
ATOM     87  C   UNL A   1      35.580  22.863  25.426  1.00  0.00     0.389 C 
ATOM     88  F   UNL A   1      34.751  23.211  26.434  1.00  0.00    -0.171 F 
ATOM     89  F   UNL A   1      35.232  21.616  25.036  1.00  0.00    -0.171 F 
ATOM     90  F   UNL A   1      36.826  22.801  25.919  1.00  0.00    -0.171 F 
ENDBRANCH  86  87
ENDBRANCH  85  86
ENDBRANCH  77  85
ENDBRANCH  74  77
ENDBRANCH  72  73
ENDBRANCH   1  72
TORSDOF 18
ENDMDL
MODEL 3
REMARK VINA RESULT:     -10.8      1.472      2.092
REMARK SMILES O=C(NCCCNC(=O)[C@H](CCC(F)(F)F)Cc1ccccc1)c1ccc(-c2c3nc(c(-c4cccc(S(=O)(=O)[O-])c4F)c4ccc([nH]4)c(-c4cccc(S(=O)(=O)[O-])c4F)c4nc(c(-c5cccc(S(=O)(=O)[O-])c5F)c5ccc2[nH]5)C=C4)C=C3)cc1
REMARK SMILES IDX 5 1 4 2 3 3 1 4 2 5 24 7 25 8 86 9 26 10 85 11 27 12 28 13
REMARK SMILES IDX 29 14 79 15 30 16 84 17 78 18 80 19 31 20 83 21 77 22 76 23
REMARK SMILES IDX 32 25 64 26 44 27 63 28 45 29 48 30 62 31 81 32 46 33 47 34
REMARK SMILES IDX 61 36 82 37 49 38 33 39 34 40 42 41 35 42 37 43 43 44 36 45
REMARK SMILES IDX 38 46 39 47 40 48 41 49 65 50 66 51 74 52 67 53 69 54 75 55
REMARK SMILES IDX 68 56 70 57 71 58 72 59 73 60 50 61 51 62 59 63 52 64 54 65
REMARK SMILES IDX 60 66 53 67 55 68 56 69 57 70 58 71 6 72 7 73 8 74 9 76
REMARK SMILES IDX 10 77 17 78 18 79 19 80 23 81 20 82 22 83 21 84 11 85 12 86
REMARK SMILES IDX 13 87 14 88 15 89 16 90
REMARK H PARENT 3 6 80 24 48 35 7 75
REMARK Flexibility Score: inf
ROOT
ATOM      1  C   UNL A   1      32.992  29.266  24.306  1.00  0.00     0.042 C 
ENDROOT
BRANCH   1   2
ATOM      2  C   UNL A   1      32.660  29.387  25.781  1.00  0.00     0.118 C 
BRANCH   2   3
ATOM      3  N   UNL A   1      32.330  30.749  26.184  1.00  0.00    -0.352 N 
ATOM      4  O   UNL A   1      32.421  32.663  27.359  1.00  0.00    -0.269 OA
ATOM      5  C   UNL A   1      32.966  31.614  27.054  1.00  0.00     0.251 C 
ATOM      6  H   UNL A   1      31.516  31.114  25.766  1.00  0.00     0.163 HD
BRANCH   5   7
ATOM      7  C   UNL A   1      34.283  31.256  27.637  1.00  0.00     0.039 A 
ATOM      8  C   UNL A   1      34.587  29.938  27.964  1.00  0.00     0.014 A 
ATOM      9  C   UNL A   1      35.235  32.258  27.857  1.00  0.00     0.014 A 
ATOM     10  C   UNL A   1      35.725  29.653  28.707  1.00  0.00     0.010 A 
ATOM     11  C   UNL A   1      36.445  31.946  28.491  1.00  0.00     0.010 A 
ATOM     12  C   UNL A   1      36.678  30.650  28.972  1.00  0.00    -0.014 A 
BRANCH  12  13
ATOM     13  C   UNL A   1      37.919  30.277  29.704  1.00  0.00     0.031 A 
ATOM     14  C   UNL A   1      38.149  30.695  31.132  1.00  0.00     0.074 A 
ATOM     15  C   UNL A   1      38.831  29.508  29.074  1.00  0.00     0.049 A 
ATOM     16  N   UNL A   1      39.138  30.376  31.929  1.00  0.00    -0.248 NA
ATOM     17  C   UNL A   1      37.157  31.594  31.745  1.00  0.00     0.031 C 
ATOM     18  C   UNL A   1      38.744  29.078  27.675  1.00  0.00     0.029 A 
ATOM     19  N   UNL A   1      39.991  28.932  29.522  1.00  0.00    -0.354 N 
ATOM     20  C   UNL A   1      38.919  31.073  33.113  1.00  0.00     0.074 A 
ATOM     21  C   UNL A   1      37.702  31.834  32.931  1.00  0.00     0.031 C 
ATOM     22  C   UNL A   1      39.767  28.257  27.399  1.00  0.00     0.029 A 
ATOM     23  C   UNL A   1      40.618  28.152  28.578  1.00  0.00     0.049 A 
ATOM     24  H   UNL A   1      40.343  29.064  30.433  1.00  0.00     0.167 HD
ATOM     25  C   UNL A   1      39.654  31.067  34.251  1.00  0.00     0.034 A 
ATOM     26  C   UNL A   1      41.752  27.430  28.647  1.00  0.00     0.034 A 
ATOM     27  C   UNL A   1      40.832  30.262  34.448  1.00  0.00     0.049 A 
ATOM     28  C   UNL A   1      42.515  27.400  29.938  1.00  0.00     0.074 A 
ATOM     29  C   UNL A   1      41.600  30.127  35.591  1.00  0.00     0.029 A 
ATOM     30  N   UNL A   1      41.415  29.458  33.480  1.00  0.00    -0.354 N 
ATOM     31  N   UNL A   1      42.215  27.961  31.085  1.00  0.00    -0.248 NA
ATOM     32  C   UNL A   1      43.759  26.619  29.954  1.00  0.00     0.031 C 
ATOM     33  C   UNL A   1      42.658  29.256  35.309  1.00  0.00     0.029 A 
ATOM     34  C   UNL A   1      42.538  28.833  33.995  1.00  0.00     0.049 A 
ATOM     35  H   UNL A   1      41.080  29.349  32.561  1.00  0.00     0.167 HD
ATOM     36  C   UNL A   1      43.221  27.583  31.966  1.00  0.00     0.074 A 
ATOM     37  C   UNL A   1      44.121  26.720  31.227  1.00  0.00     0.031 C 
ATOM     38  C   UNL A   1      43.394  27.936  33.263  1.00  0.00     0.034 A 
BRANCH  25  39
ATOM     39  C   UNL A   1      39.191  31.932  35.396  1.00  0.00     0.023 A 
ATOM     40  C   UNL A   1      38.307  31.403  36.358  1.00  0.00     0.012 A 
ATOM     41  C   UNL A   1      39.682  33.243  35.557  1.00  0.00     0.148 A 
ATOM     42  C   UNL A   1      37.897  32.174  37.446  1.00  0.00     0.002 A 
ATOM     43  C   UNL A   1      39.299  33.992  36.665  1.00  0.00     0.091 A 
ATOM     44  F   UNL A   1      40.503  33.739  34.621  1.00  0.00    -0.205 F 
ATOM     45  C   UNL A   1      38.401  33.463  37.605  1.00  0.00     0.022 A 
BRANCH  43  46
ATOM     46  S   UNL A   1      39.957  35.632  36.993  1.00  0.00     0.127 S 
ATOM     47  O   UNL A   1      41.385  35.354  37.140  1.00  0.00    -0.237 OA
ATOM     48  O   UNL A   1      39.601  36.360  35.774  1.00  0.00    -0.237 OA
ATOM     49  O   UNL A   1      39.279  36.099  38.194  1.00  0.00    -0.744 OA
ENDBRANCH  43  46
ENDBRANCH  25  39
BRANCH  26  50
ATOM     50  C   UNL A   1      42.189  26.627  27.470  1.00  0.00     0.023 A 
ATOM     51  C   UNL A   1      42.978  27.234  26.474  1.00  0.00     0.012 A 
ATOM     52  C   UNL A   1      41.881  25.257  27.362  1.00  0.00     0.148 A 
ATOM     53  C   UNL A   1      43.434  26.495  25.381  1.00  0.00     0.002 A 
ATOM     54  C   UNL A   1      42.389  24.514  26.302  1.00  0.00     0.091 A 
ATOM     55  F   UNL A   1      41.112  24.701  28.309  1.00  0.00    -0.205 F 
ATOM     56  C   UNL A   1      43.153  25.134  25.303  1.00  0.00     0.022 A 
BRANCH  54  57
ATOM     57  S   UNL A   1      42.199  22.730  26.212  1.00  0.00     0.127 S 
ATOM     58  O   UNL A   1      42.817  22.300  27.463  1.00  0.00    -0.237 OA
ATOM     59  O   UNL A   1      40.743  22.580  26.160  1.00  0.00    -0.237 OA
ATOM     60  O   UNL A   1      42.882  22.328  24.991  1.00  0.00    -0.744 OA
ENDBRANCH  54  57
ENDBRANCH  26  50
BRANCH  38  61
ATOM     61  C   UNL A   1      44.594  27.370  33.974  1.00  0.00     0.023 A 
ATOM     62  C   UNL A   1      45.824  28.054  33.920  1.00  0.00     0.012 A 
ATOM     63  C   UNL A   1      44.489  26.194  34.741  1.00  0.00     0.148 A 
ATOM     64  C   UNL A   1      46.942  27.555  34.588  1.00  0.00     0.002 A 
ATOM     65  C   UNL A   1      45.595  25.728  35.441  1.00  0.00     0.091 A 
ATOM     66  F   UNL A   1      43.316  25.543  34.762  1.00  0.00    -0.205 F 
ATOM     67  C   UNL A   1      46.825  26.400  35.357  1.00  0.00     0.022 A 
BRANCH  65  68
ATOM     68  S   UNL A   1      45.502  24.299  36.527  1.00  0.00     0.127 S 
ATOM     69  O   UNL A   1      44.495  24.725  37.497  1.00  0.00    -0.237 OA
ATOM     70  O   UNL A   1      45.063  23.240  35.617  1.00  0.00    -0.237 OA
ATOM     71  O   UNL A   1      46.848  24.116  37.054  1.00  0.00    -0.744 OA
ENDBRANCH  65  68
ENDBRANCH  38  61
ENDBRANCH  12  13
ENDBRANCH   5   7
ENDBRANCH   2   3
ENDBRANCH   1   2
BRANCH   1  72
ATOM     72  C   UNL A   1      32.160  28.234  23.575  1.00  0.00     0.117 C 
BRANCH  72  73
ATOM     73  N   UNL A   1      32.765  27.694  22.374  1.00  0.00    -0.356 N 
ATOM     74  C   UNL A   1      33.092  26.402  22.075  1.00  0.00     0.223 C 
ATOM     75  H   UNL A   1      32.971  28.354  21.672  1.00  0.00     0.163 HD
ATOM     76  O   UNL A   1      33.454  26.156  20.921  1.00  0.00    -0.275 OA
BRANCH  74  77
ATOM     77  C   UNL A   1      33.094  25.290  23.147  1.00  0.00     0.083 C 
BRANCH  77  78
ATOM     78  C   UNL A   1      33.154  23.961  22.369  1.00  0.00     0.049 C 
BRANCH  78  79
ATOM     79  C   UNL A   1      33.056  22.623  23.066  1.00  0.00    -0.047 A 
ATOM     80  C   UNL A   1      33.799  22.251  24.187  1.00  0.00     0.004 A 
ATOM     81  C   UNL A   1      32.176  21.671  22.517  1.00  0.00     0.004 A 
ATOM     82  C   UNL A   1      33.793  20.928  24.643  1.00  0.00     0.000 A 
ATOM     83  C   UNL A   1      32.120  20.366  23.011  1.00  0.00     0.000 A 
ATOM     84  C   UNL A   1      32.961  19.984  24.049  1.00  0.00     0.000 A 
ENDBRANCH  78  79
ENDBRANCH  77  78
BRANCH  77  85
ATOM     85  C   UNL A   1      34.020  25.664  24.344  1.00  0.00     0.023 C 
BRANCH  85  86
ATOM     86  C   UNL A   1      33.657  25.513  25.833  1.00  0.00     0.116 C 
BRANCH  86  87
ATOM     87  C   UNL A   1      32.209  25.411  26.269  1.00  0.00     0.389 C 
ATOM     88  F   UNL A   1      32.015  24.319  27.040  1.00  0.00    -0.171 F 
ATOM     89  F   UNL A   1      31.877  26.490  27.014  1.00  0.00    -0.171 F 
ATOM     90  F   UNL A   1      31.348  25.348  25.241  1.00  0.00    -0.171 F 
ENDBRANCH  86  87
ENDBRANCH  85  86
ENDBRANCH  77  85
ENDBRANCH  74  77
ENDBRANCH  72  73
ENDBRANCH   1  72
TORSDOF 18
ENDMDL
