MODEL 1
REMARK VINA RESULT:     -12.0      0.000      0.000
REMARK SMILES Cc1n[nH]c(C)c1CC(=O)N1CC[C@H](C(=O)NCCCNC(=O)c2ccc(-c3c4nc(c(-c5cccc(S(=O)(=O)[O-])c5F)c5ccc([nH]5)c(-c5cccc(S(=O)(=O)[O-])c5F)c5nc(c(-c6cccc(S(=O)(=O)[O-])c6F)c6ccc3[nH]6)C=C5)C=C4)cc2)[C@H]1C
REMARK SMILES IDX 19 1 18 2 17 3 15 4 16 5 14 7 11 8 12 9 87 10 13 11 88 12
REMARK SMILES IDX 9 13 10 14 8 15 7 16 1 17 2 18 3 19 4 20 5 21 6 23 20 24
REMARK SMILES IDX 21 25 22 26 23 28 24 29 25 30 86 31 26 32 85 33 27 34 28 35
REMARK SMILES IDX 29 36 79 37 30 38 84 39 78 40 80 41 31 42 83 43 77 44 76 45
REMARK SMILES IDX 32 47 64 48 44 49 63 50 45 51 48 52 62 53 81 54 46 55 47 56
REMARK SMILES IDX 61 58 82 59 49 60 33 61 34 62 42 63 35 64 37 65 43 66 36 67
REMARK SMILES IDX 38 68 39 69 40 70 41 71 65 72 66 73 74 74 67 75 69 76 75 77
REMARK SMILES IDX 68 78 70 79 71 80 72 81 73 82 50 83 51 84 59 85 52 86 54 87
REMARK SMILES IDX 60 88 53 89 55 90 56 91 57 92 58 93
REMARK H PARENT 17 6 4 22 21 27 80 46 48 57
REMARK Flexibility Score: inf
ROOT
ATOM      1  C   UNL A   1      33.661  28.119  24.593  1.00  0.00     0.042 C 
ENDROOT
BRANCH   1   2
ATOM      2  C   UNL A   1      32.615  27.014  24.529  1.00  0.00     0.117 C 
BRANCH   2   3
ATOM      3  N   UNL A   1      33.021  25.976  23.606  1.00  0.00    -0.356 N 
ATOM      4  C   UNL A   1      33.998  25.038  23.692  1.00  0.00     0.225 C 
ATOM      5  O   UNL A   1      34.179  24.353  22.681  1.00  0.00    -0.275 OA
ATOM      6  H   UNL A   1      32.498  25.944  22.772  1.00  0.00     0.163 HD
BRANCH   4   7
ATOM      7  C   UNL A   1      34.712  24.735  25.010  1.00  0.00     0.102 C 
ATOM      8  N   UNL A   1      34.706  22.392  25.452  1.00  0.00    -0.339 N 
ATOM      9  C   UNL A   1      33.415  22.927  25.861  1.00  0.00     0.120 C 
ATOM     10  C   UNL A   1      35.612  23.479  25.071  1.00  0.00     0.094 C 
ATOM     11  C   UNL A   1      33.669  24.410  26.094  1.00  0.00     0.037 C 
ATOM     12  C   UNL A   1      36.709  23.703  26.114  1.00  0.00     0.032 C 
BRANCH   8  13
ATOM     13  C   UNL A   1      34.824  21.036  25.193  1.00  0.00     0.227 C 
ATOM     14  O   UNL A   1      35.847  20.621  24.632  1.00  0.00    -0.275 OA
BRANCH  13  15
ATOM     15  C   UNL A   1      33.643  20.080  25.364  1.00  0.00     0.139 C 
BRANCH  15  16
ATOM     16  C   UNL A   1      33.084  19.382  24.170  1.00  0.00     0.005 A 
ATOM     17  C   UNL A   1      34.209  17.019  24.344  1.00  0.00     0.069 C 
ATOM     18  C   UNL A   1      33.308  18.040  23.748  1.00  0.00     0.063 A 
ATOM     19  N   UNL A   1      32.603  17.745  22.648  1.00  0.00    -0.181 NA
ATOM     20  N   UNL A   1      32.151  18.931  22.230  1.00  0.00    -0.282 N 
ATOM     21  C   UNL A   1      32.410  19.952  23.098  1.00  0.00     0.036 A 
ATOM     22  H   UNL A   1      31.675  19.055  21.378  1.00  0.00     0.190 HD
ATOM     23  C   UNL A   1      32.089  21.358  22.748  1.00  0.00     0.066 C 
ENDBRANCH  15  16
ENDBRANCH  13  15
ENDBRANCH   8  13
ENDBRANCH   4   7
ENDBRANCH   2   3
ENDBRANCH   1   2
BRANCH   1  24
ATOM     24  C   UNL A   1      34.145  28.463  25.996  1.00  0.00     0.118 C 
BRANCH  24  25
ATOM     25  N   UNL A   1      33.850  29.839  26.367  1.00  0.00    -0.352 N 
ATOM     26  C   UNL A   1      34.463  30.637  27.302  1.00  0.00     0.251 C 
ATOM     27  H   UNL A   1      33.104  30.257  25.878  1.00  0.00     0.163 HD
ATOM     28  O   UNL A   1      33.943  31.706  27.622  1.00  0.00    -0.269 OA
BRANCH  26  29
ATOM     29  C   UNL A   1      35.734  30.212  27.932  1.00  0.00     0.039 A 
ATOM     30  C   UNL A   1      35.709  29.695  29.230  1.00  0.00     0.014 A 
ATOM     31  C   UNL A   1      36.948  30.330  27.250  1.00  0.00     0.014 A 
ATOM     32  C   UNL A   1      36.891  29.236  29.819  1.00  0.00     0.010 A 
ATOM     33  C   UNL A   1      38.109  29.800  27.805  1.00  0.00     0.010 A 
ATOM     34  C   UNL A   1      38.096  29.251  29.097  1.00  0.00    -0.014 A 
BRANCH  34  35
ATOM     35  C   UNL A   1      39.350  28.678  29.655  1.00  0.00     0.031 A 
ATOM     36  C   UNL A   1      40.071  29.377  30.775  1.00  0.00     0.074 A 
ATOM     37  C   UNL A   1      39.906  27.599  29.070  1.00  0.00     0.049 A 
ATOM     38  N   UNL A   1      41.232  29.101  31.310  1.00  0.00    -0.248 NA
ATOM     39  C   UNL A   1      39.414  30.563  31.348  1.00  0.00     0.031 C 
ATOM     40  C   UNL A   1      39.349  26.879  27.924  1.00  0.00     0.029 A 
ATOM     41  N   UNL A   1      41.087  26.947  29.331  1.00  0.00    -0.354 N 
ATOM     42  C   UNL A   1      41.471  30.106  32.238  1.00  0.00     0.074 A 
ATOM     43  C   UNL A   1      40.343  31.009  32.181  1.00  0.00     0.031 C 
ATOM     44  C   UNL A   1      40.192  25.896  27.570  1.00  0.00     0.029 A 
ATOM     45  C   UNL A   1      41.367  25.942  28.434  1.00  0.00     0.049 A 
ATOM     46  H   UNL A   1      41.676  27.178  30.085  1.00  0.00     0.167 HD
ATOM     47  C   UNL A   1      42.528  30.258  33.074  1.00  0.00     0.034 A 
ATOM     48  C   UNL A   1      42.458  25.162  28.300  1.00  0.00     0.034 A 
ATOM     49  C   UNL A   1      43.631  29.337  33.153  1.00  0.00     0.049 A 
ATOM     50  C   UNL A   1      43.598  25.316  29.270  1.00  0.00     0.074 A 
ATOM     51  C   UNL A   1      44.690  29.340  34.042  1.00  0.00     0.029 A 
ATOM     52  N   UNL A   1      43.830  28.265  32.297  1.00  0.00    -0.354 N 
ATOM     53  N   UNL A   1      43.731  26.170  30.255  1.00  0.00    -0.248 NA
ATOM     54  C   UNL A   1      44.720  24.376  29.136  1.00  0.00     0.031 C 
ATOM     55  C   UNL A   1      45.553  28.294  33.696  1.00  0.00     0.029 A 
ATOM     56  C   UNL A   1      45.007  27.611  32.623  1.00  0.00     0.049 A 
ATOM     57  H   UNL A   1      43.224  28.006  31.565  1.00  0.00     0.167 HD
ATOM     58  C   UNL A   1      44.931  25.851  30.879  1.00  0.00     0.074 A 
ATOM     59  C   UNL A   1      45.480  24.715  30.170  1.00  0.00     0.031 C 
ATOM     60  C   UNL A   1      45.525  26.452  31.940  1.00  0.00     0.034 A 
BRANCH  47  61
ATOM     61  C   UNL A   1      42.531  31.457  33.987  1.00  0.00     0.023 A 
ATOM     62  C   UNL A   1      43.066  32.684  33.540  1.00  0.00     0.012 A 
ATOM     63  C   UNL A   1      41.968  31.382  35.277  1.00  0.00     0.148 A 
ATOM     64  C   UNL A   1      43.084  33.800  34.377  1.00  0.00     0.002 A 
ATOM     65  C   UNL A   1      41.944  32.512  36.086  1.00  0.00     0.091 A 
ATOM     66  F   UNL A   1      41.481  30.205  35.695  1.00  0.00    -0.205 F 
ATOM     67  C   UNL A   1      42.516  33.716  35.645  1.00  0.00     0.022 A 
BRANCH  65  68
ATOM     68  S   UNL A   1      41.154  32.528  37.699  1.00  0.00     0.127 S 
ATOM     69  O   UNL A   1      41.288  33.933  38.080  1.00  0.00    -0.237 OA
ATOM     70  O   UNL A   1      39.789  32.112  37.377  1.00  0.00    -0.237 OA
ATOM     71  O   UNL A   1      41.897  31.581  38.519  1.00  0.00    -0.744 OA
ENDBRANCH  65  68
ENDBRANCH  47  61
BRANCH  48  72
ATOM     72  C   UNL A   1      42.496  24.137  27.218  1.00  0.00     0.023 A 
ATOM     73  C   UNL A   1      43.171  24.422  26.016  1.00  0.00     0.012 A 
ATOM     74  C   UNL A   1      41.922  22.864  27.402  1.00  0.00     0.148 A 
ATOM     75  C   UNL A   1      43.255  23.463  25.005  1.00  0.00     0.002 A 
ATOM     76  C   UNL A   1      42.060  21.895  26.416  1.00  0.00     0.091 A 
ATOM     77  F   UNL A   1      41.280  22.618  28.553  1.00  0.00    -0.205 F 
ATOM     78  C   UNL A   1      42.710  22.198  25.210  1.00  0.00     0.022 A 
BRANCH  76  79
ATOM     79  S   UNL A   1      41.513  20.199  26.643  1.00  0.00     0.127 S 
ATOM     80  O   UNL A   1      40.072  20.369  26.816  1.00  0.00    -0.237 OA
ATOM     81  O   UNL A   1      41.910  19.584  25.375  1.00  0.00    -0.237 OA
ATOM     82  O   UNL A   1      42.232  19.700  27.806  1.00  0.00    -0.744 OA
ENDBRANCH  76  79
ENDBRANCH  48  72
BRANCH  60  83
ATOM     83  C   UNL A   1      46.822  25.872  32.444  1.00  0.00     0.023 A 
ATOM     84  C   UNL A   1      48.053  26.364  31.967  1.00  0.00     0.012 A 
ATOM     85  C   UNL A   1      46.816  24.895  33.461  1.00  0.00     0.148 A 
ATOM     86  C   UNL A   1      49.256  25.873  32.473  1.00  0.00     0.002 A 
ATOM     87  C   UNL A   1      48.017  24.449  33.998  1.00  0.00     0.091 A 
ATOM     88  F   UNL A   1      45.635  24.425  33.888  1.00  0.00    -0.205 F 
ATOM     89  C   UNL A   1      49.238  24.927  33.497  1.00  0.00     0.022 A 
BRANCH  87  90
ATOM     90  S   UNL A   1      48.090  23.310  35.385  1.00  0.00     0.127 S 
ATOM     91  O   UNL A   1      47.493  24.106  36.456  1.00  0.00    -0.237 OA
ATOM     92  O   UNL A   1      47.261  22.198  34.916  1.00  0.00    -0.237 OA
ATOM     93  O   UNL A   1      49.498  22.980  35.563  1.00  0.00    -0.744 OA
ENDBRANCH  87  90
ENDBRANCH  60  83
ENDBRANCH  34  35
ENDBRANCH  26  29
ENDBRANCH  24  25
ENDBRANCH   1  24
TORSDOF 16
ENDMDL
MODEL 2
REMARK VINA RESULT:     -11.8      5.361      8.795
REMARK SMILES Cc1n[nH]c(C)c1CC(=O)N1CC[C@H](C(=O)NCCCNC(=O)c2ccc(-c3c4nc(c(-c5cccc(S(=O)(=O)[O-])c5F)c5ccc([nH]5)c(-c5cccc(S(=O)(=O)[O-])c5F)c5nc(c(-c6cccc(S(=O)(=O)[O-])c6F)c6ccc3[nH]6)C=C5)C=C4)cc2)[C@H]1C
REMARK SMILES IDX 19 1 18 2 17 3 15 4 16 5 14 7 11 8 12 9 87 10 13 11 88 12
REMARK SMILES IDX 9 13 10 14 8 15 7 16 1 17 2 18 3 19 4 20 5 21 6 23 20 24
REMARK SMILES IDX 21 25 22 26 23 28 24 29 25 30 86 31 26 32 85 33 27 34 28 35
REMARK SMILES IDX 29 36 79 37 30 38 84 39 78 40 80 41 31 42 83 43 77 44 76 45
REMARK SMILES IDX 32 47 64 48 44 49 63 50 45 51 48 52 62 53 81 54 46 55 47 56
REMARK SMILES IDX 61 58 82 59 49 60 33 61 34 62 42 63 35 64 37 65 43 66 36 67
REMARK SMILES IDX 38 68 39 69 40 70 41 71 65 72 66 73 74 74 67 75 69 76 75 77
REMARK SMILES IDX 68 78 70 79 71 80 72 81 73 82 50 83 51 84 59 85 52 86 54 87
REMARK SMILES IDX 60 88 53 89 55 90 56 91 57 92 58 93
REMARK H PARENT 17 6 4 22 21 27 80 46 48 57
REMARK Flexibility Score: inf
ROOT
ATOM      1  C   UNL A   1      37.740  19.894  25.009  1.00  0.00     0.042 C 
ENDROOT
BRANCH   1   2
ATOM      2  C   UNL A   1      36.711  20.975  24.706  1.00  0.00     0.117 C 
BRANCH   2   3
ATOM      3  N   UNL A   1      35.575  20.866  25.597  1.00  0.00    -0.356 N 
ATOM      4  C   UNL A   1      34.645  21.780  25.973  1.00  0.00     0.225 C 
ATOM      5  O   UNL A   1      33.853  21.415  26.846  1.00  0.00    -0.275 OA
ATOM      6  H   UNL A   1      35.457  19.975  25.998  1.00  0.00     0.163 HD
BRANCH   4   7
ATOM      7  C   UNL A   1      34.483  23.113  25.242  1.00  0.00     0.102 C 
ATOM      8  N   UNL A   1      32.333  24.052  25.670  1.00  0.00    -0.339 N 
ATOM      9  C   UNL A   1      32.183  23.051  24.623  1.00  0.00     0.120 C 
ATOM     10  C   UNL A   1      33.750  24.257  25.982  1.00  0.00     0.094 C 
ATOM     11  C   UNL A   1      33.573  22.917  24.016  1.00  0.00     0.037 C 
ATOM     12  C   UNL A   1      34.264  25.599  25.457  1.00  0.00     0.032 C 
BRANCH   8  13
ATOM     13  C   UNL A   1      31.222  24.434  26.404  1.00  0.00     0.227 C 
ATOM     14  O   UNL A   1      30.869  23.734  27.363  1.00  0.00    -0.275 OA
BRANCH  13  15
ATOM     15  C   UNL A   1      30.289  25.549  25.928  1.00  0.00     0.139 C 
BRANCH  15  16
ATOM     16  C   UNL A   1      30.870  26.805  25.372  1.00  0.00     0.005 A 
ATOM     17  C   UNL A   1      31.142  26.205  22.833  1.00  0.00     0.069 C 
ATOM     18  C   UNL A   1      31.210  27.097  24.019  1.00  0.00     0.063 A 
ATOM     19  N   UNL A   1      31.670  28.349  23.886  1.00  0.00    -0.181 NA
ATOM     20  N   UNL A   1      31.867  28.753  25.144  1.00  0.00    -0.282 N 
ATOM     21  C   UNL A   1      31.411  27.870  26.081  1.00  0.00     0.036 A 
ATOM     22  H   UNL A   1      32.298  29.607  25.374  1.00  0.00     0.190 HD
ATOM     23  C   UNL A   1      31.649  28.094  27.528  1.00  0.00     0.066 C 
ENDBRANCH  15  16
ENDBRANCH  13  15
ENDBRANCH   8  13
ENDBRANCH   4   7
ENDBRANCH   2   3
ENDBRANCH   1   2
BRANCH   1  24
ATOM     24  C   UNL A   1      38.951  20.367  25.804  1.00  0.00     0.118 C 
BRANCH  24  25
ATOM     25  N   UNL A   1      39.976  19.341  25.923  1.00  0.00    -0.352 N 
ATOM     26  C   UNL A   1      41.331  19.484  26.100  1.00  0.00     0.251 C 
ATOM     27  H   UNL A   1      39.652  18.412  25.869  1.00  0.00     0.163 HD
ATOM     28  O   UNL A   1      42.066  18.504  25.972  1.00  0.00    -0.269 OA
BRANCH  26  29
ATOM     29  C   UNL A   1      41.908  20.807  26.428  1.00  0.00     0.039 A 
ATOM     30  C   UNL A   1      42.119  21.731  25.401  1.00  0.00     0.014 A 
ATOM     31  C   UNL A   1      42.251  21.134  27.743  1.00  0.00     0.014 A 
ATOM     32  C   UNL A   1      42.610  23.005  25.701  1.00  0.00     0.010 A 
ATOM     33  C   UNL A   1      42.664  22.427  28.050  1.00  0.00     0.010 A 
ATOM     34  C   UNL A   1      42.852  23.376  27.034  1.00  0.00    -0.014 A 
BRANCH  34  35
ATOM     35  C   UNL A   1      43.277  24.755  27.396  1.00  0.00     0.031 A 
ATOM     36  C   UNL A   1      42.305  25.703  28.042  1.00  0.00     0.074 A 
ATOM     37  C   UNL A   1      44.497  25.193  27.029  1.00  0.00     0.049 A 
ATOM     38  N   UNL A   1      42.449  26.973  28.320  1.00  0.00    -0.248 NA
ATOM     39  C   UNL A   1      40.982  25.161  28.392  1.00  0.00     0.031 C 
ATOM     40  C   UNL A   1      45.503  24.397  26.324  1.00  0.00     0.029 A 
ATOM     41  N   UNL A   1      45.081  26.429  27.158  1.00  0.00    -0.354 N 
ATOM     42  C   UNL A   1      41.224  27.394  28.823  1.00  0.00     0.074 A 
ATOM     43  C   UNL A   1      40.341  26.249  28.794  1.00  0.00     0.031 C 
ATOM     44  C   UNL A   1      46.572  25.166  26.068  1.00  0.00     0.029 A 
ATOM     45  C   UNL A   1      46.314  26.519  26.553  1.00  0.00     0.049 A 
ATOM     46  H   UNL A   1      44.660  27.179  27.637  1.00  0.00     0.167 HD
ATOM     47  C   UNL A   1      40.869  28.620  29.280  1.00  0.00     0.034 A 
ATOM     48  C   UNL A   1      47.134  27.574  26.377  1.00  0.00     0.034 A 
ATOM     49  C   UNL A   1      41.761  29.747  29.340  1.00  0.00     0.049 A 
ATOM     50  C   UNL A   1      46.739  28.914  26.938  1.00  0.00     0.074 A 
ATOM     51  C   UNL A   1      41.533  30.996  29.889  1.00  0.00     0.029 A 
ATOM     52  N   UNL A   1      43.043  29.771  28.812  1.00  0.00    -0.354 N 
ATOM     53  N   UNL A   1      45.639  29.253  27.563  1.00  0.00    -0.248 NA
ATOM     54  C   UNL A   1      47.713  30.006  26.801  1.00  0.00     0.031 C 
ATOM     55  C   UNL A   1      42.661  31.789  29.655  1.00  0.00     0.029 A 
ATOM     56  C   UNL A   1      43.611  31.020  29.003  1.00  0.00     0.049 A 
ATOM     57  H   UNL A   1      43.485  29.012  28.366  1.00  0.00     0.167 HD
ATOM     58  C   UNL A   1      45.800  30.585  27.926  1.00  0.00     0.074 A 
ATOM     59  C   UNL A   1      47.111  30.987  27.463  1.00  0.00     0.031 C 
ATOM     60  C   UNL A   1      44.935  31.401  28.578  1.00  0.00     0.034 A 
BRANCH  47  61
ATOM     61  C   UNL A   1      39.456  28.800  29.773  1.00  0.00     0.023 A 
ATOM     62  C   UNL A   1      39.116  28.437  31.093  1.00  0.00     0.012 A 
ATOM     63  C   UNL A   1      38.470  29.369  28.941  1.00  0.00     0.148 A 
ATOM     64  C   UNL A   1      37.810  28.589  31.559  1.00  0.00     0.002 A 
ATOM     65  C   UNL A   1      37.184  29.565  29.430  1.00  0.00     0.091 A 
ATOM     66  F   UNL A   1      38.803  29.692  27.683  1.00  0.00    -0.205 F 
ATOM     67  C   UNL A   1      36.848  29.160  30.732  1.00  0.00     0.022 A 
BRANCH  65  68
ATOM     68  S   UNL A   1      35.900  30.375  28.471  1.00  0.00     0.127 S 
ATOM     69  O   UNL A   1      35.165  31.095  29.510  1.00  0.00    -0.237 OA
ATOM     70  O   UNL A   1      36.678  31.230  27.574  1.00  0.00    -0.237 OA
ATOM     71  O   UNL A   1      35.164  29.311  27.805  1.00  0.00    -0.744 OA
ENDBRANCH  65  68
ENDBRANCH  47  61
BRANCH  48  72
ATOM     72  C   UNL A   1      48.431  27.383  25.669  1.00  0.00     0.023 A 
ATOM     73  C   UNL A   1      49.563  26.964  26.394  1.00  0.00     0.012 A 
ATOM     74  C   UNL A   1      48.531  27.554  24.275  1.00  0.00     0.148 A 
ATOM     75  C   UNL A   1      50.777  26.739  25.746  1.00  0.00     0.002 A 
ATOM     76  C   UNL A   1      49.727  27.271  23.627  1.00  0.00     0.091 A 
ATOM     77  F   UNL A   1      47.442  27.959  23.606  1.00  0.00    -0.205 F 
ATOM     78  C   UNL A   1      50.857  26.881  24.363  1.00  0.00     0.022 A 
BRANCH  76  79
ATOM     79  S   UNL A   1      49.889  27.293  21.838  1.00  0.00     0.127 S 
ATOM     80  O   UNL A   1      51.269  26.846  21.656  1.00  0.00    -0.237 OA
ATOM     81  O   UNL A   1      48.870  26.323  21.433  1.00  0.00    -0.237 OA
ATOM     82  O   UNL A   1      49.612  28.663  21.429  1.00  0.00    -0.744 OA
ENDBRANCH  76  79
ENDBRANCH  48  72
BRANCH  60  83
ATOM     83  C   UNL A   1      45.383  32.808  28.882  1.00  0.00     0.023 A 
ATOM     84  C   UNL A   1      46.130  33.080  30.044  1.00  0.00     0.012 A 
ATOM     85  C   UNL A   1      45.133  33.847  27.962  1.00  0.00     0.148 A 
ATOM     86  C   UNL A   1      46.599  34.368  30.300  1.00  0.00     0.002 A 
ATOM     87  C   UNL A   1      45.647  35.116  28.197  1.00  0.00     0.091 A 
ATOM     88  F   UNL A   1      44.403  33.573  26.871  1.00  0.00    -0.205 F 
ATOM     89  C   UNL A   1      46.369  35.382  29.371  1.00  0.00     0.022 A 
BRANCH  87  90
ATOM     90  S   UNL A   1      45.489  36.456  27.011  1.00  0.00     0.127 S 
ATOM     91  O   UNL A   1      46.284  35.957  25.890  1.00  0.00    -0.237 OA
ATOM     92  O   UNL A   1      44.046  36.487  26.770  1.00  0.00    -0.237 OA
ATOM     93  O   UNL A   1      46.016  37.643  27.670  1.00  0.00    -0.744 OA
ENDBRANCH  87  90
ENDBRANCH  60  83
ENDBRANCH  34  35
ENDBRANCH  26  29
ENDBRANCH  24  25
ENDBRANCH   1  24
TORSDOF 16
ENDMDL
MODEL 3
REMARK VINA RESULT:     -11.8      3.466      8.773
REMARK SMILES Cc1n[nH]c(C)c1CC(=O)N1CC[C@H](C(=O)NCCCNC(=O)c2ccc(-c3c4nc(c(-c5cccc(S(=O)(=O)[O-])c5F)c5ccc([nH]5)c(-c5cccc(S(=O)(=O)[O-])c5F)c5nc(c(-c6cccc(S(=O)(=O)[O-])c6F)c6ccc3[nH]6)C=C5)C=C4)cc2)[C@H]1C
REMARK SMILES IDX 19 1 18 2 17 3 15 4 16 5 14 7 11 8 12 9 87 10 13 11 88 12
REMARK SMILES IDX 9 13 10 14 8 15 7 16 1 17 2 18 3 19 4 20 5 21 6 23 20 24
REMARK SMILES IDX 21 25 22 26 23 28 24 29 25 30 86 31 26 32 85 33 27 34 28 35
REMARK SMILES IDX 29 36 79 37 30 38 84 39 78 40 80 41 31 42 83 43 77 44 76 45
REMARK SMILES IDX 32 47 64 48 44 49 63 50 45 51 48 52 62 53 81 54 46 55 47 56
REMARK SMILES IDX 61 58 82 59 49 60 33 61 34 62 42 63 35 64 37 65 43 66 36 67
REMARK SMILES IDX 38 68 39 69 40 70 41 71 65 72 66 73 74 74 67 75 69 76 75 77
REMARK SMILES IDX 68 78 70 79 71 80 72 81 73 82 50 83 51 84 59 85 52 86 54 87
REMARK SMILES IDX 60 88 53 89 55 90 56 91 57 92 58 93
REMARK H PARENT 17 6 4 22 21 27 80 46 48 57
REMARK Flexibility Score: inf
ROOT
ATOM      1  C   UNL A   1      31.641  31.836  26.596  1.00  0.00     0.042 C 
ENDROOT
BRANCH   1   2
ATOM      2  C   UNL A   1      31.947  30.470  25.996  1.00  0.00     0.117 C 
BRANCH   2   3
ATOM      3  N   UNL A   1      31.828  29.432  26.998  1.00  0.00    -0.356 N 
ATOM      4  C   UNL A   1      31.440  28.135  26.897  1.00  0.00     0.225 C 
ATOM      5  O   UNL A   1      31.331  27.520  27.962  1.00  0.00    -0.275 OA
ATOM      6  H   UNL A   1      32.069  29.715  27.909  1.00  0.00     0.163 HD
BRANCH   4   7
ATOM      7  C   UNL A   1      31.313  27.434  25.544  1.00  0.00     0.102 C 
ATOM      8  N   UNL A   1      32.026  25.164  25.701  1.00  0.00    -0.339 N 
ATOM      9  C   UNL A   1      33.213  25.996  25.562  1.00  0.00     0.120 C 
ATOM     10  C   UNL A   1      30.814  25.970  25.533  1.00  0.00     0.094 C 
ATOM     11  C   UNL A   1      32.710  27.279  24.915  1.00  0.00     0.037 C 
ATOM     12  C   UNL A   1      30.120  25.690  24.199  1.00  0.00     0.032 C 
BRANCH   8  13
ATOM     13  C   UNL A   1      32.152  23.892  26.235  1.00  0.00     0.227 C 
ATOM     14  O   UNL A   1      31.673  23.662  27.354  1.00  0.00    -0.275 OA
BRANCH  13  15
ATOM     15  C   UNL A   1      33.059  22.839  25.597  1.00  0.00     0.139 C 
BRANCH  15  16
ATOM     16  C   UNL A   1      32.661  22.214  24.301  1.00  0.00     0.005 A 
ATOM     17  C   UNL A   1      32.521  19.675  24.941  1.00  0.00     0.069 C 
ATOM     18  C   UNL A   1      32.398  20.841  24.028  1.00  0.00     0.063 A 
ATOM     19  N   UNL A   1      32.024  20.655  22.755  1.00  0.00    -0.181 NA
ATOM     20  N   UNL A   1      32.294  21.824  22.168  1.00  0.00    -0.282 N 
ATOM     21  C   UNL A   1      32.683  22.799  23.042  1.00  0.00     0.036 A 
ATOM     22  H   UNL A   1      32.217  21.970  21.198  1.00  0.00     0.190 HD
ATOM     23  C   UNL A   1      33.138  24.126  22.559  1.00  0.00     0.066 C 
ENDBRANCH  15  16
ENDBRANCH  13  15
ENDBRANCH   8  13
ENDBRANCH   4   7
ENDBRANCH   2   3
ENDBRANCH   1   2
BRANCH   1  24
ATOM     24  C   UNL A   1      32.803  32.484  27.338  1.00  0.00     0.118 C 
BRANCH  24  25
ATOM     25  N   UNL A   1      32.565  33.890  27.631  1.00  0.00    -0.352 N 
ATOM     26  C   UNL A   1      33.148  34.690  28.583  1.00  0.00     0.251 C 
ATOM     27  H   UNL A   1      31.889  34.330  27.065  1.00  0.00     0.163 HD
ATOM     28  O   UNL A   1      32.671  35.800  28.817  1.00  0.00    -0.269 OA
BRANCH  26  29
ATOM     29  C   UNL A   1      34.333  34.219  29.333  1.00  0.00     0.039 A 
ATOM     30  C   UNL A   1      34.147  33.436  30.477  1.00  0.00     0.014 A 
ATOM     31  C   UNL A   1      35.625  34.554  28.919  1.00  0.00     0.014 A 
ATOM     32  C   UNL A   1      35.257  32.935  31.165  1.00  0.00     0.010 A 
ATOM     33  C   UNL A   1      36.726  33.989  29.557  1.00  0.00     0.010 A 
ATOM     34  C   UNL A   1      36.556  33.177  30.689  1.00  0.00    -0.014 A 
BRANCH  34  35
ATOM     35  C   UNL A   1      37.751  32.575  31.338  1.00  0.00     0.031 A 
ATOM     36  C   UNL A   1      38.469  31.425  30.688  1.00  0.00     0.074 A 
ATOM     37  C   UNL A   1      38.112  32.980  32.571  1.00  0.00     0.049 A 
ATOM     38  N   UNL A   1      39.449  30.693  31.152  1.00  0.00    -0.248 NA
ATOM     39  C   UNL A   1      38.002  31.022  29.351  1.00  0.00     0.031 C 
ATOM     40  C   UNL A   1      37.447  34.030  33.345  1.00  0.00     0.029 A 
ATOM     41  N   UNL A   1      39.101  32.525  33.410  1.00  0.00    -0.354 N 
ATOM     42  C   UNL A   1      39.677  29.712  30.195  1.00  0.00     0.074 A 
ATOM     43  C   UNL A   1      38.721  29.931  29.131  1.00  0.00     0.031 C 
ATOM     44  C   UNL A   1      38.034  34.129  34.547  1.00  0.00     0.029 A 
ATOM     45  C   UNL A   1      39.088  33.124  34.649  1.00  0.00     0.049 A 
ATOM     46  H   UNL A   1      39.755  31.837  33.150  1.00  0.00     0.167 HD
ATOM     47  C   UNL A   1      40.607  28.726  30.193  1.00  0.00     0.034 A 
ATOM     48  C   UNL A   1      39.819  32.876  35.754  1.00  0.00     0.034 A 
ATOM     49  C   UNL A   1      41.579  28.534  31.236  1.00  0.00     0.049 A 
ATOM     50  C   UNL A   1      40.879  31.809  35.711  1.00  0.00     0.074 A 
ATOM     51  C   UNL A   1      42.633  27.639  31.275  1.00  0.00     0.029 A 
ATOM     52  N   UNL A   1      41.603  29.231  32.434  1.00  0.00    -0.354 N 
ATOM     53  N   UNL A   1      41.194  31.000  34.730  1.00  0.00    -0.248 NA
ATOM     54  C   UNL A   1      41.709  31.647  36.913  1.00  0.00     0.031 C 
ATOM     55  C   UNL A   1      43.268  27.765  32.515  1.00  0.00     0.029 A 
ATOM     56  C   UNL A   1      42.641  28.772  33.229  1.00  0.00     0.049 A 
ATOM     57  H   UNL A   1      40.975  29.948  32.684  1.00  0.00     0.167 HD
ATOM     58  C   UNL A   1      42.278  30.256  35.180  1.00  0.00     0.074 A 
ATOM     59  C   UNL A   1      42.576  30.722  36.519  1.00  0.00     0.031 C 
ATOM     60  C   UNL A   1      42.959  29.272  34.543  1.00  0.00     0.034 A 
BRANCH  47  61
ATOM     61  C   UNL A   1      40.630  27.788  29.013  1.00  0.00     0.023 A 
ATOM     62  C   UNL A   1      39.677  26.752  28.916  1.00  0.00     0.012 A 
ATOM     63  C   UNL A   1      41.570  27.956  27.977  1.00  0.00     0.148 A 
ATOM     64  C   UNL A   1      39.693  25.870  27.834  1.00  0.00     0.002 A 
ATOM     65  C   UNL A   1      41.546  27.106  26.878  1.00  0.00     0.091 A 
ATOM     66  F   UNL A   1      42.482  28.933  28.093  1.00  0.00    -0.205 F 
ATOM     67  C   UNL A   1      40.620  26.053  26.813  1.00  0.00     0.022 A 
BRANCH  65  68
ATOM     68  S   UNL A   1      42.642  27.316  25.471  1.00  0.00     0.127 S 
ATOM     69  O   UNL A   1      42.082  28.508  24.836  1.00  0.00    -0.237 OA
ATOM     70  O   UNL A   1      43.938  27.524  26.118  1.00  0.00    -0.237 OA
ATOM     71  O   UNL A   1      42.543  26.087  24.697  1.00  0.00    -0.744 OA
ENDBRANCH  65  68
ENDBRANCH  47  61
BRANCH  48  72
ATOM     72  C   UNL A   1      39.589  33.690  36.981  1.00  0.00     0.023 A 
ATOM     73  C   UNL A   1      39.988  35.040  37.003  1.00  0.00     0.012 A 
ATOM     74  C   UNL A   1      38.921  33.151  38.097  1.00  0.00     0.148 A 
ATOM     75  C   UNL A   1      39.746  35.833  38.125  1.00  0.00     0.002 A 
ATOM     76  C   UNL A   1      38.631  33.962  39.188  1.00  0.00     0.091 A 
ATOM     77  F   UNL A   1      38.555  31.862  38.056  1.00  0.00    -0.205 F 
ATOM     78  C   UNL A   1      39.059  35.299  39.211  1.00  0.00     0.022 A 
BRANCH  76  79
ATOM     79  S   UNL A   1      37.633  33.402  40.573  1.00  0.00     0.127 S 
ATOM     80  O   UNL A   1      37.536  34.616  41.382  1.00  0.00    -0.237 OA
ATOM     81  O   UNL A   1      36.391  33.008  39.906  1.00  0.00    -0.237 OA
ATOM     82  O   UNL A   1      38.369  32.301  41.176  1.00  0.00    -0.744 OA
ENDBRANCH  76  79
ENDBRANCH  48  72
BRANCH  60  83
ATOM     83  C   UNL A   1      44.134  28.650  35.256  1.00  0.00     0.023 A 
ATOM     84  C   UNL A   1      45.431  29.166  35.069  1.00  0.00     0.012 A 
ATOM     85  C   UNL A   1      43.931  27.604  36.180  1.00  0.00     0.148 A 
ATOM     86  C   UNL A   1      46.512  28.633  35.771  1.00  0.00     0.002 A 
ATOM     87  C   UNL A   1      45.005  27.114  36.914  1.00  0.00     0.091 A 
ATOM     88  F   UNL A   1      42.692  27.114  36.328  1.00  0.00    -0.205 F 
ATOM     89  C   UNL A   1      46.297  27.618  36.702  1.00  0.00     0.022 A 
BRANCH  87  90
ATOM     90  S   UNL A   1      44.807  25.881  38.204  1.00  0.00     0.127 S 
ATOM     91  O   UNL A   1      46.173  25.756  38.710  1.00  0.00    -0.237 OA
ATOM     92  O   UNL A   1      43.874  26.538  39.121  1.00  0.00    -0.237 OA
ATOM     93  O   UNL A   1      44.273  24.693  37.550  1.00  0.00    -0.744 OA
ENDBRANCH  87  90
ENDBRANCH  60  83
ENDBRANCH  34  35
ENDBRANCH  26  29
ENDBRANCH  24  25
ENDBRANCH   1  24
TORSDOF 16
ENDMDL
