MODEL 1
REMARK VINA RESULT:     -12.4      0.000      0.000
REMARK SMILES O=C(NCCCNC(=O)c1c(F)cccc1NS(=O)(=O)C(F)(F)F)c1ccc(-c2c3nc(c(-c4cccc(S(=O)(=O)[O-])c4F)c4ccc([nH]4)c(-c4cccc(S(=O)(=O)[O-])c4F)c4nc(c(-c5cccc(S(=O)(=O)[O-])c5F)c5ccc2[nH]5)C=C4)C=C3)cc1
REMARK SMILES IDX 5 1 4 2 3 3 1 4 2 5 25 7 26 8 87 9 27 10 86 11 28 12 29 13
REMARK SMILES IDX 30 14 80 15 31 16 85 17 79 18 81 19 32 20 84 21 78 22 77 23
REMARK SMILES IDX 33 25 65 26 45 27 64 28 46 29 49 30 63 31 82 32 47 33 48 34
REMARK SMILES IDX 62 36 83 37 50 38 34 39 35 40 43 41 36 42 38 43 44 44 37 45
REMARK SMILES IDX 39 46 40 47 41 48 42 49 66 50 67 51 75 52 68 53 70 54 76 55
REMARK SMILES IDX 69 56 71 57 72 58 73 59 74 60 51 61 52 62 60 63 53 64 55 65
REMARK SMILES IDX 61 66 54 67 56 68 57 69 58 70 59 71 6 72 7 73 8 74 9 76
REMARK SMILES IDX 10 77 11 78 16 79 12 80 13 81 15 82 14 83 17 84 18 86 19 87
REMARK SMILES IDX 20 88 21 89 22 90 23 91 24 92
REMARK H PARENT 3 6 81 24 49 35 7 75 17 85
REMARK Flexibility Score: inf
ROOT
ATOM      1  C   UNL A   1      31.626  31.681  26.876  1.00  0.00     0.042 C 
ENDROOT
BRANCH   1   2
ATOM      2  C   UNL A   1      32.907  32.449  27.169  1.00  0.00     0.118 C 
BRANCH   2   3
ATOM      3  N   UNL A   1      32.646  33.793  27.667  1.00  0.00    -0.352 N 
ATOM      4  O   UNL A   1      32.674  35.509  29.116  1.00  0.00    -0.269 OA
ATOM      5  C   UNL A   1      33.193  34.462  28.735  1.00  0.00     0.251 C 
ATOM      6  H   UNL A   1      31.973  34.300  27.160  1.00  0.00     0.163 HD
BRANCH   5   7
ATOM      7  C   UNL A   1      34.381  33.920  29.430  1.00  0.00     0.039 A 
ATOM      8  C   UNL A   1      34.243  32.967  30.441  1.00  0.00     0.014 A 
ATOM      9  C   UNL A   1      35.657  34.346  29.045  1.00  0.00     0.014 A 
ATOM     10  C   UNL A   1      35.353  32.564  31.170  1.00  0.00     0.010 A 
ATOM     11  C   UNL A   1      36.785  33.856  29.710  1.00  0.00     0.010 A 
ATOM     12  C   UNL A   1      36.640  32.980  30.797  1.00  0.00    -0.014 A 
BRANCH  12  13
ATOM     13  C   UNL A   1      37.814  32.394  31.490  1.00  0.00     0.031 A 
ATOM     14  C   UNL A   1      38.260  32.882  32.839  1.00  0.00     0.074 A 
ATOM     15  C   UNL A   1      38.472  31.388  30.882  1.00  0.00     0.049 A 
ATOM     16  N   UNL A   1      39.234  32.434  33.588  1.00  0.00    -0.248 NA
ATOM     17  C   UNL A   1      37.528  34.018  33.422  1.00  0.00     0.031 C 
ATOM     18  C   UNL A   1      38.150  30.862  29.552  1.00  0.00     0.029 A 
ATOM     19  N   UNL A   1      39.529  30.619  31.295  1.00  0.00    -0.354 N 
ATOM     20  C   UNL A   1      39.258  33.249  34.713  1.00  0.00     0.074 A 
ATOM     21  C   UNL A   1      38.206  34.227  34.544  1.00  0.00     0.031 C 
ATOM     22  C   UNL A   1      38.954  29.828  29.281  1.00  0.00     0.029 A 
ATOM     23  C   UNL A   1      39.891  29.654  30.384  1.00  0.00     0.049 A 
ATOM     24  H   UNL A   1      39.983  30.744  32.158  1.00  0.00     0.167 HD
ATOM     25  C   UNL A   1      40.073  33.173  35.793  1.00  0.00     0.034 A 
ATOM     26  C   UNL A   1      40.873  28.734  30.421  1.00  0.00     0.034 A 
ATOM     27  C   UNL A   1      41.096  32.174  35.962  1.00  0.00     0.049 A 
ATOM     28  C   UNL A   1      41.749  28.660  31.637  1.00  0.00     0.074 A 
ATOM     29  C   UNL A   1      41.940  31.986  37.043  1.00  0.00     0.029 A 
ATOM     30  N   UNL A   1      41.423  31.202  35.027  1.00  0.00    -0.354 N 
ATOM     31  N   UNL A   1      41.689  29.373  32.735  1.00  0.00    -0.248 NA
ATOM     32  C   UNL A   1      42.813  27.648  31.631  1.00  0.00     0.031 C 
ATOM     33  C   UNL A   1      42.789  30.912  36.753  1.00  0.00     0.029 A 
ATOM     34  C   UNL A   1      42.459  30.416  35.502  1.00  0.00     0.049 A 
ATOM     35  H   UNL A   1      40.981  31.088  34.154  1.00  0.00     0.167 HD
ATOM     36  C   UNL A   1      42.692  28.886  33.561  1.00  0.00     0.074 A 
ATOM     37  C   UNL A   1      43.331  27.801  32.843  1.00  0.00     0.031 C 
ATOM     38  C   UNL A   1      43.061  29.313  34.793  1.00  0.00     0.034 A 
BRANCH  25  39
ATOM     39  C   UNL A   1      39.865  34.168  36.906  1.00  0.00     0.023 A 
ATOM     40  C   UNL A   1      40.157  35.529  36.682  1.00  0.00     0.012 A 
ATOM     41  C   UNL A   1      39.305  33.777  38.138  1.00  0.00     0.148 A 
ATOM     42  C   UNL A   1      39.919  36.480  37.674  1.00  0.00     0.002 A 
ATOM     43  C   UNL A   1      39.033  34.736  39.107  1.00  0.00     0.091 A 
ATOM     44  F   UNL A   1      39.054  32.476  38.344  1.00  0.00    -0.205 F 
ATOM     45  C   UNL A   1      39.346  36.087  38.881  1.00  0.00     0.022 A 
BRANCH  43  46
ATOM     46  S   UNL A   1      38.222  34.337  40.661  1.00  0.00     0.127 S 
ATOM     47  O   UNL A   1      37.092  33.531  40.205  1.00  0.00    -0.237 OA
ATOM     48  O   UNL A   1      39.260  33.586  41.370  1.00  0.00    -0.237 OA
ATOM     49  O   UNL A   1      37.878  35.614  41.271  1.00  0.00    -0.744 OA
ENDBRANCH  43  46
ENDBRANCH  25  39
BRANCH  26  50
ATOM     50  C   UNL A   1      41.008  27.778  29.288  1.00  0.00     0.023 A 
ATOM     51  C   UNL A   1      40.188  26.636  29.249  1.00  0.00     0.012 A 
ATOM     52  C   UNL A   1      41.846  28.063  28.192  1.00  0.00     0.148 A 
ATOM     53  C   UNL A   1      40.199  25.794  28.136  1.00  0.00     0.002 A 
ATOM     54  C   UNL A   1      41.805  27.256  27.062  1.00  0.00     0.091 A 
ATOM     55  F   UNL A   1      42.624  29.154  28.256  1.00  0.00    -0.205 F 
ATOM     56  C   UNL A   1      40.992  26.113  27.037  1.00  0.00     0.022 A 
BRANCH  54  57
ATOM     57  S   UNL A   1      42.664  27.680  25.541  1.00  0.00     0.127 S 
ATOM     58  O   UNL A   1      44.059  27.675  25.975  1.00  0.00    -0.237 OA
ATOM     59  O   UNL A   1      42.285  26.571  24.665  1.00  0.00    -0.237 OA
ATOM     60  O   UNL A   1      42.136  28.975  25.135  1.00  0.00    -0.744 OA
ENDBRANCH  54  57
ENDBRANCH  26  50
BRANCH  38  61
ATOM     61  C   UNL A   1      44.206  28.605  35.466  1.00  0.00     0.023 A 
ATOM     62  C   UNL A   1      45.528  29.018  35.204  1.00  0.00     0.012 A 
ATOM     63  C   UNL A   1      43.970  27.606  36.431  1.00  0.00     0.148 A 
ATOM     64  C   UNL A   1      46.598  28.435  35.880  1.00  0.00     0.002 A 
ATOM     65  C   UNL A   1      45.038  27.063  37.134  1.00  0.00     0.091 A 
ATOM     66  F   UNL A   1      42.706  27.215  36.649  1.00  0.00    -0.205 F 
ATOM     67  C   UNL A   1      46.353  27.469  36.855  1.00  0.00     0.022 A 
BRANCH  65  68
ATOM     68  S   UNL A   1      44.810  25.886  38.473  1.00  0.00     0.127 S 
ATOM     69  O   UNL A   1      44.246  24.738  37.766  1.00  0.00    -0.237 OA
ATOM     70  O   UNL A   1      46.178  25.695  38.954  1.00  0.00    -0.237 OA
ATOM     71  O   UNL A   1      43.919  26.532  39.427  1.00  0.00    -0.744 OA
ENDBRANCH  65  68
ENDBRANCH  38  61
ENDBRANCH  12  13
ENDBRANCH   5   7
ENDBRANCH   2   3
ENDBRANCH   1   2
BRANCH   1  72
ATOM     72  C   UNL A   1      31.870  30.232  26.483  1.00  0.00     0.118 C 
BRANCH  72  73
ATOM     73  N   UNL A   1      32.481  30.130  25.163  1.00  0.00    -0.352 N 
ATOM     74  C   UNL A   1      32.335  29.144  24.221  1.00  0.00     0.256 C 
ATOM     75  H   UNL A   1      33.081  30.870  24.915  1.00  0.00     0.163 HD
ATOM     76  O   UNL A   1      33.117  29.064  23.280  1.00  0.00    -0.269 OA
BRANCH  74  77
ATOM     77  C   UNL A   1      31.295  28.122  24.386  1.00  0.00     0.099 A 
ATOM     78  C   UNL A   1      31.482  27.114  25.337  1.00  0.00     0.138 A 
ATOM     79  C   UNL A   1      30.146  28.125  23.580  1.00  0.00     0.065 A 
ATOM     80  F   UNL A   1      32.557  27.118  26.141  1.00  0.00    -0.206 F 
ATOM     81  C   UNL A   1      30.596  26.050  25.434  1.00  0.00     0.040 A 
ATOM     82  C   UNL A   1      29.275  27.032  23.664  1.00  0.00     0.028 A 
ATOM     83  C   UNL A   1      29.498  26.000  24.582  1.00  0.00     0.005 A 
BRANCH  79  84
ATOM     84  N   UNL A   1      29.916  29.147  22.585  1.00  0.00    -0.275 N 
ATOM     85  H   UNL A   1      30.653  29.479  22.023  1.00  0.00     0.180 HD
BRANCH  84  86
ATOM     86  S   UNL A   1      28.328  29.769  22.408  1.00  0.00     0.333 S 
ATOM     87  O   UNL A   1      28.141  30.084  21.002  1.00  0.00    -0.197 OA
ATOM     88  O   UNL A   1      27.488  28.758  23.029  1.00  0.00    -0.197 OA
BRANCH  86  89
ATOM     89  C   UNL A   1      28.274  31.322  23.439  1.00  0.00     0.516 C 
ATOM     90  F   UNL A   1      27.200  31.352  24.280  1.00  0.00    -0.155 F 
ATOM     91  F   UNL A   1      29.382  31.445  24.230  1.00  0.00    -0.155 F 
ATOM     92  F   UNL A   1      28.217  32.454  22.683  1.00  0.00    -0.155 F 
ENDBRANCH  86  89
ENDBRANCH  84  86
ENDBRANCH  79  84
ENDBRANCH  74  77
ENDBRANCH  72  73
ENDBRANCH   1  72
TORSDOF 16
ENDMDL
MODEL 2
REMARK VINA RESULT:     -12.3      2.453      3.284
REMARK SMILES O=C(NCCCNC(=O)c1c(F)cccc1NS(=O)(=O)C(F)(F)F)c1ccc(-c2c3nc(c(-c4cccc(S(=O)(=O)[O-])c4F)c4ccc([nH]4)c(-c4cccc(S(=O)(=O)[O-])c4F)c4nc(c(-c5cccc(S(=O)(=O)[O-])c5F)c5ccc2[nH]5)C=C4)C=C3)cc1
REMARK SMILES IDX 5 1 4 2 3 3 1 4 2 5 25 7 26 8 87 9 27 10 86 11 28 12 29 13
REMARK SMILES IDX 30 14 80 15 31 16 85 17 79 18 81 19 32 20 84 21 78 22 77 23
REMARK SMILES IDX 33 25 65 26 45 27 64 28 46 29 49 30 63 31 82 32 47 33 48 34
REMARK SMILES IDX 62 36 83 37 50 38 34 39 35 40 43 41 36 42 38 43 44 44 37 45
REMARK SMILES IDX 39 46 40 47 41 48 42 49 66 50 67 51 75 52 68 53 70 54 76 55
REMARK SMILES IDX 69 56 71 57 72 58 73 59 74 60 51 61 52 62 60 63 53 64 55 65
REMARK SMILES IDX 61 66 54 67 56 68 57 69 58 70 59 71 6 72 7 73 8 74 9 76
REMARK SMILES IDX 10 77 11 78 16 79 12 80 13 81 15 82 14 83 17 84 18 86 19 87
REMARK SMILES IDX 20 88 21 89 22 90 23 91 24 92
REMARK H PARENT 3 6 81 24 49 35 7 75 17 85
REMARK Flexibility Score: inf
ROOT
ATOM      1  C   UNL A   1      33.331  29.186  23.821  1.00  0.00     0.042 C 
ENDROOT
BRANCH   1   2
ATOM      2  C   UNL A   1      33.424  29.251  25.338  1.00  0.00     0.118 C 
BRANCH   2   3
ATOM      3  N   UNL A   1      32.900  30.501  25.873  1.00  0.00    -0.352 N 
ATOM      4  O   UNL A   1      32.580  32.142  27.374  1.00  0.00    -0.269 OA
ATOM      5  C   UNL A   1      33.299  31.231  26.967  1.00  0.00     0.251 C 
ATOM      6  H   UNL A   1      32.141  30.880  25.375  1.00  0.00     0.163 HD
BRANCH   5   7
ATOM      7  C   UNL A   1      34.567  30.913  27.658  1.00  0.00     0.039 A 
ATOM      8  C   UNL A   1      34.795  29.639  28.181  1.00  0.00     0.014 A 
ATOM      9  C   UNL A   1      35.560  31.894  27.758  1.00  0.00     0.014 A 
ATOM     10  C   UNL A   1      35.934  29.394  28.937  1.00  0.00     0.010 A 
ATOM     11  C   UNL A   1      36.754  31.611  28.428  1.00  0.00     0.010 A 
ATOM     12  C   UNL A   1      36.939  30.366  29.047  1.00  0.00    -0.014 A 
BRANCH  12  13
ATOM     13  C   UNL A   1      38.214  30.008  29.717  1.00  0.00     0.031 A 
ATOM     14  C   UNL A   1      38.564  30.529  31.081  1.00  0.00     0.074 A 
ATOM     15  C   UNL A   1      39.057  29.178  29.072  1.00  0.00     0.049 A 
ATOM     16  N   UNL A   1      39.615  30.264  31.812  1.00  0.00    -0.248 NA
ATOM     17  C   UNL A   1      37.621  31.472  31.705  1.00  0.00     0.031 C 
ATOM     18  C   UNL A   1      38.837  28.644  27.725  1.00  0.00     0.029 A 
ATOM     19  N   UNL A   1      40.253  28.627  29.455  1.00  0.00    -0.354 N 
ATOM     20  C   UNL A   1      39.483  31.028  32.965  1.00  0.00     0.074 A 
ATOM     21  C   UNL A   1      38.252  31.777  32.833  1.00  0.00     0.031 C 
ATOM     22  C   UNL A   1      39.832  27.804  27.416  1.00  0.00     0.029 A 
ATOM     23  C   UNL A   1      40.795  27.788  28.510  1.00  0.00     0.049 A 
ATOM     24  H   UNL A   1      40.680  28.812  30.322  1.00  0.00     0.167 HD
ATOM     25  C   UNL A   1      40.306  31.082  34.040  1.00  0.00     0.034 A 
ATOM     26  C   UNL A   1      41.944  27.086  28.514  1.00  0.00     0.034 A 
ATOM     27  C   UNL A   1      41.513  30.308  34.171  1.00  0.00     0.049 A 
ATOM     28  C   UNL A   1      42.828  27.150  29.724  1.00  0.00     0.074 A 
ATOM     29  C   UNL A   1      42.387  30.259  35.244  1.00  0.00     0.029 A 
ATOM     30  N   UNL A   1      42.022  29.456  33.203  1.00  0.00    -0.354 N 
ATOM     31  N   UNL A   1      42.633  27.798  30.847  1.00  0.00    -0.248 NA
ATOM     32  C   UNL A   1      44.075  26.377  29.680  1.00  0.00     0.031 C 
ATOM     33  C   UNL A   1      43.434  29.391  34.915  1.00  0.00     0.029 A 
ATOM     34  C   UNL A   1      43.201  28.881  33.648  1.00  0.00     0.049 A 
ATOM     35  H   UNL A   1      41.605  29.284  32.327  1.00  0.00     0.167 HD
ATOM     36  C   UNL A   1      43.723  27.498  31.653  1.00  0.00     0.074 A 
ATOM     37  C   UNL A   1      44.562  26.591  30.896  1.00  0.00     0.031 C 
ATOM     38  C   UNL A   1      44.008  27.948  32.899  1.00  0.00     0.034 A 
BRANCH  25  39
ATOM     39  C   UNL A   1      39.910  31.976  35.188  1.00  0.00     0.023 A 
ATOM     40  C   UNL A   1      40.340  33.319  35.201  1.00  0.00     0.012 A 
ATOM     41  C   UNL A   1      39.049  31.518  36.204  1.00  0.00     0.148 A 
ATOM     42  C   UNL A   1      39.940  34.183  36.220  1.00  0.00     0.002 A 
ATOM     43  C   UNL A   1      38.622  32.397  37.194  1.00  0.00     0.091 A 
ATOM     44  F   UNL A   1      38.667  30.233  36.190  1.00  0.00    -0.205 F 
ATOM     45  C   UNL A   1      39.073  33.727  37.209  1.00  0.00     0.022 A 
BRANCH  43  46
ATOM     46  S   UNL A   1      37.441  31.922  38.464  1.00  0.00     0.127 S 
ATOM     47  O   UNL A   1      38.202  32.178  39.684  1.00  0.00    -0.237 OA
ATOM     48  O   UNL A   1      36.338  32.854  38.227  1.00  0.00    -0.237 OA
ATOM     49  O   UNL A   1      37.117  30.526  38.205  1.00  0.00    -0.744 OA
ENDBRANCH  43  46
ENDBRANCH  25  39
BRANCH  26  50
ATOM     50  C   UNL A   1      42.261  26.217  27.347  1.00  0.00     0.023 A 
ATOM     51  C   UNL A   1      43.063  26.723  26.309  1.00  0.00     0.012 A 
ATOM     52  C   UNL A   1      41.882  24.859  27.327  1.00  0.00     0.148 A 
ATOM     53  C   UNL A   1      43.485  25.892  25.270  1.00  0.00     0.002 A 
ATOM     54  C   UNL A   1      42.358  24.024  26.325  1.00  0.00     0.091 A 
ATOM     55  F   UNL A   1      41.111  24.402  28.325  1.00  0.00    -0.205 F 
ATOM     56  C   UNL A   1      43.149  24.541  25.288  1.00  0.00     0.022 A 
BRANCH  54  57
ATOM     57  S   UNL A   1      42.114  22.243  26.356  1.00  0.00     0.127 S 
ATOM     58  O   UNL A   1      40.668  22.137  26.184  1.00  0.00    -0.237 OA
ATOM     59  O   UNL A   1      42.906  21.813  25.203  1.00  0.00    -0.237 OA
ATOM     60  O   UNL A   1      42.630  21.795  27.642  1.00  0.00    -0.744 OA
ENDBRANCH  54  57
ENDBRANCH  26  50
BRANCH  38  61
ATOM     61  C   UNL A   1      45.279  27.466  33.544  1.00  0.00     0.023 A 
ATOM     62  C   UNL A   1      46.454  28.235  33.424  1.00  0.00     0.012 A 
ATOM     63  C   UNL A   1      45.286  26.313  34.352  1.00  0.00     0.148 A 
ATOM     64  C   UNL A   1      47.621  27.853  34.083  1.00  0.00     0.002 A 
ATOM     65  C   UNL A   1      46.438  25.964  35.044  1.00  0.00     0.091 A 
ATOM     66  F   UNL A   1      44.162  25.585  34.436  1.00  0.00    -0.205 F 
ATOM     67  C   UNL A   1      47.609  26.727  34.905  1.00  0.00     0.022 A 
BRANCH  65  68
ATOM     68  S   UNL A   1      46.489  24.588  36.200  1.00  0.00     0.127 S 
ATOM     69  O   UNL A   1      46.436  23.440  35.296  1.00  0.00    -0.237 OA
ATOM     70  O   UNL A   1      47.779  24.785  36.861  1.00  0.00    -0.237 OA
ATOM     71  O   UNL A   1      45.332  24.753  37.070  1.00  0.00    -0.744 OA
ENDBRANCH  65  68
ENDBRANCH  38  61
ENDBRANCH  12  13
ENDBRANCH   5   7
ENDBRANCH   2   3
ENDBRANCH   1   2
BRANCH   1  72
ATOM     72  C   UNL A   1      33.969  27.937  23.232  1.00  0.00     0.118 C 
BRANCH  72  73
ATOM     73  N   UNL A   1      33.186  27.405  22.124  1.00  0.00    -0.352 N 
ATOM     74  C   UNL A   1      32.085  26.587  22.163  1.00  0.00     0.256 C 
ATOM     75  H   UNL A   1      33.488  27.670  21.225  1.00  0.00     0.163 HD
ATOM     76  O   UNL A   1      31.703  26.012  21.150  1.00  0.00    -0.269 OA
BRANCH  74  77
ATOM     77  C   UNL A   1      31.412  26.324  23.441  1.00  0.00     0.099 A 
ATOM     78  C   UNL A   1      32.048  25.510  24.383  1.00  0.00     0.138 A 
ATOM     79  C   UNL A   1      30.136  26.844  23.705  1.00  0.00     0.065 A 
ATOM     80  F   UNL A   1      33.284  25.035  24.161  1.00  0.00    -0.206 F 
ATOM     81  C   UNL A   1      31.395  25.119  25.545  1.00  0.00     0.040 A 
ATOM     82  C   UNL A   1      29.476  26.420  24.864  1.00  0.00     0.028 A 
ATOM     83  C   UNL A   1      30.098  25.562  25.777  1.00  0.00     0.005 A 
BRANCH  79  84
ATOM     84  N   UNL A   1      29.446  27.689  22.757  1.00  0.00    -0.275 N 
ATOM     85  H   UNL A   1      28.919  27.297  22.024  1.00  0.00     0.180 HD
BRANCH  84  86
ATOM     86  S   UNL A   1      29.569  29.388  22.940  1.00  0.00     0.333 S 
ATOM     87  O   UNL A   1      30.222  29.641  24.213  1.00  0.00    -0.197 OA
ATOM     88  O   UNL A   1      30.213  29.823  21.711  1.00  0.00    -0.197 OA
BRANCH  86  89
ATOM     89  C   UNL A   1      27.817  30.024  22.966  1.00  0.00     0.516 C 
ATOM     90  F   UNL A   1      27.461  30.621  21.792  1.00  0.00    -0.155 F 
ATOM     91  F   UNL A   1      26.914  29.018  23.171  1.00  0.00    -0.155 F 
ATOM     92  F   UNL A   1      27.603  30.938  23.955  1.00  0.00    -0.155 F 
ENDBRANCH  86  89
ENDBRANCH  84  86
ENDBRANCH  79  84
ENDBRANCH  74  77
ENDBRANCH  72  73
ENDBRANCH   1  72
TORSDOF 16
ENDMDL
MODEL 3
REMARK VINA RESULT:     -12.0      3.140      4.540
REMARK SMILES O=C(NCCCNC(=O)c1c(F)cccc1NS(=O)(=O)C(F)(F)F)c1ccc(-c2c3nc(c(-c4cccc(S(=O)(=O)[O-])c4F)c4ccc([nH]4)c(-c4cccc(S(=O)(=O)[O-])c4F)c4nc(c(-c5cccc(S(=O)(=O)[O-])c5F)c5ccc2[nH]5)C=C4)C=C3)cc1
REMARK SMILES IDX 5 1 4 2 3 3 1 4 2 5 25 7 26 8 87 9 27 10 86 11 28 12 29 13
REMARK SMILES IDX 30 14 80 15 31 16 85 17 79 18 81 19 32 20 84 21 78 22 77 23
REMARK SMILES IDX 33 25 65 26 45 27 64 28 46 29 49 30 63 31 82 32 47 33 48 34
REMARK SMILES IDX 62 36 83 37 50 38 34 39 35 40 43 41 36 42 38 43 44 44 37 45
REMARK SMILES IDX 39 46 40 47 41 48 42 49 66 50 67 51 75 52 68 53 70 54 76 55
REMARK SMILES IDX 69 56 71 57 72 58 73 59 74 60 51 61 52 62 60 63 53 64 55 65
REMARK SMILES IDX 61 66 54 67 56 68 57 69 58 70 59 71 6 72 7 73 8 74 9 76
REMARK SMILES IDX 10 77 11 78 16 79 12 80 13 81 15 82 14 83 17 84 18 86 19 87
REMARK SMILES IDX 20 88 21 89 22 90 23 91 24 92
REMARK H PARENT 3 6 81 24 49 35 7 75 17 85
REMARK Flexibility Score: inf
ROOT
ATOM      1  C   UNL A   1      34.000  28.651  24.294  1.00  0.00     0.042 C 
ENDROOT
BRANCH   1   2
ATOM      2  C   UNL A   1      33.070  28.745  25.494  1.00  0.00     0.118 C 
BRANCH   2   3
ATOM      3  N   UNL A   1      32.646  30.113  25.762  1.00  0.00    -0.352 N 
ATOM      4  O   UNL A   1      32.455  32.038  26.903  1.00  0.00    -0.269 OA
ATOM      5  C   UNL A   1      33.099  31.011  26.697  1.00  0.00     0.251 C 
ATOM      6  H   UNL A   1      31.922  30.444  25.184  1.00  0.00     0.163 HD
BRANCH   5   7
ATOM      7  C   UNL A   1      34.335  30.739  27.462  1.00  0.00     0.039 A 
ATOM      8  C   UNL A   1      34.581  29.472  27.993  1.00  0.00     0.014 A 
ATOM      9  C   UNL A   1      35.281  31.757  27.625  1.00  0.00     0.014 A 
ATOM     10  C   UNL A   1      35.681  29.266  28.815  1.00  0.00     0.010 A 
ATOM     11  C   UNL A   1      36.443  31.516  28.364  1.00  0.00     0.010 A 
ATOM     12  C   UNL A   1      36.640  30.276  28.988  1.00  0.00    -0.014 A 
BRANCH  12  13
ATOM     13  C   UNL A   1      37.886  29.963  29.732  1.00  0.00     0.031 A 
ATOM     14  C   UNL A   1      38.140  30.502  31.110  1.00  0.00     0.074 A 
ATOM     15  C   UNL A   1      38.791  29.159  29.140  1.00  0.00     0.049 A 
ATOM     16  N   UNL A   1      39.156  30.275  31.901  1.00  0.00    -0.248 NA
ATOM     17  C   UNL A   1      37.133  31.415  31.674  1.00  0.00     0.031 C 
ATOM     18  C   UNL A   1      38.666  28.612  27.787  1.00  0.00     0.029 A 
ATOM     19  N   UNL A   1      39.980  28.650  29.595  1.00  0.00    -0.354 N 
ATOM     20  C   UNL A   1      38.934  31.039  33.040  1.00  0.00     0.074 A 
ATOM     21  C   UNL A   1      37.688  31.746  32.834  1.00  0.00     0.031 C 
ATOM     22  C   UNL A   1      39.705  27.805  27.540  1.00  0.00     0.029 A 
ATOM     23  C   UNL A   1      40.604  27.826  28.687  1.00  0.00     0.049 A 
ATOM     24  H   UNL A   1      40.351  28.853  30.483  1.00  0.00     0.167 HD
ATOM     25  C   UNL A   1      39.692  31.126  34.159  1.00  0.00     0.034 A 
ATOM     26  C   UNL A   1      41.773  27.162  28.760  1.00  0.00     0.034 A 
ATOM     27  C   UNL A   1      40.914  30.393  34.364  1.00  0.00     0.049 A 
ATOM     28  C   UNL A   1      42.584  27.261  30.018  1.00  0.00     0.074 A 
ATOM     29  C   UNL A   1      41.727  30.377  35.485  1.00  0.00     0.029 A 
ATOM     30  N   UNL A   1      41.505  29.553  33.431  1.00  0.00    -0.354 N 
ATOM     31  N   UNL A   1      42.304  27.907  31.124  1.00  0.00    -0.248 NA
ATOM     32  C   UNL A   1      43.856  26.530  30.050  1.00  0.00     0.031 C 
ATOM     33  C   UNL A   1      42.819  29.543  35.221  1.00  0.00     0.029 A 
ATOM     34  C   UNL A   1      42.675  29.021  33.946  1.00  0.00     0.049 A 
ATOM     35  H   UNL A   1      41.145  29.364  32.534  1.00  0.00     0.167 HD
ATOM     36  C   UNL A   1      43.355  27.647  31.993  1.00  0.00     0.074 A 
ATOM     37  C   UNL A   1      44.266  26.765  31.290  1.00  0.00     0.031 C 
ATOM     38  C   UNL A   1      43.554  28.112  33.250  1.00  0.00     0.034 A 
BRANCH  25  39
ATOM     39  C   UNL A   1      39.202  32.010  35.277  1.00  0.00     0.023 A 
ATOM     40  C   UNL A   1      38.273  31.502  36.208  1.00  0.00     0.012 A 
ATOM     41  C   UNL A   1      39.719  33.309  35.459  1.00  0.00     0.148 A 
ATOM     42  C   UNL A   1      37.848  32.278  37.286  1.00  0.00     0.002 A 
ATOM     43  C   UNL A   1      39.321  34.062  36.559  1.00  0.00     0.091 A 
ATOM     44  F   UNL A   1      40.584  33.786  34.553  1.00  0.00    -0.205 F 
ATOM     45  C   UNL A   1      38.380  33.552  37.468  1.00  0.00     0.022 A 
BRANCH  43  46
ATOM     46  S   UNL A   1      40.012  35.681  36.921  1.00  0.00     0.127 S 
ATOM     47  O   UNL A   1      41.436  35.375  37.033  1.00  0.00    -0.237 OA
ATOM     48  O   UNL A   1      39.645  36.450  35.731  1.00  0.00    -0.237 OA
ATOM     49  O   UNL A   1      39.365  36.124  38.149  1.00  0.00    -0.744 OA
ENDBRANCH  43  46
ENDBRANCH  25  39
BRANCH  26  50
ATOM     50  C   UNL A   1      42.184  26.299  27.619  1.00  0.00     0.023 A 
ATOM     51  C   UNL A   1      43.118  26.788  26.687  1.00  0.00     0.012 A 
ATOM     52  C   UNL A   1      41.756  24.959  27.529  1.00  0.00     0.148 A 
ATOM     53  C   UNL A   1      43.621  25.956  25.686  1.00  0.00     0.002 A 
ATOM     54  C   UNL A   1      42.308  24.120  26.569  1.00  0.00     0.091 A 
ATOM     55  F   UNL A   1      40.860  24.520  28.424  1.00  0.00    -0.205 F 
ATOM     56  C   UNL A   1      43.231  24.620  25.638  1.00  0.00     0.022 A 
BRANCH  54  57
ATOM     57  S   UNL A   1      41.991  22.351  26.536  1.00  0.00     0.127 S 
ATOM     58  O   UNL A   1      42.475  21.938  27.851  1.00  0.00    -0.237 OA
ATOM     59  O   UNL A   1      40.537  22.312  26.373  1.00  0.00    -0.237 OA
ATOM     60  O   UNL A   1      42.738  21.835  25.398  1.00  0.00    -0.744 OA
ENDBRANCH  54  57
ENDBRANCH  26  50
BRANCH  38  61
ATOM     61  C   UNL A   1      44.802  27.675  33.969  1.00  0.00     0.023 A 
ATOM     62  C   UNL A   1      45.955  28.483  33.912  1.00  0.00     0.012 A 
ATOM     63  C   UNL A   1      44.801  26.525  34.782  1.00  0.00     0.148 A 
ATOM     64  C   UNL A   1      47.094  28.142  34.639  1.00  0.00     0.002 A 
ATOM     65  C   UNL A   1      45.923  26.218  35.541  1.00  0.00     0.091 A 
ATOM     66  F   UNL A   1      43.699  25.761  34.806  1.00  0.00    -0.205 F 
ATOM     67  C   UNL A   1      47.074  27.020  35.465  1.00  0.00     0.022 A 
BRANCH  65  68
ATOM     68  S   UNL A   1      45.954  24.849  36.705  1.00  0.00     0.127 S 
ATOM     69  O   UNL A   1      44.831  25.180  37.582  1.00  0.00    -0.237 OA
ATOM     70  O   UNL A   1      45.728  23.696  35.835  1.00  0.00    -0.237 OA
ATOM     71  O   UNL A   1      47.268  24.886  37.332  1.00  0.00    -0.744 OA
ENDBRANCH  65  68
ENDBRANCH  38  61
ENDBRANCH  12  13
ENDBRANCH   5   7
ENDBRANCH   2   3
ENDBRANCH   1   2
BRANCH   1  72
ATOM     72  C   UNL A   1      33.311  28.959  22.973  1.00  0.00     0.118 C 
BRANCH  72  73
ATOM     73  N   UNL A   1      33.544  27.910  21.988  1.00  0.00    -0.352 N 
ATOM     74  C   UNL A   1      33.143  26.599  22.016  1.00  0.00     0.256 C 
ATOM     75  H   UNL A   1      34.061  28.180  21.195  1.00  0.00     0.163 HD
ATOM     76  O   UNL A   1      33.642  25.780  21.252  1.00  0.00    -0.269 OA
BRANCH  74  77
ATOM     77  C   UNL A   1      32.176  26.150  23.026  1.00  0.00     0.099 A 
ATOM     78  C   UNL A   1      30.874  26.657  22.986  1.00  0.00     0.138 A 
ATOM     79  C   UNL A   1      32.555  25.258  24.041  1.00  0.00     0.065 A 
ATOM     80  F   UNL A   1      30.485  27.482  22.001  1.00  0.00    -0.206 F 
ATOM     81  C   UNL A   1      29.966  26.372  23.998  1.00  0.00     0.040 A 
ATOM     82  C   UNL A   1      31.643  25.002  25.071  1.00  0.00     0.028 A 
ATOM     83  C   UNL A   1      30.358  25.556  25.053  1.00  0.00     0.005 A 
BRANCH  79  84
ATOM     84  N   UNL A   1      33.891  24.713  24.117  1.00  0.00    -0.275 N 
ATOM     85  H   UNL A   1      34.617  25.217  24.551  1.00  0.00     0.180 HD
BRANCH  84  86
ATOM     86  S   UNL A   1      34.181  23.169  23.433  1.00  0.00     0.333 S 
ATOM     87  O   UNL A   1      33.000  22.806  22.668  1.00  0.00    -0.197 OA
ATOM     88  O   UNL A   1      35.452  23.327  22.746  1.00  0.00    -0.197 OA
BRANCH  86  89
ATOM     89  C   UNL A   1      34.408  22.009  24.874  1.00  0.00     0.516 C 
ATOM     90  F   UNL A   1      35.360  21.061  24.636  1.00  0.00    -0.155 F 
ATOM     91  F   UNL A   1      34.805  22.673  26.002  1.00  0.00    -0.155 F 
ATOM     92  F   UNL A   1      33.264  21.347  25.203  1.00  0.00    -0.155 F 
ENDBRANCH  86  89
ENDBRANCH  84  86
ENDBRANCH  79  84
ENDBRANCH  74  77
ENDBRANCH  72  73
ENDBRANCH   1  72
TORSDOF 16
ENDMDL
