MODEL 1
REMARK VINA RESULT:     -10.3      0.000      0.000
REMARK SMILES CCCCCNc1cncc(C(=O)NCCCNC(=O)c2ccc(-c3c4nc(c(-c5cccc(S(=O)(=O)[O-])c5F)c5ccc([nH]5)c(-c5cccc(S(=O)(=O)[O-])c5F)c5nc(c(-c6cccc(S(=O)(=O)[O-])c6F)c6ccc3[nH]6)C=C5)C=C4)cc2)n1
REMARK SMILES IDX 15 1 14 2 12 3 13 4 11 6 7 7 8 8 84 9 9 10 10 11 6 12 5 14
REMARK SMILES IDX 4 15 3 16 2 17 1 18 16 19 17 20 18 21 19 22 20 24 21 25
REMARK SMILES IDX 22 26 83 27 23 28 82 29 24 30 25 31 26 32 76 33 27 34 81 35
REMARK SMILES IDX 75 36 77 37 28 38 80 39 74 40 73 41 29 43 61 44 41 45 60 46
REMARK SMILES IDX 42 47 45 48 59 49 78 50 43 51 44 52 58 54 79 55 46 56 30 57
REMARK SMILES IDX 31 58 39 59 32 60 34 61 40 62 33 63 35 64 36 65 37 66 38 67
REMARK SMILES IDX 62 68 63 69 71 70 64 71 66 72 72 73 65 74 67 75 68 76 69 77
REMARK SMILES IDX 70 78 47 79 48 80 56 81 49 82 51 83 57 84 50 85 52 86 53 87
REMARK SMILES IDX 54 88 55 89
REMARK H PARENT 14 5 6 13 18 23 77 42 45 53
REMARK Flexibility Score: inf
ROOT
ATOM      1  C   UNL A   1      33.714  26.755  24.481  1.00  0.00     0.118 C 
ENDROOT
BRANCH   1   2
ATOM      2  N   UNL A   1      32.794  26.334  23.433  1.00  0.00    -0.351 N 
ATOM      3  C   UNL A   1      31.770  25.412  23.428  1.00  0.00     0.271 C 
ATOM      4  O   UNL A   1      31.129  25.278  22.384  1.00  0.00    -0.267 OA
ATOM      5  H   UNL A   1      32.929  26.791  22.571  1.00  0.00     0.163 HD
BRANCH   3   6
ATOM      6  C   UNL A   1      31.403  24.585  24.614  1.00  0.00     0.148 A 
ATOM      7  C   UNL A   1      31.543  22.624  25.813  1.00  0.00     0.145 A 
ATOM      8  C   UNL A   1      30.663  23.162  26.750  1.00  0.00     0.157 A 
ATOM      9  N   UNL A   1      31.929  23.346  24.747  1.00  0.00    -0.223 NA
ATOM     10  N   UNL A   1      30.137  24.410  26.654  1.00  0.00    -0.258 NA
ATOM     11  C   UNL A   1      30.524  25.104  25.555  1.00  0.00     0.145 A 
BRANCH   7  12
ATOM     12  N   UNL A   1      32.089  21.363  25.876  1.00  0.00    -0.369 N 
ATOM     13  H   UNL A   1      32.295  20.966  26.752  1.00  0.00     0.162 HD
BRANCH  12  14
ATOM     14  C   UNL A   1      32.364  20.611  24.664  1.00  0.00     0.114 C 
BRANCH  14  15
ATOM     15  C   UNL A   1      32.920  19.225  25.009  1.00  0.00     0.021 C 
BRANCH  15  16
ATOM     16  C   UNL A   1      32.312  18.051  24.227  1.00  0.00     0.002 C 
BRANCH  16  17
ATOM     17  C   UNL A   1      33.316  17.078  23.609  1.00  0.00    -0.003 C 
ATOM     18  C   UNL A   1      34.735  17.268  24.121  1.00  0.00     0.004 C 
ENDBRANCH  16  17
ENDBRANCH  15  16
ENDBRANCH  14  15
ENDBRANCH  12  14
ENDBRANCH   7  12
ENDBRANCH   3   6
ENDBRANCH   1   2
BRANCH   1  19
ATOM     19  C   UNL A   1      33.435  28.176  24.963  1.00  0.00     0.042 C 
BRANCH  19  20
ATOM     20  C   UNL A   1      34.021  28.480  26.341  1.00  0.00     0.118 C 
BRANCH  20  21
ATOM     21  N   UNL A   1      33.847  29.878  26.725  1.00  0.00    -0.352 N 
ATOM     22  C   UNL A   1      34.566  30.664  27.587  1.00  0.00     0.251 C 
ATOM     23  H   UNL A   1      33.087  30.331  26.293  1.00  0.00     0.163 HD
ATOM     24  O   UNL A   1      34.111  31.760  27.921  1.00  0.00    -0.269 OA
BRANCH  22  25
ATOM     25  C   UNL A   1      35.870  30.218  28.120  1.00  0.00     0.039 A 
ATOM     26  C   UNL A   1      35.919  29.636  29.390  1.00  0.00     0.014 A 
ATOM     27  C   UNL A   1      37.049  30.409  27.394  1.00  0.00     0.014 A 
ATOM     28  C   UNL A   1      37.140  29.196  29.907  1.00  0.00     0.010 A 
ATOM     29  C   UNL A   1      38.251  29.899  27.876  1.00  0.00     0.010 A 
ATOM     30  C   UNL A   1      38.312  29.294  29.141  1.00  0.00    -0.014 A 
BRANCH  30  31
ATOM     31  C   UNL A   1      39.608  28.765  29.639  1.00  0.00     0.031 A 
ATOM     32  C   UNL A   1      40.350  29.476  30.739  1.00  0.00     0.074 A 
ATOM     33  C   UNL A   1      40.162  27.695  29.035  1.00  0.00     0.049 A 
ATOM     34  N   UNL A   1      41.522  29.205  31.251  1.00  0.00    -0.248 NA
ATOM     35  C   UNL A   1      39.702  30.664  31.320  1.00  0.00     0.031 C 
ATOM     36  C   UNL A   1      39.583  26.970  27.903  1.00  0.00     0.029 A 
ATOM     37  N   UNL A   1      41.351  27.051  29.269  1.00  0.00    -0.354 N 
ATOM     38  C   UNL A   1      41.768  30.204  32.188  1.00  0.00     0.074 A 
ATOM     39  C   UNL A   1      40.639  31.108  32.144  1.00  0.00     0.031 C 
ATOM     40  C   UNL A   1      40.418  25.984  27.538  1.00  0.00     0.029 A 
ATOM     41  C   UNL A   1      41.604  26.025  28.387  1.00  0.00     0.049 A 
ATOM     42  H   UNL A   1      41.966  27.299  29.997  1.00  0.00     0.167 HD
ATOM     43  C   UNL A   1      42.821  30.339  33.029  1.00  0.00     0.034 A 
ATOM     44  C   UNL A   1      42.674  25.215  28.267  1.00  0.00     0.034 A 
ATOM     45  C   UNL A   1      43.923  29.417  33.095  1.00  0.00     0.049 A 
ATOM     46  C   UNL A   1      43.811  25.358  29.243  1.00  0.00     0.074 A 
ATOM     47  C   UNL A   1      44.996  29.421  33.966  1.00  0.00     0.029 A 
ATOM     48  N   UNL A   1      44.095  28.330  32.252  1.00  0.00    -0.354 N 
ATOM     49  N   UNL A   1      43.952  26.216  30.224  1.00  0.00    -0.248 NA
ATOM     50  C   UNL A   1      44.916  24.397  29.121  1.00  0.00     0.031 C 
ATOM     51  C   UNL A   1      45.831  28.347  33.636  1.00  0.00     0.029 A 
ATOM     52  C   UNL A   1      45.260  27.657  32.579  1.00  0.00     0.049 A 
ATOM     53  H   UNL A   1      43.479  28.073  31.528  1.00  0.00     0.167 HD
ATOM     54  C   UNL A   1      45.143  25.877  30.858  1.00  0.00     0.074 A 
ATOM     55  C   UNL A   1      45.672  24.722  30.162  1.00  0.00     0.031 C 
ATOM     56  C   UNL A   1      45.750  26.479  31.910  1.00  0.00     0.034 A 
BRANCH  43  57
ATOM     57  C   UNL A   1      42.800  31.502  33.990  1.00  0.00     0.023 A 
ATOM     58  C   UNL A   1      43.395  32.723  33.614  1.00  0.00     0.012 A 
ATOM     59  C   UNL A   1      42.153  31.406  35.237  1.00  0.00     0.148 A 
ATOM     60  C   UNL A   1      43.386  33.817  34.479  1.00  0.00     0.002 A 
ATOM     61  C   UNL A   1      42.105  32.515  36.075  1.00  0.00     0.091 A 
ATOM     62  F   UNL A   1      41.608  30.232  35.588  1.00  0.00    -0.205 F 
ATOM     63  C   UNL A   1      42.733  33.716  35.704  1.00  0.00     0.022 A 
BRANCH  61  64
ATOM     64  S   UNL A   1      41.220  32.512  37.638  1.00  0.00     0.127 S 
ATOM     65  O   UNL A   1      42.055  31.626  38.449  1.00  0.00    -0.237 OA
ATOM     66  O   UNL A   1      41.275  33.923  38.025  1.00  0.00    -0.237 OA
ATOM     67  O   UNL A   1      39.885  32.017  37.342  1.00  0.00    -0.744 OA
ENDBRANCH  61  64
ENDBRANCH  43  57
BRANCH  44  68
ATOM     68  C   UNL A   1      42.688  24.159  27.217  1.00  0.00     0.023 A 
ATOM     69  C   UNL A   1      43.345  24.404  25.996  1.00  0.00     0.012 A 
ATOM     70  C   UNL A   1      42.092  22.902  27.436  1.00  0.00     0.148 A 
ATOM     71  C   UNL A   1      43.381  23.427  24.999  1.00  0.00     0.002 A 
ATOM     72  C   UNL A   1      42.182  21.913  26.463  1.00  0.00     0.091 A 
ATOM     73  F   UNL A   1      41.465  22.691  28.603  1.00  0.00    -0.205 F 
ATOM     74  C   UNL A   1      42.811  22.180  25.237  1.00  0.00     0.022 A 
BRANCH  72  75
ATOM     75  S   UNL A   1      41.599  20.237  26.737  1.00  0.00     0.127 S 
ATOM     76  O   UNL A   1      41.842  19.618  25.435  1.00  0.00    -0.237 OA
ATOM     77  O   UNL A   1      42.488  19.780  27.809  1.00  0.00    -0.237 OA
ATOM     78  O   UNL A   1      40.205  20.361  27.129  1.00  0.00    -0.744 OA
ENDBRANCH  72  75
ENDBRANCH  44  68
BRANCH  56  79
ATOM     79  C   UNL A   1      47.040  25.881  32.407  1.00  0.00     0.023 A 
ATOM     80  C   UNL A   1      48.270  26.335  31.891  1.00  0.00     0.012 A 
ATOM     81  C   UNL A   1      47.036  24.920  33.438  1.00  0.00     0.148 A 
ATOM     82  C   UNL A   1      49.474  25.819  32.369  1.00  0.00     0.002 A 
ATOM     83  C   UNL A   1      48.240  24.447  33.945  1.00  0.00     0.091 A 
ATOM     84  F   UNL A   1      45.856  24.486  33.902  1.00  0.00    -0.205 F 
ATOM     85  C   UNL A   1      49.460  24.885  33.403  1.00  0.00     0.022 A 
BRANCH  83  86
ATOM     86  S   UNL A   1      48.321  23.317  35.339  1.00  0.00     0.127 S 
ATOM     87  O   UNL A   1      47.602  22.154  34.821  1.00  0.00    -0.237 OA
ATOM     88  O   UNL A   1      49.763  23.123  35.498  1.00  0.00    -0.237 OA
ATOM     89  O   UNL A   1      47.678  24.005  36.451  1.00  0.00    -0.744 OA
ENDBRANCH  83  86
ENDBRANCH  56  79
ENDBRANCH  30  31
ENDBRANCH  22  25
ENDBRANCH  20  21
ENDBRANCH  19  20
ENDBRANCH   1  19
TORSDOF 18
ENDMDL
MODEL 2
REMARK VINA RESULT:     -10.2      4.299      6.881
REMARK SMILES CCCCCNc1cncc(C(=O)NCCCNC(=O)c2ccc(-c3c4nc(c(-c5cccc(S(=O)(=O)[O-])c5F)c5ccc([nH]5)c(-c5cccc(S(=O)(=O)[O-])c5F)c5nc(c(-c6cccc(S(=O)(=O)[O-])c6F)c6ccc3[nH]6)C=C5)C=C4)cc2)n1
REMARK SMILES IDX 15 1 14 2 12 3 13 4 11 6 7 7 8 8 84 9 9 10 10 11 6 12 5 14
REMARK SMILES IDX 4 15 3 16 2 17 1 18 16 19 17 20 18 21 19 22 20 24 21 25
REMARK SMILES IDX 22 26 83 27 23 28 82 29 24 30 25 31 26 32 76 33 27 34 81 35
REMARK SMILES IDX 75 36 77 37 28 38 80 39 74 40 73 41 29 43 61 44 41 45 60 46
REMARK SMILES IDX 42 47 45 48 59 49 78 50 43 51 44 52 58 54 79 55 46 56 30 57
REMARK SMILES IDX 31 58 39 59 32 60 34 61 40 62 33 63 35 64 36 65 37 66 38 67
REMARK SMILES IDX 62 68 63 69 71 70 64 71 66 72 72 73 65 74 67 75 68 76 69 77
REMARK SMILES IDX 70 78 47 79 48 80 56 81 49 82 51 83 57 84 50 85 52 86 53 87
REMARK SMILES IDX 54 88 55 89
REMARK H PARENT 14 5 6 13 18 23 77 42 45 53
REMARK Flexibility Score: inf
ROOT
ATOM      1  C   UNL A   1      33.056  35.320  28.935  1.00  0.00     0.118 C 
ENDROOT
BRANCH   1   2
ATOM      2  N   UNL A   1      32.853  36.425  29.861  1.00  0.00    -0.351 N 
ATOM      3  C   UNL A   1      33.180  36.579  31.191  1.00  0.00     0.271 C 
ATOM      4  O   UNL A   1      32.903  37.655  31.725  1.00  0.00    -0.267 OA
ATOM      5  H   UNL A   1      32.400  37.205  29.465  1.00  0.00     0.163 HD
BRANCH   3   6
ATOM      6  C   UNL A   1      33.847  35.519  32.000  1.00  0.00     0.148 A 
ATOM      7  C   UNL A   1      35.745  34.592  32.918  1.00  0.00     0.145 A 
ATOM      8  C   UNL A   1      34.963  33.559  33.432  1.00  0.00     0.157 A 
ATOM      9  N   UNL A   1      35.182  35.587  32.213  1.00  0.00    -0.223 NA
ATOM     10  N   UNL A   1      33.620  33.476  33.254  1.00  0.00    -0.258 NA
ATOM     11  C   UNL A   1      33.084  34.480  32.516  1.00  0.00     0.145 A 
BRANCH   7  12
ATOM     12  N   UNL A   1      37.107  34.704  33.074  1.00  0.00    -0.369 N 
ATOM     13  H   UNL A   1      37.470  35.324  33.746  1.00  0.00     0.162 HD
BRANCH  12  14
ATOM     14  C   UNL A   1      38.016  33.916  32.259  1.00  0.00     0.114 C 
BRANCH  14  15
ATOM     15  C   UNL A   1      38.273  34.614  30.919  1.00  0.00     0.021 C 
BRANCH  15  16
ATOM     16  C   UNL A   1      39.307  33.938  30.006  1.00  0.00     0.002 C 
BRANCH  16  17
ATOM     17  C   UNL A   1      40.731  34.487  30.099  1.00  0.00    -0.003 C 
ATOM     18  C   UNL A   1      41.134  35.325  28.897  1.00  0.00     0.004 C 
ENDBRANCH  16  17
ENDBRANCH  15  16
ENDBRANCH  14  15
ENDBRANCH  12  14
ENDBRANCH   7  12
ENDBRANCH   3   6
ENDBRANCH   1   2
BRANCH   1  19
ATOM     19  C   UNL A   1      34.486  35.259  28.406  1.00  0.00     0.042 C 
BRANCH  19  20
ATOM     20  C   UNL A   1      35.162  33.906  28.624  1.00  0.00     0.118 C 
BRANCH  20  21
ATOM     21  N   UNL A   1      34.367  32.795  28.109  1.00  0.00    -0.352 N 
ATOM     22  C   UNL A   1      34.685  31.474  27.936  1.00  0.00     0.251 C 
ATOM     23  H   UNL A   1      33.451  33.036  27.841  1.00  0.00     0.163 HD
ATOM     24  O   UNL A   1      33.925  30.754  27.284  1.00  0.00    -0.269 OA
BRANCH  22  25
ATOM     25  C   UNL A   1      35.919  30.904  28.514  1.00  0.00     0.039 A 
ATOM     26  C   UNL A   1      35.813  29.884  29.465  1.00  0.00     0.014 A 
ATOM     27  C   UNL A   1      37.177  31.397  28.159  1.00  0.00     0.014 A 
ATOM     28  C   UNL A   1      36.968  29.322  30.015  1.00  0.00     0.010 A 
ATOM     29  C   UNL A   1      38.327  30.783  28.647  1.00  0.00     0.010 A 
ATOM     30  C   UNL A   1      38.236  29.745  29.587  1.00  0.00    -0.014 A 
BRANCH  30  31
ATOM     31  C   UNL A   1      39.477  29.111  30.102  1.00  0.00     0.031 A 
ATOM     32  C   UNL A   1      40.170  29.667  31.317  1.00  0.00     0.074 A 
ATOM     33  C   UNL A   1      40.031  28.090  29.418  1.00  0.00     0.049 A 
ATOM     34  N   UNL A   1      41.296  29.293  31.866  1.00  0.00    -0.248 NA
ATOM     35  C   UNL A   1      39.528  30.811  31.985  1.00  0.00     0.031 C 
ATOM     36  C   UNL A   1      39.502  27.516  28.179  1.00  0.00     0.029 A 
ATOM     37  N   UNL A   1      41.179  27.374  29.651  1.00  0.00    -0.354 N 
ATOM     38  C   UNL A   1      41.515  30.173  32.921  1.00  0.00     0.074 A 
ATOM     39  C   UNL A   1      40.425  31.124  32.909  1.00  0.00     0.031 C 
ATOM     40  C   UNL A   1      40.324  26.542  27.759  1.00  0.00     0.029 A 
ATOM     41  C   UNL A   1      41.453  26.441  28.679  1.00  0.00     0.049 A 
ATOM     42  H   UNL A   1      41.753  27.516  30.439  1.00  0.00     0.167 HD
ATOM     43  C   UNL A   1      42.515  30.172  33.835  1.00  0.00     0.034 A 
ATOM     44  C   UNL A   1      42.499  25.604  28.535  1.00  0.00     0.034 A 
ATOM     45  C   UNL A   1      43.577  29.202  33.865  1.00  0.00     0.049 A 
ATOM     46  C   UNL A   1      43.574  25.592  29.589  1.00  0.00     0.074 A 
ATOM     47  C   UNL A   1      44.591  29.066  34.796  1.00  0.00     0.029 A 
ATOM     48  N   UNL A   1      43.765  28.207  32.920  1.00  0.00    -0.354 N 
ATOM     49  N   UNL A   1      43.681  26.332  30.665  1.00  0.00    -0.248 NA
ATOM     50  C   UNL A   1      44.650  24.604  29.429  1.00  0.00     0.031 C 
ATOM     51  C   UNL A   1      45.407  28.000  34.401  1.00  0.00     0.029 A 
ATOM     52  C   UNL A   1      44.882  27.453  33.241  1.00  0.00     0.049 A 
ATOM     53  H   UNL A   1      43.190  28.056  32.136  1.00  0.00     0.167 HD
ATOM     54  C   UNL A   1      44.815  25.877  31.329  1.00  0.00     0.074 A 
ATOM     55  C   UNL A   1      45.347  24.782  30.544  1.00  0.00     0.031 C 
ATOM     56  C   UNL A   1      45.373  26.334  32.477  1.00  0.00     0.034 A 
BRANCH  43  57
ATOM     57  C   UNL A   1      42.472  31.223  34.915  1.00  0.00     0.023 A 
ATOM     58  C   UNL A   1      41.904  30.910  36.167  1.00  0.00     0.012 A 
ATOM     59  C   UNL A   1      43.034  32.500  34.714  1.00  0.00     0.148 A 
ATOM     60  C   UNL A   1      41.856  31.860  37.187  1.00  0.00     0.002 A 
ATOM     61  C   UNL A   1      43.026  33.426  35.751  1.00  0.00     0.091 A 
ATOM     62  F   UNL A   1      43.553  32.788  33.512  1.00  0.00    -0.205 F 
ATOM     63  C   UNL A   1      42.425  33.113  36.982  1.00  0.00     0.022 A 
BRANCH  61  64
ATOM     64  S   UNL A   1      43.804  35.039  35.615  1.00  0.00     0.127 S 
ATOM     65  O   UNL A   1      45.050  34.708  34.924  1.00  0.00    -0.237 OA
ATOM     66  O   UNL A   1      42.837  35.780  34.802  1.00  0.00    -0.237 OA
ATOM     67  O   UNL A   1      43.953  35.529  36.976  1.00  0.00    -0.744 OA
ENDBRANCH  61  64
ENDBRANCH  43  57
BRANCH  44  68
ATOM     68  C   UNL A   1      42.544  24.668  27.377  1.00  0.00     0.023 A 
ATOM     69  C   UNL A   1      43.152  25.079  26.176  1.00  0.00     0.012 A 
ATOM     70  C   UNL A   1      42.027  23.361  27.473  1.00  0.00     0.148 A 
ATOM     71  C   UNL A   1      43.217  24.218  25.080  1.00  0.00     0.002 A 
ATOM     72  C   UNL A   1      42.147  22.488  26.397  1.00  0.00     0.091 A 
ATOM     73  F   UNL A   1      41.445  22.991  28.623  1.00  0.00    -0.205 F 
ATOM     74  C   UNL A   1      42.725  22.921  25.194  1.00  0.00     0.022 A 
BRANCH  72  75
ATOM     75  S   UNL A   1      41.668  20.761  26.502  1.00  0.00     0.127 S 
ATOM     76  O   UNL A   1      42.189  20.385  27.815  1.00  0.00    -0.237 OA
ATOM     77  O   UNL A   1      40.207  20.847  26.422  1.00  0.00    -0.237 OA
ATOM     78  O   UNL A   1      42.291  20.107  25.363  1.00  0.00    -0.744 OA
ENDBRANCH  72  75
ENDBRANCH  44  68
BRANCH  56  79
ATOM     79  C   UNL A   1      46.606  25.632  32.982  1.00  0.00     0.023 A 
ATOM     80  C   UNL A   1      47.883  26.128  32.652  1.00  0.00     0.012 A 
ATOM     81  C   UNL A   1      46.497  24.523  33.845  1.00  0.00     0.148 A 
ATOM     82  C   UNL A   1      49.032  25.512  33.145  1.00  0.00     0.002 A 
ATOM     83  C   UNL A   1      47.646  23.945  34.373  1.00  0.00     0.091 A 
ATOM     84  F   UNL A   1      45.275  24.053  34.132  1.00  0.00    -0.205 F 
ATOM     85  C   UNL A   1      48.914  24.429  34.014  1.00  0.00     0.022 A 
BRANCH  83  86
ATOM     86  S   UNL A   1      47.587  22.609  35.574  1.00  0.00     0.127 S 
ATOM     87  O   UNL A   1      47.105  21.497  34.757  1.00  0.00    -0.237 OA
ATOM     88  O   UNL A   1      48.987  22.503  35.987  1.00  0.00    -0.237 OA
ATOM     89  O   UNL A   1      46.679  23.053  36.623  1.00  0.00    -0.744 OA
ENDBRANCH  83  86
ENDBRANCH  56  79
ENDBRANCH  30  31
ENDBRANCH  22  25
ENDBRANCH  20  21
ENDBRANCH  19  20
ENDBRANCH   1  19
TORSDOF 18
ENDMDL
MODEL 3
REMARK VINA RESULT:     -10.2      1.488      2.145
REMARK SMILES CCCCCNc1cncc(C(=O)NCCCNC(=O)c2ccc(-c3c4nc(c(-c5cccc(S(=O)(=O)[O-])c5F)c5ccc([nH]5)c(-c5cccc(S(=O)(=O)[O-])c5F)c5nc(c(-c6cccc(S(=O)(=O)[O-])c6F)c6ccc3[nH]6)C=C5)C=C4)cc2)n1
REMARK SMILES IDX 15 1 14 2 12 3 13 4 11 6 7 7 8 8 84 9 9 10 10 11 6 12 5 14
REMARK SMILES IDX 4 15 3 16 2 17 1 18 16 19 17 20 18 21 19 22 20 24 21 25
REMARK SMILES IDX 22 26 83 27 23 28 82 29 24 30 25 31 26 32 76 33 27 34 81 35
REMARK SMILES IDX 75 36 77 37 28 38 80 39 74 40 73 41 29 43 61 44 41 45 60 46
REMARK SMILES IDX 42 47 45 48 59 49 78 50 43 51 44 52 58 54 79 55 46 56 30 57
REMARK SMILES IDX 31 58 39 59 32 60 34 61 40 62 33 63 35 64 36 65 37 66 38 67
REMARK SMILES IDX 62 68 63 69 71 70 64 71 66 72 72 73 65 74 67 75 68 76 69 77
REMARK SMILES IDX 70 78 47 79 48 80 56 81 49 82 51 83 57 84 50 85 52 86 53 87
REMARK SMILES IDX 54 88 55 89
REMARK H PARENT 14 5 6 13 18 23 77 42 45 53
REMARK Flexibility Score: inf
ROOT
ATOM      1  C   UNL A   1      31.613  28.643  25.287  1.00  0.00     0.118 C 
ENDROOT
BRANCH   1   2
ATOM      2  N   UNL A   1      30.979  28.969  24.018  1.00  0.00    -0.351 N 
ATOM      3  C   UNL A   1      30.953  28.308  22.809  1.00  0.00     0.271 C 
ATOM      4  O   UNL A   1      30.302  28.818  21.895  1.00  0.00    -0.267 OA
ATOM      5  H   UNL A   1      30.478  29.818  24.024  1.00  0.00     0.163 HD
BRANCH   3   6
ATOM      6  C   UNL A   1      31.662  27.020  22.562  1.00  0.00     0.148 A 
ATOM      7  C   UNL A   1      31.722  24.718  22.626  1.00  0.00     0.145 A 
ATOM      8  C   UNL A   1      33.021  24.761  22.123  1.00  0.00     0.157 A 
ATOM      9  N   UNL A   1      31.032  25.853  22.831  1.00  0.00    -0.223 NA
ATOM     10  N   UNL A   1      33.670  25.916  21.823  1.00  0.00    -0.258 NA
ATOM     11  C   UNL A   1      32.958  27.045  22.065  1.00  0.00     0.145 A 
BRANCH   7  12
ATOM     12  N   UNL A   1      31.038  23.569  22.946  1.00  0.00    -0.369 N 
ATOM     13  H   UNL A   1      30.182  23.373  22.501  1.00  0.00     0.162 HD
BRANCH  12  14
ATOM     14  C   UNL A   1      31.563  22.640  23.933  1.00  0.00     0.114 C 
BRANCH  14  15
ATOM     15  C   UNL A   1      31.163  23.079  25.346  1.00  0.00     0.021 C 
BRANCH  15  16
ATOM     16  C   UNL A   1      32.278  23.725  26.181  1.00  0.00     0.002 C 
BRANCH  16  17
ATOM     17  C   UNL A   1      33.688  23.185  25.933  1.00  0.00    -0.003 C 
ATOM     18  C   UNL A   1      34.471  22.933  27.211  1.00  0.00     0.004 C 
ENDBRANCH  16  17
ENDBRANCH  15  16
ENDBRANCH  14  15
ENDBRANCH  12  14
ENDBRANCH   7  12
ENDBRANCH   3   6
ENDBRANCH   1   2
BRANCH   1  19
ATOM     19  C   UNL A   1      33.121  28.879  25.262  1.00  0.00     0.042 C 
BRANCH  19  20
ATOM     20  C   UNL A   1      33.743  29.010  26.652  1.00  0.00     0.118 C 
BRANCH  20  21
ATOM     21  N   UNL A   1      33.725  30.385  27.143  1.00  0.00    -0.352 N 
ATOM     22  C   UNL A   1      34.555  31.030  28.021  1.00  0.00     0.251 C 
ATOM     23  H   UNL A   1      32.996  30.940  26.784  1.00  0.00     0.163 HD
ATOM     24  O   UNL A   1      34.225  32.136  28.456  1.00  0.00    -0.269 OA
BRANCH  22  25
ATOM     25  C   UNL A   1      35.831  30.422  28.453  1.00  0.00     0.039 A 
ATOM     26  C   UNL A   1      36.960  30.571  27.643  1.00  0.00     0.014 A 
ATOM     27  C   UNL A   1      35.910  29.671  29.629  1.00  0.00     0.014 A 
ATOM     28  C   UNL A   1      38.179  30.015  28.039  1.00  0.00     0.010 A 
ATOM     29  C   UNL A   1      37.141  29.186  30.061  1.00  0.00     0.010 A 
ATOM     30  C   UNL A   1      38.288  29.345  29.267  1.00  0.00    -0.014 A 
BRANCH  30  31
ATOM     31  C   UNL A   1      39.589  28.811  29.744  1.00  0.00     0.031 A 
ATOM     32  C   UNL A   1      40.345  29.511  30.842  1.00  0.00     0.074 A 
ATOM     33  C   UNL A   1      40.135  27.746  29.123  1.00  0.00     0.049 A 
ATOM     34  N   UNL A   1      41.523  29.235  31.337  1.00  0.00    -0.248 NA
ATOM     35  C   UNL A   1      39.704  30.693  31.443  1.00  0.00     0.031 C 
ATOM     36  C   UNL A   1      39.542  27.032  27.991  1.00  0.00     0.029 A 
ATOM     37  N   UNL A   1      41.327  27.099  29.336  1.00  0.00    -0.354 N 
ATOM     38  C   UNL A   1      41.781  30.224  32.280  1.00  0.00     0.074 A 
ATOM     39  C   UNL A   1      40.652  31.129  32.259  1.00  0.00     0.031 C 
ATOM     40  C   UNL A   1      40.372  26.050  27.606  1.00  0.00     0.029 A 
ATOM     41  C   UNL A   1      41.569  26.083  28.441  1.00  0.00     0.049 A 
ATOM     42  H   UNL A   1      41.951  27.340  30.059  1.00  0.00     0.167 HD
ATOM     43  C   UNL A   1      42.844  30.351  33.110  1.00  0.00     0.034 A 
ATOM     44  C   UNL A   1      42.637  25.273  28.300  1.00  0.00     0.034 A 
ATOM     45  C   UNL A   1      43.946  29.427  33.153  1.00  0.00     0.049 A 
ATOM     46  C   UNL A   1      43.785  25.406  29.263  1.00  0.00     0.074 A 
ATOM     47  C   UNL A   1      45.030  29.423  34.011  1.00  0.00     0.029 A 
ATOM     48  N   UNL A   1      44.108  28.349  32.298  1.00  0.00    -0.354 N 
ATOM     49  N   UNL A   1      43.939  26.254  30.251  1.00  0.00    -0.248 NA
ATOM     50  C   UNL A   1      44.889  24.446  29.119  1.00  0.00     0.031 C 
ATOM     51  C   UNL A   1      45.861  28.352  33.661  1.00  0.00     0.029 A 
ATOM     52  C   UNL A   1      45.277  27.673  32.604  1.00  0.00     0.049 A 
ATOM     53  H   UNL A   1      43.483  28.099  31.579  1.00  0.00     0.167 HD
ATOM     54  C   UNL A   1      45.137  25.910  30.867  1.00  0.00     0.074 A 
ATOM     55  C   UNL A   1      45.657  24.761  30.153  1.00  0.00     0.031 C 
ATOM     56  C   UNL A   1      45.758  26.500  31.917  1.00  0.00     0.034 A 
BRANCH  43  57
ATOM     57  C   UNL A   1      42.835  31.503  34.082  1.00  0.00     0.023 A 
ATOM     58  C   UNL A   1      43.478  32.709  33.734  1.00  0.00     0.012 A 
ATOM     59  C   UNL A   1      42.154  31.416  35.312  1.00  0.00     0.148 A 
ATOM     60  C   UNL A   1      43.481  33.794  34.610  1.00  0.00     0.002 A 
ATOM     61  C   UNL A   1      42.120  32.517  36.160  1.00  0.00     0.091 A 
ATOM     62  F   UNL A   1      41.564  30.256  35.636  1.00  0.00    -0.205 F 
ATOM     63  C   UNL A   1      42.795  33.702  35.817  1.00  0.00     0.022 A 
BRANCH  61  64
ATOM     64  S   UNL A   1      41.196  32.527  37.700  1.00  0.00     0.127 S 
ATOM     65  O   UNL A   1      42.055  31.718  38.565  1.00  0.00    -0.237 OA
ATOM     66  O   UNL A   1      41.168  33.953  38.033  1.00  0.00    -0.237 OA
ATOM     67  O   UNL A   1      39.897  31.951  37.392  1.00  0.00    -0.744 OA
ENDBRANCH  61  64
ENDBRANCH  43  57
BRANCH  44  68
ATOM     68  C   UNL A   1      42.638  24.227  27.239  1.00  0.00     0.023 A 
ATOM     69  C   UNL A   1      43.292  24.478  26.019  1.00  0.00     0.012 A 
ATOM     70  C   UNL A   1      42.031  22.973  27.449  1.00  0.00     0.148 A 
ATOM     71  C   UNL A   1      43.316  23.511  25.012  1.00  0.00     0.002 A 
ATOM     72  C   UNL A   1      42.109  21.994  26.465  1.00  0.00     0.091 A 
ATOM     73  F   UNL A   1      41.406  22.757  28.615  1.00  0.00    -0.205 F 
ATOM     74  C   UNL A   1      42.735  22.267  25.240  1.00  0.00     0.022 A 
BRANCH  72  75
ATOM     75  S   UNL A   1      41.512  20.320  26.726  1.00  0.00     0.127 S 
ATOM     76  O   UNL A   1      42.341  19.878  27.845  1.00  0.00    -0.237 OA
ATOM     77  O   UNL A   1      40.103  20.551  27.058  1.00  0.00    -0.237 OA
ATOM     78  O   UNL A   1      41.723  19.624  25.467  1.00  0.00    -0.744 OA
ENDBRANCH  72  75
ENDBRANCH  44  68
BRANCH  56  79
ATOM     79  C   UNL A   1      47.054  25.897  32.392  1.00  0.00     0.023 A 
ATOM     80  C   UNL A   1      48.276  26.334  31.843  1.00  0.00     0.012 A 
ATOM     81  C   UNL A   1      47.065  24.949  33.435  1.00  0.00     0.148 A 
ATOM     82  C   UNL A   1      49.485  25.814  32.301  1.00  0.00     0.002 A 
ATOM     83  C   UNL A   1      48.276  24.472  33.921  1.00  0.00     0.091 A 
ATOM     84  F   UNL A   1      45.891  24.531  33.932  1.00  0.00    -0.205 F 
ATOM     85  C   UNL A   1      49.487  24.893  33.347  1.00  0.00     0.022 A 
BRANCH  83  86
ATOM     86  S   UNL A   1      48.379  23.358  35.327  1.00  0.00     0.127 S 
ATOM     87  O   UNL A   1      49.790  22.976  35.301  1.00  0.00    -0.237 OA
ATOM     88  O   UNL A   1      48.002  24.230  36.440  1.00  0.00    -0.237 OA
ATOM     89  O   UNL A   1      47.435  22.282  35.056  1.00  0.00    -0.744 OA
ENDBRANCH  83  86
ENDBRANCH  56  79
ENDBRANCH  30  31
ENDBRANCH  22  25
ENDBRANCH  20  21
ENDBRANCH  19  20
ENDBRANCH   1  19
TORSDOF 18
ENDMDL
