MODEL 1
REMARK VINA RESULT:     -10.7      0.000      0.000
REMARK SMILES CCCC[C@H]([NH3+])C(=O)Nc1snc(C)c1C(=O)NCCCNC(=O)c1ccc(-c2c3nc(c(-c4cccc(S(=O)(=O)[O-])c4F)c4ccc([nH]4)c(-c4cccc(S(=O)(=O)[O-])c4F)c4nc(c(-c5cccc(S(=O)(=O)[O-])c5F)c5ccc2[nH]5)C=C4)C=C3)cc1
REMARK SMILES IDX 19 1 18 2 16 3 17 4 15 6 10 7 11 8 12 9 13 10 14 11 9 12
REMARK SMILES IDX 7 13 8 14 5 16 4 17 3 18 2 19 1 20 6 21 20 25 21 26 22 27
REMARK SMILES IDX 23 28 24 30 25 31 26 32 87 33 27 34 86 35 28 36 29 37 30 38
REMARK SMILES IDX 80 39 31 40 85 41 79 42 81 43 32 44 84 45 78 46 77 47 33 49
REMARK SMILES IDX 65 50 45 51 64 52 46 53 49 54 63 55 82 56 47 57 48 58 62 60
REMARK SMILES IDX 83 61 50 62 34 63 35 64 43 65 36 66 38 67 44 68 37 69 39 70
REMARK SMILES IDX 40 71 41 72 42 73 66 74 67 75 75 76 68 77 70 78 76 79 69 80
REMARK SMILES IDX 71 81 72 82 73 83 74 84 51 85 52 86 60 87 53 88 55 89 61 90
REMARK SMILES IDX 54 91 56 92 57 93 58 94 59 95
REMARK H PARENT 18 5 9 15 6 22 6 23 6 24 22 29 81 48 49 59
REMARK Flexibility Score: inf
ROOT
ATOM      1  C   UNL A   1      32.884  30.188  25.883  1.00  0.00     0.118 C 
ENDROOT
BRANCH   1   2
ATOM      2  N   UNL A   1      32.238  29.688  24.683  1.00  0.00    -0.352 N 
ATOM      3  C   UNL A   1      31.194  28.798  24.574  1.00  0.00     0.256 C 
ATOM      4  O   UNL A   1      30.246  29.143  23.870  1.00  0.00    -0.269 OA
ATOM      5  H   UNL A   1      32.593  30.033  23.833  1.00  0.00     0.163 HD
BRANCH   3   6
ATOM      6  C   UNL A   1      31.318  27.423  25.053  1.00  0.00     0.097 A 
ATOM      7  C   UNL A   1      31.542  26.257  24.349  1.00  0.00     0.129 A 
ATOM      8  S   UNL A   1      30.878  24.962  25.252  1.00  0.00    -0.017 S 
ATOM      9  N   UNL A   1      30.958  25.746  26.702  1.00  0.00    -0.195 NA
ATOM     10  C   UNL A   1      31.196  27.041  26.462  1.00  0.00     0.066 A 
ATOM     11  C   UNL A   1      31.293  27.919  27.667  1.00  0.00     0.069 C 
BRANCH   7  12
ATOM     12  N   UNL A   1      32.082  25.856  23.160  1.00  0.00    -0.311 N 
ATOM     13  C   UNL A   1      33.092  24.975  22.900  1.00  0.00     0.283 C 
ATOM     14  O   UNL A   1      33.367  24.824  21.697  1.00  0.00    -0.268 OA
ATOM     15  H   UNL A   1      31.679  26.269  22.363  1.00  0.00     0.171 HD
BRANCH  13  16
ATOM     16  C   UNL A   1      33.793  24.061  23.938  1.00  0.00     0.271 C 
BRANCH  16  17
ATOM     17  C   UNL A   1      34.795  24.766  24.863  1.00  0.00     0.075 C 
BRANCH  17  18
ATOM     18  C   UNL A   1      35.680  23.902  25.766  1.00  0.00     0.006 C 
BRANCH  18  19
ATOM     19  C   UNL A   1      37.143  23.709  25.340  1.00  0.00    -0.003 C 
ATOM     20  C   UNL A   1      37.599  22.271  25.157  1.00  0.00     0.004 C 
ENDBRANCH  18  19
ENDBRANCH  17  18
ENDBRANCH  16  17
BRANCH  16  21
ATOM     21  N   UNL A   1      34.363  22.829  23.390  1.00  0.00    -0.347 N 
ATOM     22  H   UNL A   1      35.311  22.705  23.746  1.00  0.00     0.345 HD
ATOM     23  H   UNL A   1      34.389  22.890  22.371  1.00  0.00     0.345 HD
ATOM     24  H   UNL A   1      33.788  22.034  23.669  1.00  0.00     0.345 HD
ENDBRANCH  16  21
ENDBRANCH  13  16
ENDBRANCH   7  12
ENDBRANCH   3   6
ENDBRANCH   1   2
BRANCH   1  25
ATOM     25  C   UNL A   1      32.174  31.332  26.605  1.00  0.00     0.042 C 
BRANCH  25  26
ATOM     26  C   UNL A   1      33.043  32.066  27.636  1.00  0.00     0.118 C 
BRANCH  26  27
ATOM     27  N   UNL A   1      32.699  33.479  27.866  1.00  0.00    -0.352 N 
ATOM     28  C   UNL A   1      33.150  34.306  28.899  1.00  0.00     0.251 C 
ATOM     29  H   UNL A   1      32.081  33.888  27.218  1.00  0.00     0.163 HD
ATOM     30  O   UNL A   1      32.543  35.292  29.261  1.00  0.00    -0.269 OA
BRANCH  28  31
ATOM     31  C   UNL A   1      34.456  33.963  29.496  1.00  0.00     0.039 A 
ATOM     32  C   UNL A   1      34.624  33.047  30.532  1.00  0.00     0.014 A 
ATOM     33  C   UNL A   1      35.544  34.488  28.818  1.00  0.00     0.014 A 
ATOM     34  C   UNL A   1      35.910  32.559  30.773  1.00  0.00     0.010 A 
ATOM     35  C   UNL A   1      36.736  33.828  28.882  1.00  0.00     0.010 A 
ATOM     36  C   UNL A   1      36.956  32.916  29.901  1.00  0.00    -0.014 A 
BRANCH  36  37
ATOM     37  C   UNL A   1      38.250  32.242  29.916  1.00  0.00     0.031 A 
ATOM     38  C   UNL A   1      38.225  30.885  29.305  1.00  0.00     0.074 A 
ATOM     39  C   UNL A   1      39.409  32.873  30.216  1.00  0.00     0.049 A 
ATOM     40  N   UNL A   1      38.209  29.753  29.929  1.00  0.00    -0.248 NA
ATOM     41  C   UNL A   1      37.985  30.763  27.859  1.00  0.00     0.031 C 
ATOM     42  C   UNL A   1      39.631  34.302  30.493  1.00  0.00     0.029 A 
ATOM     43  N   UNL A   1      40.677  32.387  30.202  1.00  0.00    -0.354 N 
ATOM     44  C   UNL A   1      38.265  28.782  28.931  1.00  0.00     0.074 A 
ATOM     45  C   UNL A   1      37.850  29.441  27.724  1.00  0.00     0.031 C 
ATOM     46  C   UNL A   1      40.942  34.597  30.356  1.00  0.00     0.029 A 
ATOM     47  C   UNL A   1      41.676  33.359  30.190  1.00  0.00     0.049 A 
ATOM     48  H   UNL A   1      40.875  31.422  30.199  1.00  0.00     0.167 HD
ATOM     49  C   UNL A   1      38.948  27.618  29.135  1.00  0.00     0.034 A 
ATOM     50  C   UNL A   1      43.007  33.153  30.037  1.00  0.00     0.034 A 
ATOM     51  C   UNL A   1      39.289  27.466  30.533  1.00  0.00     0.049 A 
ATOM     52  C   UNL A   1      43.256  31.735  30.382  1.00  0.00     0.074 A 
ATOM     53  C   UNL A   1      38.583  27.447  31.720  1.00  0.00     0.029 A 
ATOM     54  N   UNL A   1      40.591  27.746  30.875  1.00  0.00    -0.354 N 
ATOM     55  N   UNL A   1      43.097  31.252  31.581  1.00  0.00    -0.248 NA
ATOM     56  C   UNL A   1      43.236  30.764  29.302  1.00  0.00     0.031 C 
ATOM     57  C   UNL A   1      39.388  28.192  32.635  1.00  0.00     0.029 A 
ATOM     58  C   UNL A   1      40.577  28.538  31.990  1.00  0.00     0.049 A 
ATOM     59  H   UNL A   1      41.395  27.429  30.401  1.00  0.00     0.167 HD
ATOM     60  C   UNL A   1      42.478  30.028  31.372  1.00  0.00     0.074 A 
ATOM     61  C   UNL A   1      42.695  29.732  29.955  1.00  0.00     0.031 C 
ATOM     62  C   UNL A   1      41.594  29.524  32.283  1.00  0.00     0.034 A 
BRANCH  49  63
ATOM     63  C   UNL A   1      39.689  26.823  28.072  1.00  0.00     0.023 A 
ATOM     64  C   UNL A   1      39.469  25.425  28.060  1.00  0.00     0.012 A 
ATOM     65  C   UNL A   1      40.770  27.298  27.294  1.00  0.00     0.148 A 
ATOM     66  C   UNL A   1      40.329  24.544  27.394  1.00  0.00     0.002 A 
ATOM     67  C   UNL A   1      41.579  26.426  26.572  1.00  0.00     0.091 A 
ATOM     68  F   UNL A   1      41.116  28.584  27.332  1.00  0.00    -0.205 F 
ATOM     69  C   UNL A   1      41.386  25.045  26.648  1.00  0.00     0.022 A 
BRANCH  67  70
ATOM     70  S   UNL A   1      42.936  27.021  25.552  1.00  0.00     0.127 S 
ATOM     71  O   UNL A   1      43.408  25.779  24.945  1.00  0.00    -0.237 OA
ATOM     72  O   UNL A   1      42.245  27.934  24.644  1.00  0.00    -0.237 OA
ATOM     73  O   UNL A   1      43.862  27.674  26.468  1.00  0.00    -0.744 OA
ENDBRANCH  67  70
ENDBRANCH  49  63
BRANCH  50  74
ATOM     74  C   UNL A   1      44.062  33.983  29.410  1.00  0.00     0.023 A 
ATOM     75  C   UNL A   1      44.410  33.753  28.062  1.00  0.00     0.012 A 
ATOM     76  C   UNL A   1      44.478  35.192  30.009  1.00  0.00     0.148 A 
ATOM     77  C   UNL A   1      45.095  34.720  27.316  1.00  0.00     0.002 A 
ATOM     78  C   UNL A   1      45.155  36.153  29.260  1.00  0.00     0.091 A 
ATOM     79  F   UNL A   1      44.122  35.436  31.277  1.00  0.00    -0.205 F 
ATOM     80  C   UNL A   1      45.453  35.926  27.910  1.00  0.00     0.022 A 
BRANCH  78  81
ATOM     81  S   UNL A   1      45.603  37.758  29.937  1.00  0.00     0.127 S 
ATOM     82  O   UNL A   1      44.298  38.303  30.314  1.00  0.00    -0.237 OA
ATOM     83  O   UNL A   1      46.458  37.382  31.059  1.00  0.00    -0.237 OA
ATOM     84  O   UNL A   1      46.263  38.472  28.852  1.00  0.00    -0.744 OA
ENDBRANCH  78  81
ENDBRANCH  50  74
BRANCH  62  85
ATOM     85  C   UNL A   1      41.520  30.183  33.639  1.00  0.00     0.023 A 
ATOM     86  C   UNL A   1      42.448  29.933  34.673  1.00  0.00     0.012 A 
ATOM     87  C   UNL A   1      40.566  31.196  33.818  1.00  0.00     0.148 A 
ATOM     88  C   UNL A   1      42.404  30.662  35.867  1.00  0.00     0.002 A 
ATOM     89  C   UNL A   1      40.555  31.950  34.984  1.00  0.00     0.091 A 
ATOM     90  F   UNL A   1      39.690  31.422  32.828  1.00  0.00    -0.205 F 
ATOM     91  C   UNL A   1      41.466  31.680  36.017  1.00  0.00     0.022 A 
BRANCH  89  92
ATOM     92  S   UNL A   1      39.443  33.343  35.177  1.00  0.00     0.127 S 
ATOM     93  O   UNL A   1      39.858  34.218  34.082  1.00  0.00    -0.237 OA
ATOM     94  O   UNL A   1      38.127  32.725  35.004  1.00  0.00    -0.237 OA
ATOM     95  O   UNL A   1      39.681  33.859  36.520  1.00  0.00    -0.744 OA
ENDBRANCH  89  92
ENDBRANCH  62  85
ENDBRANCH  36  37
ENDBRANCH  28  31
ENDBRANCH  26  27
ENDBRANCH  25  26
ENDBRANCH   1  25
TORSDOF 19
ENDMDL
MODEL 2
REMARK VINA RESULT:     -10.7      1.904      2.406
REMARK SMILES CCCC[C@H]([NH3+])C(=O)Nc1snc(C)c1C(=O)NCCCNC(=O)c1ccc(-c2c3nc(c(-c4cccc(S(=O)(=O)[O-])c4F)c4ccc([nH]4)c(-c4cccc(S(=O)(=O)[O-])c4F)c4nc(c(-c5cccc(S(=O)(=O)[O-])c5F)c5ccc2[nH]5)C=C4)C=C3)cc1
REMARK SMILES IDX 19 1 18 2 16 3 17 4 15 6 10 7 11 8 12 9 13 10 14 11 9 12
REMARK SMILES IDX 7 13 8 14 5 16 4 17 3 18 2 19 1 20 6 21 20 25 21 26 22 27
REMARK SMILES IDX 23 28 24 30 25 31 26 32 87 33 27 34 86 35 28 36 29 37 30 38
REMARK SMILES IDX 80 39 31 40 85 41 79 42 81 43 32 44 84 45 78 46 77 47 33 49
REMARK SMILES IDX 65 50 45 51 64 52 46 53 49 54 63 55 82 56 47 57 48 58 62 60
REMARK SMILES IDX 83 61 50 62 34 63 35 64 43 65 36 66 38 67 44 68 37 69 39 70
REMARK SMILES IDX 40 71 41 72 42 73 66 74 67 75 75 76 68 77 70 78 76 79 69 80
REMARK SMILES IDX 71 81 72 82 73 83 74 84 51 85 52 86 60 87 53 88 55 89 61 90
REMARK SMILES IDX 54 91 56 92 57 93 58 94 59 95
REMARK H PARENT 18 5 9 15 6 22 6 23 6 24 22 29 81 48 49 59
REMARK Flexibility Score: inf
ROOT
ATOM      1  C   UNL A   1      33.186  29.685  25.219  1.00  0.00     0.118 C 
ENDROOT
BRANCH   1   2
ATOM      2  N   UNL A   1      33.273  28.247  25.049  1.00  0.00    -0.352 N 
ATOM      3  C   UNL A   1      32.599  27.441  24.161  1.00  0.00     0.256 C 
ATOM      4  O   UNL A   1      33.280  26.668  23.490  1.00  0.00    -0.269 OA
ATOM      5  H   UNL A   1      33.900  27.785  25.651  1.00  0.00     0.163 HD
BRANCH   3   6
ATOM      6  C   UNL A   1      31.142  27.326  24.197  1.00  0.00     0.097 A 
ATOM      7  C   UNL A   1      30.340  26.462  24.915  1.00  0.00     0.129 A 
ATOM      8  S   UNL A   1      28.871  26.274  24.057  1.00  0.00    -0.017 S 
ATOM      9  N   UNL A   1      28.993  27.709  23.252  1.00  0.00    -0.195 NA
ATOM     10  C   UNL A   1      30.242  28.165  23.404  1.00  0.00     0.066 A 
ATOM     11  C   UNL A   1      30.547  29.464  22.729  1.00  0.00     0.069 C 
BRANCH   7  12
ATOM     12  N   UNL A   1      30.396  25.704  26.050  1.00  0.00    -0.311 N 
ATOM     13  C   UNL A   1      30.704  24.384  26.218  1.00  0.00     0.283 C 
ATOM     14  O   UNL A   1      30.659  23.974  27.390  1.00  0.00    -0.268 OA
ATOM     15  H   UNL A   1      30.179  26.185  26.881  1.00  0.00     0.171 HD
BRANCH  13  16
ATOM     16  C   UNL A   1      31.241  23.428  25.122  1.00  0.00     0.271 C 
BRANCH  16  17
ATOM     17  C   UNL A   1      31.450  21.972  25.564  1.00  0.00     0.075 C 
BRANCH  17  18
ATOM     18  C   UNL A   1      32.875  21.411  25.560  1.00  0.00     0.006 C 
BRANCH  18  19
ATOM     19  C   UNL A   1      33.399  20.834  24.237  1.00  0.00    -0.003 C 
ATOM     20  C   UNL A   1      32.365  20.162  23.348  1.00  0.00     0.004 C 
ENDBRANCH  18  19
ENDBRANCH  17  18
ENDBRANCH  16  17
BRANCH  16  21
ATOM     21  N   UNL A   1      32.406  23.924  24.387  1.00  0.00    -0.347 N 
ATOM     22  H   UNL A   1      32.145  24.105  23.418  1.00  0.00     0.345 HD
ATOM     23  H   UNL A   1      33.148  23.224  24.413  1.00  0.00     0.345 HD
ATOM     24  H   UNL A   1      32.738  24.787  24.817  1.00  0.00     0.345 HD
ENDBRANCH  16  21
ENDBRANCH  13  16
ENDBRANCH   7  12
ENDBRANCH   3   6
ENDBRANCH   1   2
BRANCH   1  25
ATOM     25  C   UNL A   1      32.289  30.178  26.353  1.00  0.00     0.042 C 
BRANCH  25  26
ATOM     26  C   UNL A   1      32.983  31.120  27.347  1.00  0.00     0.118 C 
BRANCH  26  27
ATOM     27  N   UNL A   1      32.570  32.532  27.279  1.00  0.00    -0.352 N 
ATOM     28  C   UNL A   1      32.961  33.574  28.126  1.00  0.00     0.251 C 
ATOM     29  H   UNL A   1      31.946  32.769  26.556  1.00  0.00     0.163 HD
ATOM     30  O   UNL A   1      32.303  34.581  28.272  1.00  0.00    -0.269 OA
BRANCH  28  31
ATOM     31  C   UNL A   1      34.271  33.424  28.791  1.00  0.00     0.039 A 
ATOM     32  C   UNL A   1      34.469  32.707  29.969  1.00  0.00     0.014 A 
ATOM     33  C   UNL A   1      35.341  33.901  28.052  1.00  0.00     0.014 A 
ATOM     34  C   UNL A   1      35.777  32.355  30.309  1.00  0.00     0.010 A 
ATOM     35  C   UNL A   1      36.570  33.343  28.244  1.00  0.00     0.010 A 
ATOM     36  C   UNL A   1      36.821  32.631  29.406  1.00  0.00    -0.014 A 
BRANCH  36  37
ATOM     37  C   UNL A   1      38.154  32.058  29.555  1.00  0.00     0.031 A 
ATOM     38  C   UNL A   1      38.268  30.666  29.042  1.00  0.00     0.074 A 
ATOM     39  C   UNL A   1      39.242  32.793  29.885  1.00  0.00     0.049 A 
ATOM     40  N   UNL A   1      38.288  29.580  29.742  1.00  0.00    -0.248 NA
ATOM     41  C   UNL A   1      38.141  30.431  27.595  1.00  0.00     0.031 C 
ATOM     42  C   UNL A   1      39.344  34.250  30.074  1.00  0.00     0.029 A 
ATOM     43  N   UNL A   1      40.540  32.403  29.989  1.00  0.00    -0.354 N 
ATOM     44  C   UNL A   1      38.482  28.552  28.822  1.00  0.00     0.074 A 
ATOM     45  C   UNL A   1      38.109  29.097  27.546  1.00  0.00     0.031 C 
ATOM     46  C   UNL A   1      40.637  34.632  30.003  1.00  0.00     0.029 A 
ATOM     47  C   UNL A   1      41.466  33.444  29.974  1.00  0.00     0.049 A 
ATOM     48  H   UNL A   1      40.805  31.458  30.068  1.00  0.00     0.167 HD
ATOM     49  C   UNL A   1      39.229  27.458  29.153  1.00  0.00     0.034 A 
ATOM     50  C   UNL A   1      42.816  33.329  29.925  1.00  0.00     0.034 A 
ATOM     51  C   UNL A   1      39.480  27.426  30.578  1.00  0.00     0.049 A 
ATOM     52  C   UNL A   1      43.139  31.960  30.385  1.00  0.00     0.074 A 
ATOM     53  C   UNL A   1      38.694  27.432  31.714  1.00  0.00     0.029 A 
ATOM     54  N   UNL A   1      40.732  27.824  30.985  1.00  0.00    -0.354 N 
ATOM     55  N   UNL A   1      42.929  31.547  31.603  1.00  0.00    -0.248 NA
ATOM     56  C   UNL A   1      43.263  30.920  29.379  1.00  0.00     0.031 C 
ATOM     57  C   UNL A   1      39.377  28.294  32.624  1.00  0.00     0.029 A 
ATOM     58  C   UNL A   1      40.582  28.684  32.037  1.00  0.00     0.049 A 
ATOM     59  H   UNL A   1      41.587  27.538  30.588  1.00  0.00     0.167 HD
ATOM     60  C   UNL A   1      42.413  30.268  31.441  1.00  0.00     0.074 A 
ATOM     61  C   UNL A   1      42.751  29.896  30.066  1.00  0.00     0.031 C 
ATOM     62  C   UNL A   1      41.505  29.761  32.326  1.00  0.00     0.034 A 
BRANCH  49  63
ATOM     63  C   UNL A   1      40.097  26.653  28.201  1.00  0.00     0.023 A 
ATOM     64  C   UNL A   1      40.112  25.250  28.391  1.00  0.00     0.012 A 
ATOM     65  C   UNL A   1      41.090  27.182  27.344  1.00  0.00     0.148 A 
ATOM     66  C   UNL A   1      41.109  24.436  27.842  1.00  0.00     0.002 A 
ATOM     67  C   UNL A   1      42.036  26.361  26.739  1.00  0.00     0.091 A 
ATOM     68  F   UNL A   1      41.219  28.500  27.193  1.00  0.00    -0.205 F 
ATOM     69  C   UNL A   1      42.073  24.992  27.014  1.00  0.00     0.022 A 
BRANCH  67  70
ATOM     70  S   UNL A   1      43.283  27.019  25.622  1.00  0.00     0.127 S 
ATOM     71  O   UNL A   1      44.121  27.782  26.541  1.00  0.00    -0.237 OA
ATOM     72  O   UNL A   1      43.887  25.794  25.099  1.00  0.00    -0.237 OA
ATOM     73  O   UNL A   1      42.553  27.797  24.629  1.00  0.00    -0.744 OA
ENDBRANCH  67  70
ENDBRANCH  49  63
BRANCH  50  74
ATOM     74  C   UNL A   1      43.852  34.193  29.311  1.00  0.00     0.023 A 
ATOM     75  C   UNL A   1      44.585  35.078  30.130  1.00  0.00     0.012 A 
ATOM     76  C   UNL A   1      44.346  33.916  28.018  1.00  0.00     0.148 A 
ATOM     77  C   UNL A   1      45.802  35.621  29.700  1.00  0.00     0.002 A 
ATOM     78  C   UNL A   1      45.560  34.455  27.598  1.00  0.00     0.091 A 
ATOM     79  F   UNL A   1      43.677  33.050  27.246  1.00  0.00    -0.205 F 
ATOM     80  C   UNL A   1      46.298  35.296  28.442  1.00  0.00     0.022 A 
BRANCH  78  81
ATOM     81  S   UNL A   1      46.297  34.042  26.010  1.00  0.00     0.127 S 
ATOM     82  O   UNL A   1      47.489  34.890  25.998  1.00  0.00    -0.237 OA
ATOM     83  O   UNL A   1      46.562  32.615  26.165  1.00  0.00    -0.237 OA
ATOM     84  O   UNL A   1      45.297  34.393  25.010  1.00  0.00    -0.744 OA
ENDBRANCH  78  81
ENDBRANCH  50  74
BRANCH  62  85
ATOM     85  C   UNL A   1      41.289  30.501  33.623  1.00  0.00     0.023 A 
ATOM     86  C   UNL A   1      42.173  30.416  34.720  1.00  0.00     0.012 A 
ATOM     87  C   UNL A   1      40.233  31.425  33.677  1.00  0.00     0.148 A 
ATOM     88  C   UNL A   1      41.990  31.218  35.853  1.00  0.00     0.002 A 
ATOM     89  C   UNL A   1      40.082  32.252  34.781  1.00  0.00     0.091 A 
ATOM     90  F   UNL A   1      39.399  31.494  32.628  1.00  0.00    -0.205 F 
ATOM     91  C   UNL A   1      40.951  32.145  35.877  1.00  0.00     0.022 A 
BRANCH  89  92
ATOM     92  S   UNL A   1      38.833  33.539  34.812  1.00  0.00     0.127 S 
ATOM     93  O   UNL A   1      39.175  34.324  33.628  1.00  0.00    -0.237 OA
ATOM     94  O   UNL A   1      37.589  32.775  34.703  1.00  0.00    -0.237 OA
ATOM     95  O   UNL A   1      38.998  34.221  36.090  1.00  0.00    -0.744 OA
ENDBRANCH  89  92
ENDBRANCH  62  85
ENDBRANCH  36  37
ENDBRANCH  28  31
ENDBRANCH  26  27
ENDBRANCH  25  26
ENDBRANCH   1  25
TORSDOF 19
ENDMDL
MODEL 3
REMARK VINA RESULT:     -10.2      4.574     10.420
REMARK SMILES CCCC[C@H]([NH3+])C(=O)Nc1snc(C)c1C(=O)NCCCNC(=O)c1ccc(-c2c3nc(c(-c4cccc(S(=O)(=O)[O-])c4F)c4ccc([nH]4)c(-c4cccc(S(=O)(=O)[O-])c4F)c4nc(c(-c5cccc(S(=O)(=O)[O-])c5F)c5ccc2[nH]5)C=C4)C=C3)cc1
REMARK SMILES IDX 19 1 18 2 16 3 17 4 15 6 10 7 11 8 12 9 13 10 14 11 9 12
REMARK SMILES IDX 7 13 8 14 5 16 4 17 3 18 2 19 1 20 6 21 20 25 21 26 22 27
REMARK SMILES IDX 23 28 24 30 25 31 26 32 87 33 27 34 86 35 28 36 29 37 30 38
REMARK SMILES IDX 80 39 31 40 85 41 79 42 81 43 32 44 84 45 78 46 77 47 33 49
REMARK SMILES IDX 65 50 45 51 64 52 46 53 49 54 63 55 82 56 47 57 48 58 62 60
REMARK SMILES IDX 83 61 50 62 34 63 35 64 43 65 36 66 38 67 44 68 37 69 39 70
REMARK SMILES IDX 40 71 41 72 42 73 66 74 67 75 75 76 68 77 70 78 76 79 69 80
REMARK SMILES IDX 71 81 72 82 73 83 74 84 51 85 52 86 60 87 53 88 55 89 61 90
REMARK SMILES IDX 54 91 56 92 57 93 58 94 59 95
REMARK H PARENT 18 5 9 15 6 22 6 23 6 24 22 29 81 48 49 59
REMARK Flexibility Score: inf
ROOT
ATOM      1  C   UNL A   1      35.186  32.426  32.251  1.00  0.00     0.118 C 
ENDROOT
BRANCH   1   2
ATOM      2  N   UNL A   1      35.620  33.090  33.466  1.00  0.00    -0.352 N 
ATOM      3  C   UNL A   1      36.747  33.850  33.678  1.00  0.00     0.256 C 
ATOM      4  O   UNL A   1      36.579  34.955  34.192  1.00  0.00    -0.269 OA
ATOM      5  H   UNL A   1      35.027  32.983  34.245  1.00  0.00     0.163 HD
BRANCH   3   6
ATOM      6  C   UNL A   1      38.084  33.277  33.540  1.00  0.00     0.097 A 
ATOM      7  C   UNL A   1      38.723  32.325  34.310  1.00  0.00     0.129 A 
ATOM      8  S   UNL A   1      40.410  32.578  34.165  1.00  0.00    -0.017 S 
ATOM      9  N   UNL A   1      40.312  33.349  32.710  1.00  0.00    -0.195 NA
ATOM     10  C   UNL A   1      39.030  33.667  32.493  1.00  0.00     0.066 A 
ATOM     11  C   UNL A   1      38.746  34.387  31.215  1.00  0.00     0.069 C 
BRANCH   7  12
ATOM     12  N   UNL A   1      38.408  31.303  35.160  1.00  0.00    -0.311 N 
ATOM     13  C   UNL A   1      38.156  31.315  36.502  1.00  0.00     0.283 C 
ATOM     14  O   UNL A   1      37.903  30.206  37.004  1.00  0.00    -0.268 OA
ATOM     15  H   UNL A   1      38.353  30.415  34.737  1.00  0.00     0.171 HD
BRANCH  13  16
ATOM     16  C   UNL A   1      38.010  32.577  37.390  1.00  0.00     0.271 C 
BRANCH  16  17
ATOM     17  C   UNL A   1      39.328  33.173  37.907  1.00  0.00     0.075 C 
BRANCH  17  18
ATOM     18  C   UNL A   1      39.257  34.370  38.858  1.00  0.00     0.006 C 
BRANCH  18  19
ATOM     19  C   UNL A   1      39.795  35.712  38.340  1.00  0.00    -0.003 C 
ATOM     20  C   UNL A   1      39.278  36.954  39.046  1.00  0.00     0.004 C 
ENDBRANCH  18  19
ENDBRANCH  17  18
ENDBRANCH  16  17
BRANCH  16  21
ATOM     21  N   UNL A   1      37.028  32.462  38.470  1.00  0.00    -0.347 N 
ATOM     22  H   UNL A   1      36.255  33.104  38.297  1.00  0.00     0.345 HD
ATOM     23  H   UNL A   1      37.472  32.697  39.359  1.00  0.00     0.345 HD
ATOM     24  H   UNL A   1      36.675  31.506  38.508  1.00  0.00     0.345 HD
ENDBRANCH  16  21
ENDBRANCH  13  16
ENDBRANCH   7  12
ENDBRANCH   3   6
ENDBRANCH   1   2
BRANCH   1  25
ATOM     25  C   UNL A   1      34.387  33.278  31.266  1.00  0.00     0.042 C 
BRANCH  25  26
ATOM     26  C   UNL A   1      35.017  33.392  29.870  1.00  0.00     0.118 C 
BRANCH  26  27
ATOM     27  N   UNL A   1      34.538  32.418  28.875  1.00  0.00    -0.352 N 
ATOM     28  C   UNL A   1      35.250  31.352  28.318  1.00  0.00     0.251 C 
ATOM     29  H   UNL A   1      33.610  32.530  28.567  1.00  0.00     0.163 HD
ATOM     30  O   UNL A   1      34.959  30.856  27.251  1.00  0.00    -0.269 OA
BRANCH  28  31
ATOM     31  C   UNL A   1      36.350  30.798  29.133  1.00  0.00     0.039 A 
ATOM     32  C   UNL A   1      36.267  29.603  29.846  1.00  0.00     0.014 A 
ATOM     33  C   UNL A   1      37.554  31.466  28.990  1.00  0.00     0.014 A 
ATOM     34  C   UNL A   1      37.456  29.021  30.289  1.00  0.00     0.010 A 
ATOM     35  C   UNL A   1      38.714  30.777  29.192  1.00  0.00     0.010 A 
ATOM     36  C   UNL A   1      38.686  29.590  29.907  1.00  0.00    -0.014 A 
BRANCH  36  37
ATOM     37  C   UNL A   1      39.957  28.900  30.090  1.00  0.00     0.031 A 
ATOM     38  C   UNL A   1      40.415  28.854  31.505  1.00  0.00     0.074 A 
ATOM     39  C   UNL A   1      40.540  28.153  29.122  1.00  0.00     0.049 A 
ATOM     40  N   UNL A   1      41.327  29.589  32.051  1.00  0.00    -0.248 NA
ATOM     41  C   UNL A   1      39.645  28.056  32.473  1.00  0.00     0.031 C 
ATOM     42  C   UNL A   1      40.023  27.817  27.786  1.00  0.00     0.029 A 
ATOM     43  N   UNL A   1      41.675  27.410  29.182  1.00  0.00    -0.354 N 
ATOM     44  C   UNL A   1      41.443  29.122  33.358  1.00  0.00     0.074 A 
ATOM     45  C   UNL A   1      40.228  28.402  33.623  1.00  0.00     0.031 C 
ATOM     46  C   UNL A   1      40.694  26.756  27.288  1.00  0.00     0.029 A 
ATOM     47  C   UNL A   1      41.812  26.469  28.163  1.00  0.00     0.049 A 
ATOM     48  H   UNL A   1      42.349  27.526  29.890  1.00  0.00     0.167 HD
ATOM     49  C   UNL A   1      42.658  29.103  33.981  1.00  0.00     0.034 A 
ATOM     50  C   UNL A   1      42.769  25.515  28.063  1.00  0.00     0.034 A 
ATOM     51  C   UNL A   1      43.627  29.870  33.229  1.00  0.00     0.049 A 
ATOM     52  C   UNL A   1      43.894  25.954  28.920  1.00  0.00     0.074 A 
ATOM     53  C   UNL A   1      43.705  31.169  32.765  1.00  0.00     0.029 A 
ATOM     54  N   UNL A   1      44.524  29.148  32.478  1.00  0.00    -0.354 N 
ATOM     55  N   UNL A   1      44.612  27.011  28.670  1.00  0.00    -0.248 NA
ATOM     56  C   UNL A   1      43.920  25.482  30.293  1.00  0.00     0.031 C 
ATOM     57  C   UNL A   1      44.267  31.055  31.457  1.00  0.00     0.029 A 
ATOM     58  C   UNL A   1      44.590  29.715  31.235  1.00  0.00     0.049 A 
ATOM     59  H   UNL A   1      45.032  28.360  32.782  1.00  0.00     0.167 HD
ATOM     60  C   UNL A   1      44.774  27.609  29.912  1.00  0.00     0.074 A 
ATOM     61  C   UNL A   1      44.429  26.568  30.881  1.00  0.00     0.031 C 
ATOM     62  C   UNL A   1      44.874  28.967  30.029  1.00  0.00     0.034 A 
BRANCH  49  63
ATOM     63  C   UNL A   1      43.116  28.080  35.008  1.00  0.00     0.023 A 
ATOM     64  C   UNL A   1      43.731  28.589  36.177  1.00  0.00     0.012 A 
ATOM     65  C   UNL A   1      43.240  26.690  34.784  1.00  0.00     0.148 A 
ATOM     66  C   UNL A   1      44.502  27.782  37.021  1.00  0.00     0.002 A 
ATOM     67  C   UNL A   1      43.947  25.876  35.665  1.00  0.00     0.091 A 
ATOM     68  F   UNL A   1      42.787  26.143  33.656  1.00  0.00    -0.205 F 
ATOM     69  C   UNL A   1      44.611  26.423  36.764  1.00  0.00     0.022 A 
BRANCH  67  70
ATOM     70  S   UNL A   1      44.084  24.101  35.409  1.00  0.00     0.127 S 
ATOM     71  O   UNL A   1      42.680  23.708  35.349  1.00  0.00    -0.237 OA
ATOM     72  O   UNL A   1      44.802  24.041  34.137  1.00  0.00    -0.237 OA
ATOM     73  O   UNL A   1      44.840  23.594  36.547  1.00  0.00    -0.744 OA
ENDBRANCH  67  70
ENDBRANCH  49  63
BRANCH  50  74
ATOM     74  C   UNL A   1      42.738  24.150  27.485  1.00  0.00     0.023 A 
ATOM     75  C   UNL A   1      41.511  23.455  27.426  1.00  0.00     0.012 A 
ATOM     76  C   UNL A   1      43.812  23.675  26.702  1.00  0.00     0.148 A 
ATOM     77  C   UNL A   1      41.340  22.361  26.570  1.00  0.00     0.002 A 
ATOM     78  C   UNL A   1      43.634  22.588  25.848  1.00  0.00     0.091 A 
ATOM     79  F   UNL A   1      44.969  24.348  26.723  1.00  0.00    -0.205 F 
ATOM     80  C   UNL A   1      42.396  21.938  25.769  1.00  0.00     0.022 A 
BRANCH  78  81
ATOM     81  S   UNL A   1      44.930  22.015  24.741  1.00  0.00     0.127 S 
ATOM     82  O   UNL A   1      44.301  20.852  24.114  1.00  0.00    -0.237 OA
ATOM     83  O   UNL A   1      45.104  23.167  23.861  1.00  0.00    -0.237 OA
ATOM     84  O   UNL A   1      46.067  21.697  25.597  1.00  0.00    -0.744 OA
ENDBRANCH  78  81
ENDBRANCH  50  74
BRANCH  62  85
ATOM     85  C   UNL A   1      45.086  29.774  28.772  1.00  0.00     0.023 A 
ATOM     86  C   UNL A   1      44.028  30.221  27.951  1.00  0.00     0.012 A 
ATOM     87  C   UNL A   1      46.389  30.216  28.495  1.00  0.00     0.148 A 
ATOM     88  C   UNL A   1      44.273  31.069  26.865  1.00  0.00     0.002 A 
ATOM     89  C   UNL A   1      46.623  31.095  27.446  1.00  0.00     0.091 A 
ATOM     90  F   UNL A   1      47.385  29.781  29.282  1.00  0.00    -0.205 F 
ATOM     91  C   UNL A   1      45.569  31.516  26.621  1.00  0.00     0.022 A 
BRANCH  89  92
ATOM     92  S   UNL A   1      48.252  31.787  27.163  1.00  0.00     0.127 S 
ATOM     93  O   UNL A   1      49.006  30.620  26.711  1.00  0.00    -0.237 OA
ATOM     94  O   UNL A   1      47.994  32.790  26.128  1.00  0.00    -0.237 OA
ATOM     95  O   UNL A   1      48.671  32.352  28.441  1.00  0.00    -0.744 OA
ENDBRANCH  89  92
ENDBRANCH  62  85
ENDBRANCH  36  37
ENDBRANCH  28  31
ENDBRANCH  26  27
ENDBRANCH  25  26
ENDBRANCH   1  25
TORSDOF 19
ENDMDL
