MODEL 1
REMARK VINA RESULT:     -12.1      0.000      0.000
REMARK SMILES O=C(Cc1cccn1-c1ccccc1F)NCCCNC(=O)c1ccc(-c2c3nc(c(-c4cccc(S(=O)(=O)[O-])c4F)c4ccc([nH]4)c(-c4cccc(S(=O)(=O)[O-])c4F)c4nc(c(-c5cccc(S(=O)(=O)[O-])c5F)c5ccc2[nH]5)C=C4)C=C3)cc1
REMARK SMILES IDX 18 1 17 2 16 3 1 4 2 5 3 7 4 8 5 9 8 10 6 11 7 12 9 13 10 14
REMARK SMILES IDX 14 15 11 16 13 17 15 18 12 19 19 20 20 21 21 22 22 24 23 25
REMARK SMILES IDX 24 26 85 27 25 28 84 29 26 30 27 31 28 32 78 33 29 34 83 35
REMARK SMILES IDX 77 36 79 37 30 38 82 39 76 40 75 41 31 43 63 44 43 45 62 46
REMARK SMILES IDX 44 47 47 48 61 49 80 50 45 51 46 52 60 54 81 55 48 56 32 57
REMARK SMILES IDX 33 58 41 59 34 60 36 61 42 62 35 63 37 64 38 65 39 66 40 67
REMARK SMILES IDX 64 68 65 69 73 70 66 71 68 72 74 73 67 74 69 75 70 76 71 77
REMARK SMILES IDX 72 78 49 79 50 80 58 81 51 82 53 83 59 84 52 85 54 86 55 87
REMARK SMILES IDX 56 88 57 89
REMARK H PARENT 16 6 20 23 79 42 47 53
REMARK Flexibility Score: inf
ROOT
ATOM      1  C   UNL A   1      37.001  22.771  25.044  1.00  0.00     0.042 C 
ENDROOT
BRANCH   1   2
ATOM      2  C   UNL A   1      36.612  21.452  25.709  1.00  0.00     0.117 C 
BRANCH   2   3
ATOM      3  N   UNL A   1      35.222  21.090  25.516  1.00  0.00    -0.356 N 
ATOM      4  O   UNL A   1      34.463  22.103  27.435  1.00  0.00    -0.275 OA
ATOM      5  C   UNL A   1      34.235  21.492  26.391  1.00  0.00     0.225 C 
ATOM      6  H   UNL A   1      34.975  20.542  24.737  1.00  0.00     0.163 HD
BRANCH   5   7
ATOM      7  C   UNL A   1      32.829  21.102  25.984  1.00  0.00     0.154 C 
BRANCH   7   8
ATOM      8  C   UNL A   1      32.657  20.625  24.563  1.00  0.00     0.032 A 
ATOM      9  C   UNL A   1      32.661  19.300  24.146  1.00  0.00     0.024 A 
ATOM     10  N   UNL A   1      32.345  21.394  23.451  1.00  0.00    -0.318 N 
ATOM     11  C   UNL A   1      32.272  19.257  22.791  1.00  0.00     0.020 A 
ATOM     12  C   UNL A   1      32.049  20.554  22.398  1.00  0.00     0.091 A 
BRANCH  10  13
ATOM     13  C   UNL A   1      32.298  22.792  23.339  1.00  0.00     0.081 A 
ATOM     14  C   UNL A   1      31.083  23.462  23.487  1.00  0.00     0.030 A 
ATOM     15  C   UNL A   1      33.463  23.489  23.029  1.00  0.00     0.147 A 
ATOM     16  C   UNL A   1      31.065  24.856  23.389  1.00  0.00     0.002 A 
ATOM     17  C   UNL A   1      33.445  24.875  22.940  1.00  0.00     0.041 A 
ATOM     18  F   UNL A   1      34.615  22.839  22.806  1.00  0.00    -0.205 F 
ATOM     19  C   UNL A   1      32.245  25.562  23.131  1.00  0.00     0.003 A 
ENDBRANCH  10  13
ENDBRANCH   7   8
ENDBRANCH   5   7
ENDBRANCH   2   3
ENDBRANCH   1   2
BRANCH   1  20
ATOM     20  C   UNL A   1      37.716  23.753  25.974  1.00  0.00     0.118 C 
BRANCH  20  21
ATOM     21  N   UNL A   1      38.880  23.160  26.624  1.00  0.00    -0.352 N 
ATOM     22  C   UNL A   1      39.869  23.782  27.350  1.00  0.00     0.251 C 
ATOM     23  H   UNL A   1      38.969  22.184  26.531  1.00  0.00     0.163 HD
ATOM     24  O   UNL A   1      40.895  23.164  27.630  1.00  0.00    -0.269 OA
BRANCH  22  25
ATOM     25  C   UNL A   1      39.735  25.202  27.745  1.00  0.00     0.039 A 
ATOM     26  C   UNL A   1      39.151  25.493  28.984  1.00  0.00     0.014 A 
ATOM     27  C   UNL A   1      40.164  26.236  26.909  1.00  0.00     0.014 A 
ATOM     28  C   UNL A   1      39.106  26.812  29.438  1.00  0.00     0.010 A 
ATOM     29  C   UNL A   1      40.117  27.556  27.361  1.00  0.00     0.010 A 
ATOM     30  C   UNL A   1      39.640  27.841  28.648  1.00  0.00    -0.014 A 
BRANCH  30  31
ATOM     31  C   UNL A   1      39.939  29.158  29.280  1.00  0.00     0.031 A 
ATOM     32  C   UNL A   1      38.771  30.161  29.121  1.00  0.00     0.074 A 
ATOM     33  C   UNL A   1      41.147  29.325  29.896  1.00  0.00     0.049 A 
ATOM     34  N   UNL A   1      38.777  31.463  29.091  1.00  0.00    -0.248 NA
ATOM     35  C   UNL A   1      37.408  29.630  28.840  1.00  0.00     0.031 C 
ATOM     36  C   UNL A   1      42.190  28.285  29.982  1.00  0.00     0.029 A 
ATOM     37  N   UNL A   1      41.745  30.374  30.575  1.00  0.00    -0.354 N 
ATOM     38  C   UNL A   1      37.426  31.884  29.005  1.00  0.00     0.074 A 
ATOM     39  C   UNL A   1      36.653  30.720  28.708  1.00  0.00     0.031 C 
ATOM     40  C   UNL A   1      43.293  28.760  30.601  1.00  0.00     0.029 A 
ATOM     41  C   UNL A   1      43.070  30.136  31.015  1.00  0.00     0.049 A 
ATOM     42  H   UNL A   1      41.281  31.226  30.739  1.00  0.00     0.167 HD
ATOM     43  C   UNL A   1      36.997  33.142  29.319  1.00  0.00     0.034 A 
ATOM     44  C   UNL A   1      43.946  30.983  31.646  1.00  0.00     0.034 A 
ATOM     45  C   UNL A   1      38.092  33.929  29.775  1.00  0.00     0.049 A 
ATOM     46  C   UNL A   1      43.193  32.203  31.973  1.00  0.00     0.074 A 
ATOM     47  C   UNL A   1      39.117  34.590  29.157  1.00  0.00     0.029 A 
ATOM     48  N   UNL A   1      38.335  33.865  31.125  1.00  0.00    -0.354 N 
ATOM     49  N   UNL A   1      42.300  32.296  32.915  1.00  0.00    -0.248 NA
ATOM     50  C   UNL A   1      43.404  33.405  31.156  1.00  0.00     0.031 C 
ATOM     51  C   UNL A   1      40.147  34.612  30.121  1.00  0.00     0.029 A 
ATOM     52  C   UNL A   1      39.683  34.029  31.306  1.00  0.00     0.049 A 
ATOM     53  H   UNL A   1      37.665  33.726  31.832  1.00  0.00     0.167 HD
ATOM     54  C   UNL A   1      41.625  33.437  32.560  1.00  0.00     0.074 A 
ATOM     55  C   UNL A   1      42.525  34.212  31.740  1.00  0.00     0.031 C 
ATOM     56  C   UNL A   1      40.272  33.412  32.472  1.00  0.00     0.034 A 
BRANCH  43  57
ATOM     57  C   UNL A   1      35.627  33.763  29.491  1.00  0.00     0.023 A 
ATOM     58  C   UNL A   1      35.017  34.239  28.294  1.00  0.00     0.012 A 
ATOM     59  C   UNL A   1      35.040  34.155  30.707  1.00  0.00     0.148 A 
ATOM     60  C   UNL A   1      33.949  35.135  28.296  1.00  0.00     0.002 A 
ATOM     61  C   UNL A   1      33.933  35.015  30.702  1.00  0.00     0.091 A 
ATOM     62  F   UNL A   1      35.598  33.776  31.861  1.00  0.00    -0.205 F 
ATOM     63  C   UNL A   1      33.412  35.531  29.506  1.00  0.00     0.022 A 
BRANCH  61  64
ATOM     64  S   UNL A   1      33.094  35.523  32.211  1.00  0.00     0.127 S 
ATOM     65  O   UNL A   1      32.822  34.234  32.854  1.00  0.00    -0.237 OA
ATOM     66  O   UNL A   1      34.133  36.317  32.880  1.00  0.00    -0.237 OA
ATOM     67  O   UNL A   1      31.947  36.294  31.783  1.00  0.00    -0.744 OA
ENDBRANCH  61  64
ENDBRANCH  43  57
BRANCH  44  68
ATOM     68  C   UNL A   1      45.432  30.990  31.965  1.00  0.00     0.023 A 
ATOM     69  C   UNL A   1      45.958  31.081  33.261  1.00  0.00     0.012 A 
ATOM     70  C   UNL A   1      46.396  30.798  30.926  1.00  0.00     0.148 A 
ATOM     71  C   UNL A   1      47.331  30.879  33.517  1.00  0.00     0.002 A 
ATOM     72  C   UNL A   1      47.720  30.468  31.188  1.00  0.00     0.091 A 
ATOM     73  F   UNL A   1      46.044  30.980  29.649  1.00  0.00    -0.205 F 
ATOM     74  C   UNL A   1      48.201  30.520  32.491  1.00  0.00     0.022 A 
BRANCH  72  75
ATOM     75  S   UNL A   1      48.807  29.807  29.907  1.00  0.00     0.127 S 
ATOM     76  O   UNL A   1      48.038  28.674  29.397  1.00  0.00    -0.237 OA
ATOM     77  O   UNL A   1      48.906  30.945  28.992  1.00  0.00    -0.237 OA
ATOM     78  O   UNL A   1      50.058  29.460  30.570  1.00  0.00    -0.744 OA
ENDBRANCH  72  75
ENDBRANCH  44  68
BRANCH  56  79
ATOM     79  C   UNL A   1      39.592  32.425  33.408  1.00  0.00     0.023 A 
ATOM     80  C   UNL A   1      39.225  31.179  32.868  1.00  0.00     0.012 A 
ATOM     81  C   UNL A   1      39.228  32.694  34.748  1.00  0.00     0.148 A 
ATOM     82  C   UNL A   1      38.534  30.232  33.629  1.00  0.00     0.002 A 
ATOM     83  C   UNL A   1      38.538  31.749  35.510  1.00  0.00     0.091 A 
ATOM     84  F   UNL A   1      39.552  33.877  35.268  1.00  0.00    -0.205 F 
ATOM     85  C   UNL A   1      38.195  30.513  34.949  1.00  0.00     0.022 A 
BRANCH  83  86
ATOM     86  S   UNL A   1      38.001  32.031  37.210  1.00  0.00     0.127 S 
ATOM     87  O   UNL A   1      39.247  32.414  37.877  1.00  0.00    -0.237 OA
ATOM     88  O   UNL A   1      37.047  33.126  37.056  1.00  0.00    -0.237 OA
ATOM     89  O   UNL A   1      37.434  30.776  37.686  1.00  0.00    -0.744 OA
ENDBRANCH  83  86
ENDBRANCH  56  79
ENDBRANCH  30  31
ENDBRANCH  22  25
ENDBRANCH  20  21
ENDBRANCH   1  20
TORSDOF 15
ENDMDL
MODEL 2
REMARK VINA RESULT:     -12.0      1.478      2.271
REMARK SMILES O=C(Cc1cccn1-c1ccccc1F)NCCCNC(=O)c1ccc(-c2c3nc(c(-c4cccc(S(=O)(=O)[O-])c4F)c4ccc([nH]4)c(-c4cccc(S(=O)(=O)[O-])c4F)c4nc(c(-c5cccc(S(=O)(=O)[O-])c5F)c5ccc2[nH]5)C=C4)C=C3)cc1
REMARK SMILES IDX 18 1 17 2 16 3 1 4 2 5 3 7 4 8 5 9 8 10 6 11 7 12 9 13 10 14
REMARK SMILES IDX 14 15 11 16 13 17 15 18 12 19 19 20 20 21 21 22 22 24 23 25
REMARK SMILES IDX 24 26 85 27 25 28 84 29 26 30 27 31 28 32 78 33 29 34 83 35
REMARK SMILES IDX 77 36 79 37 30 38 82 39 76 40 75 41 31 43 63 44 43 45 62 46
REMARK SMILES IDX 44 47 47 48 61 49 80 50 45 51 46 52 60 54 81 55 48 56 32 57
REMARK SMILES IDX 33 58 41 59 34 60 36 61 42 62 35 63 37 64 38 65 39 66 40 67
REMARK SMILES IDX 64 68 65 69 73 70 66 71 68 72 74 73 67 74 69 75 70 76 71 77
REMARK SMILES IDX 72 78 49 79 50 80 58 81 51 82 53 83 59 84 52 85 54 86 55 87
REMARK SMILES IDX 56 88 57 89
REMARK H PARENT 16 6 20 23 79 42 47 53
REMARK Flexibility Score: inf
ROOT
ATOM      1  C   UNL A   1      37.029  22.727  25.063  1.00  0.00     0.042 C 
ENDROOT
BRANCH   1   2
ATOM      2  C   UNL A   1      35.640  22.232  25.462  1.00  0.00     0.117 C 
BRANCH   2   3
ATOM      3  N   UNL A   1      34.581  23.180  25.180  1.00  0.00    -0.356 N 
ATOM      4  O   UNL A   1      32.860  21.691  25.509  1.00  0.00    -0.275 OA
ATOM      5  C   UNL A   1      33.249  22.835  25.272  1.00  0.00     0.225 C 
ATOM      6  H   UNL A   1      34.819  24.097  24.914  1.00  0.00     0.163 HD
BRANCH   5   7
ATOM      7  C   UNL A   1      32.281  23.974  25.032  1.00  0.00     0.154 C 
BRANCH   7   8
ATOM      8  C   UNL A   1      32.665  24.957  23.954  1.00  0.00     0.032 A 
ATOM      9  C   UNL A   1      32.857  24.656  22.612  1.00  0.00     0.024 A 
ATOM     10  N   UNL A   1      32.774  26.336  24.075  1.00  0.00    -0.318 N 
ATOM     11  C   UNL A   1      33.005  25.863  21.899  1.00  0.00     0.020 A 
ATOM     12  C   UNL A   1      32.915  26.882  22.816  1.00  0.00     0.091 A 
BRANCH  10  13
ATOM     13  C   UNL A   1      32.739  27.118  25.239  1.00  0.00     0.081 A 
ATOM     14  C   UNL A   1      33.920  27.660  25.748  1.00  0.00     0.030 A 
ATOM     15  C   UNL A   1      31.528  27.299  25.901  1.00  0.00     0.147 A 
ATOM     16  C   UNL A   1      33.858  28.451  26.899  1.00  0.00     0.002 A 
ATOM     17  C   UNL A   1      31.466  28.092  27.041  1.00  0.00     0.041 A 
ATOM     18  F   UNL A   1      30.407  26.711  25.458  1.00  0.00    -0.205 F 
ATOM     19  C   UNL A   1      32.632  28.678  27.535  1.00  0.00     0.003 A 
ENDBRANCH  10  13
ENDBRANCH   7   8
ENDBRANCH   5   7
ENDBRANCH   2   3
ENDBRANCH   1   2
BRANCH   1  20
ATOM     20  C   UNL A   1      37.678  23.661  26.086  1.00  0.00     0.118 C 
BRANCH  20  21
ATOM     21  N   UNL A   1      38.926  23.126  26.619  1.00  0.00    -0.352 N 
ATOM     22  C   UNL A   1      39.950  23.795  27.248  1.00  0.00     0.251 C 
ATOM     23  H   UNL A   1      39.052  22.156  26.512  1.00  0.00     0.163 HD
ATOM     24  O   UNL A   1      41.026  23.227  27.427  1.00  0.00    -0.269 OA
BRANCH  22  25
ATOM     25  C   UNL A   1      39.786  25.207  27.661  1.00  0.00     0.039 A 
ATOM     26  C   UNL A   1      39.243  25.469  28.925  1.00  0.00     0.014 A 
ATOM     27  C   UNL A   1      40.147  26.261  26.818  1.00  0.00     0.014 A 
ATOM     28  C   UNL A   1      39.173  26.782  29.392  1.00  0.00     0.010 A 
ATOM     29  C   UNL A   1      40.076  27.575  27.283  1.00  0.00     0.010 A 
ATOM     30  C   UNL A   1      39.642  27.835  28.591  1.00  0.00    -0.014 A 
BRANCH  30  31
ATOM     31  C   UNL A   1      39.923  29.156  29.222  1.00  0.00     0.031 A 
ATOM     32  C   UNL A   1      38.742  30.143  29.063  1.00  0.00     0.074 A 
ATOM     33  C   UNL A   1      41.129  29.339  29.838  1.00  0.00     0.049 A 
ATOM     34  N   UNL A   1      38.730  31.445  29.032  1.00  0.00    -0.248 NA
ATOM     35  C   UNL A   1      37.386  29.594  28.782  1.00  0.00     0.031 C 
ATOM     36  C   UNL A   1      42.186  28.313  29.924  1.00  0.00     0.029 A 
ATOM     37  N   UNL A   1      41.713  30.396  30.516  1.00  0.00    -0.354 N 
ATOM     38  C   UNL A   1      37.374  31.848  28.946  1.00  0.00     0.074 A 
ATOM     39  C   UNL A   1      36.616  30.674  28.650  1.00  0.00     0.031 C 
ATOM     40  C   UNL A   1      43.282  28.804  30.543  1.00  0.00     0.029 A 
ATOM     41  C   UNL A   1      43.042  30.177  30.956  1.00  0.00     0.049 A 
ATOM     42  H   UNL A   1      41.238  31.242  30.680  1.00  0.00     0.167 HD
ATOM     43  C   UNL A   1      36.929  33.100  29.259  1.00  0.00     0.034 A 
ATOM     44  C   UNL A   1      43.907  31.035  31.586  1.00  0.00     0.034 A 
ATOM     45  C   UNL A   1      38.013  33.902  29.715  1.00  0.00     0.049 A 
ATOM     46  C   UNL A   1      43.137  32.246  31.913  1.00  0.00     0.074 A 
ATOM     47  C   UNL A   1      39.029  34.576  29.096  1.00  0.00     0.029 A 
ATOM     48  N   UNL A   1      38.257  33.842  31.064  1.00  0.00    -0.354 N 
ATOM     49  N   UNL A   1      42.244  32.327  32.855  1.00  0.00    -0.248 NA
ATOM     50  C   UNL A   1      43.332  33.450  31.095  1.00  0.00     0.031 C 
ATOM     51  C   UNL A   1      40.059  34.613  30.060  1.00  0.00     0.029 A 
ATOM     52  C   UNL A   1      39.603  34.025  31.246  1.00  0.00     0.049 A 
ATOM     53  H   UNL A   1      37.589  33.694  31.772  1.00  0.00     0.167 HD
ATOM     54  C   UNL A   1      41.553  33.459  32.500  1.00  0.00     0.074 A 
ATOM     55  C   UNL A   1      42.442  34.245  31.679  1.00  0.00     0.031 C 
ATOM     56  C   UNL A   1      40.200  33.416  32.412  1.00  0.00     0.034 A 
BRANCH  43  57
ATOM     57  C   UNL A   1      35.550  33.703  29.432  1.00  0.00     0.023 A 
ATOM     58  C   UNL A   1      34.862  34.008  28.222  1.00  0.00     0.012 A 
ATOM     59  C   UNL A   1      35.018  34.230  30.620  1.00  0.00     0.148 A 
ATOM     60  C   UNL A   1      33.767  34.870  28.173  1.00  0.00     0.002 A 
ATOM     61  C   UNL A   1      33.884  35.055  30.573  1.00  0.00     0.091 A 
ATOM     62  F   UNL A   1      35.649  34.015  31.779  1.00  0.00    -0.205 F 
ATOM     63  C   UNL A   1      33.283  35.401  29.353  1.00  0.00     0.022 A 
BRANCH  61  64
ATOM     64  S   UNL A   1      33.113  35.727  32.052  1.00  0.00     0.127 S 
ATOM     65  O   UNL A   1      32.778  34.510  32.798  1.00  0.00    -0.237 OA
ATOM     66  O   UNL A   1      34.212  36.505  32.639  1.00  0.00    -0.237 OA
ATOM     67  O   UNL A   1      32.004  36.532  31.586  1.00  0.00    -0.744 OA
ENDBRANCH  61  64
ENDBRANCH  43  57
BRANCH  44  68
ATOM     68  C   UNL A   1      45.392  31.062  31.905  1.00  0.00     0.023 A 
ATOM     69  C   UNL A   1      45.918  31.130  33.203  1.00  0.00     0.012 A 
ATOM     70  C   UNL A   1      46.358  30.917  30.861  1.00  0.00     0.148 A 
ATOM     71  C   UNL A   1      47.294  30.947  33.453  1.00  0.00     0.002 A 
ATOM     72  C   UNL A   1      47.689  30.605  31.114  1.00  0.00     0.091 A 
ATOM     73  F   UNL A   1      46.003  31.125  29.589  1.00  0.00    -0.205 F 
ATOM     74  C   UNL A   1      48.170  30.631  32.418  1.00  0.00     0.022 A 
BRANCH  72  75
ATOM     75  S   UNL A   1      48.788  29.998  29.816  1.00  0.00     0.127 S 
ATOM     76  O   UNL A   1      50.003  29.676  30.559  1.00  0.00    -0.237 OA
ATOM     77  O   UNL A   1      48.044  28.839  29.323  1.00  0.00    -0.237 OA
ATOM     78  O   UNL A   1      48.920  31.082  28.850  1.00  0.00    -0.744 OA
ENDBRANCH  72  75
ENDBRANCH  44  68
BRANCH  56  79
ATOM     79  C   UNL A   1      39.534  32.421  33.348  1.00  0.00     0.023 A 
ATOM     80  C   UNL A   1      39.181  31.170  32.809  1.00  0.00     0.012 A 
ATOM     81  C   UNL A   1      39.169  32.685  34.689  1.00  0.00     0.148 A 
ATOM     82  C   UNL A   1      38.503  30.214  33.571  1.00  0.00     0.002 A 
ATOM     83  C   UNL A   1      38.491  31.731  35.452  1.00  0.00     0.091 A 
ATOM     84  F   UNL A   1      39.478  33.871  35.209  1.00  0.00    -0.205 F 
ATOM     85  C   UNL A   1      38.162  30.491  34.891  1.00  0.00     0.022 A 
BRANCH  83  86
ATOM     86  S   UNL A   1      37.953  32.005  37.153  1.00  0.00     0.127 S 
ATOM     87  O   UNL A   1      37.412  30.698  37.529  1.00  0.00    -0.237 OA
ATOM     88  O   UNL A   1      39.206  32.346  37.823  1.00  0.00    -0.237 OA
ATOM     89  O   UNL A   1      36.961  33.071  37.114  1.00  0.00    -0.744 OA
ENDBRANCH  83  86
ENDBRANCH  56  79
ENDBRANCH  30  31
ENDBRANCH  22  25
ENDBRANCH  20  21
ENDBRANCH   1  20
TORSDOF 15
ENDMDL
MODEL 3
REMARK VINA RESULT:     -12.0      4.117     10.024
REMARK SMILES O=C(Cc1cccn1-c1ccccc1F)NCCCNC(=O)c1ccc(-c2c3nc(c(-c4cccc(S(=O)(=O)[O-])c4F)c4ccc([nH]4)c(-c4cccc(S(=O)(=O)[O-])c4F)c4nc(c(-c5cccc(S(=O)(=O)[O-])c5F)c5ccc2[nH]5)C=C4)C=C3)cc1
REMARK SMILES IDX 18 1 17 2 16 3 1 4 2 5 3 7 4 8 5 9 8 10 6 11 7 12 9 13 10 14
REMARK SMILES IDX 14 15 11 16 13 17 15 18 12 19 19 20 20 21 21 22 22 24 23 25
REMARK SMILES IDX 24 26 85 27 25 28 84 29 26 30 27 31 28 32 78 33 29 34 83 35
REMARK SMILES IDX 77 36 79 37 30 38 82 39 76 40 75 41 31 43 63 44 43 45 62 46
REMARK SMILES IDX 44 47 47 48 61 49 80 50 45 51 46 52 60 54 81 55 48 56 32 57
REMARK SMILES IDX 33 58 41 59 34 60 36 61 42 62 35 63 37 64 38 65 39 66 40 67
REMARK SMILES IDX 64 68 65 69 73 70 66 71 68 72 74 73 67 74 69 75 70 76 71 77
REMARK SMILES IDX 72 78 49 79 50 80 58 81 51 82 53 83 59 84 52 85 54 86 55 87
REMARK SMILES IDX 56 88 57 89
REMARK H PARENT 16 6 20 23 79 42 47 53
REMARK Flexibility Score: inf
ROOT
ATOM      1  C   UNL A   1      33.209  29.552  26.321  1.00  0.00     0.042 C 
ENDROOT
BRANCH   1   2
ATOM      2  C   UNL A   1      32.223  28.483  26.790  1.00  0.00     0.117 C 
BRANCH   2   3
ATOM      3  N   UNL A   1      31.938  27.476  25.789  1.00  0.00    -0.356 N 
ATOM      4  O   UNL A   1      33.882  26.291  26.107  1.00  0.00    -0.275 OA
ATOM      5  C   UNL A   1      32.789  26.416  25.556  1.00  0.00     0.225 C 
ATOM      6  H   UNL A   1      31.112  27.550  25.258  1.00  0.00     0.163 HD
BRANCH   5   7
ATOM      7  C   UNL A   1      32.287  25.411  24.540  1.00  0.00     0.154 C 
BRANCH   7   8
ATOM      8  C   UNL A   1      32.056  24.010  25.048  1.00  0.00     0.032 A 
ATOM      9  C   UNL A   1      30.832  23.476  25.430  1.00  0.00     0.024 A 
ATOM     10  N   UNL A   1      32.980  22.976  25.109  1.00  0.00    -0.318 N 
ATOM     11  C   UNL A   1      30.995  22.093  25.649  1.00  0.00     0.020 A 
ATOM     12  C   UNL A   1      32.317  21.805  25.411  1.00  0.00     0.091 A 
BRANCH  10  13
ATOM     13  C   UNL A   1      34.366  23.028  24.898  1.00  0.00     0.081 A 
ATOM     14  C   UNL A   1      35.229  23.221  25.978  1.00  0.00     0.030 A 
ATOM     15  C   UNL A   1      34.860  22.936  23.599  1.00  0.00     0.147 A 
ATOM     16  C   UNL A   1      36.606  23.250  25.745  1.00  0.00     0.002 A 
ATOM     17  C   UNL A   1      36.230  22.958  23.369  1.00  0.00     0.041 A 
ATOM     18  F   UNL A   1      34.028  22.833  22.552  1.00  0.00    -0.205 F 
ATOM     19  C   UNL A   1      37.106  23.105  24.446  1.00  0.00     0.003 A 
ENDBRANCH  10  13
ENDBRANCH   7   8
ENDBRANCH   5   7
ENDBRANCH   2   3
ENDBRANCH   1   2
BRANCH   1  20
ATOM     20  C   UNL A   1      34.581  29.474  26.992  1.00  0.00     0.118 C 
BRANCH  20  21
ATOM     21  N   UNL A   1      35.019  30.761  27.522  1.00  0.00    -0.352 N 
ATOM     22  C   UNL A   1      36.157  31.056  28.236  1.00  0.00     0.251 C 
ATOM     23  H   UNL A   1      34.418  31.521  27.346  1.00  0.00     0.163 HD
ATOM     24  O   UNL A   1      36.254  32.144  28.801  1.00  0.00    -0.269 OA
BRANCH  22  25
ATOM     25  C   UNL A   1      37.238  30.055  28.377  1.00  0.00     0.039 A 
ATOM     26  C   UNL A   1      38.178  29.945  27.344  1.00  0.00     0.014 A 
ATOM     27  C   UNL A   1      37.326  29.226  29.498  1.00  0.00     0.014 A 
ATOM     28  C   UNL A   1      39.272  29.091  27.489  1.00  0.00     0.010 A 
ATOM     29  C   UNL A   1      38.417  28.370  29.643  1.00  0.00     0.010 A 
ATOM     30  C   UNL A   1      39.423  28.341  28.665  1.00  0.00    -0.014 A 
BRANCH  30  31
ATOM     31  C   UNL A   1      40.752  27.744  28.979  1.00  0.00     0.031 A 
ATOM     32  C   UNL A   1      40.855  26.271  28.514  1.00  0.00     0.074 A 
ATOM     33  C   UNL A   1      41.683  28.521  29.609  1.00  0.00     0.049 A 
ATOM     34  N   UNL A   1      41.585  25.293  28.970  1.00  0.00    -0.248 NA
ATOM     35  C   UNL A   1      39.922  25.789  27.458  1.00  0.00     0.031 C 
ATOM     36  C   UNL A   1      41.464  29.924  30.007  1.00  0.00     0.029 A 
ATOM     37  N   UNL A   1      42.984  28.311  30.034  1.00  0.00    -0.354 N 
ATOM     38  C   UNL A   1      41.352  24.174  28.131  1.00  0.00     0.074 A 
ATOM     39  C   UNL A   1      40.222  24.497  27.321  1.00  0.00     0.031 C 
ATOM     40  C   UNL A   1      42.543  30.413  30.658  1.00  0.00     0.029 A 
ATOM     41  C   UNL A   1      43.583  29.398  30.717  1.00  0.00     0.049 A 
ATOM     42  H   UNL A   1      43.459  27.464  29.874  1.00  0.00     0.167 HD
ATOM     43  C   UNL A   1      42.186  23.095  28.050  1.00  0.00     0.034 A 
ATOM     44  C   UNL A   1      44.816  29.483  31.313  1.00  0.00     0.034 A 
ATOM     45  C   UNL A   1      43.318  23.291  28.889  1.00  0.00     0.049 A 
ATOM     46  C   UNL A   1      45.539  28.250  30.964  1.00  0.00     0.074 A 
ATOM     47  C   UNL A   1      43.543  23.179  30.234  1.00  0.00     0.029 A 
ATOM     48  N   UNL A   1      44.379  23.934  28.300  1.00  0.00    -0.354 N 
ATOM     49  N   UNL A   1      46.036  27.986  29.791  1.00  0.00    -0.248 NA
ATOM     50  C   UNL A   1      45.677  27.199  31.981  1.00  0.00     0.031 C 
ATOM     51  C   UNL A   1      44.599  24.079  30.486  1.00  0.00     0.029 A 
ATOM     52  C   UNL A   1      45.021  24.647  29.277  1.00  0.00     0.049 A 
ATOM     53  H   UNL A   1      44.631  23.891  27.349  1.00  0.00     0.167 HD
ATOM     54  C   UNL A   1      46.220  26.627  29.857  1.00  0.00     0.074 A 
ATOM     55  C   UNL A   1      46.318  26.290  31.256  1.00  0.00     0.031 C 
ATOM     56  C   UNL A   1      45.727  25.838  28.869  1.00  0.00     0.034 A 
BRANCH  43  57
ATOM     57  C   UNL A   1      42.259  21.902  27.119  1.00  0.00     0.023 A 
ATOM     58  C   UNL A   1      41.330  20.857  27.393  1.00  0.00     0.012 A 
ATOM     59  C   UNL A   1      43.300  21.614  26.220  1.00  0.00     0.148 A 
ATOM     60  C   UNL A   1      41.476  19.566  26.887  1.00  0.00     0.002 A 
ATOM     61  C   UNL A   1      43.413  20.328  25.673  1.00  0.00     0.091 A 
ATOM     62  F   UNL A   1      44.226  22.543  25.963  1.00  0.00    -0.205 F 
ATOM     63  C   UNL A   1      42.528  19.300  26.032  1.00  0.00     0.022 A 
BRANCH  61  64
ATOM     64  S   UNL A   1      44.685  19.892  24.478  1.00  0.00     0.127 S 
ATOM     65  O   UNL A   1      44.564  20.977  23.499  1.00  0.00    -0.237 OA
ATOM     66  O   UNL A   1      45.903  19.959  25.296  1.00  0.00    -0.237 OA
ATOM     67  O   UNL A   1      44.355  18.560  24.019  1.00  0.00    -0.744 OA
ENDBRANCH  61  64
ENDBRANCH  43  57
BRANCH  44  68
ATOM     68  C   UNL A   1      45.513  30.439  32.266  1.00  0.00     0.023 A 
ATOM     69  C   UNL A   1      46.760  31.030  32.017  1.00  0.00     0.012 A 
ATOM     70  C   UNL A   1      44.860  30.871  33.463  1.00  0.00     0.148 A 
ATOM     71  C   UNL A   1      47.265  32.062  32.835  1.00  0.00     0.002 A 
ATOM     72  C   UNL A   1      45.291  31.973  34.192  1.00  0.00     0.091 A 
ATOM     73  F   UNL A   1      43.821  30.180  33.942  1.00  0.00    -0.205 F 
ATOM     74  C   UNL A   1      46.509  32.570  33.888  1.00  0.00     0.022 A 
BRANCH  72  75
ATOM     75  S   UNL A   1      44.238  32.771  35.423  1.00  0.00     0.127 S 
ATOM     76  O   UNL A   1      45.014  33.957  35.778  1.00  0.00    -0.237 OA
ATOM     77  O   UNL A   1      43.029  33.039  34.643  1.00  0.00    -0.237 OA
ATOM     78  O   UNL A   1      44.057  31.803  36.497  1.00  0.00    -0.744 OA
ENDBRANCH  72  75
ENDBRANCH  44  68
BRANCH  56  79
ATOM     79  C   UNL A   1      45.661  26.499  27.502  1.00  0.00     0.023 A 
ATOM     80  C   UNL A   1      44.411  26.996  27.089  1.00  0.00     0.012 A 
ATOM     81  C   UNL A   1      46.735  26.578  26.584  1.00  0.00     0.148 A 
ATOM     82  C   UNL A   1      44.234  27.557  25.821  1.00  0.00     0.002 A 
ATOM     83  C   UNL A   1      46.560  27.140  25.317  1.00  0.00     0.091 A 
ATOM     84  F   UNL A   1      47.921  26.096  26.952  1.00  0.00    -0.205 F 
ATOM     85  C   UNL A   1      45.306  27.634  24.938  1.00  0.00     0.022 A 
BRANCH  83  86
ATOM     86  S   UNL A   1      47.866  27.240  24.075  1.00  0.00     0.127 S 
ATOM     87  O   UNL A   1      47.239  28.036  23.019  1.00  0.00    -0.237 OA
ATOM     88  O   UNL A   1      48.927  27.939  24.797  1.00  0.00    -0.237 OA
ATOM     89  O   UNL A   1      48.179  25.872  23.683  1.00  0.00    -0.744 OA
ENDBRANCH  83  86
ENDBRANCH  56  79
ENDBRANCH  30  31
ENDBRANCH  22  25
ENDBRANCH  20  21
ENDBRANCH   1  20
TORSDOF 15
ENDMDL
