MODEL 1
REMARK VINA RESULT:     -12.2      0.000      0.000
REMARK SMILES C[C@@H]1CCC[N@@H+]([C@@H]2CCC[C@]([NH3+])(C(=O)NCCCNC(=O)c3ccc(-c4c5nc(c(-c6cccc(S(=O)(=O)[O-])c6F)c6ccc([nH]6)c(-c6cccc(S(=O)(=O)[O-])c6F)c6nc(c(-c7cccc(S(=O)(=O)[O-])c7F)c7ccc4[nH]7)C=C6)C=C5)cc3)C2)C1
REMARK SMILES IDX 18 1 17 2 16 3 15 4 13 5 14 6 11 8 7 9 8 10 85 11 9 12 10 13
REMARK SMILES IDX 6 14 1 15 2 16 3 17 86 18 4 19 5 20 12 22 19 26 20 27 21 29
REMARK SMILES IDX 22 30 23 31 84 32 24 33 83 34 25 35 26 36 27 37 77 38 28 39
REMARK SMILES IDX 82 40 76 41 78 42 29 43 81 44 75 45 74 46 30 48 62 49 42 50
REMARK SMILES IDX 61 51 43 52 46 53 60 54 79 55 44 56 45 57 59 59 80 60 47 61
REMARK SMILES IDX 31 62 32 63 40 64 33 65 35 66 41 67 34 68 36 69 37 70 38 71
REMARK SMILES IDX 39 72 63 73 64 74 72 75 65 76 67 77 73 78 66 79 68 80 69 81
REMARK SMILES IDX 70 82 71 83 48 84 49 85 57 86 50 87 52 88 58 89 51 90 53 91
REMARK SMILES IDX 54 92 55 93 56 94
REMARK H PARENT 15 7 6 21 12 23 12 24 12 25 19 28 78 47 46 58
REMARK Flexibility Score: inf
ROOT
ATOM      1  C   UNL A   1      32.774  32.428  27.409  1.00  0.00     0.118 C 
ENDROOT
BRANCH   1   2
ATOM      2  C   UNL A   1      31.716  31.805  26.522  1.00  0.00     0.042 C 
BRANCH   2   3
ATOM      3  C   UNL A   1      31.809  30.294  26.477  1.00  0.00     0.118 C 
BRANCH   3   4
ATOM      4  N   UNL A   1      33.020  29.822  25.814  1.00  0.00    -0.351 N 
ATOM      5  C   UNL A   1      33.184  29.085  24.668  1.00  0.00     0.281 C 
ATOM      6  O   UNL A   1      34.333  28.844  24.296  1.00  0.00    -0.268 OA
ATOM      7  H   UNL A   1      33.859  30.075  26.262  1.00  0.00     0.163 HD
BRANCH   5   8
ATOM      8  C   UNL A   1      31.932  28.570  23.911  1.00  0.00     0.179 C 
ATOM      9  C   UNL A   1      29.510  29.040  23.171  1.00  0.00     0.190 C 
ATOM     10  C   UNL A   1      29.176  27.571  23.530  1.00  0.00     0.065 C 
ATOM     11  C   UNL A   1      30.777  29.599  23.888  1.00  0.00     0.144 C 
ATOM     12  C   UNL A   1      30.338  26.640  23.806  1.00  0.00     0.013 C 
ATOM     13  C   UNL A   1      31.366  27.343  24.658  1.00  0.00     0.079 C 
BRANCH   9  14
ATOM     14  N   UNL A   1      28.351  29.967  23.218  1.00  0.00    -0.332 N 
ATOM     15  C   UNL A   1      29.384  33.685  23.341  1.00  0.00     0.013 C 
ATOM     16  C   UNL A   1      29.194  32.306  22.713  1.00  0.00     0.041 C 
ATOM     17  C   UNL A   1      28.300  32.369  21.469  1.00  0.00     0.015 C 
ATOM     18  C   UNL A   1      28.654  31.302  23.751  1.00  0.00     0.265 C 
ATOM     19  C   UNL A   1      27.929  30.983  20.945  1.00  0.00     0.062 C 
ATOM     20  C   UNL A   1      27.461  30.049  22.060  1.00  0.00     0.262 C 
ATOM     21  H   UNL A   1      27.789  29.461  23.904  1.00  0.00     0.348 HD
ENDBRANCH   9  14
BRANCH   8  22
ATOM     22  N   UNL A   1      32.315  28.337  22.495  1.00  0.00    -0.345 N 
ATOM     23  H   UNL A   1      31.474  28.207  21.932  1.00  0.00     0.345 HD
ATOM     24  H   UNL A   1      32.897  27.502  22.434  1.00  0.00     0.345 HD
ATOM     25  H   UNL A   1      32.836  29.141  22.147  1.00  0.00     0.345 HD
ENDBRANCH   8  22
ENDBRANCH   5   8
ENDBRANCH   3   4
ENDBRANCH   2   3
ENDBRANCH   1   2
BRANCH   1  26
ATOM     26  N   UNL A   1      32.548  33.855  27.620  1.00  0.00    -0.352 N 
ATOM     27  C   UNL A   1      33.080  34.697  28.567  1.00  0.00     0.251 C 
ATOM     28  H   UNL A   1      31.921  34.277  26.988  1.00  0.00     0.163 HD
ATOM     29  O   UNL A   1      32.608  35.812  28.732  1.00  0.00    -0.269 OA
BRANCH  27  30
ATOM     30  C   UNL A   1      34.214  34.229  29.390  1.00  0.00     0.039 A 
ATOM     31  C   UNL A   1      33.969  33.427  30.506  1.00  0.00     0.014 A 
ATOM     32  C   UNL A   1      35.521  34.564  29.034  1.00  0.00     0.014 A 
ATOM     33  C   UNL A   1      35.047  32.898  31.219  1.00  0.00     0.010 A 
ATOM     34  C   UNL A   1      36.585  33.940  29.666  1.00  0.00     0.010 A 
ATOM     35  C   UNL A   1      36.363  33.118  30.778  1.00  0.00    -0.014 A 
BRANCH  35  36
ATOM     36  C   UNL A   1      37.533  32.523  31.469  1.00  0.00     0.031 A 
ATOM     37  C   UNL A   1      38.272  31.379  30.826  1.00  0.00     0.074 A 
ATOM     38  C   UNL A   1      37.857  32.931  32.711  1.00  0.00     0.049 A 
ATOM     39  N   UNL A   1      39.242  30.648  31.308  1.00  0.00    -0.248 NA
ATOM     40  C   UNL A   1      37.838  30.978  29.475  1.00  0.00     0.031 C 
ATOM     41  C   UNL A   1      37.162  33.972  33.473  1.00  0.00     0.029 A 
ATOM     42  N   UNL A   1      38.837  32.495  33.567  1.00  0.00    -0.354 N 
ATOM     43  C   UNL A   1      39.498  29.678  30.348  1.00  0.00     0.074 A 
ATOM     44  C   UNL A   1      38.554  29.884  29.273  1.00  0.00     0.031 C 
ATOM     45  C   UNL A   1      37.742  34.098  34.677  1.00  0.00     0.029 A 
ATOM     46  C   UNL A   1      38.823  33.125  34.789  1.00  0.00     0.049 A 
ATOM     47  H   UNL A   1      39.489  31.797  33.328  1.00  0.00     0.167 HD
ATOM     48  C   UNL A   1      40.456  28.722  30.341  1.00  0.00     0.034 A 
ATOM     49  C   UNL A   1      39.589  32.932  35.881  1.00  0.00     0.034 A 
ATOM     50  C   UNL A   1      41.428  28.560  31.387  1.00  0.00     0.049 A 
ATOM     51  C   UNL A   1      40.678  31.894  35.831  1.00  0.00     0.074 A 
ATOM     52  C   UNL A   1      42.498  27.688  31.437  1.00  0.00     0.029 A 
ATOM     53  N   UNL A   1      41.444  29.286  32.568  1.00  0.00    -0.354 N 
ATOM     54  N   UNL A   1      41.004  31.088  34.850  1.00  0.00    -0.248 NA
ATOM     55  C   UNL A   1      41.528  31.764  37.023  1.00  0.00     0.031 C 
ATOM     56  C   UNL A   1      43.149  27.869  32.662  1.00  0.00     0.029 A 
ATOM     57  C   UNL A   1      42.503  28.876  33.359  1.00  0.00     0.049 A 
ATOM     58  H   UNL A   1      40.798  29.988  32.809  1.00  0.00     0.167 HD
ATOM     59  C   UNL A   1      42.120  30.385  35.288  1.00  0.00     0.074 A 
ATOM     60  C   UNL A   1      42.424  30.874  36.619  1.00  0.00     0.031 C 
ATOM     61  C   UNL A   1      42.824  29.415  34.655  1.00  0.00     0.034 A 
BRANCH  48  62
ATOM     62  C   UNL A   1      40.534  27.816  29.140  1.00  0.00     0.023 A 
ATOM     63  C   UNL A   1      39.648  26.725  29.031  1.00  0.00     0.012 A 
ATOM     64  C   UNL A   1      41.446  28.072  28.097  1.00  0.00     0.148 A 
ATOM     65  C   UNL A   1      39.695  25.878  27.925  1.00  0.00     0.002 A 
ATOM     66  C   UNL A   1      41.453  27.253  26.975  1.00  0.00     0.091 A 
ATOM     67  F   UNL A   1      42.295  29.100  28.229  1.00  0.00    -0.205 F 
ATOM     68  C   UNL A   1      40.588  26.149  26.893  1.00  0.00     0.022 A 
BRANCH  66  69
ATOM     69  S   UNL A   1      42.506  27.565  25.554  1.00  0.00     0.127 S 
ATOM     70  O   UNL A   1      41.970  28.834  25.062  1.00  0.00    -0.237 OA
ATOM     71  O   UNL A   1      43.830  27.661  26.169  1.00  0.00    -0.237 OA
ATOM     72  O   UNL A   1      42.329  26.426  24.665  1.00  0.00    -0.744 OA
ENDBRANCH  66  69
ENDBRANCH  48  62
BRANCH  49  73
ATOM     73  C   UNL A   1      39.397  33.784  37.089  1.00  0.00     0.023 A 
ATOM     74  C   UNL A   1      39.851  35.117  37.073  1.00  0.00     0.012 A 
ATOM     75  C   UNL A   1      38.748  33.293  38.239  1.00  0.00     0.148 A 
ATOM     76  C   UNL A   1      39.696  35.936  38.193  1.00  0.00     0.002 A 
ATOM     77  C   UNL A   1      38.547  34.130  39.330  1.00  0.00     0.091 A 
ATOM     78  F   UNL A   1      38.329  32.020  38.237  1.00  0.00    -0.205 F 
ATOM     79  C   UNL A   1      39.036  35.446  39.317  1.00  0.00     0.022 A 
BRANCH  77  80
ATOM     80  S   UNL A   1      37.594  33.629  40.767  1.00  0.00     0.127 S 
ATOM     81  O   UNL A   1      38.501  32.684  41.413  1.00  0.00    -0.237 OA
ATOM     82  O   UNL A   1      37.420  34.900  41.473  1.00  0.00    -0.237 OA
ATOM     83  O   UNL A   1      36.358  33.062  40.241  1.00  0.00    -0.744 OA
ENDBRANCH  77  80
ENDBRANCH  49  73
BRANCH  61  84
ATOM     84  C   UNL A   1      44.025  28.846  35.361  1.00  0.00     0.023 A 
ATOM     85  C   UNL A   1      45.297  29.413  35.155  1.00  0.00     0.012 A 
ATOM     86  C   UNL A   1      43.873  27.805  36.298  1.00  0.00     0.148 A 
ATOM     87  C   UNL A   1      46.407  28.931  35.849  1.00  0.00     0.002 A 
ATOM     88  C   UNL A   1      44.972  27.366  37.025  1.00  0.00     0.091 A 
ATOM     89  F   UNL A   1      42.655  27.269  36.466  1.00  0.00    -0.205 F 
ATOM     90  C   UNL A   1      46.242  27.919  36.793  1.00  0.00     0.022 A 
BRANCH  88  91
ATOM     91  S   UNL A   1      44.837  26.140  38.330  1.00  0.00     0.127 S 
ATOM     92  O   UNL A   1      44.294  24.992  37.605  1.00  0.00    -0.237 OA
ATOM     93  O   UNL A   1      46.228  25.990  38.759  1.00  0.00    -0.237 OA
ATOM     94  O   UNL A   1      43.953  26.717  39.335  1.00  0.00    -0.744 OA
ENDBRANCH  88  91
ENDBRANCH  61  84
ENDBRANCH  35  36
ENDBRANCH  27  30
ENDBRANCH   1  26
TORSDOF 15
ENDMDL
MODEL 2
REMARK VINA RESULT:     -12.2      1.692      3.293
REMARK SMILES C[C@@H]1CCC[N@@H+]([C@@H]2CCC[C@]([NH3+])(C(=O)NCCCNC(=O)c3ccc(-c4c5nc(c(-c6cccc(S(=O)(=O)[O-])c6F)c6ccc([nH]6)c(-c6cccc(S(=O)(=O)[O-])c6F)c6nc(c(-c7cccc(S(=O)(=O)[O-])c7F)c7ccc4[nH]7)C=C6)C=C5)cc3)C2)C1
REMARK SMILES IDX 18 1 17 2 16 3 15 4 13 5 14 6 11 8 7 9 8 10 85 11 9 12 10 13
REMARK SMILES IDX 6 14 1 15 2 16 3 17 86 18 4 19 5 20 12 22 19 26 20 27 21 29
REMARK SMILES IDX 22 30 23 31 84 32 24 33 83 34 25 35 26 36 27 37 77 38 28 39
REMARK SMILES IDX 82 40 76 41 78 42 29 43 81 44 75 45 74 46 30 48 62 49 42 50
REMARK SMILES IDX 61 51 43 52 46 53 60 54 79 55 44 56 45 57 59 59 80 60 47 61
REMARK SMILES IDX 31 62 32 63 40 64 33 65 35 66 41 67 34 68 36 69 37 70 38 71
REMARK SMILES IDX 39 72 63 73 64 74 72 75 65 76 67 77 73 78 66 79 68 80 69 81
REMARK SMILES IDX 70 82 71 83 48 84 49 85 57 86 50 87 52 88 58 89 51 90 53 91
REMARK SMILES IDX 54 92 55 93 56 94
REMARK H PARENT 15 7 6 21 12 23 12 24 12 25 19 28 78 47 46 58
REMARK Flexibility Score: inf
ROOT
ATOM      1  C   UNL A   1      32.879  32.398  27.329  1.00  0.00     0.118 C 
ENDROOT
BRANCH   1   2
ATOM      2  C   UNL A   1      31.748  31.710  26.595  1.00  0.00     0.042 C 
BRANCH   2   3
ATOM      3  C   UNL A   1      32.051  30.258  26.289  1.00  0.00     0.118 C 
BRANCH   3   4
ATOM      4  N   UNL A   1      32.746  30.082  25.018  1.00  0.00    -0.351 N 
ATOM      5  C   UNL A   1      33.042  28.945  24.309  1.00  0.00     0.281 C 
ATOM      6  O   UNL A   1      33.616  29.073  23.227  1.00  0.00    -0.268 OA
ATOM      7  H   UNL A   1      33.053  30.918  24.599  1.00  0.00     0.163 HD
BRANCH   5   8
ATOM      8  C   UNL A   1      32.668  27.561  24.901  1.00  0.00     0.179 C 
ATOM      9  C   UNL A   1      32.604  25.010  24.555  1.00  0.00     0.190 C 
ATOM     10  C   UNL A   1      31.197  25.014  25.203  1.00  0.00     0.065 C 
ATOM     11  C   UNL A   1      33.038  26.386  23.965  1.00  0.00     0.144 C 
ATOM     12  C   UNL A   1      30.754  26.286  25.896  1.00  0.00     0.013 C 
ATOM     13  C   UNL A   1      31.134  27.483  25.060  1.00  0.00     0.079 C 
BRANCH   9  14
ATOM     14  N   UNL A   1      32.857  23.871  23.636  1.00  0.00    -0.332 N 
ATOM     15  C   UNL A   1      36.601  22.989  23.307  1.00  0.00     0.013 C 
ATOM     16  C   UNL A   1      35.242  23.085  23.997  1.00  0.00     0.041 C 
ATOM     17  C   UNL A   1      34.732  21.708  24.436  1.00  0.00     0.015 C 
ATOM     18  C   UNL A   1      34.222  23.809  23.097  1.00  0.00     0.265 C 
ATOM     19  C   UNL A   1      33.291  21.752  24.942  1.00  0.00     0.062 C 
ATOM     20  C   UNL A   1      32.374  22.541  24.007  1.00  0.00     0.262 C 
ATOM     21  H   UNL A   1      32.221  24.145  22.887  1.00  0.00     0.348 HD
ENDBRANCH   9  14
BRANCH   8  22
ATOM     22  N   UNL A   1      33.451  27.368  26.148  1.00  0.00    -0.345 N 
ATOM     23  H   UNL A   1      34.325  26.889  25.931  1.00  0.00     0.345 HD
ATOM     24  H   UNL A   1      32.910  26.807  26.806  1.00  0.00     0.345 HD
ATOM     25  H   UNL A   1      33.656  28.276  26.565  1.00  0.00     0.345 HD
ENDBRANCH   8  22
ENDBRANCH   5   8
ENDBRANCH   3   4
ENDBRANCH   2   3
ENDBRANCH   1   2
BRANCH   1  26
ATOM     26  N   UNL A   1      32.603  33.812  27.568  1.00  0.00    -0.352 N 
ATOM     27  C   UNL A   1      33.107  34.655  28.530  1.00  0.00     0.251 C 
ATOM     28  H   UNL A   1      31.960  34.223  26.946  1.00  0.00     0.163 HD
ATOM     29  O   UNL A   1      32.596  35.749  28.718  1.00  0.00    -0.269 OA
BRANCH  27  30
ATOM     30  C   UNL A   1      34.260  34.211  29.342  1.00  0.00     0.039 A 
ATOM     31  C   UNL A   1      34.036  33.563  30.558  1.00  0.00     0.014 A 
ATOM     32  C   UNL A   1      35.560  34.415  28.878  1.00  0.00     0.014 A 
ATOM     33  C   UNL A   1      35.122  33.051  31.271  1.00  0.00     0.010 A 
ATOM     34  C   UNL A   1      36.621  33.800  29.523  1.00  0.00     0.010 A 
ATOM     35  C   UNL A   1      36.419  33.130  30.737  1.00  0.00    -0.014 A 
BRANCH  35  36
ATOM     36  C   UNL A   1      37.592  32.543  31.430  1.00  0.00     0.031 A 
ATOM     37  C   UNL A   1      38.336  31.399  30.793  1.00  0.00     0.074 A 
ATOM     38  C   UNL A   1      37.913  32.958  32.671  1.00  0.00     0.049 A 
ATOM     39  N   UNL A   1      39.308  30.674  31.279  1.00  0.00    -0.248 NA
ATOM     40  C   UNL A   1      37.903  30.990  29.444  1.00  0.00     0.031 C 
ATOM     41  C   UNL A   1      37.214  33.999  33.428  1.00  0.00     0.029 A 
ATOM     42  N   UNL A   1      38.895  32.530  33.529  1.00  0.00    -0.354 N 
ATOM     43  C   UNL A   1      39.569  29.701  30.323  1.00  0.00     0.074 A 
ATOM     44  C   UNL A   1      38.624  29.898  29.247  1.00  0.00     0.031 C 
ATOM     45  C   UNL A   1      37.793  34.134  34.631  1.00  0.00     0.029 A 
ATOM     46  C   UNL A   1      38.878  33.166  34.749  1.00  0.00     0.049 A 
ATOM     47  H   UNL A   1      39.550  31.833  33.294  1.00  0.00     0.167 HD
ATOM     48  C   UNL A   1      40.531  28.750  30.321  1.00  0.00     0.034 A 
ATOM     49  C   UNL A   1      39.644  32.981  35.841  1.00  0.00     0.034 A 
ATOM     50  C   UNL A   1      41.503  28.596  31.368  1.00  0.00     0.049 A 
ATOM     51  C   UNL A   1      40.738  31.948  35.796  1.00  0.00     0.074 A 
ATOM     52  C   UNL A   1      42.577  27.729  31.422  1.00  0.00     0.029 A 
ATOM     53  N   UNL A   1      41.516  29.327  32.546  1.00  0.00    -0.354 N 
ATOM     54  N   UNL A   1      41.068  31.138  34.819  1.00  0.00    -0.248 NA
ATOM     55  C   UNL A   1      41.588  31.826  36.989  1.00  0.00     0.031 C 
ATOM     56  C   UNL A   1      43.227  27.918  32.646  1.00  0.00     0.029 A 
ATOM     57  C   UNL A   1      42.576  28.926  33.339  1.00  0.00     0.049 A 
ATOM     58  H   UNL A   1      40.866  30.028  32.783  1.00  0.00     0.167 HD
ATOM     59  C   UNL A   1      42.186  30.442  35.261  1.00  0.00     0.074 A 
ATOM     60  C   UNL A   1      42.487  30.938  36.589  1.00  0.00     0.031 C 
ATOM     61  C   UNL A   1      42.895  29.472  34.632  1.00  0.00     0.034 A 
BRANCH  48  62
ATOM     62  C   UNL A   1      40.613  27.838  29.124  1.00  0.00     0.023 A 
ATOM     63  C   UNL A   1      39.749  26.727  29.033  1.00  0.00     0.012 A 
ATOM     64  C   UNL A   1      41.506  28.107  28.069  1.00  0.00     0.148 A 
ATOM     65  C   UNL A   1      39.800  25.875  27.931  1.00  0.00     0.002 A 
ATOM     66  C   UNL A   1      41.516  27.282  26.951  1.00  0.00     0.091 A 
ATOM     67  F   UNL A   1      42.334  29.154  28.183  1.00  0.00    -0.205 F 
ATOM     68  C   UNL A   1      40.675  26.159  26.886  1.00  0.00     0.022 A 
BRANCH  66  69
ATOM     69  S   UNL A   1      42.544  27.608  25.515  1.00  0.00     0.127 S 
ATOM     70  O   UNL A   1      42.258  26.444  24.677  1.00  0.00    -0.237 OA
ATOM     71  O   UNL A   1      41.987  28.867  25.018  1.00  0.00    -0.237 OA
ATOM     72  O   UNL A   1      43.909  27.700  26.011  1.00  0.00    -0.744 OA
ENDBRANCH  66  69
ENDBRANCH  48  62
BRANCH  49  73
ATOM     73  C   UNL A   1      39.448  33.838  37.046  1.00  0.00     0.023 A 
ATOM     74  C   UNL A   1      39.902  35.171  37.025  1.00  0.00     0.012 A 
ATOM     75  C   UNL A   1      38.795  33.352  38.195  1.00  0.00     0.148 A 
ATOM     76  C   UNL A   1      39.744  35.994  38.141  1.00  0.00     0.002 A 
ATOM     77  C   UNL A   1      38.591  34.193  39.282  1.00  0.00     0.091 A 
ATOM     78  F   UNL A   1      38.377  32.079  38.197  1.00  0.00    -0.205 F 
ATOM     79  C   UNL A   1      39.081  35.509  39.266  1.00  0.00     0.022 A 
BRANCH  77  80
ATOM     80  S   UNL A   1      37.633  33.697  40.718  1.00  0.00     0.127 S 
ATOM     81  O   UNL A   1      38.505  32.697  41.328  1.00  0.00    -0.237 OA
ATOM     82  O   UNL A   1      37.524  34.956  41.457  1.00  0.00    -0.237 OA
ATOM     83  O   UNL A   1      36.368  33.199  40.193  1.00  0.00    -0.744 OA
ENDBRANCH  77  80
ENDBRANCH  49  73
BRANCH  61  84
ATOM     84  C   UNL A   1      44.098  28.911  35.341  1.00  0.00     0.023 A 
ATOM     85  C   UNL A   1      45.363  29.500  35.154  1.00  0.00     0.012 A 
ATOM     86  C   UNL A   1      43.953  27.856  36.263  1.00  0.00     0.148 A 
ATOM     87  C   UNL A   1      46.474  29.026  35.852  1.00  0.00     0.002 A 
ATOM     88  C   UNL A   1      45.052  27.424  36.994  1.00  0.00     0.091 A 
ATOM     89  F   UNL A   1      42.742  27.300  36.413  1.00  0.00    -0.205 F 
ATOM     90  C   UNL A   1      46.316  27.998  36.781  1.00  0.00     0.022 A 
BRANCH  88  91
ATOM     91  S   UNL A   1      44.924  26.179  38.281  1.00  0.00     0.127 S 
ATOM     92  O   UNL A   1      46.312  26.067  38.727  1.00  0.00    -0.237 OA
ATOM     93  O   UNL A   1      44.023  26.818  39.242  1.00  0.00    -0.237 OA
ATOM     94  O   UNL A   1      44.378  24.990  37.639  1.00  0.00    -0.744 OA
ENDBRANCH  88  91
ENDBRANCH  61  84
ENDBRANCH  35  36
ENDBRANCH  27  30
ENDBRANCH   1  26
TORSDOF 15
ENDMDL
MODEL 3
REMARK VINA RESULT:     -12.1      4.008      9.649
REMARK SMILES C[C@@H]1CCC[N@@H+]([C@@H]2CCC[C@]([NH3+])(C(=O)NCCCNC(=O)c3ccc(-c4c5nc(c(-c6cccc(S(=O)(=O)[O-])c6F)c6ccc([nH]6)c(-c6cccc(S(=O)(=O)[O-])c6F)c6nc(c(-c7cccc(S(=O)(=O)[O-])c7F)c7ccc4[nH]7)C=C6)C=C5)cc3)C2)C1
REMARK SMILES IDX 18 1 17 2 16 3 15 4 13 5 14 6 11 8 7 9 8 10 85 11 9 12 10 13
REMARK SMILES IDX 6 14 1 15 2 16 3 17 86 18 4 19 5 20 12 22 19 26 20 27 21 29
REMARK SMILES IDX 22 30 23 31 84 32 24 33 83 34 25 35 26 36 27 37 77 38 28 39
REMARK SMILES IDX 82 40 76 41 78 42 29 43 81 44 75 45 74 46 30 48 62 49 42 50
REMARK SMILES IDX 61 51 43 52 46 53 60 54 79 55 44 56 45 57 59 59 80 60 47 61
REMARK SMILES IDX 31 62 32 63 40 64 33 65 35 66 41 67 34 68 36 69 37 70 38 71
REMARK SMILES IDX 39 72 63 73 64 74 72 75 65 76 67 77 73 78 66 79 68 80 69 81
REMARK SMILES IDX 70 82 71 83 48 84 49 85 57 86 50 87 52 88 58 89 51 90 53 91
REMARK SMILES IDX 54 92 55 93 56 94
REMARK H PARENT 15 7 6 21 12 23 12 24 12 25 19 28 78 47 46 58
REMARK Flexibility Score: inf
ROOT
ATOM      1  C   UNL A   1      33.874  29.140  26.078  1.00  0.00     0.118 C 
ENDROOT
BRANCH   1   2
ATOM      2  C   UNL A   1      32.757  28.914  25.082  1.00  0.00     0.042 C 
BRANCH   2   3
ATOM      3  C   UNL A   1      32.647  27.467  24.648  1.00  0.00     0.118 C 
BRANCH   3   4
ATOM      4  N   UNL A   1      33.058  27.259  23.264  1.00  0.00    -0.351 N 
ATOM      5  C   UNL A   1      33.218  26.104  22.541  1.00  0.00     0.281 C 
ATOM      6  O   UNL A   1      33.546  26.204  21.358  1.00  0.00    -0.268 OA
ATOM      7  H   UNL A   1      33.251  28.086  22.764  1.00  0.00     0.163 HD
BRANCH   5   8
ATOM      8  C   UNL A   1      33.009  24.735  23.239  1.00  0.00     0.179 C 
ATOM      9  C   UNL A   1      33.874  23.043  24.977  1.00  0.00     0.190 C 
ATOM     10  C   UNL A   1      33.537  21.918  23.966  1.00  0.00     0.065 C 
ATOM     11  C   UNL A   1      34.070  24.446  24.327  1.00  0.00     0.144 C 
ATOM     12  C   UNL A   1      32.703  22.295  22.759  1.00  0.00     0.013 C 
ATOM     13  C   UNL A   1      33.183  23.610  22.196  1.00  0.00     0.079 C 
BRANCH   9  14
ATOM     14  N   UNL A   1      34.935  22.695  25.956  1.00  0.00    -0.332 N 
ATOM     15  C   UNL A   1      37.076  19.674  24.866  1.00  0.00     0.013 C 
ATOM     16  C   UNL A   1      36.561  21.111  24.824  1.00  0.00     0.041 C 
ATOM     17  C   UNL A   1      37.695  22.124  25.013  1.00  0.00     0.015 C 
ATOM     18  C   UNL A   1      35.435  21.317  25.857  1.00  0.00     0.265 C 
ATOM     19  C   UNL A   1      37.180  23.553  25.180  1.00  0.00     0.062 C 
ATOM     20  C   UNL A   1      36.029  23.640  26.181  1.00  0.00     0.262 C 
ATOM     21  H   UNL A   1      34.380  22.781  26.809  1.00  0.00     0.348 HD
ENDBRANCH   9  14
BRANCH   8  22
ATOM     22  N   UNL A   1      31.695  24.768  23.931  1.00  0.00    -0.345 N 
ATOM     23  H   UNL A   1      31.015  24.226  23.397  1.00  0.00     0.345 HD
ATOM     24  H   UNL A   1      31.375  25.733  24.008  1.00  0.00     0.345 HD
ATOM     25  H   UNL A   1      31.793  24.367  24.864  1.00  0.00     0.345 HD
ENDBRANCH   8  22
ENDBRANCH   5   8
ENDBRANCH   3   4
ENDBRANCH   2   3
ENDBRANCH   1   2
BRANCH   1  26
ATOM     26  N   UNL A   1      33.787  30.449  26.717  1.00  0.00    -0.352 N 
ATOM     27  C   UNL A   1      34.559  30.990  27.720  1.00  0.00     0.251 C 
ATOM     28  H   UNL A   1      33.070  31.033  26.380  1.00  0.00     0.163 HD
ATOM     29  O   UNL A   1      34.202  32.014  28.284  1.00  0.00    -0.269 OA
BRANCH  27  30
ATOM     30  C   UNL A   1      35.809  30.308  28.113  1.00  0.00     0.039 A 
ATOM     31  C   UNL A   1      36.939  30.423  27.302  1.00  0.00     0.014 A 
ATOM     32  C   UNL A   1      35.863  29.581  29.303  1.00  0.00     0.014 A 
ATOM     33  C   UNL A   1      38.147  29.866  27.729  1.00  0.00     0.010 A 
ATOM     34  C   UNL A   1      37.086  29.139  29.780  1.00  0.00     0.010 A 
ATOM     35  C   UNL A   1      38.238  29.256  28.991  1.00  0.00    -0.014 A 
BRANCH  35  36
ATOM     36  C   UNL A   1      39.515  28.709  29.510  1.00  0.00     0.031 A 
ATOM     37  C   UNL A   1      40.228  29.422  30.629  1.00  0.00     0.074 A 
ATOM     38  C   UNL A   1      40.086  27.650  28.905  1.00  0.00     0.049 A 
ATOM     39  N   UNL A   1      41.402  29.178  31.147  1.00  0.00    -0.248 NA
ATOM     40  C   UNL A   1      39.546  30.589  31.219  1.00  0.00     0.031 C 
ATOM     41  C   UNL A   1      39.534  26.927  27.756  1.00  0.00     0.029 A 
ATOM     42  N   UNL A   1      41.276  27.013  29.154  1.00  0.00    -0.354 N 
ATOM     43  C   UNL A   1      41.619  30.181  32.083  1.00  0.00     0.074 A 
ATOM     44  C   UNL A   1      40.476  31.064  32.032  1.00  0.00     0.031 C 
ATOM     45  C   UNL A   1      40.378  25.944  27.406  1.00  0.00     0.029 A 
ATOM     46  C   UNL A   1      41.547  25.989  28.277  1.00  0.00     0.049 A 
ATOM     47  H   UNL A   1      41.878  27.266  29.890  1.00  0.00     0.167 HD
ATOM     48  C   UNL A   1      42.659  30.336  32.935  1.00  0.00     0.034 A 
ATOM     49  C   UNL A   1      42.623  25.183  28.181  1.00  0.00     0.034 A 
ATOM     50  C   UNL A   1      43.764  29.423  33.020  1.00  0.00     0.049 A 
ATOM     51  C   UNL A   1      43.745  25.347  29.171  1.00  0.00     0.074 A 
ATOM     52  C   UNL A   1      44.821  29.433  33.910  1.00  0.00     0.029 A 
ATOM     53  N   UNL A   1      43.955  28.336  32.180  1.00  0.00    -0.354 N 
ATOM     54  N   UNL A   1      43.860  26.210  30.151  1.00  0.00    -0.248 NA
ATOM     55  C   UNL A   1      44.868  24.405  29.065  1.00  0.00     0.031 C 
ATOM     56  C   UNL A   1      45.666  28.365  33.593  1.00  0.00     0.029 A 
ATOM     57  C   UNL A   1      45.118  27.671  32.527  1.00  0.00     0.049 A 
ATOM     58  H   UNL A   1      43.353  28.076  31.447  1.00  0.00     0.167 HD
ATOM     59  C   UNL A   1      45.045  25.890  30.804  1.00  0.00     0.074 A 
ATOM     60  C   UNL A   1      45.602  24.742  30.117  1.00  0.00     0.031 C 
ATOM     61  C   UNL A   1      45.626  26.496  31.868  1.00  0.00     0.034 A 
BRANCH  48  62
ATOM     62  C   UNL A   1      42.620  31.508  33.882  1.00  0.00     0.023 A 
ATOM     63  C   UNL A   1      43.125  32.757  33.467  1.00  0.00     0.012 A 
ATOM     64  C   UNL A   1      42.039  31.388  35.159  1.00  0.00     0.148 A 
ATOM     65  C   UNL A   1      43.092  33.858  34.322  1.00  0.00     0.002 A 
ATOM     66  C   UNL A   1      41.964  32.502  35.987  1.00  0.00     0.091 A 
ATOM     67  F   UNL A   1      41.584  30.188  35.545  1.00  0.00    -0.205 F 
ATOM     68  C   UNL A   1      42.501  33.733  35.576  1.00  0.00     0.022 A 
BRANCH  66  69
ATOM     69  S   UNL A   1      41.149  32.467  37.587  1.00  0.00     0.127 S 
ATOM     70  O   UNL A   1      42.026  31.577  38.345  1.00  0.00    -0.237 OA
ATOM     71  O   UNL A   1      41.209  33.872  37.992  1.00  0.00    -0.237 OA
ATOM     72  O   UNL A   1      39.806  31.962  37.343  1.00  0.00    -0.744 OA
ENDBRANCH  66  69
ENDBRANCH  48  62
BRANCH  49  73
ATOM     73  C   UNL A   1      42.662  24.106  27.150  1.00  0.00     0.023 A 
ATOM     74  C   UNL A   1      43.343  24.335  25.939  1.00  0.00     0.012 A 
ATOM     75  C   UNL A   1      42.054  22.855  27.371  1.00  0.00     0.148 A 
ATOM     76  C   UNL A   1      43.386  23.351  24.950  1.00  0.00     0.002 A 
ATOM     77  C   UNL A   1      42.149  21.860  26.405  1.00  0.00     0.091 A 
ATOM     78  F   UNL A   1      41.405  22.660  28.527  1.00  0.00    -0.205 F 
ATOM     79  C   UNL A   1      42.798  22.111  25.187  1.00  0.00     0.022 A 
BRANCH  77  80
ATOM     80  S   UNL A   1      41.537  20.193  26.676  1.00  0.00     0.127 S 
ATOM     81  O   UNL A   1      42.289  19.787  27.860  1.00  0.00    -0.237 OA
ATOM     82  O   UNL A   1      40.110  20.428  26.900  1.00  0.00    -0.237 OA
ATOM     83  O   UNL A   1      41.839  19.461  25.452  1.00  0.00    -0.744 OA
ENDBRANCH  77  80
ENDBRANCH  49  73
BRANCH  61  84
ATOM     84  C   UNL A   1      46.907  25.907  32.398  1.00  0.00     0.023 A 
ATOM     85  C   UNL A   1      48.146  26.387  31.934  1.00  0.00     0.012 A 
ATOM     86  C   UNL A   1      46.876  24.941  33.422  1.00  0.00     0.148 A 
ATOM     87  C   UNL A   1      49.338  25.891  32.460  1.00  0.00     0.002 A 
ATOM     88  C   UNL A   1      48.065  24.489  33.979  1.00  0.00     0.091 A 
ATOM     89  F   UNL A   1      45.684  24.486  33.837  1.00  0.00    -0.205 F 
ATOM     90  C   UNL A   1      49.298  24.953  33.491  1.00  0.00     0.022 A 
BRANCH  88  91
ATOM     91  S   UNL A   1      48.108  23.362  35.375  1.00  0.00     0.127 S 
ATOM     92  O   UNL A   1      47.524  22.151  34.799  1.00  0.00    -0.237 OA
ATOM     93  O   UNL A   1      49.541  23.274  35.659  1.00  0.00    -0.237 OA
ATOM     94  O   UNL A   1      47.321  23.993  36.428  1.00  0.00    -0.744 OA
ENDBRANCH  88  91
ENDBRANCH  61  84
ENDBRANCH  35  36
ENDBRANCH  27  30
ENDBRANCH   1  26
TORSDOF 15
ENDMDL
