MODEL 1
REMARK VINA RESULT:     -12.0      0.000      0.000
REMARK SMILES CC[C@H]([NH2+]C1c2ccccc2-c2ccccc21)C(=O)NCCCNC(=O)c1ccc(-c2c3nc(c(-c4cccc(S(=O)(=O)[O-])c4F)c4ccc([nH]4)c(-c4cccc(S(=O)(=O)[O-])c4F)c4nc(c(-c5cccc(S(=O)(=O)[O-])c5F)c5ccc2[nH]5)C=C4)C=C3)cc1
REMARK SMILES IDX 22 1 21 2 20 3 18 4 19 5 3 7 2 8 1 9 4 10 5 13 6 14 17 15
REMARK SMILES IDX 7 16 11 17 12 18 16 19 8 20 10 21 13 22 15 23 9 24 14 25
REMARK SMILES IDX 23 26 24 27 25 28 26 30 27 31 28 32 89 33 29 34 88 35 30 36
REMARK SMILES IDX 31 37 32 38 82 39 33 40 87 41 81 42 83 43 34 44 86 45 80 46
REMARK SMILES IDX 79 47 35 49 67 50 47 51 66 52 48 53 51 54 65 55 84 56 49 57
REMARK SMILES IDX 50 58 64 60 85 61 52 62 36 63 37 64 45 65 38 66 40 67 46 68
REMARK SMILES IDX 39 69 41 70 42 71 43 72 44 73 68 74 69 75 77 76 70 77 72 78
REMARK SMILES IDX 78 79 71 80 73 81 74 82 75 83 76 84 53 85 54 86 62 87 55 88
REMARK SMILES IDX 57 89 63 90 56 91 58 92 59 93 60 94 61 95
REMARK H PARENT 20 6 4 11 4 12 24 29 83 48 51 59
REMARK Flexibility Score: inf
ROOT
ATOM      1  C   UNL A   1      33.301  28.843  24.492  1.00  0.00     0.042 C 
ENDROOT
BRANCH   1   2
ATOM      2  C   UNL A   1      32.426  27.619  24.187  1.00  0.00     0.118 C 
BRANCH   2   3
ATOM      3  N   UNL A   1      31.804  26.997  25.354  1.00  0.00    -0.351 N 
ATOM      4  C   UNL A   1      31.746  25.735  25.853  1.00  0.00     0.278 C 
ATOM      5  O   UNL A   1      31.268  25.659  26.998  1.00  0.00    -0.268 OA
ATOM      6  H   UNL A   1      31.314  27.644  25.910  1.00  0.00     0.163 HD
BRANCH   4   7
ATOM      7  C   UNL A   1      32.238  24.427  25.180  1.00  0.00     0.273 C 
BRANCH   7   8
ATOM      8  C   UNL A   1      31.167  23.714  24.330  1.00  0.00     0.072 C 
ATOM      9  C   UNL A   1      30.526  24.490  23.194  1.00  0.00     0.011 C 
ENDBRANCH   7   8
BRANCH   7  10
ATOM     10  N   UNL A   1      33.138  23.496  25.913  1.00  0.00    -0.326 N 
ATOM     11  H   UNL A   1      32.548  22.899  26.494  1.00  0.00     0.347 HD
ATOM     12  H   UNL A   1      33.781  24.107  26.416  1.00  0.00     0.347 HD
BRANCH  10  13
ATOM     13  C   UNL A   1      33.996  22.629  25.141  1.00  0.00     0.246 C 
ATOM     14  C   UNL A   1      35.475  22.668  25.501  1.00  0.00     0.022 A 
ATOM     15  C   UNL A   1      33.724  21.136  25.031  1.00  0.00     0.022 A 
ATOM     16  C   UNL A   1      36.278  23.769  25.757  1.00  0.00     0.011 A 
ATOM     17  C   UNL A   1      36.031  21.383  25.307  1.00  0.00    -0.008 A 
ATOM     18  C   UNL A   1      34.964  20.449  25.006  1.00  0.00    -0.008 A 
ATOM     19  C   UNL A   1      32.545  20.449  24.784  1.00  0.00     0.011 A 
ATOM     20  C   UNL A   1      37.661  23.575  25.815  1.00  0.00     0.001 A 
ATOM     21  C   UNL A   1      37.403  21.193  25.364  1.00  0.00     0.009 A 
ATOM     22  C   UNL A   1      35.031  19.104  24.678  1.00  0.00     0.009 A 
ATOM     23  C   UNL A   1      32.613  19.093  24.450  1.00  0.00     0.001 A 
ATOM     24  C   UNL A   1      38.217  22.301  25.612  1.00  0.00     0.001 A 
ATOM     25  C   UNL A   1      33.846  18.430  24.381  1.00  0.00     0.001 A 
ENDBRANCH  10  13
ENDBRANCH   7  10
ENDBRANCH   4   7
ENDBRANCH   2   3
ENDBRANCH   1   2
BRANCH   1  26
ATOM     26  C   UNL A   1      33.913  28.871  25.880  1.00  0.00     0.118 C 
BRANCH  26  27
ATOM     27  N   UNL A   1      33.754  30.171  26.505  1.00  0.00    -0.352 N 
ATOM     28  C   UNL A   1      34.442  30.736  27.551  1.00  0.00     0.251 C 
ATOM     29  H   UNL A   1      33.044  30.734  26.120  1.00  0.00     0.163 HD
ATOM     30  O   UNL A   1      33.945  31.703  28.125  1.00  0.00    -0.269 OA
BRANCH  28  31
ATOM     31  C   UNL A   1      35.754  30.205  28.003  1.00  0.00     0.039 A 
ATOM     32  C   UNL A   1      35.842  29.637  29.279  1.00  0.00     0.014 A 
ATOM     33  C   UNL A   1      36.912  30.328  27.231  1.00  0.00     0.014 A 
ATOM     34  C   UNL A   1      37.073  29.176  29.759  1.00  0.00     0.010 A 
ATOM     35  C   UNL A   1      38.114  29.769  27.666  1.00  0.00     0.010 A 
ATOM     36  C   UNL A   1      38.220  29.218  28.949  1.00  0.00    -0.014 A 
BRANCH  36  37
ATOM     37  C   UNL A   1      39.531  28.715  29.446  1.00  0.00     0.031 A 
ATOM     38  C   UNL A   1      40.254  29.423  30.566  1.00  0.00     0.074 A 
ATOM     39  C   UNL A   1      40.099  27.643  28.858  1.00  0.00     0.049 A 
ATOM     40  N   UNL A   1      41.394  29.121  31.134  1.00  0.00    -0.248 NA
ATOM     41  C   UNL A   1      39.636  30.650  31.098  1.00  0.00     0.031 C 
ATOM     42  C   UNL A   1      39.557  26.931  27.699  1.00  0.00     0.029 A 
ATOM     43  N   UNL A   1      41.264  26.976  29.142  1.00  0.00    -0.354 N 
ATOM     44  C   UNL A   1      41.644  30.130  32.058  1.00  0.00     0.074 A 
ATOM     45  C   UNL A   1      40.561  31.080  31.944  1.00  0.00     0.031 C 
ATOM     46  C   UNL A   1      40.376  25.914  27.385  1.00  0.00     0.029 A 
ATOM     47  C   UNL A   1      41.511  25.915  28.302  1.00  0.00     0.049 A 
ATOM     48  H   UNL A   1      41.866  27.233  29.877  1.00  0.00     0.167 HD
ATOM     49  C   UNL A   1      42.657  30.238  32.951  1.00  0.00     0.034 A 
ATOM     50  C   UNL A   1      42.531  25.036  28.276  1.00  0.00     0.034 A 
ATOM     51  C   UNL A   1      43.704  29.264  33.102  1.00  0.00     0.049 A 
ATOM     52  C   UNL A   1      43.601  25.130  29.329  1.00  0.00     0.074 A 
ATOM     53  C   UNL A   1      44.725  29.232  34.035  1.00  0.00     0.029 A 
ATOM     54  N   UNL A   1      43.864  28.146  32.298  1.00  0.00    -0.354 N 
ATOM     55  N   UNL A   1      43.725  25.998  30.305  1.00  0.00    -0.248 NA
ATOM     56  C   UNL A   1      44.647  24.097  29.308  1.00  0.00     0.031 C 
ATOM     57  C   UNL A   1      45.512  28.102  33.785  1.00  0.00     0.029 A 
ATOM     58  C   UNL A   1      44.970  27.419  32.709  1.00  0.00     0.049 A 
ATOM     59  H   UNL A   1      43.279  27.904  31.544  1.00  0.00     0.167 HD
ATOM     60  C   UNL A   1      44.847  25.605  31.025  1.00  0.00     0.074 A 
ATOM     61  C   UNL A   1      45.344  24.398  30.395  1.00  0.00     0.031 C 
ATOM     62  C   UNL A   1      45.429  26.199  32.096  1.00  0.00     0.034 A 
BRANCH  49  63
ATOM     63  C   UNL A   1      42.642  31.422  33.887  1.00  0.00     0.023 A 
ATOM     64  C   UNL A   1      43.195  32.648  33.460  1.00  0.00     0.012 A 
ATOM     65  C   UNL A   1      42.037  31.345  35.157  1.00  0.00     0.148 A 
ATOM     66  C   UNL A   1      43.184  33.765  34.295  1.00  0.00     0.002 A 
ATOM     67  C   UNL A   1      41.990  32.476  35.966  1.00  0.00     0.091 A 
ATOM     68  F   UNL A   1      41.532  30.169  35.555  1.00  0.00    -0.205 F 
ATOM     69  C   UNL A   1      42.573  33.682  35.543  1.00  0.00     0.022 A 
BRANCH  67  70
ATOM     70  S   UNL A   1      41.157  32.498  37.559  1.00  0.00     0.127 S 
ATOM     71  O   UNL A   1      42.000  31.598  38.345  1.00  0.00    -0.237 OA
ATOM     72  O   UNL A   1      41.253  33.908  37.937  1.00  0.00    -0.237 OA
ATOM     73  O   UNL A   1      39.802  32.027  37.309  1.00  0.00    -0.744 OA
ENDBRANCH  67  70
ENDBRANCH  49  63
BRANCH  50  74
ATOM     74  C   UNL A   1      42.542  23.942  27.264  1.00  0.00     0.023 A 
ATOM     75  C   UNL A   1      43.200  24.138  26.034  1.00  0.00     0.012 A 
ATOM     76  C   UNL A   1      41.943  22.695  27.530  1.00  0.00     0.148 A 
ATOM     77  C   UNL A   1      43.236  23.125  25.077  1.00  0.00     0.002 A 
ATOM     78  C   UNL A   1      42.034  21.669  26.595  1.00  0.00     0.091 A 
ATOM     79  F   UNL A   1      41.309  22.529  28.699  1.00  0.00    -0.205 F 
ATOM     80  C   UNL A   1      42.664  21.889  25.360  1.00  0.00     0.022 A 
BRANCH  78  81
ATOM     81  S   UNL A   1      41.453  20.005  26.939  1.00  0.00     0.127 S 
ATOM     82  O   UNL A   1      42.705  19.261  27.026  1.00  0.00    -0.237 OA
ATOM     83  O   UNL A   1      40.751  20.185  28.211  1.00  0.00    -0.237 OA
ATOM     84  O   UNL A   1      40.581  19.657  25.823  1.00  0.00    -0.744 OA
ENDBRANCH  78  81
ENDBRANCH  50  74
BRANCH  62  85
ATOM     85  C   UNL A   1      46.664  25.548  32.663  1.00  0.00     0.023 A 
ATOM     86  C   UNL A   1      47.934  25.933  32.186  1.00  0.00     0.012 A 
ATOM     87  C   UNL A   1      46.572  24.595  33.695  1.00  0.00     0.148 A 
ATOM     88  C   UNL A   1      49.090  25.347  32.698  1.00  0.00     0.002 A 
ATOM     89  C   UNL A   1      47.733  24.050  34.234  1.00  0.00     0.091 A 
ATOM     90  F   UNL A   1      45.356  24.226  34.122  1.00  0.00    -0.205 F 
ATOM     91  C   UNL A   1      48.991  24.415  33.728  1.00  0.00     0.022 A 
BRANCH  89  92
ATOM     92  S   UNL A   1      47.700  22.914  35.624  1.00  0.00     0.127 S 
ATOM     93  O   UNL A   1      47.057  23.725  36.658  1.00  0.00    -0.237 OA
ATOM     94  O   UNL A   1      46.878  21.816  35.112  1.00  0.00    -0.237 OA
ATOM     95  O   UNL A   1      49.088  22.556  35.878  1.00  0.00    -0.744 OA
ENDBRANCH  89  92
ENDBRANCH  62  85
ENDBRANCH  36  37
ENDBRANCH  28  31
ENDBRANCH  26  27
ENDBRANCH   1  26
TORSDOF 16
ENDMDL
MODEL 2
REMARK VINA RESULT:     -12.0      1.620      2.508
REMARK SMILES CC[C@H]([NH2+]C1c2ccccc2-c2ccccc21)C(=O)NCCCNC(=O)c1ccc(-c2c3nc(c(-c4cccc(S(=O)(=O)[O-])c4F)c4ccc([nH]4)c(-c4cccc(S(=O)(=O)[O-])c4F)c4nc(c(-c5cccc(S(=O)(=O)[O-])c5F)c5ccc2[nH]5)C=C4)C=C3)cc1
REMARK SMILES IDX 22 1 21 2 20 3 18 4 19 5 3 7 2 8 1 9 4 10 5 13 6 14 17 15
REMARK SMILES IDX 7 16 11 17 12 18 16 19 8 20 10 21 13 22 15 23 9 24 14 25
REMARK SMILES IDX 23 26 24 27 25 28 26 30 27 31 28 32 89 33 29 34 88 35 30 36
REMARK SMILES IDX 31 37 32 38 82 39 33 40 87 41 81 42 83 43 34 44 86 45 80 46
REMARK SMILES IDX 79 47 35 49 67 50 47 51 66 52 48 53 51 54 65 55 84 56 49 57
REMARK SMILES IDX 50 58 64 60 85 61 52 62 36 63 37 64 45 65 38 66 40 67 46 68
REMARK SMILES IDX 39 69 41 70 42 71 43 72 44 73 68 74 69 75 77 76 70 77 72 78
REMARK SMILES IDX 78 79 71 80 73 81 74 82 75 83 76 84 53 85 54 86 62 87 55 88
REMARK SMILES IDX 57 89 63 90 56 91 58 92 59 93 60 94 61 95
REMARK H PARENT 20 6 4 11 4 12 24 29 83 48 51 59
REMARK Flexibility Score: inf
ROOT
ATOM      1  C   UNL A   1      33.663  27.774  25.646  1.00  0.00     0.042 C 
ENDROOT
BRANCH   1   2
ATOM      2  C   UNL A   1      33.477  26.263  25.447  1.00  0.00     0.118 C 
BRANCH   2   3
ATOM      3  N   UNL A   1      32.382  25.669  26.210  1.00  0.00    -0.351 N 
ATOM      4  C   UNL A   1      31.887  24.413  26.362  1.00  0.00     0.278 C 
ATOM      5  O   UNL A   1      31.049  24.300  27.273  1.00  0.00    -0.268 OA
ATOM      6  H   UNL A   1      31.887  26.334  26.739  1.00  0.00     0.163 HD
BRANCH   4   7
ATOM      7  C   UNL A   1      32.279  23.139  25.568  1.00  0.00     0.273 C 
BRANCH   7   8
ATOM      8  C   UNL A   1      31.695  23.080  24.142  1.00  0.00     0.072 C 
ATOM      9  C   UNL A   1      32.661  22.922  22.983  1.00  0.00     0.011 C 
ENDBRANCH   7   8
BRANCH   7  10
ATOM     10  N   UNL A   1      32.333  21.816  26.248  1.00  0.00    -0.326 N 
ATOM     11  H   UNL A   1      31.644  21.215  25.795  1.00  0.00     0.347 HD
ATOM     12  H   UNL A   1      32.158  22.028  27.230  1.00  0.00     0.347 HD
BRANCH  10  13
ATOM     13  C   UNL A   1      33.588  21.104  26.252  1.00  0.00     0.246 C 
ATOM     14  C   UNL A   1      33.606  19.786  25.490  1.00  0.00     0.022 A 
ATOM     15  C   UNL A   1      34.878  21.766  25.791  1.00  0.00     0.022 A 
ATOM     16  C   UNL A   1      32.661  18.770  25.489  1.00  0.00     0.011 A 
ATOM     17  C   UNL A   1      34.887  19.597  24.924  1.00  0.00    -0.008 A 
ATOM     18  C   UNL A   1      35.669  20.801  25.119  1.00  0.00    -0.008 A 
ATOM     19  C   UNL A   1      35.405  23.015  26.083  1.00  0.00     0.011 A 
ATOM     20  C   UNL A   1      33.012  17.547  24.913  1.00  0.00     0.001 A 
ATOM     21  C   UNL A   1      35.233  18.382  24.354  1.00  0.00     0.009 A 
ATOM     22  C   UNL A   1      36.993  21.059  24.797  1.00  0.00     0.009 A 
ATOM     23  C   UNL A   1      36.741  23.274  25.761  1.00  0.00     0.001 A 
ATOM     24  C   UNL A   1      34.289  17.352  24.359  1.00  0.00     0.001 A 
ATOM     25  C   UNL A   1      37.533  22.300  25.139  1.00  0.00     0.001 A 
ENDBRANCH  10  13
ENDBRANCH   7  10
ENDBRANCH   4   7
ENDBRANCH   2   3
ENDBRANCH   1   2
BRANCH   1  26
ATOM     26  C   UNL A   1      33.461  28.270  27.066  1.00  0.00     0.118 C 
BRANCH  26  27
ATOM     27  N   UNL A   1      33.493  29.719  27.133  1.00  0.00    -0.352 N 
ATOM     28  C   UNL A   1      34.405  30.553  27.733  1.00  0.00     0.251 C 
ATOM     29  H   UNL A   1      32.747  30.173  26.679  1.00  0.00     0.163 HD
ATOM     30  O   UNL A   1      34.081  31.720  27.944  1.00  0.00    -0.269 OA
BRANCH  28  31
ATOM     31  C   UNL A   1      35.755  30.078  28.134  1.00  0.00     0.039 A 
ATOM     32  C   UNL A   1      35.928  29.567  29.424  1.00  0.00     0.014 A 
ATOM     33  C   UNL A   1      36.865  30.202  27.296  1.00  0.00     0.014 A 
ATOM     34  C   UNL A   1      37.196  29.162  29.855  1.00  0.00     0.010 A 
ATOM     35  C   UNL A   1      38.106  29.696  27.687  1.00  0.00     0.010 A 
ATOM     36  C   UNL A   1      38.296  29.202  28.983  1.00  0.00    -0.014 A 
BRANCH  36  37
ATOM     37  C   UNL A   1      39.646  28.758  29.428  1.00  0.00     0.031 A 
ATOM     38  C   UNL A   1      40.366  29.477  30.543  1.00  0.00     0.074 A 
ATOM     39  C   UNL A   1      40.251  27.733  28.796  1.00  0.00     0.049 A 
ATOM     40  N   UNL A   1      41.538  29.222  31.069  1.00  0.00    -0.248 NA
ATOM     41  C   UNL A   1      39.702  30.656  31.125  1.00  0.00     0.031 C 
ATOM     42  C   UNL A   1      39.712  27.020  27.637  1.00  0.00     0.029 A 
ATOM     43  N   UNL A   1      41.458  27.122  29.028  1.00  0.00    -0.354 N 
ATOM     44  C   UNL A   1      41.763  30.221  32.011  1.00  0.00     0.074 A 
ATOM     45  C   UNL A   1      40.628  31.115  31.953  1.00  0.00     0.031 C 
ATOM     46  C   UNL A   1      40.573  26.056  27.272  1.00  0.00     0.029 A 
ATOM     47  C   UNL A   1      41.734  26.096  28.155  1.00  0.00     0.049 A 
ATOM     48  H   UNL A   1      42.069  27.392  29.752  1.00  0.00     0.167 HD
ATOM     49  C   UNL A   1      42.796  30.361  32.876  1.00  0.00     0.034 A 
ATOM     50  C   UNL A   1      42.798  25.273  28.076  1.00  0.00     0.034 A 
ATOM     51  C   UNL A   1      43.897  29.441  32.971  1.00  0.00     0.049 A 
ATOM     52  C   UNL A   1      43.894  25.398  29.099  1.00  0.00     0.074 A 
ATOM     53  C   UNL A   1      44.947  29.441  33.872  1.00  0.00     0.029 A 
ATOM     54  N   UNL A   1      44.091  28.353  32.134  1.00  0.00    -0.354 N 
ATOM     55  N   UNL A   1      44.003  26.248  30.092  1.00  0.00    -0.248 NA
ATOM     56  C   UNL A   1      44.992  24.423  29.020  1.00  0.00     0.031 C 
ATOM     57  C   UNL A   1      45.784  28.361  33.571  1.00  0.00     0.029 A 
ATOM     58  C   UNL A   1      45.245  27.676  32.494  1.00  0.00     0.049 A 
ATOM     59  H   UNL A   1      43.496  28.098  31.393  1.00  0.00     0.167 HD
ATOM     60  C   UNL A   1      45.165  25.898  30.768  1.00  0.00     0.074 A 
ATOM     61  C   UNL A   1      45.705  24.735  30.093  1.00  0.00     0.031 C 
ATOM     62  C   UNL A   1      45.748  26.497  31.837  1.00  0.00     0.034 A 
BRANCH  49  63
ATOM     63  C   UNL A   1      42.748  31.521  33.842  1.00  0.00     0.023 A 
ATOM     64  C   UNL A   1      43.232  32.781  33.433  1.00  0.00     0.012 A 
ATOM     65  C   UNL A   1      42.179  31.384  35.123  1.00  0.00     0.148 A 
ATOM     66  C   UNL A   1      43.188  33.876  34.296  1.00  0.00     0.002 A 
ATOM     67  C   UNL A   1      42.098  32.491  35.962  1.00  0.00     0.091 A 
ATOM     68  F   UNL A   1      41.740  30.176  35.503  1.00  0.00    -0.205 F 
ATOM     69  C   UNL A   1      42.613  33.733  35.555  1.00  0.00     0.022 A 
BRANCH  67  70
ATOM     70  S   UNL A   1      41.305  32.434  37.574  1.00  0.00     0.127 S 
ATOM     71  O   UNL A   1      41.332  33.842  37.966  1.00  0.00    -0.237 OA
ATOM     72  O   UNL A   1      39.976  31.918  37.245  1.00  0.00    -0.237 OA
ATOM     73  O   UNL A   1      42.118  31.542  38.389  1.00  0.00    -0.744 OA
ENDBRANCH  67  70
ENDBRANCH  49  63
BRANCH  50  74
ATOM     74  C   UNL A   1      42.834  24.205  27.037  1.00  0.00     0.023 A 
ATOM     75  C   UNL A   1      43.566  24.413  25.851  1.00  0.00     0.012 A 
ATOM     76  C   UNL A   1      42.187  22.970  27.235  1.00  0.00     0.148 A 
ATOM     77  C   UNL A   1      43.627  23.425  24.870  1.00  0.00     0.002 A 
ATOM     78  C   UNL A   1      42.301  21.966  26.279  1.00  0.00     0.091 A 
ATOM     79  F   UNL A   1      41.484  22.794  28.362  1.00  0.00    -0.205 F 
ATOM     80  C   UNL A   1      43.005  22.199  25.087  1.00  0.00     0.022 A 
BRANCH  78  81
ATOM     81  S   UNL A   1      41.655  20.312  26.545  1.00  0.00     0.127 S 
ATOM     82  O   UNL A   1      42.271  19.950  27.817  1.00  0.00    -0.237 OA
ATOM     83  O   UNL A   1      40.212  20.554  26.603  1.00  0.00    -0.237 OA
ATOM     84  O   UNL A   1      42.081  19.535  25.386  1.00  0.00    -0.744 OA
ENDBRANCH  78  81
ENDBRANCH  50  74
BRANCH  62  85
ATOM     85  C   UNL A   1      47.032  25.899  32.350  1.00  0.00     0.023 A 
ATOM     86  C   UNL A   1      47.001  25.033  33.462  1.00  0.00     0.012 A 
ATOM     87  C   UNL A   1      48.258  26.154  31.706  1.00  0.00     0.148 A 
ATOM     88  C   UNL A   1      48.177  24.465  33.951  1.00  0.00     0.002 A 
ATOM     89  C   UNL A   1      49.419  25.546  32.170  1.00  0.00     0.091 A 
ATOM     90  F   UNL A   1      48.272  26.996  30.662  1.00  0.00    -0.205 F 
ATOM     91  C   UNL A   1      49.383  24.713  33.301  1.00  0.00     0.022 A 
BRANCH  89  92
ATOM     92  S   UNL A   1      50.998  25.736  31.336  1.00  0.00     0.127 S 
ATOM     93  O   UNL A   1      51.863  24.867  32.132  1.00  0.00    -0.237 OA
ATOM     94  O   UNL A   1      50.704  25.237  29.991  1.00  0.00    -0.237 OA
ATOM     95  O   UNL A   1      51.310  27.158  31.394  1.00  0.00    -0.744 OA
ENDBRANCH  89  92
ENDBRANCH  62  85
ENDBRANCH  36  37
ENDBRANCH  28  31
ENDBRANCH  26  27
ENDBRANCH   1  26
TORSDOF 16
ENDMDL
MODEL 3
REMARK VINA RESULT:     -12.0      0.882      2.105
REMARK SMILES CC[C@H]([NH2+]C1c2ccccc2-c2ccccc21)C(=O)NCCCNC(=O)c1ccc(-c2c3nc(c(-c4cccc(S(=O)(=O)[O-])c4F)c4ccc([nH]4)c(-c4cccc(S(=O)(=O)[O-])c4F)c4nc(c(-c5cccc(S(=O)(=O)[O-])c5F)c5ccc2[nH]5)C=C4)C=C3)cc1
REMARK SMILES IDX 22 1 21 2 20 3 18 4 19 5 3 7 2 8 1 9 4 10 5 13 6 14 17 15
REMARK SMILES IDX 7 16 11 17 12 18 16 19 8 20 10 21 13 22 15 23 9 24 14 25
REMARK SMILES IDX 23 26 24 27 25 28 26 30 27 31 28 32 89 33 29 34 88 35 30 36
REMARK SMILES IDX 31 37 32 38 82 39 33 40 87 41 81 42 83 43 34 44 86 45 80 46
REMARK SMILES IDX 79 47 35 49 67 50 47 51 66 52 48 53 51 54 65 55 84 56 49 57
REMARK SMILES IDX 50 58 64 60 85 61 52 62 36 63 37 64 45 65 38 66 40 67 46 68
REMARK SMILES IDX 39 69 41 70 42 71 43 72 44 73 68 74 69 75 77 76 70 77 72 78
REMARK SMILES IDX 78 79 71 80 73 81 74 82 75 83 76 84 53 85 54 86 62 87 55 88
REMARK SMILES IDX 57 89 63 90 56 91 58 92 59 93 60 94 61 95
REMARK H PARENT 20 6 4 11 4 12 24 29 83 48 51 59
REMARK Flexibility Score: inf
ROOT
ATOM      1  C   UNL A   1      33.020  27.695  25.949  1.00  0.00     0.042 C 
ENDROOT
BRANCH   1   2
ATOM      2  C   UNL A   1      33.645  26.313  25.714  1.00  0.00     0.118 C 
BRANCH   2   3
ATOM      3  N   UNL A   1      33.997  26.020  24.326  1.00  0.00    -0.351 N 
ATOM      4  C   UNL A   1      33.835  24.955  23.498  1.00  0.00     0.278 C 
ATOM      5  O   UNL A   1      34.110  25.187  22.308  1.00  0.00    -0.268 OA
ATOM      6  H   UNL A   1      34.457  26.771  23.888  1.00  0.00     0.163 HD
BRANCH   4   7
ATOM      7  C   UNL A   1      33.321  23.539  23.866  1.00  0.00     0.273 C 
BRANCH   7   8
ATOM      8  C   UNL A   1      32.098  23.080  23.047  1.00  0.00     0.072 C 
ATOM      9  C   UNL A   1      30.746  23.680  23.388  1.00  0.00     0.011 C 
ENDBRANCH   7   8
BRANCH   7  10
ATOM     10  N   UNL A   1      33.292  23.095  25.285  1.00  0.00    -0.326 N 
ATOM     11  H   UNL A   1      32.399  22.625  25.437  1.00  0.00     0.347 HD
ATOM     12  H   UNL A   1      33.440  23.950  25.822  1.00  0.00     0.347 HD
BRANCH  10  13
ATOM     13  C   UNL A   1      34.331  22.201  25.741  1.00  0.00     0.246 C 
ATOM     14  C   UNL A   1      34.310  20.801  25.143  1.00  0.00     0.022 A 
ATOM     15  C   UNL A   1      35.802  22.579  25.642  1.00  0.00     0.022 A 
ATOM     16  C   UNL A   1      33.228  19.958  24.942  1.00  0.00     0.011 A 
ATOM     17  C   UNL A   1      35.638  20.332  25.019  1.00  0.00    -0.008 A 
ATOM     18  C   UNL A   1      36.549  21.414  25.337  1.00  0.00    -0.008 A 
ATOM     19  C   UNL A   1      36.454  23.758  25.969  1.00  0.00     0.011 A 
ATOM     20  C   UNL A   1      33.485  18.624  24.615  1.00  0.00     0.001 A 
ATOM     21  C   UNL A   1      35.891  19.009  24.695  1.00  0.00     0.009 A 
ATOM     22  C   UNL A   1      37.934  21.410  25.416  1.00  0.00     0.009 A 
ATOM     23  C   UNL A   1      37.850  23.753  26.052  1.00  0.00     0.001 A 
ATOM     24  C   UNL A   1      34.803  18.153  24.501  1.00  0.00     0.001 A 
ATOM     25  C   UNL A   1      38.583  22.587  25.795  1.00  0.00     0.001 A 
ENDBRANCH  10  13
ENDBRANCH   7  10
ENDBRANCH   4   7
ENDBRANCH   2   3
ENDBRANCH   1   2
BRANCH   1  26
ATOM     26  C   UNL A   1      33.373  28.349  27.272  1.00  0.00     0.118 C 
BRANCH  26  27
ATOM     27  N   UNL A   1      33.466  29.791  27.144  1.00  0.00    -0.352 N 
ATOM     28  C   UNL A   1      34.388  30.664  27.667  1.00  0.00     0.251 C 
ATOM     29  H   UNL A   1      32.760  30.207  26.599  1.00  0.00     0.163 HD
ATOM     30  O   UNL A   1      34.107  31.860  27.704  1.00  0.00    -0.269 OA
BRANCH  28  31
ATOM     31  C   UNL A   1      35.698  30.198  28.190  1.00  0.00     0.039 A 
ATOM     32  C   UNL A   1      36.810  30.235  27.341  1.00  0.00     0.014 A 
ATOM     33  C   UNL A   1      35.837  29.650  29.467  1.00  0.00     0.014 A 
ATOM     34  C   UNL A   1      38.047  29.753  27.781  1.00  0.00     0.010 A 
ATOM     35  C   UNL A   1      37.093  29.273  29.943  1.00  0.00     0.010 A 
ATOM     36  C   UNL A   1      38.208  29.285  29.096  1.00  0.00    -0.014 A 
BRANCH  36  37
ATOM     37  C   UNL A   1      39.525  28.785  29.577  1.00  0.00     0.031 A 
ATOM     38  C   UNL A   1      40.248  29.477  30.707  1.00  0.00     0.074 A 
ATOM     39  C   UNL A   1      40.101  27.730  28.965  1.00  0.00     0.049 A 
ATOM     40  N   UNL A   1      41.393  29.174  31.264  1.00  0.00    -0.248 NA
ATOM     41  C   UNL A   1      39.621  30.687  31.267  1.00  0.00     0.031 C 
ATOM     42  C   UNL A   1      39.560  27.036  27.795  1.00  0.00     0.029 A 
ATOM     43  N   UNL A   1      41.273  27.068  29.230  1.00  0.00    -0.354 N 
ATOM     44  C   UNL A   1      41.638  30.166  32.207  1.00  0.00     0.074 A 
ATOM     45  C   UNL A   1      40.546  31.109  32.117  1.00  0.00     0.031 C 
ATOM     46  C   UNL A   1      40.387  26.033  27.456  1.00  0.00     0.029 A 
ATOM     47  C   UNL A   1      41.525  26.027  28.368  1.00  0.00     0.049 A 
ATOM     48  H   UNL A   1      41.877  27.315  29.968  1.00  0.00     0.167 HD
ATOM     49  C   UNL A   1      42.655  30.266  33.097  1.00  0.00     0.034 A 
ATOM     50  C   UNL A   1      42.554  25.158  28.320  1.00  0.00     0.034 A 
ATOM     51  C   UNL A   1      43.711  29.299  33.224  1.00  0.00     0.049 A 
ATOM     52  C   UNL A   1      43.628  25.240  29.370  1.00  0.00     0.074 A 
ATOM     53  C   UNL A   1      44.737  29.258  34.152  1.00  0.00     0.029 A 
ATOM     54  N   UNL A   1      43.878  28.199  32.397  1.00  0.00    -0.354 N 
ATOM     55  N   UNL A   1      43.749  26.090  30.362  1.00  0.00    -0.248 NA
ATOM     56  C   UNL A   1      44.684  24.218  29.323  1.00  0.00     0.031 C 
ATOM     57  C   UNL A   1      45.533  28.141  33.876  1.00  0.00     0.029 A 
ATOM     58  C   UNL A   1      44.992  27.474  32.789  1.00  0.00     0.049 A 
ATOM     59  H   UNL A   1      43.291  27.967  31.641  1.00  0.00     0.167 HD
ATOM     60  C   UNL A   1      44.878  25.692  31.069  1.00  0.00     0.074 A 
ATOM     61  C   UNL A   1      45.383  24.504  30.412  1.00  0.00     0.031 C 
ATOM     62  C   UNL A   1      45.459  26.271  32.149  1.00  0.00     0.034 A 
BRANCH  49  63
ATOM     63  C   UNL A   1      42.633  31.432  34.056  1.00  0.00     0.023 A 
ATOM     64  C   UNL A   1      43.386  32.587  33.758  1.00  0.00     0.012 A 
ATOM     65  C   UNL A   1      41.833  31.412  35.216  1.00  0.00     0.148 A 
ATOM     66  C   UNL A   1      43.376  33.686  34.617  1.00  0.00     0.002 A 
ATOM     67  C   UNL A   1      41.793  32.529  36.043  1.00  0.00     0.091 A 
ATOM     68  F   UNL A   1      41.137  30.301  35.494  1.00  0.00    -0.205 F 
ATOM     69  C   UNL A   1      42.572  33.661  35.753  1.00  0.00     0.022 A 
BRANCH  67  70
ATOM     70  S   UNL A   1      40.730  32.631  37.489  1.00  0.00     0.127 S 
ATOM     71  O   UNL A   1      41.597  32.081  38.531  1.00  0.00    -0.237 OA
ATOM     72  O   UNL A   1      40.490  34.071  37.594  1.00  0.00    -0.237 OA
ATOM     73  O   UNL A   1      39.549  31.839  37.176  1.00  0.00    -0.744 OA
ENDBRANCH  67  70
ENDBRANCH  49  63
BRANCH  50  74
ATOM     74  C   UNL A   1      42.570  24.083  27.286  1.00  0.00     0.023 A 
ATOM     75  C   UNL A   1      43.177  24.328  26.039  1.00  0.00     0.012 A 
ATOM     76  C   UNL A   1      42.027  22.810  27.547  1.00  0.00     0.148 A 
ATOM     77  C   UNL A   1      43.217  23.335  25.060  1.00  0.00     0.002 A 
ATOM     78  C   UNL A   1      42.124  21.807  26.589  1.00  0.00     0.091 A 
ATOM     79  F   UNL A   1      41.441  22.599  28.734  1.00  0.00    -0.205 F 
ATOM     80  C   UNL A   1      42.701  22.073  25.338  1.00  0.00     0.022 A 
BRANCH  78  81
ATOM     81  S   UNL A   1      41.617  20.115  26.919  1.00  0.00     0.127 S 
ATOM     82  O   UNL A   1      40.495  20.310  27.831  1.00  0.00    -0.237 OA
ATOM     83  O   UNL A   1      41.253  19.640  25.584  1.00  0.00    -0.237 OA
ATOM     84  O   UNL A   1      42.791  19.460  27.485  1.00  0.00    -0.744 OA
ENDBRANCH  78  81
ENDBRANCH  50  74
BRANCH  62  85
ATOM     85  C   UNL A   1      46.702  25.620  32.697  1.00  0.00     0.023 A 
ATOM     86  C   UNL A   1      47.964  25.997  32.193  1.00  0.00     0.012 A 
ATOM     87  C   UNL A   1      46.628  24.676  33.738  1.00  0.00     0.148 A 
ATOM     88  C   UNL A   1      49.129  25.411  32.687  1.00  0.00     0.002 A 
ATOM     89  C   UNL A   1      47.796  24.131  34.259  1.00  0.00     0.091 A 
ATOM     90  F   UNL A   1      45.419  24.314  34.192  1.00  0.00    -0.205 F 
ATOM     91  C   UNL A   1      49.046  24.487  33.726  1.00  0.00     0.022 A 
BRANCH  89  92
ATOM     92  S   UNL A   1      47.787  23.007  35.659  1.00  0.00     0.127 S 
ATOM     93  O   UNL A   1      49.171  22.534  35.671  1.00  0.00    -0.237 OA
ATOM     94  O   UNL A   1      47.435  23.892  36.771  1.00  0.00    -0.237 OA
ATOM     95  O   UNL A   1      46.781  21.999  35.353  1.00  0.00    -0.744 OA
ENDBRANCH  89  92
ENDBRANCH  62  85
ENDBRANCH  36  37
ENDBRANCH  28  31
ENDBRANCH  26  27
ENDBRANCH   1  26
TORSDOF 16
ENDMDL
