MODEL 1
REMARK VINA RESULT:     -14.5      0.000      0.000
REMARK SMILES Cc1cccc(N2C(=O)/C(=C/c3ccc(C(=O)NCCCNC(=O)c4ccc(-c5c6nc(c(-c7cccc(S(=O)(=O)[O-])c7F)c7ccc([nH]7)c(-c7cccc(S(=O)(=O)[O-])c7F)c7nc(c(-c8cccc(S(=O)(=O)[O-])c8F)c8ccc5[nH]8)C=C7)C=C6)cc4)cc3)c3ccccc3C2=O)c1
REMARK SMILES IDX 20 1 19 2 18 3 16 4 17 5 15 7 12 8 13 9 89 10 14 11 88 12
REMARK SMILES IDX 11 13 7 14 8 15 96 16 9 17 10 18 95 19 97 20 90 21 94 22
REMARK SMILES IDX 91 23 93 24 92 25 6 26 1 27 2 28 3 29 98 30 4 31 5 32 21 33
REMARK SMILES IDX 22 34 23 35 24 37 25 38 26 39 87 40 27 41 86 42 28 43 29 44
REMARK SMILES IDX 30 45 80 46 31 47 85 48 79 49 81 50 32 51 84 52 78 53 77 54
REMARK SMILES IDX 33 56 65 57 45 58 64 59 46 60 49 61 63 62 82 63 47 64 48 65
REMARK SMILES IDX 62 67 83 68 50 69 34 70 35 71 43 72 36 73 38 74 44 75 37 76
REMARK SMILES IDX 39 77 40 78 41 79 42 80 66 81 67 82 75 83 68 84 70 85 76 86
REMARK SMILES IDX 69 87 71 88 72 89 73 90 74 91 51 92 52 93 60 94 53 95 55 96
REMARK SMILES IDX 61 97 54 98 56 99 57 100 58 101 59 102
REMARK H PARENT 18 6 22 36 81 55 49 66
REMARK Flexibility Score: inf
ROOT
ATOM      1  C   UNL A   1      34.932  32.663  27.828  1.00  0.00     0.042 C 
ENDROOT
BRANCH   1   2
ATOM      2  C   UNL A   1      33.597  32.078  28.266  1.00  0.00     0.118 C 
BRANCH   2   3
ATOM      3  N   UNL A   1      32.572  32.126  27.226  1.00  0.00    -0.352 N 
ATOM      4  C   UNL A   1      31.965  31.146  26.475  1.00  0.00     0.251 C 
ATOM      5  O   UNL A   1      31.164  31.461  25.597  1.00  0.00    -0.269 OA
ATOM      6  H   UNL A   1      32.254  33.035  27.023  1.00  0.00     0.163 HD
BRANCH   4   7
ATOM      7  C   UNL A   1      32.301  29.710  26.634  1.00  0.00     0.039 A 
ATOM      8  C   UNL A   1      32.679  26.935  26.717  1.00  0.00    -0.025 A 
ATOM      9  C   UNL A   1      31.574  27.505  27.352  1.00  0.00     0.009 A 
ATOM     10  C   UNL A   1      33.675  27.770  26.195  1.00  0.00     0.009 A 
ATOM     11  C   UNL A   1      31.382  28.889  27.304  1.00  0.00     0.014 A 
ATOM     12  C   UNL A   1      33.494  29.153  26.172  1.00  0.00     0.014 A 
BRANCH   8  13
ATOM     13  C   UNL A   1      32.768  25.478  26.583  1.00  0.00     0.022 C 
ATOM     14  N   UNL A   1      33.429  22.703  24.403  1.00  0.00    -0.242 N 
ATOM     15  C   UNL A   1      32.882  23.294  25.563  1.00  0.00     0.265 C 
ATOM     16  C   UNL A   1      33.665  23.468  23.238  1.00  0.00     0.265 C 
ATOM     17  O   UNL A   1      32.712  22.755  26.657  1.00  0.00    -0.268 OA
ATOM     18  C   UNL A   1      32.575  24.762  25.450  1.00  0.00     0.049 C 
ATOM     19  C   UNL A   1      32.827  24.673  23.036  1.00  0.00     0.048 A 
ATOM     20  O   UNL A   1      34.478  23.242  22.345  1.00  0.00    -0.268 OA
ATOM     21  C   UNL A   1      32.224  25.287  24.127  1.00  0.00    -0.000 A 
ATOM     22  C   UNL A   1      32.629  25.168  21.736  1.00  0.00     0.014 A 
ATOM     23  C   UNL A   1      31.328  26.339  23.896  1.00  0.00     0.010 A 
ATOM     24  C   UNL A   1      31.781  26.251  21.523  1.00  0.00     0.001 A 
ATOM     25  C   UNL A   1      31.113  26.821  22.601  1.00  0.00     0.001 A 
BRANCH  14  26
ATOM     26  C   UNL A   1      33.855  21.301  24.450  1.00  0.00     0.053 A 
ATOM     27  C   UNL A   1      32.402  17.812  23.753  1.00  0.00     0.044 C 
ATOM     28  C   UNL A   1      33.371  18.895  24.130  1.00  0.00    -0.049 A 
ATOM     29  C   UNL A   1      34.662  18.563  24.529  1.00  0.00     0.003 A 
ATOM     30  C   UNL A   1      32.993  20.250  24.073  1.00  0.00     0.030 A 
ATOM     31  C   UNL A   1      35.549  19.571  24.878  1.00  0.00     0.002 A 
ATOM     32  C   UNL A   1      35.148  20.912  24.844  1.00  0.00     0.027 A 
ENDBRANCH  14  26
ENDBRANCH   8  13
ENDBRANCH   4   7
ENDBRANCH   2   3
ENDBRANCH   1   2
BRANCH   1  33
ATOM     33  C   UNL A   1      35.171  34.060  28.388  1.00  0.00     0.118 C 
BRANCH  33  34
ATOM     34  N   UNL A   1      34.032  34.602  29.134  1.00  0.00    -0.352 N 
ATOM     35  C   UNL A   1      33.752  34.497  30.490  1.00  0.00     0.251 C 
ATOM     36  H   UNL A   1      33.378  35.110  28.603  1.00  0.00     0.163 HD
ATOM     37  O   UNL A   1      32.686  34.918  30.930  1.00  0.00    -0.269 OA
BRANCH  35  38
ATOM     38  C   UNL A   1      34.805  33.971  31.387  1.00  0.00     0.039 A 
ATOM     39  C   UNL A   1      35.933  34.769  31.602  1.00  0.00     0.014 A 
ATOM     40  C   UNL A   1      34.825  32.613  31.686  1.00  0.00     0.014 A 
ATOM     41  C   UNL A   1      37.161  34.155  31.820  1.00  0.00     0.010 A 
ATOM     42  C   UNL A   1      36.050  31.995  31.796  1.00  0.00     0.010 A 
ATOM     43  C   UNL A   1      37.218  32.765  31.781  1.00  0.00    -0.014 A 
BRANCH  43  44
ATOM     44  C   UNL A   1      38.453  32.008  31.679  1.00  0.00     0.031 A 
ATOM     45  C   UNL A   1      38.465  30.743  30.933  1.00  0.00     0.074 A 
ATOM     46  C   UNL A   1      39.602  32.538  32.157  1.00  0.00     0.049 A 
ATOM     47  N   UNL A   1      39.306  29.791  31.146  1.00  0.00    -0.248 NA
ATOM     48  C   UNL A   1      37.490  30.453  29.890  1.00  0.00     0.031 C 
ATOM     49  C   UNL A   1      40.960  32.125  31.836  1.00  0.00     0.029 A 
ATOM     50  N   UNL A   1      39.758  33.458  33.198  1.00  0.00    -0.354 N 
ATOM     51  C   UNL A   1      39.169  28.898  30.106  1.00  0.00     0.074 A 
ATOM     52  C   UNL A   1      37.974  29.307  29.402  1.00  0.00     0.031 C 
ATOM     53  C   UNL A   1      41.787  32.564  32.799  1.00  0.00     0.029 A 
ATOM     54  C   UNL A   1      40.959  33.124  33.853  1.00  0.00     0.049 A 
ATOM     55  H   UNL A   1      39.147  34.196  33.429  1.00  0.00     0.167 HD
ATOM     56  C   UNL A   1      40.178  28.024  29.835  1.00  0.00     0.034 A 
ATOM     57  C   UNL A   1      41.053  32.825  35.183  1.00  0.00     0.034 A 
ATOM     58  C   UNL A   1      41.295  28.204  30.769  1.00  0.00     0.049 A 
ATOM     59  C   UNL A   1      41.625  31.442  35.434  1.00  0.00     0.074 A 
ATOM     60  C   UNL A   1      42.458  28.952  30.682  1.00  0.00     0.029 A 
ATOM     61  N   UNL A   1      41.164  27.837  32.103  1.00  0.00    -0.354 N 
ATOM     62  N   UNL A   1      41.851  30.564  34.497  1.00  0.00    -0.248 NA
ATOM     63  C   UNL A   1      41.939  30.921  36.762  1.00  0.00     0.031 C 
ATOM     64  C   UNL A   1      42.996  29.088  31.985  1.00  0.00     0.029 A 
ATOM     65  C   UNL A   1      42.175  28.407  32.867  1.00  0.00     0.049 A 
ATOM     66  H   UNL A   1      40.453  27.256  32.457  1.00  0.00     0.167 HD
ATOM     67  C   UNL A   1      42.169  29.354  35.059  1.00  0.00     0.074 A 
ATOM     68  C   UNL A   1      42.299  29.657  36.475  1.00  0.00     0.031 C 
ATOM     69  C   UNL A   1      42.228  28.207  34.312  1.00  0.00     0.034 A 
BRANCH  56  70
ATOM     70  C   UNL A   1      40.309  27.313  28.501  1.00  0.00     0.023 A 
ATOM     71  C   UNL A   1      39.452  26.215  28.265  1.00  0.00     0.012 A 
ATOM     72  C   UNL A   1      41.257  27.595  27.493  1.00  0.00     0.148 A 
ATOM     73  C   UNL A   1      39.596  25.372  27.160  1.00  0.00     0.002 A 
ATOM     74  C   UNL A   1      41.450  26.714  26.422  1.00  0.00     0.091 A 
ATOM     75  F   UNL A   1      41.936  28.749  27.530  1.00  0.00    -0.205 F 
ATOM     76  C   UNL A   1      40.623  25.598  26.258  1.00  0.00     0.022 A 
BRANCH  74  77
ATOM     77  S   UNL A   1      42.822  26.875  25.265  1.00  0.00     0.127 S 
ATOM     78  O   UNL A   1      43.966  27.047  26.163  1.00  0.00    -0.237 OA
ATOM     79  O   UNL A   1      42.792  25.597  24.559  1.00  0.00    -0.237 OA
ATOM     80  O   UNL A   1      42.524  28.053  24.459  1.00  0.00    -0.744 OA
ENDBRANCH  74  77
ENDBRANCH  56  70
BRANCH  57  81
ATOM     81  C   UNL A   1      39.994  33.475  36.008  1.00  0.00     0.023 A 
ATOM     82  C   UNL A   1      38.843  32.700  36.291  1.00  0.00     0.012 A 
ATOM     83  C   UNL A   1      40.297  34.568  36.836  1.00  0.00     0.148 A 
ATOM     84  C   UNL A   1      38.140  32.881  37.482  1.00  0.00     0.002 A 
ATOM     85  C   UNL A   1      39.583  34.746  38.018  1.00  0.00     0.091 A 
ATOM     86  F   UNL A   1      41.326  35.361  36.511  1.00  0.00    -0.205 F 
ATOM     87  C   UNL A   1      38.546  33.869  38.372  1.00  0.00     0.022 A 
BRANCH  85  88
ATOM     88  S   UNL A   1      40.066  36.025  39.183  1.00  0.00     0.127 S 
ATOM     89  O   UNL A   1      39.786  37.237  38.421  1.00  0.00    -0.237 OA
ATOM     90  O   UNL A   1      39.165  35.788  40.312  1.00  0.00    -0.237 OA
ATOM     91  O   UNL A   1      41.464  35.737  39.468  1.00  0.00    -0.744 OA
ENDBRANCH  85  88
ENDBRANCH  57  81
BRANCH  69  92
ATOM     92  C   UNL A   1      42.357  26.795  34.863  1.00  0.00     0.023 A 
ATOM     93  C   UNL A   1      41.389  26.222  35.709  1.00  0.00     0.012 A 
ATOM     94  C   UNL A   1      43.413  25.941  34.445  1.00  0.00     0.148 A 
ATOM     95  C   UNL A   1      41.496  24.909  36.184  1.00  0.00     0.002 A 
ATOM     96  C   UNL A   1      43.453  24.601  34.825  1.00  0.00     0.091 A 
ATOM     97  F   UNL A   1      44.412  26.427  33.693  1.00  0.00    -0.205 F 
ATOM     98  C   UNL A   1      42.518  24.090  35.725  1.00  0.00     0.022 A 
BRANCH  96  99
ATOM     99  S   UNL A   1      44.603  23.449  34.059  1.00  0.00     0.127 S 
ATOM    100  O   UNL A   1      44.253  22.190  34.712  1.00  0.00    -0.237 OA
ATOM    101  O   UNL A   1      44.228  23.524  32.644  1.00  0.00    -0.237 OA
ATOM    102  O   UNL A   1      45.926  23.982  34.352  1.00  0.00    -0.744 OA
ENDBRANCH  96  99
ENDBRANCH  69  92
ENDBRANCH  43  44
ENDBRANCH  35  38
ENDBRANCH  33  34
ENDBRANCH   1  33
TORSDOF 15
ENDMDL
MODEL 2
REMARK VINA RESULT:     -14.4      4.206      9.987
REMARK SMILES Cc1cccc(N2C(=O)/C(=C/c3ccc(C(=O)NCCCNC(=O)c4ccc(-c5c6nc(c(-c7cccc(S(=O)(=O)[O-])c7F)c7ccc([nH]7)c(-c7cccc(S(=O)(=O)[O-])c7F)c7nc(c(-c8cccc(S(=O)(=O)[O-])c8F)c8ccc5[nH]8)C=C7)C=C6)cc4)cc3)c3ccccc3C2=O)c1
REMARK SMILES IDX 20 1 19 2 18 3 16 4 17 5 15 7 12 8 13 9 89 10 14 11 88 12
REMARK SMILES IDX 11 13 7 14 8 15 96 16 9 17 10 18 95 19 97 20 90 21 94 22
REMARK SMILES IDX 91 23 93 24 92 25 6 26 1 27 2 28 3 29 98 30 4 31 5 32 21 33
REMARK SMILES IDX 22 34 23 35 24 37 25 38 26 39 87 40 27 41 86 42 28 43 29 44
REMARK SMILES IDX 30 45 80 46 31 47 85 48 79 49 81 50 32 51 84 52 78 53 77 54
REMARK SMILES IDX 33 56 65 57 45 58 64 59 46 60 49 61 63 62 82 63 47 64 48 65
REMARK SMILES IDX 62 67 83 68 50 69 34 70 35 71 43 72 36 73 38 74 44 75 37 76
REMARK SMILES IDX 39 77 40 78 41 79 42 80 66 81 67 82 75 83 68 84 70 85 76 86
REMARK SMILES IDX 69 87 71 88 72 89 73 90 74 91 51 92 52 93 60 94 53 95 55 96
REMARK SMILES IDX 61 97 54 98 56 99 57 100 58 101 59 102
REMARK H PARENT 18 6 22 36 81 55 49 66
REMARK Flexibility Score: inf
ROOT
ATOM      1  C   UNL A   1      36.904  22.085  25.949  1.00  0.00     0.042 C 
ENDROOT
BRANCH   1   2
ATOM      2  C   UNL A   1      35.658  22.077  25.074  1.00  0.00     0.118 C 
BRANCH   2   3
ATOM      3  N   UNL A   1      34.891  20.837  25.165  1.00  0.00    -0.352 N 
ATOM      4  C   UNL A   1      33.561  20.552  24.954  1.00  0.00     0.251 C 
ATOM      5  O   UNL A   1      33.143  19.415  25.169  1.00  0.00    -0.269 OA
ATOM      6  H   UNL A   1      35.428  20.056  25.428  1.00  0.00     0.163 HD
BRANCH   4   7
ATOM      7  C   UNL A   1      32.586  21.592  24.546  1.00  0.00     0.039 A 
ATOM      8  C   UNL A   1      30.897  23.760  24.006  1.00  0.00    -0.025 A 
ATOM      9  C   UNL A   1      30.758  23.052  25.201  1.00  0.00     0.009 A 
ATOM     10  C   UNL A   1      31.763  23.274  23.019  1.00  0.00     0.009 A 
ATOM     11  C   UNL A   1      31.606  21.975  25.473  1.00  0.00     0.014 A 
ATOM     12  C   UNL A   1      32.589  22.181  23.282  1.00  0.00     0.014 A 
BRANCH   8  13
ATOM     13  C   UNL A   1      30.159  25.014  23.814  1.00  0.00     0.022 C 
ATOM     14  N   UNL A   1      30.358  28.551  23.237  1.00  0.00    -0.242 N 
ATOM     15  C   UNL A   1      29.698  27.377  23.661  1.00  0.00     0.265 C 
ATOM     16  C   UNL A   1      31.769  28.634  23.235  1.00  0.00     0.265 C 
ATOM     17  O   UNL A   1      28.487  27.156  23.628  1.00  0.00    -0.268 OA
ATOM     18  C   UNL A   1      30.602  26.259  24.105  1.00  0.00     0.049 C 
ATOM     19  C   UNL A   1      32.500  27.771  24.192  1.00  0.00     0.048 A 
ATOM     20  O   UNL A   1      32.476  29.360  22.542  1.00  0.00    -0.268 OA
ATOM     21  C   UNL A   1      31.900  26.618  24.684  1.00  0.00    -0.000 A 
ATOM     22  C   UNL A   1      33.788  28.143  24.614  1.00  0.00     0.014 A 
ATOM     23  C   UNL A   1      32.555  25.896  25.690  1.00  0.00     0.010 A 
ATOM     24  C   UNL A   1      34.455  27.386  25.573  1.00  0.00     0.001 A 
ATOM     25  C   UNL A   1      33.828  26.276  26.127  1.00  0.00     0.001 A 
BRANCH  14  26
ATOM     26  C   UNL A   1      29.565  29.657  22.692  1.00  0.00     0.053 A 
ATOM     27  C   UNL A   1      28.981  33.398  23.349  1.00  0.00     0.044 C 
ATOM     28  C   UNL A   1      28.882  32.036  22.727  1.00  0.00    -0.049 A 
ATOM     29  C   UNL A   1      28.034  31.827  21.643  1.00  0.00     0.003 A 
ATOM     30  C   UNL A   1      29.649  30.962  23.219  1.00  0.00     0.030 A 
ATOM     31  C   UNL A   1      27.947  30.564  21.077  1.00  0.00     0.002 A 
ATOM     32  C   UNL A   1      28.695  29.500  21.597  1.00  0.00     0.027 A 
ENDBRANCH  14  26
ENDBRANCH   8  13
ENDBRANCH   4   7
ENDBRANCH   2   3
ENDBRANCH   1   2
BRANCH   1  33
ATOM     33  C   UNL A   1      38.142  22.560  25.199  1.00  0.00     0.118 C 
BRANCH  33  34
ATOM     34  N   UNL A   1      39.401  22.283  25.897  1.00  0.00    -0.352 N 
ATOM     35  C   UNL A   1      40.266  23.175  26.517  1.00  0.00     0.251 C 
ATOM     36  H   UNL A   1      39.670  21.337  25.930  1.00  0.00     0.163 HD
ATOM     37  O   UNL A   1      41.343  22.781  26.956  1.00  0.00    -0.269 OA
BRANCH  35  38
ATOM     38  C   UNL A   1      39.809  24.567  26.726  1.00  0.00     0.039 A 
ATOM     39  C   UNL A   1      40.624  25.598  26.248  1.00  0.00     0.014 A 
ATOM     40  C   UNL A   1      38.820  24.821  27.671  1.00  0.00     0.014 A 
ATOM     41  C   UNL A   1      40.655  26.806  26.935  1.00  0.00     0.010 A 
ATOM     42  C   UNL A   1      38.921  25.973  28.418  1.00  0.00     0.010 A 
ATOM     43  C   UNL A   1      39.894  26.924  28.094  1.00  0.00    -0.014 A 
BRANCH  43  44
ATOM     44  C   UNL A   1      40.063  27.988  29.068  1.00  0.00     0.031 A 
ATOM     45  C   UNL A   1      39.196  29.172  29.002  1.00  0.00     0.074 A 
ATOM     46  C   UNL A   1      40.921  27.818  30.099  1.00  0.00     0.049 A 
ATOM     47  N   UNL A   1      39.521  30.328  29.466  1.00  0.00    -0.248 NA
ATOM     48  C   UNL A   1      37.884  29.134  28.369  1.00  0.00     0.031 C 
ATOM     49  C   UNL A   1      40.962  28.576  31.342  1.00  0.00     0.029 A 
ATOM     50  N   UNL A   1      42.072  27.025  30.141  1.00  0.00    -0.354 N 
ATOM     51  C   UNL A   1      38.381  31.101  29.449  1.00  0.00     0.074 A 
ATOM     52  C   UNL A   1      37.416  30.346  28.681  1.00  0.00     0.031 C 
ATOM     53  C   UNL A   1      42.173  28.426  31.901  1.00  0.00     0.029 A 
ATOM     54  C   UNL A   1      43.001  27.707  30.948  1.00  0.00     0.049 A 
ATOM     55  H   UNL A   1      42.206  26.159  29.692  1.00  0.00     0.167 HD
ATOM     56  C   UNL A   1      38.308  32.206  30.241  1.00  0.00     0.034 A 
ATOM     57  C   UNL A   1      44.250  28.081  30.538  1.00  0.00     0.034 A 
ATOM     58  C   UNL A   1      39.544  32.385  31.012  1.00  0.00     0.049 A 
ATOM     59  C   UNL A   1      44.477  29.577  30.638  1.00  0.00     0.074 A 
ATOM     60  C   UNL A   1      39.899  31.983  32.291  1.00  0.00     0.029 A 
ATOM     61  N   UNL A   1      40.721  32.760  30.377  1.00  0.00    -0.354 N 
ATOM     62  N   UNL A   1      43.543  30.441  30.924  1.00  0.00    -0.248 NA
ATOM     63  C   UNL A   1      45.760  30.224  30.374  1.00  0.00     0.031 C 
ATOM     64  C   UNL A   1      41.309  32.060  32.402  1.00  0.00     0.029 A 
ATOM     65  C   UNL A   1      41.815  32.528  31.201  1.00  0.00     0.049 A 
ATOM     66  H   UNL A   1      40.773  33.138  29.470  1.00  0.00     0.167 HD
ATOM     67  C   UNL A   1      44.012  31.715  30.736  1.00  0.00     0.074 A 
ATOM     68  C   UNL A   1      45.430  31.524  30.480  1.00  0.00     0.031 C 
ATOM     69  C   UNL A   1      43.174  32.800  30.742  1.00  0.00     0.034 A 
BRANCH  56  70
ATOM     70  C   UNL A   1      36.991  32.865  30.608  1.00  0.00     0.023 A 
ATOM     71  C   UNL A   1      36.486  32.626  31.906  1.00  0.00     0.012 A 
ATOM     72  C   UNL A   1      36.178  33.643  29.754  1.00  0.00     0.148 A 
ATOM     73  C   UNL A   1      35.207  33.025  32.301  1.00  0.00     0.002 A 
ATOM     74  C   UNL A   1      34.870  33.982  30.121  1.00  0.00     0.091 A 
ATOM     75  F   UNL A   1      36.686  34.110  28.606  1.00  0.00    -0.205 F 
ATOM     76  C   UNL A   1      34.382  33.669  31.393  1.00  0.00     0.022 A 
BRANCH  74  77
ATOM     77  S   UNL A   1      33.700  34.726  28.971  1.00  0.00     0.127 S 
ATOM     78  O   UNL A   1      33.503  33.654  27.992  1.00  0.00    -0.237 OA
ATOM     79  O   UNL A   1      32.543  34.988  29.823  1.00  0.00    -0.237 OA
ATOM     80  O   UNL A   1      34.369  35.902  28.429  1.00  0.00    -0.744 OA
ENDBRANCH  74  77
ENDBRANCH  56  70
BRANCH  57  81
ATOM     81  C   UNL A   1      44.805  27.201  29.468  1.00  0.00     0.023 A 
ATOM     82  C   UNL A   1      44.988  25.836  29.800  1.00  0.00     0.012 A 
ATOM     83  C   UNL A   1      44.708  27.564  28.116  1.00  0.00     0.148 A 
ATOM     84  C   UNL A   1      44.866  24.846  28.826  1.00  0.00     0.002 A 
ATOM     85  C   UNL A   1      44.595  26.568  27.149  1.00  0.00     0.091 A 
ATOM     86  F   UNL A   1      44.636  28.862  27.797  1.00  0.00    -0.205 F 
ATOM     87  C   UNL A   1      44.613  25.211  27.508  1.00  0.00     0.022 A 
BRANCH  85  88
ATOM     88  S   UNL A   1      44.289  27.002  25.433  1.00  0.00     0.127 S 
ATOM     89  O   UNL A   1      45.631  27.337  24.971  1.00  0.00    -0.237 OA
ATOM     90  O   UNL A   1      43.741  25.762  24.881  1.00  0.00    -0.237 OA
ATOM     91  O   UNL A   1      43.329  28.093  25.509  1.00  0.00    -0.744 OA
ENDBRANCH  85  88
ENDBRANCH  57  81
BRANCH  69  92
ATOM     92  C   UNL A   1      43.552  34.215  30.334  1.00  0.00     0.023 A 
ATOM     93  C   UNL A   1      44.072  35.152  31.247  1.00  0.00     0.012 A 
ATOM     94  C   UNL A   1      43.509  34.620  28.972  1.00  0.00     0.148 A 
ATOM     95  C   UNL A   1      44.451  36.442  30.857  1.00  0.00     0.002 A 
ATOM     96  C   UNL A   1      43.997  35.862  28.571  1.00  0.00     0.091 A 
ATOM     97  F   UNL A   1      42.966  33.812  28.049  1.00  0.00    -0.205 F 
ATOM     98  C   UNL A   1      44.433  36.791  29.515  1.00  0.00     0.022 A 
BRANCH  96  99
ATOM     99  S   UNL A   1      44.228  36.254  26.830  1.00  0.00     0.127 S 
ATOM    100  O   UNL A   1      44.681  37.642  26.889  1.00  0.00    -0.237 OA
ATOM    101  O   UNL A   1      45.258  35.295  26.425  1.00  0.00    -0.237 OA
ATOM    102  O   UNL A   1      42.928  36.025  26.214  1.00  0.00    -0.744 OA
ENDBRANCH  96  99
ENDBRANCH  69  92
ENDBRANCH  43  44
ENDBRANCH  35  38
ENDBRANCH  33  34
ENDBRANCH   1  33
TORSDOF 15
ENDMDL
MODEL 3
REMARK VINA RESULT:     -14.3      3.351      4.896
REMARK SMILES Cc1cccc(N2C(=O)/C(=C/c3ccc(C(=O)NCCCNC(=O)c4ccc(-c5c6nc(c(-c7cccc(S(=O)(=O)[O-])c7F)c7ccc([nH]7)c(-c7cccc(S(=O)(=O)[O-])c7F)c7nc(c(-c8cccc(S(=O)(=O)[O-])c8F)c8ccc5[nH]8)C=C7)C=C6)cc4)cc3)c3ccccc3C2=O)c1
REMARK SMILES IDX 20 1 19 2 18 3 16 4 17 5 15 7 12 8 13 9 89 10 14 11 88 12
REMARK SMILES IDX 11 13 7 14 8 15 96 16 9 17 10 18 95 19 97 20 90 21 94 22
REMARK SMILES IDX 91 23 93 24 92 25 6 26 1 27 2 28 3 29 98 30 4 31 5 32 21 33
REMARK SMILES IDX 22 34 23 35 24 37 25 38 26 39 87 40 27 41 86 42 28 43 29 44
REMARK SMILES IDX 30 45 80 46 31 47 85 48 79 49 81 50 32 51 84 52 78 53 77 54
REMARK SMILES IDX 33 56 65 57 45 58 64 59 46 60 49 61 63 62 82 63 47 64 48 65
REMARK SMILES IDX 62 67 83 68 50 69 34 70 35 71 43 72 36 73 38 74 44 75 37 76
REMARK SMILES IDX 39 77 40 78 41 79 42 80 66 81 67 82 75 83 68 84 70 85 76 86
REMARK SMILES IDX 69 87 71 88 72 89 73 90 74 91 51 92 52 93 60 94 53 95 55 96
REMARK SMILES IDX 61 97 54 98 56 99 57 100 58 101 59 102
REMARK H PARENT 18 6 22 36 81 55 49 66
REMARK Flexibility Score: inf
ROOT
ATOM      1  C   UNL A   1      32.231  30.361  26.702  1.00  0.00     0.042 C 
ENDROOT
BRANCH   1   2
ATOM      2  C   UNL A   1      31.944  29.327  25.622  1.00  0.00     0.118 C 
BRANCH   2   3
ATOM      3  N   UNL A   1      31.027  29.804  24.590  1.00  0.00    -0.352 N 
ATOM      4  C   UNL A   1      30.313  29.152  23.610  1.00  0.00     0.251 C 
ATOM      5  O   UNL A   1      29.651  29.805  22.805  1.00  0.00    -0.269 OA
ATOM      6  H   UNL A   1      30.894  30.779  24.595  1.00  0.00     0.163 HD
BRANCH   4   7
ATOM      7  C   UNL A   1      30.373  27.680  23.439  1.00  0.00     0.039 A 
ATOM      8  C   UNL A   1      30.825  24.929  23.160  1.00  0.00    -0.025 A 
ATOM      9  C   UNL A   1      31.213  25.804  22.142  1.00  0.00     0.009 A 
ATOM     10  C   UNL A   1      30.062  25.417  24.228  1.00  0.00     0.009 A 
ATOM     11  C   UNL A   1      30.994  27.177  22.285  1.00  0.00     0.014 A 
ATOM     12  C   UNL A   1      29.821  26.785  24.354  1.00  0.00     0.014 A 
BRANCH   8  13
ATOM     13  C   UNL A   1      31.244  23.525  23.109  1.00  0.00     0.022 C 
ATOM     14  N   UNL A   1      33.022  20.867  24.740  1.00  0.00    -0.242 N 
ATOM     15  C   UNL A   1      32.444  21.493  23.615  1.00  0.00     0.265 C 
ATOM     16  C   UNL A   1      33.455  21.622  25.852  1.00  0.00     0.265 C 
ATOM     17  O   UNL A   1      31.954  20.939  22.630  1.00  0.00    -0.268 OA
ATOM     18  C   UNL A   1      32.340  22.991  23.699  1.00  0.00     0.049 C 
ATOM     19  C   UNL A   1      33.843  23.031  25.606  1.00  0.00     0.048 A 
ATOM     20  O   UNL A   1      33.574  21.245  27.015  1.00  0.00    -0.268 OA
ATOM     21  C   UNL A   1      33.343  23.702  24.496  1.00  0.00    -0.000 A 
ATOM     22  C   UNL A   1      34.734  23.668  26.485  1.00  0.00     0.014 A 
ATOM     23  C   UNL A   1      33.832  24.985  24.210  1.00  0.00     0.010 A 
ATOM     24  C   UNL A   1      35.170  24.964  26.223  1.00  0.00     0.001 A 
ATOM     25  C   UNL A   1      34.735  25.612  25.073  1.00  0.00     0.001 A 
BRANCH  14  26
ATOM     26  C   UNL A   1      33.072  19.402  24.793  1.00  0.00     0.053 A 
ATOM     27  C   UNL A   1      34.506  16.482  22.746  1.00  0.00     0.044 C 
ATOM     28  C   UNL A   1      33.799  17.240  23.832  1.00  0.00    -0.049 A 
ATOM     29  C   UNL A   1      33.190  16.550  24.876  1.00  0.00     0.003 A 
ATOM     30  C   UNL A   1      33.754  18.647  23.815  1.00  0.00     0.030 A 
ATOM     31  C   UNL A   1      32.536  17.259  25.873  1.00  0.00     0.002 A 
ATOM     32  C   UNL A   1      32.476  18.658  25.826  1.00  0.00     0.027 A 
ENDBRANCH  14  26
ENDBRANCH   8  13
ENDBRANCH   4   7
ENDBRANCH   2   3
ENDBRANCH   1   2
BRANCH   1  33
ATOM     33  C   UNL A   1      33.400  29.965  27.595  1.00  0.00     0.118 C 
BRANCH  33  34
ATOM     34  N   UNL A   1      34.174  31.102  28.100  1.00  0.00    -0.352 N 
ATOM     35  C   UNL A   1      35.392  31.098  28.766  1.00  0.00     0.251 C 
ATOM     36  H   UNL A   1      33.777  31.989  27.945  1.00  0.00     0.163 HD
ATOM     37  O   UNL A   1      35.846  32.143  29.223  1.00  0.00    -0.269 OA
BRANCH  35  38
ATOM     38  C   UNL A   1      36.164  29.836  28.811  1.00  0.00     0.039 A 
ATOM     39  C   UNL A   1      36.709  29.451  30.040  1.00  0.00     0.014 A 
ATOM     40  C   UNL A   1      36.624  29.280  27.622  1.00  0.00     0.014 A 
ATOM     41  C   UNL A   1      37.910  28.751  30.055  1.00  0.00     0.010 A 
ATOM     42  C   UNL A   1      37.863  28.680  27.627  1.00  0.00     0.010 A 
ATOM     43  C   UNL A   1      38.536  28.491  28.840  1.00  0.00    -0.014 A 
BRANCH  43  44
ATOM     44  C   UNL A   1      39.916  28.058  28.716  1.00  0.00     0.031 A 
ATOM     45  C   UNL A   1      40.213  26.626  28.572  1.00  0.00     0.074 A 
ATOM     46  C   UNL A   1      40.898  28.980  28.603  1.00  0.00     0.049 A 
ATOM     47  N   UNL A   1      41.332  26.086  28.911  1.00  0.00    -0.248 NA
ATOM     48  C   UNL A   1      39.234  25.684  28.048  1.00  0.00     0.031 C 
ATOM     49  C   UNL A   1      42.253  28.767  28.115  1.00  0.00     0.029 A 
ATOM     50  N   UNL A   1      40.912  30.289  29.096  1.00  0.00    -0.354 N 
ATOM     51  C   UNL A   1      41.328  24.806  28.401  1.00  0.00     0.074 A 
ATOM     52  C   UNL A   1      39.974  24.576  27.951  1.00  0.00     0.031 C 
ATOM     53  C   UNL A   1      43.034  29.768  28.550  1.00  0.00     0.029 A 
ATOM     54  C   UNL A   1      42.241  30.563  29.472  1.00  0.00     0.049 A 
ATOM     55  H   UNL A   1      40.143  30.899  29.169  1.00  0.00     0.167 HD
ATOM     56  C   UNL A   1      42.508  24.146  28.240  1.00  0.00     0.034 A 
ATOM     57  C   UNL A   1      42.624  30.943  30.727  1.00  0.00     0.034 A 
ATOM     58  C   UNL A   1      43.640  24.973  28.674  1.00  0.00     0.049 A 
ATOM     59  C   UNL A   1      43.632  29.994  31.346  1.00  0.00     0.074 A 
ATOM     60  C   UNL A   1      44.481  25.824  27.975  1.00  0.00     0.029 A 
ATOM     61  N   UNL A   1      43.832  25.250  30.022  1.00  0.00    -0.354 N 
ATOM     62  N   UNL A   1      43.979  28.853  30.821  1.00  0.00    -0.248 NA
ATOM     63  C   UNL A   1      44.290  30.231  32.629  1.00  0.00     0.031 C 
ATOM     64  C   UNL A   1      45.138  26.662  28.910  1.00  0.00     0.029 A 
ATOM     65  C   UNL A   1      44.716  26.310  30.180  1.00  0.00     0.049 A 
ATOM     66  H   UNL A   1      43.403  24.763  30.761  1.00  0.00     0.167 HD
ATOM     67  C   UNL A   1      44.743  28.143  31.712  1.00  0.00     0.074 A 
ATOM     68  C   UNL A   1      44.982  29.088  32.789  1.00  0.00     0.031 C 
ATOM     69  C   UNL A   1      45.047  26.822  31.507  1.00  0.00     0.034 A 
BRANCH  56  70
ATOM     70  C   UNL A   1      42.654  22.942  27.327  1.00  0.00     0.023 A 
ATOM     71  C   UNL A   1      41.975  21.761  27.698  1.00  0.00     0.012 A 
ATOM     72  C   UNL A   1      43.464  22.863  26.171  1.00  0.00     0.148 A 
ATOM     73  C   UNL A   1      42.173  20.542  27.044  1.00  0.00     0.002 A 
ATOM     74  C   UNL A   1      43.718  21.630  25.557  1.00  0.00     0.091 A 
ATOM     75  F   UNL A   1      43.944  23.987  25.623  1.00  0.00    -0.205 F 
ATOM     76  C   UNL A   1      43.077  20.468  25.997  1.00  0.00     0.022 A 
BRANCH  74  77
ATOM     77  S   UNL A   1      44.953  21.427  24.261  1.00  0.00     0.127 S 
ATOM     78  O   UNL A   1      46.202  21.697  24.977  1.00  0.00    -0.237 OA
ATOM     79  O   UNL A   1      44.771  20.032  23.867  1.00  0.00    -0.237 OA
ATOM     80  O   UNL A   1      44.630  22.422  23.246  1.00  0.00    -0.744 OA
ENDBRANCH  74  77
ENDBRANCH  56  70
BRANCH  57  81
ATOM     81  C   UNL A   1      41.551  31.660  31.476  1.00  0.00     0.023 A 
ATOM     82  C   UNL A   1      41.030  32.832  30.875  1.00  0.00     0.012 A 
ATOM     83  C   UNL A   1      40.783  30.995  32.445  1.00  0.00     0.148 A 
ATOM     84  C   UNL A   1      39.702  33.204  31.080  1.00  0.00     0.002 A 
ATOM     85  C   UNL A   1      39.461  31.380  32.649  1.00  0.00     0.091 A 
ATOM     86  F   UNL A   1      41.315  29.947  33.086  1.00  0.00    -0.205 F 
ATOM     87  C   UNL A   1      38.901  32.444  31.925  1.00  0.00     0.022 A 
BRANCH  85  88
ATOM     88  S   UNL A   1      38.402  30.434  33.749  1.00  0.00     0.127 S 
ATOM     89  O   UNL A   1      39.072  30.617  35.031  1.00  0.00    -0.237 OA
ATOM     90  O   UNL A   1      37.115  31.121  33.625  1.00  0.00    -0.237 OA
ATOM     91  O   UNL A   1      38.415  29.092  33.187  1.00  0.00    -0.744 OA
ENDBRANCH  85  88
ENDBRANCH  57  81
BRANCH  69  92
ATOM     92  C   UNL A   1      45.694  25.893  32.522  1.00  0.00     0.023 A 
ATOM     93  C   UNL A   1      47.090  25.772  32.653  1.00  0.00     0.012 A 
ATOM     94  C   UNL A   1      44.909  25.190  33.475  1.00  0.00     0.148 A 
ATOM     95  C   UNL A   1      47.680  24.941  33.614  1.00  0.00     0.002 A 
ATOM     96  C   UNL A   1      45.502  24.459  34.502  1.00  0.00     0.091 A 
ATOM     97  F   UNL A   1      43.571  25.199  33.379  1.00  0.00    -0.205 F 
ATOM     98  C   UNL A   1      46.887  24.300  34.553  1.00  0.00     0.022 A 
BRANCH  96  99
ATOM     99  S   UNL A   1      44.529  23.827  35.878  1.00  0.00     0.127 S 
ATOM    100  O   UNL A   1      45.556  23.227  36.726  1.00  0.00    -0.237 OA
ATOM    101  O   UNL A   1      43.926  25.046  36.423  1.00  0.00    -0.237 OA
ATOM    102  O   UNL A   1      43.572  22.909  35.275  1.00  0.00    -0.744 OA
ENDBRANCH  96  99
ENDBRANCH  69  92
ENDBRANCH  43  44
ENDBRANCH  35  38
ENDBRANCH  33  34
ENDBRANCH   1  33
TORSDOF 15
ENDMDL
