MODEL 1
REMARK VINA RESULT:     -11.7      0.000      0.000
REMARK SMILES CC[C@H]1CC[C@](Cc2cccc(OC)n2)(C(=O)NCCCNC(=O)c2ccc(-c3c4nc(c(-c5cccc(S(=O)(=O)[O-])c5F)c5ccc([nH]5)c(-c5cccc(S(=O)(=O)[O-])c5F)c5nc(c(-c6cccc(S(=O)(=O)[O-])c6F)c6ccc3[nH]6)C=C5)C=C4)cc2)C1
REMARK SMILES IDX 20 1 19 2 18 3 16 4 17 5 6 7 3 8 4 9 88 10 5 11 2 12 1 13
REMARK SMILES IDX 7 14 8 15 9 16 15 17 10 18 12 19 11 20 13 21 14 22 21 23
REMARK SMILES IDX 22 24 23 25 24 27 25 28 26 29 87 30 27 31 86 32 28 33 29 34
REMARK SMILES IDX 30 35 80 36 31 37 85 38 79 39 81 40 32 41 84 42 78 43 77 44
REMARK SMILES IDX 33 46 65 47 45 48 64 49 46 50 49 51 63 52 82 53 47 54 48 55
REMARK SMILES IDX 62 57 83 58 50 59 34 60 35 61 43 62 36 63 38 64 44 65 37 66
REMARK SMILES IDX 39 67 40 68 41 69 42 70 66 71 67 72 75 73 68 74 70 75 76 76
REMARK SMILES IDX 69 77 71 78 72 79 73 80 74 81 51 82 52 83 60 84 53 85 55 86
REMARK SMILES IDX 61 87 54 88 56 89 57 90 58 91 59 92
REMARK H PARENT 18 6 22 26 81 45 49 56
REMARK Flexibility Score: inf
ROOT
ATOM      1  C   UNL A   1      33.560  28.849  23.347  1.00  0.00     0.042 C 
ENDROOT
BRANCH   1   2
ATOM      2  C   UNL A   1      32.358  27.955  23.065  1.00  0.00     0.117 C 
BRANCH   2   3
ATOM      3  N   UNL A   1      32.618  27.066  21.951  1.00  0.00    -0.356 N 
ATOM      4  C   UNL A   1      33.100  25.799  21.881  1.00  0.00     0.226 C 
ATOM      5  O   UNL A   1      33.261  25.374  20.730  1.00  0.00    -0.274 OA
ATOM      6  H   UNL A   1      32.405  27.457  21.073  1.00  0.00     0.163 HD
BRANCH   4   7
ATOM      7  C   UNL A   1      33.287  24.873  23.115  1.00  0.00     0.055 C 
ATOM      8  C   UNL A   1      32.314  25.075  25.410  1.00  0.00    -0.010 C 
ATOM      9  C   UNL A   1      33.776  25.526  25.466  1.00  0.00     0.005 C 
ATOM     10  C   UNL A   1      31.975  24.930  23.924  1.00  0.00     0.021 C 
ATOM     11  C   UNL A   1      34.400  25.301  24.087  1.00  0.00     0.017 C 
BRANCH   8  12
ATOM     12  C   UNL A   1      32.076  23.845  26.297  1.00  0.00     0.000 C 
ATOM     13  C   UNL A   1      30.657  23.292  26.275  1.00  0.00     0.004 C 
ENDBRANCH   8  12
BRANCH   7  14
ATOM     14  C   UNL A   1      33.575  23.451  22.515  1.00  0.00     0.073 C 
BRANCH  14  15
ATOM     15  C   UNL A   1      33.605  22.274  23.460  1.00  0.00     0.045 A 
ATOM     16  C   UNL A   1      32.525  21.410  23.561  1.00  0.00     0.024 A 
ATOM     17  N   UNL A   1      34.719  22.115  24.210  1.00  0.00    -0.219 NA
ATOM     18  C   UNL A   1      32.551  20.424  24.542  1.00  0.00     0.007 A 
ATOM     19  C   UNL A   1      34.756  21.131  25.132  1.00  0.00     0.213 A 
ATOM     20  C   UNL A   1      33.674  20.295  25.355  1.00  0.00     0.068 A 
BRANCH  19  21
ATOM     21  O   UNL A   1      35.947  21.076  25.793  1.00  0.00    -0.481 OA
ATOM     22  C   UNL A   1      36.767  22.232  25.755  1.00  0.00     0.280 C 
ENDBRANCH  19  21
ENDBRANCH  14  15
ENDBRANCH   7  14
ENDBRANCH   4   7
ENDBRANCH   2   3
ENDBRANCH   1   2
BRANCH   1  23
ATOM     23  C   UNL A   1      33.760  29.116  24.835  1.00  0.00     0.118 C 
BRANCH  23  24
ATOM     24  N   UNL A   1      32.892  30.182  25.321  1.00  0.00    -0.352 N 
ATOM     25  C   UNL A   1      32.926  30.849  26.521  1.00  0.00     0.251 C 
ATOM     26  H   UNL A   1      32.181  30.464  24.701  1.00  0.00     0.163 HD
ATOM     27  O   UNL A   1      31.984  31.565  26.852  1.00  0.00    -0.269 OA
BRANCH  25  28
ATOM     28  C   UNL A   1      34.091  30.686  27.413  1.00  0.00     0.039 A 
ATOM     29  C   UNL A   1      34.316  29.452  28.028  1.00  0.00     0.014 A 
ATOM     30  C   UNL A   1      34.968  31.751  27.627  1.00  0.00     0.014 A 
ATOM     31  C   UNL A   1      35.464  29.265  28.801  1.00  0.00     0.010 A 
ATOM     32  C   UNL A   1      36.151  31.539  28.326  1.00  0.00     0.010 A 
ATOM     33  C   UNL A   1      36.410  30.296  28.922  1.00  0.00    -0.014 A 
BRANCH  33  34
ATOM     34  C   UNL A   1      37.686  30.110  29.657  1.00  0.00     0.031 A 
ATOM     35  C   UNL A   1      38.746  29.200  29.098  1.00  0.00     0.074 A 
ATOM     36  C   UNL A   1      37.840  30.662  30.878  1.00  0.00     0.049 A 
ATOM     37  N   UNL A   1      39.862  28.797  29.648  1.00  0.00    -0.248 NA
ATOM     38  C   UNL A   1      38.504  28.642  27.757  1.00  0.00     0.031 C 
ATOM     39  C   UNL A   1      36.857  31.511  31.554  1.00  0.00     0.029 A 
ATOM     40  N   UNL A   1      38.866  30.556  31.786  1.00  0.00    -0.354 N 
ATOM     41  C   UNL A   1      40.430  27.908  28.743  1.00  0.00     0.074 A 
ATOM     42  C   UNL A   1      39.523  27.808  27.622  1.00  0.00     0.031 C 
ATOM     43  C   UNL A   1      37.322  31.842  32.768  1.00  0.00     0.029 A 
ATOM     44  C   UNL A   1      38.613  31.197  32.977  1.00  0.00     0.049 A 
ATOM     45  H   UNL A   1      39.701  30.069  31.601  1.00  0.00     0.167 HD
ATOM     46  C   UNL A   1      41.611  27.252  28.829  1.00  0.00     0.034 A 
ATOM     47  C   UNL A   1      39.330  31.239  34.118  1.00  0.00     0.034 A 
ATOM     48  C   UNL A   1      42.523  27.386  29.931  1.00  0.00     0.049 A 
ATOM     49  C   UNL A   1      40.647  30.515  34.181  1.00  0.00     0.074 A 
ATOM     50  C   UNL A   1      43.782  26.833  30.074  1.00  0.00     0.029 A 
ATOM     51  N   UNL A   1      42.271  28.115  31.082  1.00  0.00    -0.354 N 
ATOM     52  N   UNL A   1      41.234  29.792  33.258  1.00  0.00    -0.248 NA
ATOM     53  C   UNL A   1      41.417  30.634  35.428  1.00  0.00     0.031 C 
ATOM     54  C   UNL A   1      44.277  27.197  31.329  1.00  0.00     0.029 A 
ATOM     55  C   UNL A   1      43.347  28.016  31.948  1.00  0.00     0.049 A 
ATOM     56  H   UNL A   1      41.449  28.628  31.259  1.00  0.00     0.167 HD
ATOM     57  C   UNL A   1      42.460  29.412  33.794  1.00  0.00     0.074 A 
ATOM     58  C   UNL A   1      42.534  29.990  35.120  1.00  0.00     0.031 C 
ATOM     59  C   UNL A   1      43.432  28.649  33.238  1.00  0.00     0.034 A 
BRANCH  46  60
ATOM     60  C   UNL A   1      42.003  26.355  27.683  1.00  0.00     0.023 A 
ATOM     61  C   UNL A   1      42.804  26.863  26.640  1.00  0.00     0.012 A 
ATOM     62  C   UNL A   1      41.633  24.996  27.670  1.00  0.00     0.148 A 
ATOM     63  C   UNL A   1      43.199  26.045  25.584  1.00  0.00     0.002 A 
ATOM     64  C   UNL A   1      42.072  24.174  26.640  1.00  0.00     0.091 A 
ATOM     65  F   UNL A   1      40.855  24.535  28.660  1.00  0.00    -0.205 F 
ATOM     66  C   UNL A   1      42.842  24.699  25.589  1.00  0.00     0.022 A 
BRANCH  64  67
ATOM     67  S   UNL A   1      41.740  22.410  26.599  1.00  0.00     0.127 S 
ATOM     68  O   UNL A   1      42.368  21.962  27.841  1.00  0.00    -0.237 OA
ATOM     69  O   UNL A   1      40.278  22.372  26.607  1.00  0.00    -0.237 OA
ATOM     70  O   UNL A   1      42.354  21.912  25.376  1.00  0.00    -0.744 OA
ENDBRANCH  64  67
ENDBRANCH  46  60
BRANCH  47  71
ATOM     71  C   UNL A   1      38.838  32.035  35.280  1.00  0.00     0.023 A 
ATOM     72  C   UNL A   1      38.926  33.440  35.241  1.00  0.00     0.012 A 
ATOM     73  C   UNL A   1      38.267  31.412  36.407  1.00  0.00     0.148 A 
ATOM     74  C   UNL A   1      38.487  34.210  36.320  1.00  0.00     0.002 A 
ATOM     75  C   UNL A   1      37.780  32.188  37.453  1.00  0.00     0.091 A 
ATOM     76  F   UNL A   1      38.200  30.074  36.427  1.00  0.00    -0.205 F 
ATOM     77  C   UNL A   1      37.906  33.586  37.420  1.00  0.00     0.022 A 
BRANCH  75  78
ATOM     78  S   UNL A   1      36.902  31.482  38.851  1.00  0.00     0.127 S 
ATOM     79  O   UNL A   1      35.709  32.323  38.909  1.00  0.00    -0.237 OA
ATOM     80  O   UNL A   1      36.668  30.111  38.396  1.00  0.00    -0.237 OA
ATOM     81  O   UNL A   1      37.810  31.594  39.984  1.00  0.00    -0.744 OA
ENDBRANCH  75  78
ENDBRANCH  47  71
BRANCH  59  82
ATOM     82  C   UNL A   1      44.702  28.440  34.020  1.00  0.00     0.023 A 
ATOM     83  C   UNL A   1      45.760  29.362  33.915  1.00  0.00     0.012 A 
ATOM     84  C   UNL A   1      44.791  27.382  34.949  1.00  0.00     0.148 A 
ATOM     85  C   UNL A   1      46.898  29.225  34.711  1.00  0.00     0.002 A 
ATOM     86  C   UNL A   1      45.903  27.283  35.774  1.00  0.00     0.091 A 
ATOM     87  F   UNL A   1      43.778  26.507  35.018  1.00  0.00    -0.205 F 
ATOM     88  C   UNL A   1      46.962  28.197  35.649  1.00  0.00     0.022 A 
BRANCH  86  89
ATOM     89  S   UNL A   1      46.027  26.058  37.082  1.00  0.00     0.127 S 
ATOM     90  O   UNL A   1      47.330  26.377  37.665  1.00  0.00    -0.237 OA
ATOM     91  O   UNL A   1      44.882  26.393  37.927  1.00  0.00    -0.237 OA
ATOM     92  O   UNL A   1      45.943  24.758  36.430  1.00  0.00    -0.744 OA
ENDBRANCH  86  89
ENDBRANCH  59  82
ENDBRANCH  33  34
ENDBRANCH  25  28
ENDBRANCH  23  24
ENDBRANCH   1  23
TORSDOF 17
ENDMDL
MODEL 2
REMARK VINA RESULT:     -11.7      1.446      1.746
REMARK SMILES CC[C@H]1CC[C@](Cc2cccc(OC)n2)(C(=O)NCCCNC(=O)c2ccc(-c3c4nc(c(-c5cccc(S(=O)(=O)[O-])c5F)c5ccc([nH]5)c(-c5cccc(S(=O)(=O)[O-])c5F)c5nc(c(-c6cccc(S(=O)(=O)[O-])c6F)c6ccc3[nH]6)C=C5)C=C4)cc2)C1
REMARK SMILES IDX 20 1 19 2 18 3 16 4 17 5 6 7 3 8 4 9 88 10 5 11 2 12 1 13
REMARK SMILES IDX 7 14 8 15 9 16 15 17 10 18 12 19 11 20 13 21 14 22 21 23
REMARK SMILES IDX 22 24 23 25 24 27 25 28 26 29 87 30 27 31 86 32 28 33 29 34
REMARK SMILES IDX 30 35 80 36 31 37 85 38 79 39 81 40 32 41 84 42 78 43 77 44
REMARK SMILES IDX 33 46 65 47 45 48 64 49 46 50 49 51 63 52 82 53 47 54 48 55
REMARK SMILES IDX 62 57 83 58 50 59 34 60 35 61 43 62 36 63 38 64 44 65 37 66
REMARK SMILES IDX 39 67 40 68 41 69 42 70 66 71 67 72 75 73 68 74 70 75 76 76
REMARK SMILES IDX 69 77 71 78 72 79 73 80 74 81 51 82 52 83 60 84 53 85 55 86
REMARK SMILES IDX 61 87 54 88 56 89 57 90 58 91 59 92
REMARK H PARENT 18 6 22 26 81 45 49 56
REMARK Flexibility Score: inf
ROOT
ATOM      1  C   UNL A   1      33.233  28.898  24.591  1.00  0.00     0.042 C 
ENDROOT
BRANCH   1   2
ATOM      2  C   UNL A   1      32.132  28.324  23.708  1.00  0.00     0.117 C 
BRANCH   2   3
ATOM      3  N   UNL A   1      32.686  27.668  22.542  1.00  0.00    -0.356 N 
ATOM      4  C   UNL A   1      33.178  26.419  22.337  1.00  0.00     0.226 C 
ATOM      5  O   UNL A   1      33.643  26.229  21.206  1.00  0.00    -0.274 OA
ATOM      6  H   UNL A   1      32.711  28.239  21.740  1.00  0.00     0.163 HD
BRANCH   4   7
ATOM      7  C   UNL A   1      33.037  25.255  23.356  1.00  0.00     0.055 C 
ATOM      8  C   UNL A   1      31.641  25.121  25.428  1.00  0.00    -0.010 C 
ATOM      9  C   UNL A   1      33.093  25.372  25.841  1.00  0.00     0.005 C 
ATOM     10  C   UNL A   1      31.597  25.312  23.909  1.00  0.00     0.021 C 
ATOM     11  C   UNL A   1      33.962  25.345  24.582  1.00  0.00     0.017 C 
BRANCH   8  12
ATOM     12  C   UNL A   1      31.129  23.780  25.971  1.00  0.00     0.000 C 
ATOM     13  C   UNL A   1      32.087  23.049  26.903  1.00  0.00     0.004 C 
ENDBRANCH   8  12
BRANCH   7  14
ATOM     14  C   UNL A   1      33.321  23.952  22.527  1.00  0.00     0.073 C 
BRANCH  14  15
ATOM     15  C   UNL A   1      33.455  22.648  23.275  1.00  0.00     0.045 A 
ATOM     16  C   UNL A   1      32.404  21.746  23.335  1.00  0.00     0.024 A 
ATOM     17  N   UNL A   1      34.636  22.412  23.892  1.00  0.00    -0.219 NA
ATOM     18  C   UNL A   1      32.535  20.625  24.148  1.00  0.00     0.007 A 
ATOM     19  C   UNL A   1      34.772  21.302  24.646  1.00  0.00     0.213 A 
ATOM     20  C   UNL A   1      33.728  20.410  24.832  1.00  0.00     0.068 A 
BRANCH  19  21
ATOM     21  O   UNL A   1      36.017  21.184  25.186  1.00  0.00    -0.481 OA
ATOM     22  C   UNL A   1      36.970  22.179  24.851  1.00  0.00     0.280 C 
ENDBRANCH  19  21
ENDBRANCH  14  15
ENDBRANCH   7  14
ENDBRANCH   4   7
ENDBRANCH   2   3
ENDBRANCH   1   2
BRANCH   1  23
ATOM     23  C   UNL A   1      32.772  29.150  26.022  1.00  0.00     0.118 C 
BRANCH  23  24
ATOM     24  N   UNL A   1      32.443  30.552  26.252  1.00  0.00    -0.352 N 
ATOM     25  C   UNL A   1      33.076  31.471  27.052  1.00  0.00     0.251 C 
ATOM     26  H   UNL A   1      31.657  30.888  25.763  1.00  0.00     0.163 HD
ATOM     27  O   UNL A   1      32.536  32.547  27.298  1.00  0.00    -0.269 OA
BRANCH  25  28
ATOM     28  C   UNL A   1      34.398  31.151  27.626  1.00  0.00     0.039 A 
ATOM     29  C   UNL A   1      35.355  32.161  27.749  1.00  0.00     0.014 A 
ATOM     30  C   UNL A   1      34.683  29.853  28.057  1.00  0.00     0.014 A 
ATOM     31  C   UNL A   1      36.574  31.885  28.373  1.00  0.00     0.010 A 
ATOM     32  C   UNL A   1      35.860  29.601  28.752  1.00  0.00     0.010 A 
ATOM     33  C   UNL A   1      36.819  30.613  28.915  1.00  0.00    -0.014 A 
BRANCH  33  34
ATOM     34  C   UNL A   1      38.061  30.303  29.666  1.00  0.00     0.031 A 
ATOM     35  C   UNL A   1      39.047  29.314  29.106  1.00  0.00     0.074 A 
ATOM     36  C   UNL A   1      38.243  30.819  30.898  1.00  0.00     0.049 A 
ATOM     37  N   UNL A   1      40.114  28.806  29.665  1.00  0.00    -0.248 NA
ATOM     38  C   UNL A   1      38.779  28.802  27.751  1.00  0.00     0.031 C 
ATOM     39  C   UNL A   1      37.326  31.740  31.575  1.00  0.00     0.029 A 
ATOM     40  N   UNL A   1      39.240  30.609  31.820  1.00  0.00    -0.354 N 
ATOM     41  C   UNL A   1      40.617  27.886  28.753  1.00  0.00     0.074 A 
ATOM     42  C   UNL A   1      39.724  27.884  27.617  1.00  0.00     0.031 C 
ATOM     43  C   UNL A   1      37.798  32.009  32.802  1.00  0.00     0.029 A 
ATOM     44  C   UNL A   1      39.024  31.250  33.018  1.00  0.00     0.049 A 
ATOM     45  H   UNL A   1      40.032  30.054  31.639  1.00  0.00     0.167 HD
ATOM     46  C   UNL A   1      41.734  27.128  28.845  1.00  0.00     0.034 A 
ATOM     47  C   UNL A   1      39.723  31.210  34.170  1.00  0.00     0.034 A 
ATOM     48  C   UNL A   1      42.637  27.163  29.963  1.00  0.00     0.049 A 
ATOM     49  C   UNL A   1      40.971  30.373  34.240  1.00  0.00     0.074 A 
ATOM     50  C   UNL A   1      43.841  26.499  30.115  1.00  0.00     0.029 A 
ATOM     51  N   UNL A   1      42.430  27.892  31.123  1.00  0.00    -0.354 N 
ATOM     52  N   UNL A   1      41.508  29.617  33.313  1.00  0.00    -0.248 NA
ATOM     53  C   UNL A   1      41.728  30.404  35.500  1.00  0.00     0.031 C 
ATOM     54  C   UNL A   1      44.345  26.798  31.383  1.00  0.00     0.029 A 
ATOM     55  C   UNL A   1      43.479  27.685  32.002  1.00  0.00     0.049 A 
ATOM     56  H   UNL A   1      41.654  28.471  31.296  1.00  0.00     0.167 HD
ATOM     57  C   UNL A   1      42.687  29.122  33.860  1.00  0.00     0.074 A 
ATOM     58  C   UNL A   1      42.790  29.669  35.197  1.00  0.00     0.031 C 
ATOM     59  C   UNL A   1      43.598  28.287  33.305  1.00  0.00     0.034 A 
BRANCH  46  60
ATOM     60  C   UNL A   1      42.066  26.219  27.689  1.00  0.00     0.023 A 
ATOM     61  C   UNL A   1      42.850  26.703  26.622  1.00  0.00     0.012 A 
ATOM     62  C   UNL A   1      41.657  24.871  27.689  1.00  0.00     0.148 A 
ATOM     63  C   UNL A   1      43.189  25.873  25.555  1.00  0.00     0.002 A 
ATOM     64  C   UNL A   1      42.040  24.036  26.647  1.00  0.00     0.091 A 
ATOM     65  F   UNL A   1      40.897  24.434  28.703  1.00  0.00    -0.205 F 
ATOM     66  C   UNL A   1      42.793  24.538  25.573  1.00  0.00     0.022 A 
BRANCH  64  67
ATOM     67  S   UNL A   1      41.656  22.282  26.619  1.00  0.00     0.127 S 
ATOM     68  O   UNL A   1      42.297  21.861  25.374  1.00  0.00    -0.237 OA
ATOM     69  O   UNL A   1      42.314  21.804  27.834  1.00  0.00    -0.237 OA
ATOM     70  O   UNL A   1      40.203  22.187  26.635  1.00  0.00    -0.744 OA
ENDBRANCH  64  67
ENDBRANCH  46  60
BRANCH  47  71
ATOM     71  C   UNL A   1      39.284  32.027  35.339  1.00  0.00     0.023 A 
ATOM     72  C   UNL A   1      38.399  31.468  36.280  1.00  0.00     0.012 A 
ATOM     73  C   UNL A   1      39.754  33.341  35.533  1.00  0.00     0.148 A 
ATOM     74  C   UNL A   1      37.961  32.214  37.375  1.00  0.00     0.002 A 
ATOM     75  C   UNL A   1      39.358  34.058  36.656  1.00  0.00     0.091 A 
ATOM     76  F   UNL A   1      40.591  33.857  34.622  1.00  0.00    -0.205 F 
ATOM     77  C   UNL A   1      38.447  33.504  37.569  1.00  0.00     0.022 A 
BRANCH  75  78
ATOM     78  S   UNL A   1      40.030  35.674  37.057  1.00  0.00     0.127 S 
ATOM     79  O   UNL A   1      39.653  36.454  35.880  1.00  0.00    -0.237 OA
ATOM     80  O   UNL A   1      39.297  36.009  38.278  1.00  0.00    -0.237 OA
ATOM     81  O   UNL A   1      41.459  35.470  37.249  1.00  0.00    -0.744 OA
ENDBRANCH  75  78
ENDBRANCH  47  71
BRANCH  59  82
ATOM     82  C   UNL A   1      44.832  27.954  34.102  1.00  0.00     0.023 A 
ATOM     83  C   UNL A   1      45.955  28.801  34.057  1.00  0.00     0.012 A 
ATOM     84  C   UNL A   1      44.825  26.855  34.986  1.00  0.00     0.148 A 
ATOM     85  C   UNL A   1      47.061  28.549  34.869  1.00  0.00     0.002 A 
ATOM     86  C   UNL A   1      45.907  26.642  35.828  1.00  0.00     0.091 A 
ATOM     87  F   UNL A   1      43.750  26.053  34.998  1.00  0.00    -0.205 F 
ATOM     88  C   UNL A   1      47.031  27.481  35.763  1.00  0.00     0.022 A 
BRANCH  86  89
ATOM     89  S   UNL A   1      45.914  25.357  37.084  1.00  0.00     0.127 S 
ATOM     90  O   UNL A   1      47.270  25.474  37.620  1.00  0.00    -0.237 OA
ATOM     91  O   UNL A   1      44.859  25.809  37.991  1.00  0.00    -0.237 OA
ATOM     92  O   UNL A   1      45.628  24.109  36.390  1.00  0.00    -0.744 OA
ENDBRANCH  86  89
ENDBRANCH  59  82
ENDBRANCH  33  34
ENDBRANCH  25  28
ENDBRANCH  23  24
ENDBRANCH   1  23
TORSDOF 17
ENDMDL
MODEL 3
REMARK VINA RESULT:     -11.6      2.263      7.926
REMARK SMILES CC[C@H]1CC[C@](Cc2cccc(OC)n2)(C(=O)NCCCNC(=O)c2ccc(-c3c4nc(c(-c5cccc(S(=O)(=O)[O-])c5F)c5ccc([nH]5)c(-c5cccc(S(=O)(=O)[O-])c5F)c5nc(c(-c6cccc(S(=O)(=O)[O-])c6F)c6ccc3[nH]6)C=C5)C=C4)cc2)C1
REMARK SMILES IDX 20 1 19 2 18 3 16 4 17 5 6 7 3 8 4 9 88 10 5 11 2 12 1 13
REMARK SMILES IDX 7 14 8 15 9 16 15 17 10 18 12 19 11 20 13 21 14 22 21 23
REMARK SMILES IDX 22 24 23 25 24 27 25 28 26 29 87 30 27 31 86 32 28 33 29 34
REMARK SMILES IDX 30 35 80 36 31 37 85 38 79 39 81 40 32 41 84 42 78 43 77 44
REMARK SMILES IDX 33 46 65 47 45 48 64 49 46 50 49 51 63 52 82 53 47 54 48 55
REMARK SMILES IDX 62 57 83 58 50 59 34 60 35 61 43 62 36 63 38 64 44 65 37 66
REMARK SMILES IDX 39 67 40 68 41 69 42 70 66 71 67 72 75 73 68 74 70 75 76 76
REMARK SMILES IDX 69 77 71 78 72 79 73 80 74 81 51 82 52 83 60 84 53 85 55 86
REMARK SMILES IDX 61 87 54 88 56 89 57 90 58 91 59 92
REMARK H PARENT 18 6 22 26 81 45 49 56
REMARK Flexibility Score: inf
ROOT
ATOM      1  C   UNL A   1      34.230  28.264  24.654  1.00  0.00     0.042 C 
ENDROOT
BRANCH   1   2
ATOM      2  C   UNL A   1      32.879  27.796  24.125  1.00  0.00     0.117 C 
BRANCH   2   3
ATOM      3  N   UNL A   1      33.003  27.240  22.794  1.00  0.00    -0.356 N 
ATOM      4  C   UNL A   1      33.251  25.983  22.342  1.00  0.00     0.226 C 
ATOM      5  O   UNL A   1      33.362  25.892  21.113  1.00  0.00    -0.274 OA
ATOM      6  H   UNL A   1      32.886  27.902  22.075  1.00  0.00     0.163 HD
BRANCH   4   7
ATOM      7  C   UNL A   1      33.237  24.720  23.246  1.00  0.00     0.055 C 
ATOM      8  C   UNL A   1      32.287  22.452  22.786  1.00  0.00    -0.010 C 
ATOM      9  C   UNL A   1      31.331  23.193  23.725  1.00  0.00     0.005 C 
ATOM     10  C   UNL A   1      33.302  23.496  22.309  1.00  0.00     0.021 C 
ATOM     11  C   UNL A   1      31.965  24.536  24.091  1.00  0.00     0.017 C 
BRANCH   8  12
ATOM     12  C   UNL A   1      32.854  21.189  23.450  1.00  0.00     0.000 C 
ATOM     13  C   UNL A   1      32.110  20.719  24.693  1.00  0.00     0.004 C 
ENDBRANCH   8  12
BRANCH   7  14
ATOM     14  C   UNL A   1      34.508  24.859  24.158  1.00  0.00     0.073 C 
BRANCH  14  15
ATOM     15  C   UNL A   1      35.145  23.597  24.686  1.00  0.00     0.045 A 
ATOM     16  C   UNL A   1      36.186  22.982  24.007  1.00  0.00     0.024 A 
ATOM     17  N   UNL A   1      34.644  23.089  25.836  1.00  0.00    -0.219 NA
ATOM     18  C   UNL A   1      36.646  21.752  24.466  1.00  0.00     0.007 A 
ATOM     19  C   UNL A   1      35.121  21.916  26.299  1.00  0.00     0.213 A 
ATOM     20  C   UNL A   1      36.091  21.198  25.616  1.00  0.00     0.068 A 
BRANCH  19  21
ATOM     21  O   UNL A   1      34.542  21.541  27.474  1.00  0.00    -0.481 OA
ATOM     22  C   UNL A   1      33.369  22.230  27.871  1.00  0.00     0.280 C 
ENDBRANCH  19  21
ENDBRANCH  14  15
ENDBRANCH   7  14
ENDBRANCH   4   7
ENDBRANCH   2   3
ENDBRANCH   1   2
BRANCH   1  23
ATOM     23  C   UNL A   1      34.228  28.489  26.162  1.00  0.00     0.118 C 
BRANCH  23  24
ATOM     24  N   UNL A   1      33.905  29.868  26.509  1.00  0.00    -0.352 N 
ATOM     25  C   UNL A   1      34.501  30.692  27.430  1.00  0.00     0.251 C 
ATOM     26  H   UNL A   1      33.153  30.264  26.012  1.00  0.00     0.163 HD
ATOM     27  O   UNL A   1      33.962  31.750  27.750  1.00  0.00    -0.269 OA
BRANCH  25  28
ATOM     28  C   UNL A   1      35.783  30.293  28.045  1.00  0.00     0.039 A 
ATOM     29  C   UNL A   1      35.779  29.662  29.292  1.00  0.00     0.014 A 
ATOM     30  C   UNL A   1      36.987  30.529  27.378  1.00  0.00     0.014 A 
ATOM     31  C   UNL A   1      36.979  29.203  29.837  1.00  0.00     0.010 A 
ATOM     32  C   UNL A   1      38.168  29.996  27.882  1.00  0.00     0.010 A 
ATOM     33  C   UNL A   1      38.178  29.330  29.116  1.00  0.00    -0.014 A 
BRANCH  33  34
ATOM     34  C   UNL A   1      39.460  28.774  29.617  1.00  0.00     0.031 A 
ATOM     35  C   UNL A   1      40.199  29.476  30.723  1.00  0.00     0.074 A 
ATOM     36  C   UNL A   1      40.013  27.711  28.999  1.00  0.00     0.049 A 
ATOM     37  N   UNL A   1      41.390  29.233  31.204  1.00  0.00    -0.248 NA
ATOM     38  C   UNL A   1      39.523  30.625  31.350  1.00  0.00     0.031 C 
ATOM     39  C   UNL A   1      39.423  26.984  27.873  1.00  0.00     0.029 A 
ATOM     40  N   UNL A   1      41.218  27.083  29.202  1.00  0.00    -0.354 N 
ATOM     41  C   UNL A   1      41.624  30.222  32.153  1.00  0.00     0.074 A 
ATOM     42  C   UNL A   1      40.464  31.084  32.161  1.00  0.00     0.031 C 
ATOM     43  C   UNL A   1      40.267  26.016  27.482  1.00  0.00     0.029 A 
ATOM     44  C   UNL A   1      41.475  26.080  28.296  1.00  0.00     0.049 A 
ATOM     45  H   UNL A   1      41.837  27.328  29.928  1.00  0.00     0.167 HD
ATOM     46  C   UNL A   1      42.699  30.383  32.959  1.00  0.00     0.034 A 
ATOM     47  C   UNL A   1      42.571  25.314  28.125  1.00  0.00     0.034 A 
ATOM     48  C   UNL A   1      43.832  29.499  32.970  1.00  0.00     0.049 A 
ATOM     49  C   UNL A   1      43.746  25.502  29.047  1.00  0.00     0.074 A 
ATOM     50  C   UNL A   1      44.932  29.524  33.808  1.00  0.00     0.029 A 
ATOM     51  N   UNL A   1      44.017  28.440  32.096  1.00  0.00    -0.354 N 
ATOM     52  N   UNL A   1      43.889  26.353  30.034  1.00  0.00    -0.248 NA
ATOM     53  C   UNL A   1      44.897  24.607  28.855  1.00  0.00     0.031 C 
ATOM     54  C   UNL A   1      45.801  28.503  33.417  1.00  0.00     0.029 A 
ATOM     55  C   UNL A   1      45.220  27.811  32.366  1.00  0.00     0.049 A 
ATOM     56  H   UNL A   1      43.387  28.174  31.388  1.00  0.00     0.167 HD
ATOM     57  C   UNL A   1      45.122  26.065  30.609  1.00  0.00     0.074 A 
ATOM     58  C   UNL A   1      45.682  24.957  29.865  1.00  0.00     0.031 C 
ATOM     59  C   UNL A   1      45.735  26.668  31.656  1.00  0.00     0.034 A 
BRANCH  46  60
ATOM     60  C   UNL A   1      42.687  31.538  33.926  1.00  0.00     0.023 A 
ATOM     61  C   UNL A   1      43.217  32.784  33.535  1.00  0.00     0.012 A 
ATOM     62  C   UNL A   1      42.094  31.410  35.198  1.00  0.00     0.148 A 
ATOM     63  C   UNL A   1      43.194  33.873  34.404  1.00  0.00     0.002 A 
ATOM     64  C   UNL A   1      42.030  32.512  36.041  1.00  0.00     0.091 A 
ATOM     65  F   UNL A   1      41.612  30.213  35.561  1.00  0.00    -0.205 F 
ATOM     66  C   UNL A   1      42.591  33.739  35.652  1.00  0.00     0.022 A 
BRANCH  64  67
ATOM     67  S   UNL A   1      41.199  32.469  37.632  1.00  0.00     0.127 S 
ATOM     68  O   UNL A   1      41.205  33.882  38.007  1.00  0.00    -0.237 OA
ATOM     69  O   UNL A   1      39.883  31.938  37.277  1.00  0.00    -0.237 OA
ATOM     70  O   UNL A   1      41.997  31.596  38.481  1.00  0.00    -0.744 OA
ENDBRANCH  64  67
ENDBRANCH  46  60
BRANCH  47  71
ATOM     71  C   UNL A   1      42.591  24.265  27.066  1.00  0.00     0.023 A 
ATOM     72  C   UNL A   1      43.287  24.507  25.866  1.00  0.00     0.012 A 
ATOM     73  C   UNL A   1      41.947  23.025  27.249  1.00  0.00     0.148 A 
ATOM     74  C   UNL A   1      43.310  23.548  24.851  1.00  0.00     0.002 A 
ATOM     75  C   UNL A   1      42.023  22.054  26.257  1.00  0.00     0.091 A 
ATOM     76  F   UNL A   1      41.285  22.817  28.395  1.00  0.00    -0.205 F 
ATOM     77  C   UNL A   1      42.688  22.319  25.050  1.00  0.00     0.022 A 
BRANCH  75  78
ATOM     78  S   UNL A   1      41.362  20.398  26.475  1.00  0.00     0.127 S 
ATOM     79  O   UNL A   1      41.851  20.055  27.808  1.00  0.00    -0.237 OA
ATOM     80  O   UNL A   1      39.921  20.636  26.389  1.00  0.00    -0.237 OA
ATOM     81  O   UNL A   1      41.908  19.609  25.380  1.00  0.00    -0.744 OA
ENDBRANCH  75  78
ENDBRANCH  47  71
BRANCH  59  82
ATOM     82  C   UNL A   1      47.055  26.113  32.121  1.00  0.00     0.023 A 
ATOM     83  C   UNL A   1      48.261  26.614  31.595  1.00  0.00     0.012 A 
ATOM     84  C   UNL A   1      47.093  25.170  33.170  1.00  0.00     0.148 A 
ATOM     85  C   UNL A   1      49.486  26.171  32.094  1.00  0.00     0.002 A 
ATOM     86  C   UNL A   1      48.314  24.776  33.697  1.00  0.00     0.091 A 
ATOM     87  F   UNL A   1      45.932  24.696  33.643  1.00  0.00    -0.205 F 
ATOM     88  C   UNL A   1      49.512  25.267  33.153  1.00  0.00     0.022 A 
BRANCH  86  89
ATOM     89  S   UNL A   1      48.445  23.697  35.128  1.00  0.00     0.127 S 
ATOM     90  O   UNL A   1      49.895  23.604  35.298  1.00  0.00    -0.237 OA
ATOM     91  O   UNL A   1      47.759  24.472  36.161  1.00  0.00    -0.237 OA
ATOM     92  O   UNL A   1      47.783  22.453  34.760  1.00  0.00    -0.744 OA
ENDBRANCH  86  89
ENDBRANCH  59  82
ENDBRANCH  33  34
ENDBRANCH  25  28
ENDBRANCH  23  24
ENDBRANCH   1  23
TORSDOF 17
ENDMDL
