MODEL 1
REMARK VINA RESULT:     -12.5      0.000      0.000
REMARK SMILES CCn1ncc(Br)c1C(=O)N[C@H]1C(=O)N2C(C(=O)NCCCNC(=O)c3ccc(-c4c5nc(c(-c6cccc(S(=O)(=O)[O-])c6F)c6ccc([nH]6)c(-c6cccc(S(=O)(=O)[O-])c6F)c6nc(c(-c7cccc(S(=O)(=O)[O-])c7F)c7ccc4[nH]7)C=C6)C=C5)cc3)=C(COC(C)=O)CS[C@H]12
REMARK SMILES IDX 21 1 20 2 19 3 17 4 18 5 16 7 12 8 13 9 97 10 14 11 15 12
REMARK SMILES IDX 96 13 95 14 89 15 11 16 9 17 10 18 8 20 3 21 4 22 5 23 6 24
REMARK SMILES IDX 7 25 2 26 1 27 90 28 91 29 92 30 93 31 94 32 22 33 23 34
REMARK SMILES IDX 24 35 25 37 26 38 27 39 88 40 28 41 87 42 29 43 30 44 31 45
REMARK SMILES IDX 81 46 32 47 86 48 80 49 82 50 33 51 85 52 79 53 78 54 34 56
REMARK SMILES IDX 66 57 46 58 65 59 47 60 50 61 64 62 83 63 48 64 49 65 63 67
REMARK SMILES IDX 84 68 51 69 35 70 36 71 44 72 37 73 39 74 45 75 38 76 40 77
REMARK SMILES IDX 41 78 42 79 43 80 67 81 68 82 76 83 69 84 71 85 77 86 70 87
REMARK SMILES IDX 72 88 73 89 74 90 75 91 52 92 53 93 61 94 54 95 56 96 62 97
REMARK SMILES IDX 55 98 57 99 58 100 59 101 60 102
REMARK H PARENT 19 6 11 19 23 36 82 55 50 66
REMARK Flexibility Score: inf
ROOT
ATOM      1  C   UNL A   1      38.173  20.209  25.093  1.00  0.00     0.042 C 
ENDROOT
BRANCH   1   2
ATOM      2  C   UNL A   1      37.324  21.452  24.846  1.00  0.00     0.118 C 
BRANCH   2   3
ATOM      3  N   UNL A   1      36.418  21.690  25.938  1.00  0.00    -0.351 N 
ATOM      4  C   UNL A   1      35.089  21.631  26.157  1.00  0.00     0.268 C 
ATOM      5  O   UNL A   1      34.824  21.864  27.341  1.00  0.00    -0.268 OA
ATOM      6  H   UNL A   1      36.901  21.972  26.747  1.00  0.00     0.163 HD
BRANCH   4   7
ATOM      7  C   UNL A   1      33.943  21.267  25.195  1.00  0.00     0.114 C 
ATOM      8  C   UNL A   1      31.855  23.774  24.049  1.00  0.00     0.206 C 
ATOM      9  C   UNL A   1      33.192  23.754  24.847  1.00  0.00     0.253 C 
ATOM     10  C   UNL A   1      31.943  22.274  24.171  1.00  0.00     0.181 C 
ATOM     11  O   UNL A   1      33.863  24.659  25.311  1.00  0.00    -0.272 OA
ATOM     12  N   UNL A   1      33.241  22.401  24.771  1.00  0.00    -0.290 N 
ATOM     13  S   UNL A   1      32.161  21.382  22.626  1.00  0.00    -0.129 SA
ATOM     14  C   UNL A   1      32.397  19.930  23.631  1.00  0.00     0.108 C 
ATOM     15  C   UNL A   1      33.500  20.061  24.685  1.00  0.00     0.007 C 
BRANCH   8  16
ATOM     16  N   UNL A   1      30.680  24.486  24.624  1.00  0.00    -0.336 N 
ATOM     17  C   UNL A   1      30.349  25.772  24.993  1.00  0.00     0.271 C 
ATOM     18  O   UNL A   1      29.321  25.868  25.666  1.00  0.00    -0.267 OA
ATOM     19  H   UNL A   1      29.932  23.866  24.785  1.00  0.00     0.164 HD
BRANCH  17  20
ATOM     20  C   UNL A   1      31.044  26.963  24.557  1.00  0.00     0.140 A 
ATOM     21  N   UNL A   1      31.528  27.323  23.310  1.00  0.00    -0.259 N 
ATOM     22  N   UNL A   1      32.128  28.539  23.296  1.00  0.00    -0.180 NA
ATOM     23  C   UNL A   1      32.262  28.845  24.584  1.00  0.00     0.151 A 
ATOM     24  C   UNL A   1      31.647  27.891  25.394  1.00  0.00     0.069 A 
ATOM     25  Br  UNL A   1      31.731  27.931  27.266  1.00  0.00    -0.047 Br
BRANCH  21  26
ATOM     26  C   UNL A   1      31.532  26.549  22.079  1.00  0.00     0.142 C 
ATOM     27  C   UNL A   1      32.921  26.154  21.559  1.00  0.00     0.029 C 
ENDBRANCH  21  26
ENDBRANCH  17  20
ENDBRANCH   8  16
BRANCH  15  28
ATOM     28  C   UNL A   1      33.796  18.629  25.047  1.00  0.00     0.267 C 
BRANCH  28  29
ATOM     29  O   UNL A   1      32.930  17.584  24.566  1.00  0.00    -0.461 OA
BRANCH  29  30
ATOM     30  C   UNL A   1      33.437  16.395  24.157  1.00  0.00     0.302 C 
ATOM     31  C   UNL A   1      34.295  16.565  22.938  1.00  0.00     0.139 C 
ATOM     32  O   UNL A   1      33.166  15.322  24.668  1.00  0.00    -0.253 OA
ENDBRANCH  29  30
ENDBRANCH  28  29
ENDBRANCH  15  28
ENDBRANCH   4   7
ENDBRANCH   2   3
ENDBRANCH   1   2
BRANCH   1  33
ATOM     33  C   UNL A   1      39.323  20.423  26.029  1.00  0.00     0.118 C 
BRANCH  33  34
ATOM     34  N   UNL A   1      40.393  19.453  25.786  1.00  0.00    -0.352 N 
ATOM     35  C   UNL A   1      41.749  19.716  25.752  1.00  0.00     0.251 C 
ATOM     36  H   UNL A   1      40.119  18.520  25.632  1.00  0.00     0.163 HD
ATOM     37  O   UNL A   1      42.527  18.955  25.192  1.00  0.00    -0.269 OA
BRANCH  35  38
ATOM     38  C   UNL A   1      42.205  20.958  26.395  1.00  0.00     0.039 A 
ATOM     39  C   UNL A   1      42.397  22.130  25.668  1.00  0.00     0.014 A 
ATOM     40  C   UNL A   1      42.277  20.951  27.782  1.00  0.00     0.014 A 
ATOM     41  C   UNL A   1      42.566  23.316  26.374  1.00  0.00     0.010 A 
ATOM     42  C   UNL A   1      42.175  22.137  28.454  1.00  0.00     0.010 A 
ATOM     43  C   UNL A   1      42.412  23.319  27.773  1.00  0.00    -0.014 A 
BRANCH  43  44
ATOM     44  C   UNL A   1      42.418  24.563  28.531  1.00  0.00     0.031 A 
ATOM     45  C   UNL A   1      41.205  25.400  28.348  1.00  0.00     0.074 A 
ATOM     46  C   UNL A   1      43.372  24.895  29.429  1.00  0.00     0.049 A 
ATOM     47  N   UNL A   1      41.110  26.462  27.619  1.00  0.00    -0.248 NA
ATOM     48  C   UNL A   1      39.919  24.919  28.871  1.00  0.00     0.031 C 
ATOM     49  C   UNL A   1      44.473  24.081  29.966  1.00  0.00     0.029 A 
ATOM     50  N   UNL A   1      43.481  26.039  30.155  1.00  0.00    -0.354 N 
ATOM     51  C   UNL A   1      39.814  26.932  27.803  1.00  0.00     0.074 A 
ATOM     52  C   UNL A   1      39.080  25.844  28.395  1.00  0.00     0.031 C 
ATOM     53  C   UNL A   1      44.946  24.647  31.098  1.00  0.00     0.029 A 
ATOM     54  C   UNL A   1      44.336  25.950  31.246  1.00  0.00     0.049 A 
ATOM     55  H   UNL A   1      42.994  26.862  29.925  1.00  0.00     0.167 HD
ATOM     56  C   UNL A   1      39.534  28.260  27.688  1.00  0.00     0.034 A 
ATOM     57  C   UNL A   1      44.507  26.882  32.215  1.00  0.00     0.034 A 
ATOM     58  C   UNL A   1      40.622  28.969  27.055  1.00  0.00     0.049 A 
ATOM     59  C   UNL A   1      44.062  28.174  31.642  1.00  0.00     0.074 A 
ATOM     60  C   UNL A   1      41.298  28.848  25.855  1.00  0.00     0.029 A 
ATOM     61  N   UNL A   1      41.447  29.705  27.874  1.00  0.00    -0.354 N 
ATOM     62  N   UNL A   1      44.682  28.774  30.664  1.00  0.00    -0.248 NA
ATOM     63  C   UNL A   1      42.677  28.564  31.843  1.00  0.00     0.031 C 
ATOM     64  C   UNL A   1      42.668  29.063  26.186  1.00  0.00     0.029 A 
ATOM     65  C   UNL A   1      42.738  29.388  27.543  1.00  0.00     0.049 A 
ATOM     66  H   UNL A   1      41.163  30.343  28.567  1.00  0.00     0.167 HD
ATOM     67  C   UNL A   1      43.661  29.241  29.849  1.00  0.00     0.074 A 
ATOM     68  C   UNL A   1      42.455  29.176  30.677  1.00  0.00     0.031 C 
ATOM     69  C   UNL A   1      43.826  29.358  28.497  1.00  0.00     0.034 A 
BRANCH  56  70
ATOM     70  C   UNL A   1      38.474  29.000  28.472  1.00  0.00     0.023 A 
ATOM     71  C   UNL A   1      37.678  29.925  27.758  1.00  0.00     0.012 A 
ATOM     72  C   UNL A   1      38.404  29.053  29.882  1.00  0.00     0.148 A 
ATOM     73  C   UNL A   1      36.912  30.897  28.412  1.00  0.00     0.002 A 
ATOM     74  C   UNL A   1      37.580  29.968  30.528  1.00  0.00     0.091 A 
ATOM     75  F   UNL A   1      39.228  28.311  30.624  1.00  0.00    -0.205 F 
ATOM     76  C   UNL A   1      36.861  30.916  29.798  1.00  0.00     0.022 A 
BRANCH  74  77
ATOM     77  S   UNL A   1      37.435  30.006  32.319  1.00  0.00     0.127 S 
ATOM     78  O   UNL A   1      38.741  30.532  32.706  1.00  0.00    -0.237 OA
ATOM     79  O   UNL A   1      36.314  30.928  32.506  1.00  0.00    -0.237 OA
ATOM     80  O   UNL A   1      37.150  28.634  32.719  1.00  0.00    -0.744 OA
ENDBRANCH  74  77
ENDBRANCH  56  70
BRANCH  57  81
ATOM     81  C   UNL A   1      44.799  26.721  33.656  1.00  0.00     0.023 A 
ATOM     82  C   UNL A   1      46.032  27.176  34.165  1.00  0.00     0.012 A 
ATOM     83  C   UNL A   1      43.771  26.413  34.576  1.00  0.00     0.148 A 
ATOM     84  C   UNL A   1      46.221  27.369  35.538  1.00  0.00     0.002 A 
ATOM     85  C   UNL A   1      43.965  26.607  35.941  1.00  0.00     0.091 A 
ATOM     86  F   UNL A   1      42.579  26.024  34.105  1.00  0.00    -0.205 F 
ATOM     87  C   UNL A   1      45.183  27.099  36.425  1.00  0.00     0.022 A 
BRANCH  85  88
ATOM     88  S   UNL A   1      42.661  26.317  37.145  1.00  0.00     0.127 S 
ATOM     89  O   UNL A   1      43.377  26.480  38.412  1.00  0.00    -0.237 OA
ATOM     90  O   UNL A   1      41.720  27.389  36.833  1.00  0.00    -0.237 OA
ATOM     91  O   UNL A   1      42.190  24.962  36.894  1.00  0.00    -0.744 OA
ENDBRANCH  85  88
ENDBRANCH  57  81
BRANCH  69  92
ATOM     92  C   UNL A   1      45.213  29.194  27.923  1.00  0.00     0.023 A 
ATOM     93  C   UNL A   1      46.157  30.242  27.898  1.00  0.00     0.012 A 
ATOM     94  C   UNL A   1      45.631  27.901  27.565  1.00  0.00     0.148 A 
ATOM     95  C   UNL A   1      47.479  30.010  27.507  1.00  0.00     0.002 A 
ATOM     96  C   UNL A   1      46.956  27.663  27.223  1.00  0.00     0.091 A 
ATOM     97  F   UNL A   1      44.725  26.912  27.595  1.00  0.00    -0.205 F 
ATOM     98  C   UNL A   1      47.883  28.716  27.183  1.00  0.00     0.022 A 
BRANCH  96  99
ATOM     99  S   UNL A   1      47.560  26.000  26.920  1.00  0.00     0.127 S 
ATOM    100  O   UNL A   1      47.230  25.322  28.171  1.00  0.00    -0.237 OA
ATOM    101  O   UNL A   1      46.761  25.580  25.766  1.00  0.00    -0.237 OA
ATOM    102  O   UNL A   1      48.984  26.137  26.635  1.00  0.00    -0.744 OA
ENDBRANCH  96  99
ENDBRANCH  69  92
ENDBRANCH  43  44
ENDBRANCH  35  38
ENDBRANCH  33  34
ENDBRANCH   1  33
TORSDOF 19
ENDMDL
MODEL 2
REMARK VINA RESULT:     -11.4      2.846      6.832
REMARK SMILES CCn1ncc(Br)c1C(=O)N[C@H]1C(=O)N2C(C(=O)NCCCNC(=O)c3ccc(-c4c5nc(c(-c6cccc(S(=O)(=O)[O-])c6F)c6ccc([nH]6)c(-c6cccc(S(=O)(=O)[O-])c6F)c6nc(c(-c7cccc(S(=O)(=O)[O-])c7F)c7ccc4[nH]7)C=C6)C=C5)cc3)=C(COC(C)=O)CS[C@H]12
REMARK SMILES IDX 21 1 20 2 19 3 17 4 18 5 16 7 12 8 13 9 97 10 14 11 15 12
REMARK SMILES IDX 96 13 95 14 89 15 11 16 9 17 10 18 8 20 3 21 4 22 5 23 6 24
REMARK SMILES IDX 7 25 2 26 1 27 90 28 91 29 92 30 93 31 94 32 22 33 23 34
REMARK SMILES IDX 24 35 25 37 26 38 27 39 88 40 28 41 87 42 29 43 30 44 31 45
REMARK SMILES IDX 81 46 32 47 86 48 80 49 82 50 33 51 85 52 79 53 78 54 34 56
REMARK SMILES IDX 66 57 46 58 65 59 47 60 50 61 64 62 83 63 48 64 49 65 63 67
REMARK SMILES IDX 84 68 51 69 35 70 36 71 44 72 37 73 39 74 45 75 38 76 40 77
REMARK SMILES IDX 41 78 42 79 43 80 67 81 68 82 76 83 69 84 71 85 77 86 70 87
REMARK SMILES IDX 72 88 73 89 74 90 75 91 52 92 53 93 61 94 54 95 56 96 62 97
REMARK SMILES IDX 55 98 57 99 58 100 59 101 60 102
REMARK H PARENT 19 6 11 19 23 36 82 55 50 66
REMARK Flexibility Score: inf
ROOT
ATOM      1  C   UNL A   1      37.173  22.218  24.808  1.00  0.00     0.042 C 
ENDROOT
BRANCH   1   2
ATOM      2  C   UNL A   1      36.713  20.986  25.581  1.00  0.00     0.118 C 
BRANCH   2   3
ATOM      3  N   UNL A   1      35.647  21.310  26.492  1.00  0.00    -0.351 N 
ATOM      4  C   UNL A   1      34.300  21.352  26.471  1.00  0.00     0.268 C 
ATOM      5  O   UNL A   1      33.847  21.628  27.587  1.00  0.00    -0.268 OA
ATOM      6  H   UNL A   1      35.999  21.574  27.372  1.00  0.00     0.163 HD
BRANCH   4   7
ATOM      7  C   UNL A   1      33.319  21.051  25.323  1.00  0.00     0.114 C 
ATOM      8  C   UNL A   1      31.680  23.680  23.786  1.00  0.00     0.206 C 
ATOM      9  C   UNL A   1      32.846  23.579  24.813  1.00  0.00     0.253 C 
ATOM     10  C   UNL A   1      31.623  22.181  23.941  1.00  0.00     0.181 C 
ATOM     11  O   UNL A   1      33.495  24.441  25.378  1.00  0.00    -0.272 OA
ATOM     12  N   UNL A   1      32.798  22.224  24.764  1.00  0.00    -0.290 N 
ATOM     13  S   UNL A   1      32.041  21.233  22.473  1.00  0.00    -0.129 SA
ATOM     14  C   UNL A   1      31.975  19.796  23.523  1.00  0.00     0.108 C 
ATOM     15  C   UNL A   1      32.878  19.870  24.757  1.00  0.00     0.007 C 
BRANCH   8  16
ATOM     16  N   UNL A   1      30.482  24.496  24.130  1.00  0.00    -0.336 N 
ATOM     17  C   UNL A   1      30.196  25.813  24.416  1.00  0.00     0.271 C 
ATOM     18  O   UNL A   1      29.075  26.008  24.892  1.00  0.00    -0.267 OA
ATOM     19  H   UNL A   1      29.670  23.940  24.162  1.00  0.00     0.164 HD
BRANCH  17  20
ATOM     20  C   UNL A   1      31.052  26.935  24.098  1.00  0.00     0.140 A 
ATOM     21  N   UNL A   1      31.622  27.325  22.896  1.00  0.00    -0.259 N 
ATOM     22  N   UNL A   1      32.371  28.450  22.998  1.00  0.00    -0.180 NA
ATOM     23  C   UNL A   1      32.498  28.635  24.309  1.00  0.00     0.151 A 
ATOM     24  C   UNL A   1      31.738  27.709  25.022  1.00  0.00     0.069 A 
ATOM     25  Br  UNL A   1      31.760  27.590  26.893  1.00  0.00    -0.047 Br
BRANCH  21  26
ATOM     26  C   UNL A   1      31.571  26.656  21.606  1.00  0.00     0.142 C 
ATOM     27  C   UNL A   1      32.823  25.848  21.239  1.00  0.00     0.029 C 
ENDBRANCH  21  26
ENDBRANCH  17  20
ENDBRANCH   8  16
BRANCH  15  28
ATOM     28  C   UNL A   1      32.987  18.429  25.186  1.00  0.00     0.267 C 
BRANCH  28  29
ATOM     29  O   UNL A   1      32.787  17.385  24.214  1.00  0.00    -0.461 OA
BRANCH  29  30
ATOM     30  C   UNL A   1      33.835  16.666  23.743  1.00  0.00     0.302 C 
ATOM     31  C   UNL A   1      34.654  16.102  24.867  1.00  0.00     0.139 C 
ATOM     32  O   UNL A   1      34.117  16.559  22.561  1.00  0.00    -0.253 OA
ENDBRANCH  29  30
ENDBRANCH  28  29
ENDBRANCH  15  28
ENDBRANCH   4   7
ENDBRANCH   2   3
ENDBRANCH   1   2
BRANCH   1  33
ATOM     33  C   UNL A   1      38.331  22.939  25.427  1.00  0.00     0.118 C 
BRANCH  33  34
ATOM     34  N   UNL A   1      39.074  22.065  26.338  1.00  0.00    -0.352 N 
ATOM     35  C   UNL A   1      40.133  22.431  27.146  1.00  0.00     0.251 C 
ATOM     36  H   UNL A   1      38.789  21.124  26.381  1.00  0.00     0.163 HD
ATOM     37  O   UNL A   1      40.914  21.595  27.582  1.00  0.00    -0.269 OA
BRANCH  35  38
ATOM     38  C   UNL A   1      40.291  23.865  27.434  1.00  0.00     0.039 A 
ATOM     39  C   UNL A   1      39.205  24.737  27.424  1.00  0.00     0.014 A 
ATOM     40  C   UNL A   1      41.541  24.277  27.879  1.00  0.00     0.014 A 
ATOM     41  C   UNL A   1      39.382  26.007  27.963  1.00  0.00     0.010 A 
ATOM     42  C   UNL A   1      41.631  25.410  28.637  1.00  0.00     0.010 A 
ATOM     43  C   UNL A   1      40.592  26.324  28.608  1.00  0.00    -0.014 A 
BRANCH  43  44
ATOM     44  C   UNL A   1      40.757  27.581  29.327  1.00  0.00     0.031 A 
ATOM     45  C   UNL A   1      41.842  28.450  28.804  1.00  0.00     0.074 A 
ATOM     46  C   UNL A   1      39.928  28.003  30.308  1.00  0.00     0.049 A 
ATOM     47  N   UNL A   1      43.013  28.611  29.324  1.00  0.00    -0.248 NA
ATOM     48  C   UNL A   1      41.690  29.062  27.476  1.00  0.00     0.031 C 
ATOM     49  C   UNL A   1      38.646  27.439  30.754  1.00  0.00     0.029 A 
ATOM     50  N   UNL A   1      40.019  29.136  31.053  1.00  0.00    -0.354 N 
ATOM     51  C   UNL A   1      43.655  29.552  28.527  1.00  0.00     0.074 A 
ATOM     52  C   UNL A   1      42.891  29.625  27.309  1.00  0.00     0.031 C 
ATOM     53  C   UNL A   1      37.970  28.361  31.473  1.00  0.00     0.029 A 
ATOM     54  C   UNL A   1      38.848  29.486  31.714  1.00  0.00     0.049 A 
ATOM     55  H   UNL A   1      40.846  29.664  31.119  1.00  0.00     0.167 HD
ATOM     56  C   UNL A   1      44.608  30.372  29.051  1.00  0.00     0.034 A 
ATOM     57  C   UNL A   1      38.617  30.636  32.392  1.00  0.00     0.034 A 
ATOM     58  C   UNL A   1      45.046  29.900  30.345  1.00  0.00     0.049 A 
ATOM     59  C   UNL A   1      39.944  31.185  32.757  1.00  0.00     0.074 A 
ATOM     60  C   UNL A   1      45.579  28.717  30.822  1.00  0.00     0.029 A 
ATOM     61  N   UNL A   1      44.557  30.560  31.448  1.00  0.00    -0.354 N 
ATOM     62  N   UNL A   1      40.751  30.604  33.601  1.00  0.00    -0.248 NA
ATOM     63  C   UNL A   1      40.563  32.128  31.841  1.00  0.00     0.031 C 
ATOM     64  C   UNL A   1      44.929  28.506  32.074  1.00  0.00     0.029 A 
ATOM     65  C   UNL A   1      44.110  29.608  32.327  1.00  0.00     0.049 A 
ATOM     66  H   UNL A   1      44.533  31.534  31.583  1.00  0.00     0.167 HD
ATOM     67  C   UNL A   1      42.005  30.738  33.020  1.00  0.00     0.074 A 
ATOM     68  C   UNL A   1      41.840  31.773  31.998  1.00  0.00     0.031 C 
ATOM     69  C   UNL A   1      42.981  29.801  33.212  1.00  0.00     0.034 A 
BRANCH  56  70
ATOM     70  C   UNL A   1      44.880  31.791  28.607  1.00  0.00     0.023 A 
ATOM     71  C   UNL A   1      43.809  32.710  28.704  1.00  0.00     0.012 A 
ATOM     72  C   UNL A   1      46.004  32.198  27.854  1.00  0.00     0.148 A 
ATOM     73  C   UNL A   1      43.826  33.934  28.027  1.00  0.00     0.002 A 
ATOM     74  C   UNL A   1      46.049  33.449  27.248  1.00  0.00     0.091 A 
ATOM     75  F   UNL A   1      46.990  31.337  27.599  1.00  0.00    -0.205 F 
ATOM     76  C   UNL A   1      44.949  34.305  27.301  1.00  0.00     0.022 A 
BRANCH  74  77
ATOM     77  S   UNL A   1      47.497  34.005  26.338  1.00  0.00     0.127 S 
ATOM     78  O   UNL A   1      46.884  34.627  25.168  1.00  0.00    -0.237 OA
ATOM     79  O   UNL A   1      48.106  34.934  27.289  1.00  0.00    -0.237 OA
ATOM     80  O   UNL A   1      48.287  32.806  26.088  1.00  0.00    -0.744 OA
ENDBRANCH  74  77
ENDBRANCH  56  70
BRANCH  57  81
ATOM     81  C   UNL A   1      37.372  31.418  32.552  1.00  0.00     0.023 A 
ATOM     82  C   UNL A   1      37.078  32.000  33.802  1.00  0.00     0.012 A 
ATOM     83  C   UNL A   1      36.637  31.852  31.425  1.00  0.00     0.148 A 
ATOM     84  C   UNL A   1      36.124  33.017  33.920  1.00  0.00     0.002 A 
ATOM     85  C   UNL A   1      35.688  32.864  31.549  1.00  0.00     0.091 A 
ATOM     86  F   UNL A   1      36.937  31.342  30.224  1.00  0.00    -0.205 F 
ATOM     87  C   UNL A   1      35.439  33.458  32.792  1.00  0.00     0.022 A 
BRANCH  85  88
ATOM     88  S   UNL A   1      34.791  33.515  30.134  1.00  0.00     0.127 S 
ATOM     89  O   UNL A   1      35.851  34.194  29.388  1.00  0.00    -0.237 OA
ATOM     90  O   UNL A   1      34.289  32.294  29.509  1.00  0.00    -0.237 OA
ATOM     91  O   UNL A   1      33.781  34.408  30.687  1.00  0.00    -0.744 OA
ENDBRANCH  85  88
ENDBRANCH  57  81
BRANCH  69  92
ATOM     92  C   UNL A   1      42.761  28.732  34.255  1.00  0.00     0.023 A 
ATOM     93  C   UNL A   1      41.954  27.597  34.026  1.00  0.00     0.012 A 
ATOM     94  C   UNL A   1      43.532  28.786  35.429  1.00  0.00     0.148 A 
ATOM     95  C   UNL A   1      41.903  26.553  34.955  1.00  0.00     0.002 A 
ATOM     96  C   UNL A   1      43.516  27.726  36.326  1.00  0.00     0.091 A 
ATOM     97  F   UNL A   1      44.297  29.868  35.634  1.00  0.00    -0.205 F 
ATOM     98  C   UNL A   1      42.696  26.610  36.099  1.00  0.00     0.022 A 
BRANCH  96  99
ATOM     99  S   UNL A   1      44.609  27.688  37.749  1.00  0.00     0.127 S 
ATOM    100  O   UNL A   1      45.863  27.223  37.161  1.00  0.00    -0.237 OA
ATOM    101  O   UNL A   1      44.617  29.089  38.179  1.00  0.00    -0.237 OA
ATOM    102  O   UNL A   1      43.989  26.780  38.707  1.00  0.00    -0.744 OA
ENDBRANCH  96  99
ENDBRANCH  69  92
ENDBRANCH  43  44
ENDBRANCH  35  38
ENDBRANCH  33  34
ENDBRANCH   1  33
TORSDOF 19
ENDMDL
MODEL 3
REMARK VINA RESULT:     -11.2      3.057      6.542
REMARK SMILES CCn1ncc(Br)c1C(=O)N[C@H]1C(=O)N2C(C(=O)NCCCNC(=O)c3ccc(-c4c5nc(c(-c6cccc(S(=O)(=O)[O-])c6F)c6ccc([nH]6)c(-c6cccc(S(=O)(=O)[O-])c6F)c6nc(c(-c7cccc(S(=O)(=O)[O-])c7F)c7ccc4[nH]7)C=C6)C=C5)cc3)=C(COC(C)=O)CS[C@H]12
REMARK SMILES IDX 21 1 20 2 19 3 17 4 18 5 16 7 12 8 13 9 97 10 14 11 15 12
REMARK SMILES IDX 96 13 95 14 89 15 11 16 9 17 10 18 8 20 3 21 4 22 5 23 6 24
REMARK SMILES IDX 7 25 2 26 1 27 90 28 91 29 92 30 93 31 94 32 22 33 23 34
REMARK SMILES IDX 24 35 25 37 26 38 27 39 88 40 28 41 87 42 29 43 30 44 31 45
REMARK SMILES IDX 81 46 32 47 86 48 80 49 82 50 33 51 85 52 79 53 78 54 34 56
REMARK SMILES IDX 66 57 46 58 65 59 47 60 50 61 64 62 83 63 48 64 49 65 63 67
REMARK SMILES IDX 84 68 51 69 35 70 36 71 44 72 37 73 39 74 45 75 38 76 40 77
REMARK SMILES IDX 41 78 42 79 43 80 67 81 68 82 76 83 69 84 71 85 77 86 70 87
REMARK SMILES IDX 72 88 73 89 74 90 75 91 52 92 53 93 61 94 54 95 56 96 62 97
REMARK SMILES IDX 55 98 57 99 58 100 59 101 60 102
REMARK H PARENT 19 6 11 19 23 36 82 55 50 66
REMARK Flexibility Score: inf
ROOT
ATOM      1  C   UNL A   1      37.410  21.729  24.406  1.00  0.00     0.042 C 
ENDROOT
BRANCH   1   2
ATOM      2  C   UNL A   1      36.704  20.492  24.953  1.00  0.00     0.118 C 
BRANCH   2   3
ATOM      3  N   UNL A   1      35.764  20.842  25.984  1.00  0.00    -0.351 N 
ATOM      4  C   UNL A   1      34.588  21.492  26.078  1.00  0.00     0.268 C 
ATOM      5  O   UNL A   1      34.140  21.439  27.228  1.00  0.00    -0.268 OA
ATOM      6  H   UNL A   1      36.062  20.515  26.864  1.00  0.00     0.163 HD
BRANCH   4   7
ATOM      7  C   UNL A   1      33.754  22.189  24.987  1.00  0.00     0.114 C 
ATOM      8  C   UNL A   1      34.070  25.606  24.560  1.00  0.00     0.206 C 
ATOM      9  C   UNL A   1      34.845  24.539  25.387  1.00  0.00     0.253 C 
ATOM     10  C   UNL A   1      33.164  24.451  24.214  1.00  0.00     0.181 C 
ATOM     11  O   UNL A   1      35.792  24.644  26.146  1.00  0.00    -0.272 OA
ATOM     12  N   UNL A   1      34.052  23.553  24.897  1.00  0.00    -0.290 N 
ATOM     13  S   UNL A   1      33.152  23.967  22.484  1.00  0.00    -0.129 SA
ATOM     14  C   UNL A   1      32.166  22.576  22.999  1.00  0.00     0.108 C 
ATOM     15  C   UNL A   1      32.799  21.724  24.102  1.00  0.00     0.007 C 
BRANCH   8  16
ATOM     16  N   UNL A   1      33.505  26.794  25.260  1.00  0.00    -0.336 N 
ATOM     17  C   UNL A   1      32.405  27.615  25.145  1.00  0.00     0.271 C 
ATOM     18  O   UNL A   1      32.461  28.652  25.810  1.00  0.00    -0.267 OA
ATOM     19  H   UNL A   1      34.077  27.067  26.013  1.00  0.00     0.164 HD
BRANCH  17  20
ATOM     20  C   UNL A   1      31.200  27.287  24.415  1.00  0.00     0.140 A 
ATOM     21  N   UNL A   1      30.562  27.950  23.379  1.00  0.00    -0.259 N 
ATOM     22  N   UNL A   1      29.442  27.321  22.947  1.00  0.00    -0.180 NA
ATOM     23  C   UNL A   1      29.215  26.395  23.876  1.00  0.00     0.151 A 
ATOM     24  C   UNL A   1      30.245  26.363  24.814  1.00  0.00     0.069 A 
ATOM     25  Br  UNL A   1      30.212  25.265  26.333  1.00  0.00    -0.047 Br
BRANCH  21  26
ATOM     26  C   UNL A   1      30.900  29.229  22.773  1.00  0.00     0.142 C 
ATOM     27  C   UNL A   1      29.784  29.873  21.940  1.00  0.00     0.029 C 
ENDBRANCH  21  26
ENDBRANCH  17  20
ENDBRANCH   8  16
BRANCH  15  28
ATOM     28  C   UNL A   1      32.029  20.432  24.018  1.00  0.00     0.267 C 
BRANCH  28  29
ATOM     29  O   UNL A   1      32.450  19.416  23.087  1.00  0.00    -0.461 OA
BRANCH  29  30
ATOM     30  C   UNL A   1      32.764  18.169  23.516  1.00  0.00     0.302 C 
ATOM     31  C   UNL A   1      33.019  18.154  24.994  1.00  0.00     0.139 C 
ATOM     32  O   UNL A   1      32.897  17.205  22.781  1.00  0.00    -0.253 OA
ENDBRANCH  29  30
ENDBRANCH  28  29
ENDBRANCH  15  28
ENDBRANCH   4   7
ENDBRANCH   2   3
ENDBRANCH   1   2
BRANCH   1  33
ATOM     33  C   UNL A   1      38.087  22.565  25.449  1.00  0.00     0.118 C 
BRANCH  33  34
ATOM     34  N   UNL A   1      38.886  21.738  26.357  1.00  0.00    -0.352 N 
ATOM     35  C   UNL A   1      39.996  22.141  27.072  1.00  0.00     0.251 C 
ATOM     36  H   UNL A   1      38.602  20.802  26.468  1.00  0.00     0.163 HD
ATOM     37  O   UNL A   1      40.802  21.325  27.501  1.00  0.00    -0.269 OA
BRANCH  35  38
ATOM     38  C   UNL A   1      40.175  23.586  27.272  1.00  0.00     0.039 A 
ATOM     39  C   UNL A   1      39.102  24.472  27.213  1.00  0.00     0.014 A 
ATOM     40  C   UNL A   1      41.434  24.007  27.685  1.00  0.00     0.014 A 
ATOM     41  C   UNL A   1      39.300  25.769  27.673  1.00  0.00     0.010 A 
ATOM     42  C   UNL A   1      41.544  25.183  28.372  1.00  0.00     0.010 A 
ATOM     43  C   UNL A   1      40.518  26.108  28.292  1.00  0.00    -0.014 A 
BRANCH  43  44
ATOM     44  C   UNL A   1      40.705  27.404  28.932  1.00  0.00     0.031 A 
ATOM     45  C   UNL A   1      41.707  28.277  28.271  1.00  0.00     0.074 A 
ATOM     46  C   UNL A   1      39.954  27.851  29.963  1.00  0.00     0.049 A 
ATOM     47  N   UNL A   1      42.914  28.498  28.673  1.00  0.00    -0.248 NA
ATOM     48  C   UNL A   1      41.415  28.817  26.935  1.00  0.00     0.031 C 
ATOM     49  C   UNL A   1      38.737  27.272  30.552  1.00  0.00     0.029 A 
ATOM     50  N   UNL A   1      40.072  29.022  30.642  1.00  0.00    -0.354 N 
ATOM     51  C   UNL A   1      43.449  29.417  27.776  1.00  0.00     0.074 A 
ATOM     52  C   UNL A   1      42.576  29.406  26.631  1.00  0.00     0.031 C 
ATOM     53  C   UNL A   1      38.098  28.210  31.286  1.00  0.00     0.029 A 
ATOM     54  C   UNL A   1      38.955  29.370  31.391  1.00  0.00     0.049 A 
ATOM     55  H   UNL A   1      40.884  29.577  30.607  1.00  0.00     0.167 HD
ATOM     56  C   UNL A   1      44.417  30.290  28.170  1.00  0.00     0.034 A 
ATOM     57  C   UNL A   1      38.748  30.546  32.032  1.00  0.00     0.034 A 
ATOM     58  C   UNL A   1      44.987  29.897  29.439  1.00  0.00     0.049 A 
ATOM     59  C   UNL A   1      40.083  31.151  32.246  1.00  0.00     0.074 A 
ATOM     60  C   UNL A   1      45.600  28.756  29.921  1.00  0.00     0.029 A 
ATOM     61  N   UNL A   1      44.577  30.598  30.550  1.00  0.00    -0.354 N 
ATOM     62  N   UNL A   1      40.982  30.638  33.039  1.00  0.00    -0.248 NA
ATOM     63  C   UNL A   1      40.584  32.065  31.234  1.00  0.00     0.031 C 
ATOM     64  C   UNL A   1      45.074  28.589  31.237  1.00  0.00     0.029 A 
ATOM     65  C   UNL A   1      44.244  29.679  31.511  1.00  0.00     0.049 A 
ATOM     66  H   UNL A   1      44.533  31.576  30.640  1.00  0.00     0.167 HD
ATOM     67  C   UNL A   1      42.173  30.779  32.340  1.00  0.00     0.074 A 
ATOM     68  C   UNL A   1      41.882  31.756  31.289  1.00  0.00     0.031 C 
ATOM     69  C   UNL A   1      43.194  29.883  32.485  1.00  0.00     0.034 A 
BRANCH  56  70
ATOM     70  C   UNL A   1      44.600  31.692  27.636  1.00  0.00     0.023 A 
ATOM     71  C   UNL A   1      45.764  31.940  26.872  1.00  0.00     0.012 A 
ATOM     72  C   UNL A   1      43.866  32.820  28.065  1.00  0.00     0.148 A 
ATOM     73  C   UNL A   1      46.212  33.240  26.613  1.00  0.00     0.002 A 
ATOM     74  C   UNL A   1      44.271  34.110  27.737  1.00  0.00     0.091 A 
ATOM     75  F   UNL A   1      42.839  32.675  28.904  1.00  0.00    -0.205 F 
ATOM     76  C   UNL A   1      45.463  34.326  27.044  1.00  0.00     0.022 A 
BRANCH  74  77
ATOM     77  S   UNL A   1      43.314  35.552  28.224  1.00  0.00     0.127 S 
ATOM     78  O   UNL A   1      42.109  35.387  27.416  1.00  0.00    -0.237 OA
ATOM     79  O   UNL A   1      43.138  35.320  29.657  1.00  0.00    -0.237 OA
ATOM     80  O   UNL A   1      44.149  36.703  27.904  1.00  0.00    -0.744 OA
ENDBRANCH  74  77
ENDBRANCH  56  70
BRANCH  57  81
ATOM     81  C   UNL A   1      37.497  31.298  32.269  1.00  0.00     0.023 A 
ATOM     82  C   UNL A   1      37.233  31.813  33.554  1.00  0.00     0.012 A 
ATOM     83  C   UNL A   1      36.720  31.775  31.188  1.00  0.00     0.148 A 
ATOM     84  C   UNL A   1      36.267  32.806  33.752  1.00  0.00     0.002 A 
ATOM     85  C   UNL A   1      35.761  32.764  31.390  1.00  0.00     0.091 A 
ATOM     86  F   UNL A   1      36.991  31.331  29.954  1.00  0.00    -0.205 F 
ATOM     87  C   UNL A   1      35.541  33.291  32.668  1.00  0.00     0.022 A 
BRANCH  85  88
ATOM     88  S   UNL A   1      34.810  33.469  30.037  1.00  0.00     0.127 S 
ATOM     89  O   UNL A   1      33.831  34.291  30.751  1.00  0.00    -0.237 OA
ATOM     90  O   UNL A   1      35.830  34.223  29.314  1.00  0.00    -0.237 OA
ATOM     91  O   UNL A   1      34.235  32.333  29.329  1.00  0.00    -0.744 OA
ENDBRANCH  85  88
ENDBRANCH  57  81
BRANCH  69  92
ATOM     92  C   UNL A   1      43.106  28.861  33.594  1.00  0.00     0.023 A 
ATOM     93  C   UNL A   1      42.638  27.547  33.385  1.00  0.00     0.012 A 
ATOM     94  C   UNL A   1      43.679  29.184  34.836  1.00  0.00     0.148 A 
ATOM     95  C   UNL A   1      42.720  26.585  34.397  1.00  0.00     0.002 A 
ATOM     96  C   UNL A   1      43.804  28.214  35.822  1.00  0.00     0.091 A 
ATOM     97  F   UNL A   1      44.123  30.436  35.022  1.00  0.00    -0.205 F 
ATOM     98  C   UNL A   1      43.317  26.915  35.612  1.00  0.00     0.022 A 
BRANCH  96  99
ATOM     99  S   UNL A   1      44.675  28.547  37.356  1.00  0.00     0.127 S 
ATOM    100  O   UNL A   1      44.444  27.318  38.112  1.00  0.00    -0.237 OA
ATOM    101  O   UNL A   1      46.054  28.737  36.901  1.00  0.00    -0.237 OA
ATOM    102  O   UNL A   1      44.064  29.749  37.912  1.00  0.00    -0.744 OA
ENDBRANCH  96  99
ENDBRANCH  69  92
ENDBRANCH  43  44
ENDBRANCH  35  38
ENDBRANCH  33  34
ENDBRANCH   1  33
TORSDOF 19
ENDMDL
