MODEL 1
REMARK VINA RESULT:     -12.0      0.000      0.000
REMARK SMILES COc1cccc(-c2c([C@H]3c4ccccc4C(=O)N3CC(=O)NCCCNC(=O)c3ccc(-c4c5nc(c(-c6cccc(S(=O)(=O)[O-])c6F)c6ccc([nH]6)c(-c6cccc(S(=O)(=O)[O-])c6F)c6nc(c(-c7cccc(S(=O)(=O)[O-])c7F)c7ccc4[nH]7)C=C6)C=C5)cc3)c3ccccc3n2C)c1
REMARK SMILES IDX 24 1 23 2 21 3 22 4 20 6 19 7 10 8 11 9 12 10 16 11 17 12
REMARK SMILES IDX 13 13 15 14 18 15 14 16 9 17 8 18 99 19 93 20 98 21 100 22
REMARK SMILES IDX 94 23 97 24 95 25 96 26 7 27 3 28 4 29 101 30 5 31 6 32 2 33
REMARK SMILES IDX 1 34 25 35 26 36 27 37 28 38 29 40 30 41 31 42 92 43 32 44
REMARK SMILES IDX 91 45 33 46 34 47 35 48 85 49 36 50 90 51 84 52 86 53 37 54
REMARK SMILES IDX 89 55 83 56 82 57 38 59 70 60 50 61 69 62 51 63 54 64 68 65
REMARK SMILES IDX 87 66 52 67 53 68 67 70 88 71 55 72 39 73 40 74 48 75 41 76
REMARK SMILES IDX 43 77 49 78 42 79 44 80 45 81 46 82 47 83 71 84 72 85 80 86
REMARK SMILES IDX 73 87 75 88 81 89 74 90 76 91 77 92 78 93 79 94 56 95 57 96
REMARK SMILES IDX 65 97 58 98 60 99 66 100 59 101 61 102 62 103 63 104 64 105
REMARK H PARENT 23 5 27 39 86 58 54 69
REMARK Flexibility Score: inf
ROOT
ATOM      1  C   UNL A   1      36.830  21.282  24.891  1.00  0.00     0.117 C 
ENDROOT
BRANCH   1   2
ATOM      2  N   UNL A   1      35.682  20.939  25.713  1.00  0.00    -0.354 N 
ATOM      3  C   UNL A   1      34.881  21.815  26.390  1.00  0.00     0.239 C 
ATOM      4  O   UNL A   1      34.182  21.402  27.316  1.00  0.00    -0.273 OA
ATOM      5  H   UNL A   1      35.460  19.983  25.790  1.00  0.00     0.163 HD
BRANCH   3   6
ATOM      6  C   UNL A   1      34.837  23.269  25.944  1.00  0.00     0.220 C 
BRANCH   6   7
ATOM      7  N   UNL A   1      33.925  23.667  24.870  1.00  0.00    -0.318 N 
ATOM      8  C   UNL A   1      33.065  24.799  25.172  1.00  0.00     0.150 C 
ATOM      9  C   UNL A   1      31.843  24.057  25.662  1.00  0.00    -0.008 A 
ATOM     10  C   UNL A   1      31.101  24.229  26.819  1.00  0.00     0.007 A 
ATOM     11  C   UNL A   1      31.788  22.826  25.009  1.00  0.00     0.045 A 
ATOM     12  C   UNL A   1      33.095  22.635  24.381  1.00  0.00     0.255 C 
ATOM     13  C   UNL A   1      30.299  23.165  27.266  1.00  0.00     0.000 A 
ATOM     14  C   UNL A   1      30.970  21.777  25.394  1.00  0.00     0.014 A 
ATOM     15  O   UNL A   1      33.392  21.591  23.833  1.00  0.00    -0.269 OA
ATOM     16  C   UNL A   1      30.219  21.956  26.549  1.00  0.00     0.001 A 
BRANCH   8  17
ATOM     17  C   UNL A   1      32.659  25.601  23.945  1.00  0.00     0.013 A 
ATOM     18  C   UNL A   1      32.204  26.927  23.980  1.00  0.00     0.055 A 
ATOM     19  N   UNL A   1      31.705  27.222  22.727  1.00  0.00    -0.343 N 
ATOM     20  C   UNL A   1      32.779  25.270  22.546  1.00  0.00     0.006 A 
ATOM     21  C   UNL A   1      32.159  26.289  21.815  1.00  0.00     0.049 A 
ATOM     22  C   UNL A   1      30.850  28.342  22.399  1.00  0.00     0.150 C 
ATOM     23  C   UNL A   1      33.357  24.200  21.823  1.00  0.00     0.011 A 
ATOM     24  C   UNL A   1      32.063  26.246  20.409  1.00  0.00     0.027 A 
ATOM     25  C   UNL A   1      33.284  24.161  20.426  1.00  0.00     0.001 A 
ATOM     26  C   UNL A   1      32.636  25.169  19.730  1.00  0.00     0.002 A 
BRANCH  18  27
ATOM     27  C   UNL A   1      32.272  27.820  25.142  1.00  0.00     0.002 A 
ATOM     28  C   UNL A   1      33.778  29.141  26.528  1.00  0.00     0.119 A 
ATOM     29  C   UNL A   1      32.834  29.110  27.552  1.00  0.00     0.046 A 
ATOM     30  C   UNL A   1      33.455  28.566  25.304  1.00  0.00     0.056 A 
ATOM     31  C   UNL A   1      31.607  28.465  27.369  1.00  0.00     0.005 A 
ATOM     32  C   UNL A   1      31.334  27.797  26.172  1.00  0.00     0.010 A 
BRANCH  28  33
ATOM     33  O   UNL A   1      34.988  29.699  26.841  1.00  0.00    -0.497 OA
ATOM     34  C   UNL A   1      34.946  30.910  27.598  1.00  0.00     0.278 C 
ENDBRANCH  28  33
ENDBRANCH  18  27
ENDBRANCH   8  17
ENDBRANCH   6   7
ENDBRANCH   3   6
ENDBRANCH   1   2
BRANCH   1  35
ATOM     35  C   UNL A   1      37.903  20.214  25.037  1.00  0.00     0.042 C 
BRANCH  35  36
ATOM     36  C   UNL A   1      39.125  20.711  25.775  1.00  0.00     0.118 C 
BRANCH  36  37
ATOM     37  N   UNL A   1      40.037  19.609  26.034  1.00  0.00    -0.352 N 
ATOM     38  C   UNL A   1      41.410  19.616  26.073  1.00  0.00     0.251 C 
ATOM     39  H   UNL A   1      39.612  18.738  26.205  1.00  0.00     0.163 HD
ATOM     40  O   UNL A   1      42.008  18.559  25.887  1.00  0.00    -0.269 OA
BRANCH  38  41
ATOM     41  C   UNL A   1      42.170  20.859  26.359  1.00  0.00     0.039 A 
ATOM     42  C   UNL A   1      42.410  21.215  27.691  1.00  0.00     0.014 A 
ATOM     43  C   UNL A   1      42.547  21.739  25.341  1.00  0.00     0.014 A 
ATOM     44  C   UNL A   1      43.005  22.445  27.993  1.00  0.00     0.010 A 
ATOM     45  C   UNL A   1      43.244  22.904  25.634  1.00  0.00     0.010 A 
ATOM     46  C   UNL A   1      43.422  23.302  26.964  1.00  0.00    -0.014 A 
BRANCH  46  47
ATOM     47  C   UNL A   1      43.958  24.659  27.244  1.00  0.00     0.031 A 
ATOM     48  C   UNL A   1      43.050  25.719  27.819  1.00  0.00     0.074 A 
ATOM     49  C   UNL A   1      45.227  24.963  26.914  1.00  0.00     0.049 A 
ATOM     50  N   UNL A   1      43.305  26.975  28.076  1.00  0.00    -0.248 NA
ATOM     51  C   UNL A   1      41.658  25.326  28.105  1.00  0.00     0.031 C 
ATOM     52  C   UNL A   1      46.174  24.054  26.268  1.00  0.00     0.029 A 
ATOM     53  N   UNL A   1      45.928  26.133  27.052  1.00  0.00    -0.354 N 
ATOM     54  C   UNL A   1      42.101  27.530  28.498  1.00  0.00     0.074 A 
ATOM     55  C   UNL A   1      41.105  26.486  28.427  1.00  0.00     0.031 C 
ATOM     56  C   UNL A   1      47.335  24.699  26.069  1.00  0.00     0.029 A 
ATOM     57  C   UNL A   1      47.208  26.070  26.555  1.00  0.00     0.049 A 
ATOM     58  H   UNL A   1      45.551  26.943  27.467  1.00  0.00     0.167 HD
ATOM     59  C   UNL A   1      41.850  28.785  28.942  1.00  0.00     0.034 A 
ATOM     60  C   UNL A   1      48.171  27.010  26.501  1.00  0.00     0.034 A 
ATOM     61  C   UNL A   1      42.862  29.794  29.093  1.00  0.00     0.049 A 
ATOM     62  C   UNL A   1      47.900  28.366  27.096  1.00  0.00     0.074 A 
ATOM     63  C   UNL A   1      42.744  31.055  29.648  1.00  0.00     0.029 A 
ATOM     64  N   UNL A   1      44.182  29.651  28.695  1.00  0.00    -0.354 N 
ATOM     65  N   UNL A   1      46.802  28.818  27.652  1.00  0.00    -0.248 NA
ATOM     66  C   UNL A   1      49.012  29.328  27.095  1.00  0.00     0.031 C 
ATOM     67  C   UNL A   1      43.994  31.681  29.576  1.00  0.00     0.029 A 
ATOM     68  C   UNL A   1      44.891  30.803  28.987  1.00  0.00     0.049 A 
ATOM     69  H   UNL A   1      44.559  28.850  28.267  1.00  0.00     0.167 HD
ATOM     70  C   UNL A   1      47.096  30.104  28.091  1.00  0.00     0.074 A 
ATOM     71  C   UNL A   1      48.486  30.349  27.758  1.00  0.00     0.031 C 
ATOM     72  C   UNL A   1      46.287  31.008  28.696  1.00  0.00     0.034 A 
BRANCH  59  73
ATOM     73  C   UNL A   1      40.442  29.111  29.366  1.00  0.00     0.023 A 
ATOM     74  C   UNL A   1      39.533  29.627  28.420  1.00  0.00     0.012 A 
ATOM     75  C   UNL A   1      40.002  28.869  30.683  1.00  0.00     0.148 A 
ATOM     76  C   UNL A   1      38.223  29.935  28.782  1.00  0.00     0.002 A 
ATOM     77  C   UNL A   1      38.680  29.138  31.027  1.00  0.00     0.091 A 
ATOM     78  F   UNL A   1      40.882  28.402  31.579  1.00  0.00    -0.205 F 
ATOM     79  C   UNL A   1      37.794  29.680  30.083  1.00  0.00     0.022 A 
BRANCH  77  80
ATOM     80  S   UNL A   1      38.015  28.771  32.655  1.00  0.00     0.127 S 
ATOM     81  O   UNL A   1      38.896  29.557  33.518  1.00  0.00    -0.237 OA
ATOM     82  O   UNL A   1      36.647  29.282  32.556  1.00  0.00    -0.237 OA
ATOM     83  O   UNL A   1      38.108  27.326  32.806  1.00  0.00    -0.744 OA
ENDBRANCH  77  80
ENDBRANCH  59  73
BRANCH  60  84
ATOM     84  C   UNL A   1      49.510  26.660  25.948  1.00  0.00     0.023 A 
ATOM     85  C   UNL A   1      50.370  25.841  26.702  1.00  0.00     0.012 A 
ATOM     86  C   UNL A   1      49.908  27.078  24.663  1.00  0.00     0.148 A 
ATOM     87  C   UNL A   1      51.613  25.460  26.197  1.00  0.00     0.002 A 
ATOM     88  C   UNL A   1      51.127  26.656  24.146  1.00  0.00     0.091 A 
ATOM     89  F   UNL A   1      49.078  27.868  23.966  1.00  0.00    -0.205 F 
ATOM     90  C   UNL A   1      51.987  25.857  24.916  1.00  0.00     0.022 A 
BRANCH  88  91
ATOM     91  S   UNL A   1      51.639  27.017  22.461  1.00  0.00     0.127 S 
ATOM     92  O   UNL A   1      50.451  26.637  21.700  1.00  0.00    -0.237 OA
ATOM     93  O   UNL A   1      51.896  28.457  22.522  1.00  0.00    -0.237 OA
ATOM     94  O   UNL A   1      52.825  26.205  22.227  1.00  0.00    -0.744 OA
ENDBRANCH  88  91
ENDBRANCH  60  84
BRANCH  72  95
ATOM     95  C   UNL A   1      46.879  32.345  29.053  1.00  0.00     0.023 A 
ATOM     96  C   UNL A   1      47.388  32.552  30.350  1.00  0.00     0.012 A 
ATOM     97  C   UNL A   1      47.009  33.362  28.088  1.00  0.00     0.148 A 
ATOM     98  C   UNL A   1      47.991  33.762  30.690  1.00  0.00     0.002 A 
ATOM     99  C   UNL A   1      47.650  34.549  28.421  1.00  0.00     0.091 A 
ATOM    100  F   UNL A   1      46.501  33.152  26.863  1.00  0.00    -0.205 F 
ATOM    101  C   UNL A   1      48.133  34.754  29.723  1.00  0.00     0.022 A 
BRANCH  99 102
ATOM    102  S   UNL A   1      47.958  35.840  27.209  1.00  0.00     0.127 S 
ATOM    103  O   UNL A   1      48.710  35.116  26.186  1.00  0.00    -0.237 OA
ATOM    104  O   UNL A   1      46.604  36.227  26.810  1.00  0.00    -0.237 OA
ATOM    105  O   UNL A   1      48.694  36.879  27.916  1.00  0.00    -0.744 OA
ENDBRANCH  99 102
ENDBRANCH  72  95
ENDBRANCH  46  47
ENDBRANCH  38  41
ENDBRANCH  36  37
ENDBRANCH  35  36
ENDBRANCH   1  35
TORSDOF 17
ENDMDL
MODEL 2
REMARK VINA RESULT:     -11.9      4.620      8.419
REMARK SMILES COc1cccc(-c2c([C@H]3c4ccccc4C(=O)N3CC(=O)NCCCNC(=O)c3ccc(-c4c5nc(c(-c6cccc(S(=O)(=O)[O-])c6F)c6ccc([nH]6)c(-c6cccc(S(=O)(=O)[O-])c6F)c6nc(c(-c7cccc(S(=O)(=O)[O-])c7F)c7ccc4[nH]7)C=C6)C=C5)cc3)c3ccccc3n2C)c1
REMARK SMILES IDX 24 1 23 2 21 3 22 4 20 6 19 7 10 8 11 9 12 10 16 11 17 12
REMARK SMILES IDX 13 13 15 14 18 15 14 16 9 17 8 18 99 19 93 20 98 21 100 22
REMARK SMILES IDX 94 23 97 24 95 25 96 26 7 27 3 28 4 29 101 30 5 31 6 32 2 33
REMARK SMILES IDX 1 34 25 35 26 36 27 37 28 38 29 40 30 41 31 42 92 43 32 44
REMARK SMILES IDX 91 45 33 46 34 47 35 48 85 49 36 50 90 51 84 52 86 53 37 54
REMARK SMILES IDX 89 55 83 56 82 57 38 59 70 60 50 61 69 62 51 63 54 64 68 65
REMARK SMILES IDX 87 66 52 67 53 68 67 70 88 71 55 72 39 73 40 74 48 75 41 76
REMARK SMILES IDX 43 77 49 78 42 79 44 80 45 81 46 82 47 83 71 84 72 85 80 86
REMARK SMILES IDX 73 87 75 88 81 89 74 90 76 91 77 92 78 93 79 94 56 95 57 96
REMARK SMILES IDX 65 97 58 98 60 99 66 100 59 101 61 102 62 103 63 104 64 105
REMARK H PARENT 23 5 27 39 86 58 54 69
REMARK Flexibility Score: inf
ROOT
ATOM      1  C   UNL A   1      32.059  26.788  25.562  1.00  0.00     0.117 C 
ENDROOT
BRANCH   1   2
ATOM      2  N   UNL A   1      31.092  26.037  26.344  1.00  0.00    -0.354 N 
ATOM      3  C   UNL A   1      31.241  24.757  26.801  1.00  0.00     0.239 C 
ATOM      4  O   UNL A   1      30.243  24.115  27.131  1.00  0.00    -0.273 OA
ATOM      5  H   UNL A   1      30.250  26.494  26.567  1.00  0.00     0.163 HD
BRANCH   3   6
ATOM      6  C   UNL A   1      32.642  24.181  26.936  1.00  0.00     0.220 C 
BRANCH   6   7
ATOM      7  N   UNL A   1      33.036  23.041  26.105  1.00  0.00    -0.318 N 
ATOM      8  C   UNL A   1      34.384  23.102  25.566  1.00  0.00     0.150 C 
ATOM      9  C   UNL A   1      34.084  23.722  24.220  1.00  0.00    -0.008 A 
ATOM     10  C   UNL A   1      34.661  24.814  23.594  1.00  0.00     0.007 A 
ATOM     11  C   UNL A   1      32.803  23.330  23.834  1.00  0.00     0.045 A 
ATOM     12  C   UNL A   1      32.170  22.764  25.026  1.00  0.00     0.255 C 
ATOM     13  C   UNL A   1      33.942  25.460  22.574  1.00  0.00     0.000 A 
ATOM     14  C   UNL A   1      32.090  23.912  22.800  1.00  0.00     0.014 A 
ATOM     15  O   UNL A   1      30.998  22.440  25.031  1.00  0.00    -0.269 OA
ATOM     16  C   UNL A   1      32.675  25.001  22.167  1.00  0.00     0.001 A 
BRANCH   8  17
ATOM     17  C   UNL A   1      35.005  21.736  25.318  1.00  0.00     0.013 A 
ATOM     18  C   UNL A   1      36.384  21.484  25.292  1.00  0.00     0.055 A 
ATOM     19  N   UNL A   1      36.558  20.206  24.801  1.00  0.00    -0.343 N 
ATOM     20  C   UNL A   1      34.374  20.442  25.211  1.00  0.00     0.006 A 
ATOM     21  C   UNL A   1      35.364  19.515  24.869  1.00  0.00     0.049 A 
ATOM     22  C   UNL A   1      37.799  19.653  24.301  1.00  0.00     0.150 C 
ATOM     23  C   UNL A   1      33.052  19.965  25.372  1.00  0.00     0.011 A 
ATOM     24  C   UNL A   1      35.067  18.156  24.644  1.00  0.00     0.027 A 
ATOM     25  C   UNL A   1      32.753  18.612  25.171  1.00  0.00     0.001 A 
ATOM     26  C   UNL A   1      33.749  17.722  24.802  1.00  0.00     0.002 A 
BRANCH  18  27
ATOM     27  C   UNL A   1      37.428  22.418  25.728  1.00  0.00     0.002 A 
ATOM     28  C   UNL A   1      39.580  22.582  26.856  1.00  0.00     0.119 A 
ATOM     29  C   UNL A   1      39.322  23.926  27.116  1.00  0.00     0.046 A 
ATOM     30  C   UNL A   1      38.669  21.861  26.093  1.00  0.00     0.056 A 
ATOM     31  C   UNL A   1      38.141  24.524  26.664  1.00  0.00     0.005 A 
ATOM     32  C   UNL A   1      37.180  23.764  25.990  1.00  0.00     0.010 A 
BRANCH  28  33
ATOM     33  O   UNL A   1      40.709  22.063  27.433  1.00  0.00    -0.497 OA
ATOM     34  C   UNL A   1      40.988  20.692  27.147  1.00  0.00     0.278 C 
ENDBRANCH  28  33
ENDBRANCH  18  27
ENDBRANCH   8  17
ENDBRANCH   6   7
ENDBRANCH   3   6
ENDBRANCH   1   2
BRANCH   1  35
ATOM     35  C   UNL A   1      32.006  28.256  25.954  1.00  0.00     0.042 C 
BRANCH  35  36
ATOM     36  C   UNL A   1      33.379  28.858  26.151  1.00  0.00     0.118 C 
BRANCH  36  37
ATOM     37  N   UNL A   1      33.277  30.299  26.308  1.00  0.00    -0.352 N 
ATOM     38  C   UNL A   1      33.905  31.115  27.218  1.00  0.00     0.251 C 
ATOM     39  H   UNL A   1      32.676  30.753  25.675  1.00  0.00     0.163 HD
ATOM     40  O   UNL A   1      33.398  32.204  27.478  1.00  0.00    -0.269 OA
BRANCH  38  41
ATOM     41  C   UNL A   1      35.182  30.718  27.863  1.00  0.00     0.039 A 
ATOM     42  C   UNL A   1      35.344  29.393  28.283  1.00  0.00     0.014 A 
ATOM     43  C   UNL A   1      36.172  31.655  28.168  1.00  0.00     0.014 A 
ATOM     44  C   UNL A   1      36.479  29.022  29.013  1.00  0.00     0.010 A 
ATOM     45  C   UNL A   1      37.353  31.262  28.786  1.00  0.00     0.010 A 
ATOM     46  C   UNL A   1      37.491  29.958  29.274  1.00  0.00    -0.014 A 
BRANCH  46  47
ATOM     47  C   UNL A   1      38.657  29.632  30.134  1.00  0.00     0.031 A 
ATOM     48  C   UNL A   1      38.781  30.264  31.500  1.00  0.00     0.074 A 
ATOM     49  C   UNL A   1      39.637  28.835  29.667  1.00  0.00     0.049 A 
ATOM     50  N   UNL A   1      39.747  30.160  32.375  1.00  0.00    -0.248 NA
ATOM     51  C   UNL A   1      37.695  31.167  31.921  1.00  0.00     0.031 C 
ATOM     52  C   UNL A   1      39.677  28.239  28.332  1.00  0.00     0.029 A 
ATOM     53  N   UNL A   1      40.802  28.415  30.256  1.00  0.00    -0.354 N 
ATOM     54  C   UNL A   1      39.413  31.019  33.416  1.00  0.00     0.074 A 
ATOM     55  C   UNL A   1      38.175  31.667  33.050  1.00  0.00     0.031 C 
ATOM     56  C   UNL A   1      40.808  27.526  28.204  1.00  0.00     0.029 A 
ATOM     57  C   UNL A   1      41.579  27.630  29.439  1.00  0.00     0.049 A 
ATOM     58  H   UNL A   1      41.057  28.653  31.178  1.00  0.00     0.167 HD
ATOM     59  C   UNL A   1      40.056  31.225  34.591  1.00  0.00     0.034 A 
ATOM     60  C   UNL A   1      42.777  27.056  29.663  1.00  0.00     0.034 A 
ATOM     61  C   UNL A   1      41.239  30.513  34.987  1.00  0.00     0.049 A 
ATOM     62  C   UNL A   1      43.421  27.215  31.014  1.00  0.00     0.074 A 
ATOM     63  C   UNL A   1      41.901  30.551  36.200  1.00  0.00     0.029 A 
ATOM     64  N   UNL A   1      41.933  29.625  34.178  1.00  0.00    -0.354 N 
ATOM     65  N   UNL A   1      43.000  27.895  32.054  1.00  0.00    -0.248 NA
ATOM     66  C   UNL A   1      44.683  26.495  31.240  1.00  0.00     0.031 C 
ATOM     67  C   UNL A   1      43.003  29.691  36.122  1.00  0.00     0.029 A 
ATOM     68  C   UNL A   1      43.019  29.111  34.863  1.00  0.00     0.049 A 
ATOM     69  H   UNL A   1      41.689  29.396  33.253  1.00  0.00     0.167 HD
ATOM     70  C   UNL A   1      43.927  27.665  33.063  1.00  0.00     0.074 A 
ATOM     71  C   UNL A   1      44.920  26.761  32.517  1.00  0.00     0.031 C 
ATOM     72  C   UNL A   1      43.966  28.171  34.320  1.00  0.00     0.034 A 
BRANCH  59  73
ATOM     73  C   UNL A   1      39.449  32.205  35.560  1.00  0.00     0.023 A 
ATOM     74  C   UNL A   1      38.383  31.795  36.386  1.00  0.00     0.012 A 
ATOM     75  C   UNL A   1      39.955  33.514  35.686  1.00  0.00     0.148 A 
ATOM     76  C   UNL A   1      37.804  32.680  37.295  1.00  0.00     0.002 A 
ATOM     77  C   UNL A   1      39.400  34.378  36.626  1.00  0.00     0.091 A 
ATOM     78  F   UNL A   1      40.951  33.899  34.877  1.00  0.00    -0.205 F 
ATOM     79  C   UNL A   1      38.319  33.967  37.422  1.00  0.00     0.022 A 
BRANCH  77  80
ATOM     80  S   UNL A   1      40.045  36.030  36.915  1.00  0.00     0.127 S 
ATOM     81  O   UNL A   1      41.461  35.756  37.157  1.00  0.00    -0.237 OA
ATOM     82  O   UNL A   1      39.764  36.702  35.646  1.00  0.00    -0.237 OA
ATOM     83  O   UNL A   1      39.301  36.553  38.052  1.00  0.00    -0.744 OA
ENDBRANCH  77  80
ENDBRANCH  59  73
BRANCH  60  84
ATOM     84  C   UNL A   1      43.389  26.198  28.610  1.00  0.00     0.023 A 
ATOM     85  C   UNL A   1      42.946  24.870  28.464  1.00  0.00     0.012 A 
ATOM     86  C   UNL A   1      44.354  26.704  27.716  1.00  0.00     0.148 A 
ATOM     87  C   UNL A   1      43.468  24.052  27.462  1.00  0.00     0.002 A 
ATOM     88  C   UNL A   1      44.835  25.898  26.691  1.00  0.00     0.091 A 
ATOM     89  F   UNL A   1      44.770  27.968  27.880  1.00  0.00    -0.205 F 
ATOM     90  C   UNL A   1      44.403  24.568  26.569  1.00  0.00     0.022 A 
BRANCH  88  91
ATOM     91  S   UNL A   1      45.948  26.514  25.420  1.00  0.00     0.127 S 
ATOM     92  O   UNL A   1      47.128  26.872  26.205  1.00  0.00    -0.237 OA
ATOM     93  O   UNL A   1      46.114  25.339  24.564  1.00  0.00    -0.237 OA
ATOM     94  O   UNL A   1      45.250  27.625  24.789  1.00  0.00    -0.744 OA
ENDBRANCH  88  91
ENDBRANCH  60  84
BRANCH  72  95
ATOM     95  C   UNL A   1      45.110  27.752  35.205  1.00  0.00     0.023 A 
ATOM     96  C   UNL A   1      46.272  28.546  35.255  1.00  0.00     0.012 A 
ATOM     97  C   UNL A   1      45.002  26.628  36.046  1.00  0.00     0.148 A 
ATOM     98  C   UNL A   1      47.323  28.211  36.109  1.00  0.00     0.002 A 
ATOM     99  C   UNL A   1      46.035  26.324  36.925  1.00  0.00     0.091 A 
ATOM    100  F   UNL A   1      43.895  25.873  35.969  1.00  0.00    -0.205 F 
ATOM    101  C   UNL A   1      47.199  27.109  36.950  1.00  0.00     0.022 A 
BRANCH  99 102
ATOM    102  S   UNL A   1      45.916  24.978  38.109  1.00  0.00     0.127 S 
ATOM    103  O   UNL A   1      47.187  25.093  38.821  1.00  0.00    -0.237 OA
ATOM    104  O   UNL A   1      44.741  25.353  38.897  1.00  0.00    -0.237 OA
ATOM    105  O   UNL A   1      45.744  23.768  37.317  1.00  0.00    -0.744 OA
ENDBRANCH  99 102
ENDBRANCH  72  95
ENDBRANCH  46  47
ENDBRANCH  38  41
ENDBRANCH  36  37
ENDBRANCH  35  36
ENDBRANCH   1  35
TORSDOF 17
ENDMDL
MODEL 3
REMARK VINA RESULT:     -11.9      4.738      9.750
REMARK SMILES COc1cccc(-c2c([C@H]3c4ccccc4C(=O)N3CC(=O)NCCCNC(=O)c3ccc(-c4c5nc(c(-c6cccc(S(=O)(=O)[O-])c6F)c6ccc([nH]6)c(-c6cccc(S(=O)(=O)[O-])c6F)c6nc(c(-c7cccc(S(=O)(=O)[O-])c7F)c7ccc4[nH]7)C=C6)C=C5)cc3)c3ccccc3n2C)c1
REMARK SMILES IDX 24 1 23 2 21 3 22 4 20 6 19 7 10 8 11 9 12 10 16 11 17 12
REMARK SMILES IDX 13 13 15 14 18 15 14 16 9 17 8 18 99 19 93 20 98 21 100 22
REMARK SMILES IDX 94 23 97 24 95 25 96 26 7 27 3 28 4 29 101 30 5 31 6 32 2 33
REMARK SMILES IDX 1 34 25 35 26 36 27 37 28 38 29 40 30 41 31 42 92 43 32 44
REMARK SMILES IDX 91 45 33 46 34 47 35 48 85 49 36 50 90 51 84 52 86 53 37 54
REMARK SMILES IDX 89 55 83 56 82 57 38 59 70 60 50 61 69 62 51 63 54 64 68 65
REMARK SMILES IDX 87 66 52 67 53 68 67 70 88 71 55 72 39 73 40 74 48 75 41 76
REMARK SMILES IDX 43 77 49 78 42 79 44 80 45 81 46 82 47 83 71 84 72 85 80 86
REMARK SMILES IDX 73 87 75 88 81 89 74 90 76 91 77 92 78 93 79 94 56 95 57 96
REMARK SMILES IDX 65 97 58 98 60 99 66 100 59 101 61 102 62 103 63 104 64 105
REMARK H PARENT 23 5 27 39 86 58 54 69
REMARK Flexibility Score: inf
ROOT
ATOM      1  C   UNL A   1      46.243  23.673  26.187  1.00  0.00     0.117 C 
ENDROOT
BRANCH   1   2
ATOM      2  N   UNL A   1      45.559  24.582  27.091  1.00  0.00    -0.354 N 
ATOM      3  C   UNL A   1      44.297  24.426  27.592  1.00  0.00     0.239 C 
ATOM      4  O   UNL A   1      43.703  25.406  28.044  1.00  0.00    -0.273 OA
ATOM      5  H   UNL A   1      46.052  25.388  27.368  1.00  0.00     0.163 HD
BRANCH   3   6
ATOM      6  C   UNL A   1      43.684  23.035  27.626  1.00  0.00     0.220 C 
BRANCH   6   7
ATOM      7  N   UNL A   1      42.548  22.726  26.753  1.00  0.00    -0.318 N 
ATOM      8  C   UNL A   1      41.458  22.002  27.384  1.00  0.00     0.150 C 
ATOM      9  C   UNL A   1      41.860  20.590  27.024  1.00  0.00    -0.008 A 
ATOM     10  C   UNL A   1      41.986  19.468  27.828  1.00  0.00     0.007 A 
ATOM     11  C   UNL A   1      42.550  20.626  25.814  1.00  0.00     0.045 A 
ATOM     12  C   UNL A   1      42.880  22.030  25.570  1.00  0.00     0.255 C 
ATOM     13  C   UNL A   1      42.779  18.402  27.370  1.00  0.00     0.000 A 
ATOM     14  C   UNL A   1      43.297  19.573  25.312  1.00  0.00     0.014 A 
ATOM     15  O   UNL A   1      43.588  22.366  24.641  1.00  0.00    -0.269 OA
ATOM     16  C   UNL A   1      43.413  18.445  26.115  1.00  0.00     0.001 A 
BRANCH   8  17
ATOM     17  C   UNL A   1      40.101  22.271  26.753  1.00  0.00     0.013 A 
ATOM     18  C   UNL A   1      39.528  23.544  26.618  1.00  0.00     0.055 A 
ATOM     19  N   UNL A   1      38.214  23.364  26.237  1.00  0.00    -0.343 N 
ATOM     20  C   UNL A   1      39.212  21.372  26.057  1.00  0.00     0.006 A 
ATOM     21  C   UNL A   1      38.039  22.076  25.767  1.00  0.00     0.049 A 
ATOM     22  C   UNL A   1      37.169  24.364  26.298  1.00  0.00     0.150 C 
ATOM     23  C   UNL A   1      39.289  20.021  25.644  1.00  0.00     0.011 A 
ATOM     24  C   UNL A   1      36.942  21.466  25.125  1.00  0.00     0.027 A 
ATOM     25  C   UNL A   1      38.212  19.414  24.987  1.00  0.00     0.001 A 
ATOM     26  C   UNL A   1      37.050  20.128  24.741  1.00  0.00     0.002 A 
BRANCH  18  27
ATOM     27  C   UNL A   1      40.223  24.818  26.834  1.00  0.00     0.002 A 
ATOM     28  C   UNL A   1      40.360  26.766  28.289  1.00  0.00     0.119 A 
ATOM     29  C   UNL A   1      40.964  27.476  27.253  1.00  0.00     0.046 A 
ATOM     30  C   UNL A   1      40.070  25.420  28.099  1.00  0.00     0.056 A 
ATOM     31  C   UNL A   1      41.223  26.858  26.025  1.00  0.00     0.005 A 
ATOM     32  C   UNL A   1      40.830  25.535  25.806  1.00  0.00     0.010 A 
BRANCH  28  33
ATOM     33  O   UNL A   1      40.049  27.487  29.411  1.00  0.00    -0.497 OA
ATOM     34  C   UNL A   1      38.918  27.035  30.156  1.00  0.00     0.278 C 
ENDBRANCH  28  33
ENDBRANCH  18  27
ENDBRANCH   8  17
ENDBRANCH   6   7
ENDBRANCH   3   6
ENDBRANCH   1   2
BRANCH   1  35
ATOM     35  C   UNL A   1      46.746  24.439  24.973  1.00  0.00     0.042 C 
BRANCH  35  36
ATOM     36  C   UNL A   1      47.951  25.298  25.284  1.00  0.00     0.118 C 
BRANCH  36  37
ATOM     37  N   UNL A   1      48.124  26.310  24.255  1.00  0.00    -0.352 N 
ATOM     38  C   UNL A   1      47.462  27.503  24.099  1.00  0.00     0.251 C 
ATOM     39  H   UNL A   1      48.811  26.113  23.578  1.00  0.00     0.163 HD
ATOM     40  O   UNL A   1      47.432  28.016  22.982  1.00  0.00    -0.269 OA
BRANCH  38  41
ATOM     41  C   UNL A   1      46.814  28.187  25.247  1.00  0.00     0.039 A 
ATOM     42  C   UNL A   1      47.597  28.979  26.092  1.00  0.00     0.014 A 
ATOM     43  C   UNL A   1      45.473  27.963  25.571  1.00  0.00     0.014 A 
ATOM     44  C   UNL A   1      47.043  29.525  27.256  1.00  0.00     0.010 A 
ATOM     45  C   UNL A   1      44.893  28.601  26.660  1.00  0.00     0.010 A 
ATOM     46  C   UNL A   1      45.684  29.335  27.551  1.00  0.00    -0.014 A 
BRANCH  46  47
ATOM     47  C   UNL A   1      45.086  29.806  28.825  1.00  0.00     0.031 A 
ATOM     48  C   UNL A   1      44.452  31.175  28.895  1.00  0.00     0.074 A 
ATOM     49  C   UNL A   1      45.177  29.047  29.933  1.00  0.00     0.049 A 
ATOM     50  N   UNL A   1      43.933  31.794  29.923  1.00  0.00    -0.248 NA
ATOM     51  C   UNL A   1      44.437  31.970  27.654  1.00  0.00     0.031 C 
ATOM     52  C   UNL A   1      45.846  27.748  30.016  1.00  0.00     0.029 A 
ATOM     53  N   UNL A   1      44.729  29.274  31.209  1.00  0.00    -0.354 N 
ATOM     54  C   UNL A   1      43.584  33.061  29.467  1.00  0.00     0.074 A 
ATOM     55  C   UNL A   1      43.983  33.138  28.081  1.00  0.00     0.031 C 
ATOM     56  C   UNL A   1      45.761  27.291  31.276  1.00  0.00     0.029 A 
ATOM     57  C   UNL A   1      45.050  28.270  32.092  1.00  0.00     0.049 A 
ATOM     58  H   UNL A   1      44.225  30.079  31.469  1.00  0.00     0.167 HD
ATOM     59  C   UNL A   1      42.951  34.060  30.129  1.00  0.00     0.034 A 
ATOM     60  C   UNL A   1      44.795  28.152  33.409  1.00  0.00     0.034 A 
ATOM     61  C   UNL A   1      42.478  33.946  31.481  1.00  0.00     0.049 A 
ATOM     62  C   UNL A   1      44.001  29.229  34.097  1.00  0.00     0.074 A 
ATOM     63  C   UNL A   1      41.719  34.846  32.206  1.00  0.00     0.029 A 
ATOM     64  N   UNL A   1      42.712  32.858  32.308  1.00  0.00    -0.354 N 
ATOM     65  N   UNL A   1      43.525  30.346  33.603  1.00  0.00    -0.248 NA
ATOM     66  C   UNL A   1      43.671  29.011  35.514  1.00  0.00     0.031 C 
ATOM     67  C   UNL A   1      41.502  34.305  33.479  1.00  0.00     0.029 A 
ATOM     68  C   UNL A   1      42.117  33.064  33.540  1.00  0.00     0.049 A 
ATOM     69  H   UNL A   1      43.227  32.058  32.057  1.00  0.00     0.167 HD
ATOM     70  C   UNL A   1      42.818  30.952  34.636  1.00  0.00     0.074 A 
ATOM     71  C   UNL A   1      42.907  30.062  35.777  1.00  0.00     0.031 C 
ATOM     72  C   UNL A   1      42.171  32.143  34.647  1.00  0.00     0.034 A 
BRANCH  59  73
ATOM     73  C   UNL A   1      42.670  35.333  29.374  1.00  0.00     0.023 A 
ATOM     74  C   UNL A   1      41.568  35.391  28.496  1.00  0.00     0.012 A 
ATOM     75  C   UNL A   1      43.463  36.482  29.561  1.00  0.00     0.148 A 
ATOM     76  C   UNL A   1      41.281  36.556  27.787  1.00  0.00     0.002 A 
ATOM     77  C   UNL A   1      43.145  37.655  28.883  1.00  0.00     0.091 A 
ATOM     78  F   UNL A   1      44.522  36.406  30.379  1.00  0.00    -0.205 F 
ATOM     79  C   UNL A   1      42.063  37.691  27.988  1.00  0.00     0.022 A 
BRANCH  77  80
ATOM     80  S   UNL A   1      44.047  39.189  29.135  1.00  0.00     0.127 S 
ATOM     81  O   UNL A   1      43.377  40.085  28.193  1.00  0.00    -0.237 OA
ATOM     82  O   UNL A   1      43.782  39.479  30.545  1.00  0.00    -0.237 OA
ATOM     83  O   UNL A   1      45.439  38.884  28.835  1.00  0.00    -0.744 OA
ENDBRANCH  77  80
ENDBRANCH  59  73
BRANCH  60  84
ATOM     84  C   UNL A   1      45.216  26.918  34.131  1.00  0.00     0.023 A 
ATOM     85  C   UNL A   1      46.369  26.955  34.937  1.00  0.00     0.012 A 
ATOM     86  C   UNL A   1      44.453  25.734  34.073  1.00  0.00     0.148 A 
ATOM     87  C   UNL A   1      46.768  25.830  35.659  1.00  0.00     0.002 A 
ATOM     88  C   UNL A   1      44.830  24.632  34.831  1.00  0.00     0.091 A 
ATOM     89  F   UNL A   1      43.366  25.717  33.289  1.00  0.00    -0.205 F 
ATOM     90  C   UNL A   1      45.994  24.673  35.615  1.00  0.00     0.022 A 
BRANCH  88  91
ATOM     91  S   UNL A   1      43.830  23.142  34.933  1.00  0.00     0.127 S 
ATOM     92  O   UNL A   1      44.595  22.332  35.879  1.00  0.00    -0.237 OA
ATOM     93  O   UNL A   1      42.563  23.660  35.452  1.00  0.00    -0.237 OA
ATOM     94  O   UNL A   1      43.755  22.624  33.574  1.00  0.00    -0.744 OA
ENDBRANCH  88  91
ENDBRANCH  60  84
BRANCH  72  95
ATOM     95  C   UNL A   1      41.494  32.557  35.925  1.00  0.00     0.023 A 
ATOM     96  C   UNL A   1      42.187  33.369  36.844  1.00  0.00     0.012 A 
ATOM     97  C   UNL A   1      40.151  32.217  36.177  1.00  0.00     0.148 A 
ATOM     98  C   UNL A   1      41.562  33.813  38.009  1.00  0.00     0.002 A 
ATOM     99  C   UNL A   1      39.521  32.698  37.319  1.00  0.00     0.091 A 
ATOM    100  F   UNL A   1      39.514  31.426  35.299  1.00  0.00    -0.205 F 
ATOM    101  C   UNL A   1      40.228  33.487  38.240  1.00  0.00     0.022 A 
BRANCH  99 102
ATOM    102  S   UNL A   1      37.778  32.404  37.644  1.00  0.00     0.127 S 
ATOM    103  O   UNL A   1      37.143  33.132  36.547  1.00  0.00    -0.237 OA
ATOM    104  O   UNL A   1      37.681  30.947  37.545  1.00  0.00    -0.237 OA
ATOM    105  O   UNL A   1      37.530  32.931  38.978  1.00  0.00    -0.744 OA
ENDBRANCH  99 102
ENDBRANCH  72  95
ENDBRANCH  46  47
ENDBRANCH  38  41
ENDBRANCH  36  37
ENDBRANCH  35  36
ENDBRANCH   1  35
TORSDOF 17
ENDMDL
