MODEL 1
REMARK VINA RESULT:     -12.2      0.000      0.000
REMARK SMILES C[C@H]1CCC[C@H](C)N1C(=O)[C@H]1[C@@H](C(=O)NCCCNC(=O)c2ccc(-c3c4nc(c(-c5cccc(S(=O)(=O)[O-])c5F)c5ccc([nH]5)c(-c5cccc(S(=O)(=O)[O-])c5F)c5nc(c(-c6cccc(S(=O)(=O)[O-])c6F)c6ccc3[nH]6)C=C5)C=C4)cc2)[C@H]2CC[C@@H]1O2
REMARK SMILES IDX 18 1 17 2 16 3 15 4 13 5 14 6 12 8 11 9 88 10 85 11 87 12
REMARK SMILES IDX 89 13 86 14 9 15 1 16 2 17 3 18 8 19 4 20 6 21 5 22 7 23
REMARK SMILES IDX 10 24 19 25 20 26 21 28 22 29 23 30 84 31 24 32 83 33 25 34
REMARK SMILES IDX 26 35 27 36 77 37 28 38 82 39 76 40 78 41 29 42 81 43 75 44
REMARK SMILES IDX 74 45 30 47 62 48 42 49 61 50 43 51 46 52 60 53 79 54 44 55
REMARK SMILES IDX 45 56 59 58 80 59 47 60 31 61 32 62 40 63 33 64 35 65 41 66
REMARK SMILES IDX 34 67 36 68 37 69 38 70 39 71 63 72 64 73 72 74 65 75 67 76
REMARK SMILES IDX 73 77 66 78 68 79 69 80 70 81 71 82 48 83 49 84 57 85 50 86
REMARK SMILES IDX 52 87 58 88 51 89 53 90 54 91 55 92 56 93
REMARK H PARENT 15 7 19 27 78 46 46 57
REMARK Flexibility Score: inf
ROOT
ATOM      1  C   UNL A   1      33.993  29.297  26.322  1.00  0.00     0.118 C 
ENDROOT
BRANCH   1   2
ATOM      2  C   UNL A   1      33.247  28.181  27.040  1.00  0.00     0.042 C 
BRANCH   2   3
ATOM      3  C   UNL A   1      31.740  28.260  26.859  1.00  0.00     0.117 C 
BRANCH   3   4
ATOM      4  N   UNL A   1      31.149  26.939  26.892  1.00  0.00    -0.356 N 
ATOM      5  C   UNL A   1      30.527  26.170  25.981  1.00  0.00     0.226 C 
ATOM      6  O   UNL A   1      30.139  25.070  26.400  1.00  0.00    -0.275 OA
ATOM      7  H   UNL A   1      31.216  26.509  27.775  1.00  0.00     0.163 HD
BRANCH   5   8
ATOM      8  C   UNL A   1      30.350  26.490  24.512  1.00  0.00     0.122 C 
ATOM      9  C   UNL A   1      31.440  26.071  23.516  1.00  0.00     0.122 C 
ATOM     10  C   UNL A   1      31.447  27.290  22.571  1.00  0.00     0.132 C 
ATOM     11  C   UNL A   1      29.893  27.860  24.005  1.00  0.00     0.132 C 
ATOM     12  C   UNL A   1      31.972  28.610  23.128  1.00  0.00     0.035 C 
ATOM     13  O   UNL A   1      30.012  27.598  22.565  1.00  0.00    -0.373 OA
ATOM     14  C   UNL A   1      30.853  29.034  24.077  1.00  0.00     0.035 C 
BRANCH   9  15
ATOM     15  C   UNL A   1      32.765  25.578  24.082  1.00  0.00     0.229 C 
ATOM     16  C   UNL A   1      31.029  23.068  23.144  1.00  0.00     0.031 C 
ATOM     17  C   UNL A   1      32.126  23.021  24.208  1.00  0.00     0.082 C 
ATOM     18  C   UNL A   1      33.053  21.858  23.765  1.00  0.00     0.025 C 
ATOM     19  N   UNL A   1      32.936  24.251  24.512  1.00  0.00    -0.337 N 
ATOM     20  C   UNL A   1      34.216  21.605  24.707  1.00  0.00     0.004 C 
ATOM     21  C   UNL A   1      34.098  24.009  25.424  1.00  0.00     0.082 C 
ATOM     22  C   UNL A   1      35.000  22.891  24.893  1.00  0.00     0.025 C 
ATOM     23  C   UNL A   1      33.672  23.703  26.872  1.00  0.00     0.031 C 
ATOM     24  O   UNL A   1      33.692  26.390  24.183  1.00  0.00    -0.274 OA
ENDBRANCH   9  15
ENDBRANCH   5   8
ENDBRANCH   3   4
ENDBRANCH   2   3
ENDBRANCH   1   2
BRANCH   1  25
ATOM     25  N   UNL A   1      33.873  30.582  26.995  1.00  0.00    -0.352 N 
ATOM     26  C   UNL A   1      34.686  31.113  27.970  1.00  0.00     0.251 C 
ATOM     27  H   UNL A   1      33.113  31.144  26.717  1.00  0.00     0.163 HD
ATOM     28  O   UNL A   1      34.366  32.145  28.550  1.00  0.00    -0.269 OA
BRANCH  26  29
ATOM     29  C   UNL A   1      35.930  30.403  28.326  1.00  0.00     0.039 A 
ATOM     30  C   UNL A   1      37.068  30.592  27.540  1.00  0.00     0.014 A 
ATOM     31  C   UNL A   1      35.981  29.599  29.468  1.00  0.00     0.014 A 
ATOM     32  C   UNL A   1      38.279  30.024  27.939  1.00  0.00     0.010 A 
ATOM     33  C   UNL A   1      37.204  29.107  29.908  1.00  0.00     0.010 A 
ATOM     34  C   UNL A   1      38.365  29.307  29.145  1.00  0.00    -0.014 A 
BRANCH  34  35
ATOM     35  C   UNL A   1      39.657  28.762  29.631  1.00  0.00     0.031 A 
ATOM     36  C   UNL A   1      40.387  29.445  30.756  1.00  0.00     0.074 A 
ATOM     37  C   UNL A   1      40.218  27.712  28.999  1.00  0.00     0.049 A 
ATOM     38  N   UNL A   1      41.551  29.159  31.276  1.00  0.00    -0.248 NA
ATOM     39  C   UNL A   1      39.738  30.625  31.354  1.00  0.00     0.031 C 
ATOM     40  C   UNL A   1      39.652  27.020  27.839  1.00  0.00     0.029 A 
ATOM     41  N   UNL A   1      41.404  27.060  29.227  1.00  0.00    -0.354 N 
ATOM     42  C   UNL A   1      41.792  30.140  32.230  1.00  0.00     0.074 A 
ATOM     43  C   UNL A   1      40.671  31.053  32.191  1.00  0.00     0.031 C 
ATOM     44  C   UNL A   1      40.486  26.038  27.461  1.00  0.00     0.029 A 
ATOM     45  C   UNL A   1      41.657  26.046  28.330  1.00  0.00     0.049 A 
ATOM     46  H   UNL A   1      42.016  27.295  29.961  1.00  0.00     0.167 HD
ATOM     47  C   UNL A   1      42.835  30.255  33.085  1.00  0.00     0.034 A 
ATOM     48  C   UNL A   1      42.717  25.222  28.221  1.00  0.00     0.034 A 
ATOM     49  C   UNL A   1      43.920  29.315  33.157  1.00  0.00     0.049 A 
ATOM     50  C   UNL A   1      43.836  25.334  29.219  1.00  0.00     0.074 A 
ATOM     51  C   UNL A   1      44.974  29.284  34.053  1.00  0.00     0.029 A 
ATOM     52  N   UNL A   1      44.094  28.241  32.297  1.00  0.00    -0.354 N 
ATOM     53  N   UNL A   1      43.964  26.167  30.225  1.00  0.00    -0.248 NA
ATOM     54  C   UNL A   1      44.939  24.370  29.096  1.00  0.00     0.031 C 
ATOM     55  C   UNL A   1      45.796  28.202  33.723  1.00  0.00     0.029 A 
ATOM     56  C   UNL A   1      45.241  27.545  32.635  1.00  0.00     0.049 A 
ATOM     57  H   UNL A   1      43.490  28.007  31.555  1.00  0.00     0.167 HD
ATOM     58  C   UNL A   1      45.141  25.806  30.872  1.00  0.00     0.074 A 
ATOM     59  C   UNL A   1      45.676  24.665  30.158  1.00  0.00     0.031 C 
ATOM     60  C   UNL A   1      45.732  26.377  31.950  1.00  0.00     0.034 A 
BRANCH  47  61
ATOM     61  C   UNL A   1      42.820  31.406  34.057  1.00  0.00     0.023 A 
ATOM     62  C   UNL A   1      43.481  32.606  33.720  1.00  0.00     0.012 A 
ATOM     63  C   UNL A   1      42.113  31.324  35.271  1.00  0.00     0.148 A 
ATOM     64  C   UNL A   1      43.470  33.693  34.592  1.00  0.00     0.002 A 
ATOM     65  C   UNL A   1      42.069  32.428  36.116  1.00  0.00     0.091 A 
ATOM     66  F   UNL A   1      41.511  30.170  35.585  1.00  0.00    -0.205 F 
ATOM     67  C   UNL A   1      42.756  33.608  35.784  1.00  0.00     0.022 A 
BRANCH  65  68
ATOM     68  S   UNL A   1      41.111  32.447  37.635  1.00  0.00     0.127 S 
ATOM     69  O   UNL A   1      41.905  31.572  38.496  1.00  0.00    -0.237 OA
ATOM     70  O   UNL A   1      41.148  33.863  38.005  1.00  0.00    -0.237 OA
ATOM     71  O   UNL A   1      39.790  31.947  37.282  1.00  0.00    -0.744 OA
ENDBRANCH  65  68
ENDBRANCH  47  61
BRANCH  48  72
ATOM     72  C   UNL A   1      42.732  24.165  27.168  1.00  0.00     0.023 A 
ATOM     73  C   UNL A   1      43.465  24.381  25.985  1.00  0.00     0.012 A 
ATOM     74  C   UNL A   1      42.055  22.943  27.343  1.00  0.00     0.148 A 
ATOM     75  C   UNL A   1      43.499  23.412  24.981  1.00  0.00     0.002 A 
ATOM     76  C   UNL A   1      42.138  21.960  26.363  1.00  0.00     0.091 A 
ATOM     77  F   UNL A   1      41.353  22.762  28.470  1.00  0.00    -0.205 F 
ATOM     78  C   UNL A   1      42.844  22.199  25.175  1.00  0.00     0.022 A 
BRANCH  76  79
ATOM     79  S   UNL A   1      41.438  20.320  26.585  1.00  0.00     0.127 S 
ATOM     80  O   UNL A   1      40.006  20.591  26.496  1.00  0.00    -0.237 OA
ATOM     81  O   UNL A   1      42.001  19.594  25.446  1.00  0.00    -0.237 OA
ATOM     82  O   UNL A   1      41.919  19.863  27.882  1.00  0.00    -0.744 OA
ENDBRANCH  76  79
ENDBRANCH  48  72
BRANCH  60  83
ATOM     83  C   UNL A   1      47.011  25.761  32.453  1.00  0.00     0.023 A 
ATOM     84  C   UNL A   1      48.247  26.191  31.934  1.00  0.00     0.012 A 
ATOM     85  C   UNL A   1      46.989  24.815  33.497  1.00  0.00     0.148 A 
ATOM     86  C   UNL A   1      49.442  25.667  32.423  1.00  0.00     0.002 A 
ATOM     87  C   UNL A   1      48.186  24.333  34.013  1.00  0.00     0.091 A 
ATOM     88  F   UNL A   1      45.801  24.405  33.965  1.00  0.00    -0.205 F 
ATOM     89  C   UNL A   1      49.412  24.748  33.470  1.00  0.00     0.022 A 
BRANCH  87  90
ATOM     90  S   UNL A   1      48.245  23.223  35.425  1.00  0.00     0.127 S 
ATOM     91  O   UNL A   1      47.607  22.024  34.887  1.00  0.00    -0.237 OA
ATOM     92  O   UNL A   1      49.685  23.095  35.659  1.00  0.00    -0.237 OA
ATOM     93  O   UNL A   1      47.519  23.894  36.494  1.00  0.00    -0.744 OA
ENDBRANCH  87  90
ENDBRANCH  60  83
ENDBRANCH  34  35
ENDBRANCH  26  29
ENDBRANCH   1  25
TORSDOF 14
ENDMDL
MODEL 2
REMARK VINA RESULT:     -12.1      1.289      1.562
REMARK SMILES C[C@H]1CCC[C@H](C)N1C(=O)[C@H]1[C@@H](C(=O)NCCCNC(=O)c2ccc(-c3c4nc(c(-c5cccc(S(=O)(=O)[O-])c5F)c5ccc([nH]5)c(-c5cccc(S(=O)(=O)[O-])c5F)c5nc(c(-c6cccc(S(=O)(=O)[O-])c6F)c6ccc3[nH]6)C=C5)C=C4)cc2)[C@H]2CC[C@@H]1O2
REMARK SMILES IDX 18 1 17 2 16 3 15 4 13 5 14 6 12 8 11 9 88 10 85 11 87 12
REMARK SMILES IDX 89 13 86 14 9 15 1 16 2 17 3 18 8 19 4 20 6 21 5 22 7 23
REMARK SMILES IDX 10 24 19 25 20 26 21 28 22 29 23 30 84 31 24 32 83 33 25 34
REMARK SMILES IDX 26 35 27 36 77 37 28 38 82 39 76 40 78 41 29 42 81 43 75 44
REMARK SMILES IDX 74 45 30 47 62 48 42 49 61 50 43 51 46 52 60 53 79 54 44 55
REMARK SMILES IDX 45 56 59 58 80 59 47 60 31 61 32 62 40 63 33 64 35 65 41 66
REMARK SMILES IDX 34 67 36 68 37 69 38 70 39 71 63 72 64 73 72 74 65 75 67 76
REMARK SMILES IDX 73 77 66 78 68 79 69 80 70 81 71 82 48 83 49 84 57 85 50 86
REMARK SMILES IDX 52 87 58 88 51 89 53 90 54 91 55 92 56 93
REMARK H PARENT 15 7 19 27 78 46 46 57
REMARK Flexibility Score: inf
ROOT
ATOM      1  C   UNL A   1      33.914  29.145  26.313  1.00  0.00     0.118 C 
ENDROOT
BRANCH   1   2
ATOM      2  C   UNL A   1      33.161  28.111  27.140  1.00  0.00     0.042 C 
BRANCH   2   3
ATOM      3  C   UNL A   1      31.659  28.143  26.908  1.00  0.00     0.117 C 
BRANCH   3   4
ATOM      4  N   UNL A   1      31.115  26.802  26.883  1.00  0.00    -0.356 N 
ATOM      5  C   UNL A   1      30.534  26.046  25.935  1.00  0.00     0.226 C 
ATOM      6  O   UNL A   1      30.180  24.918  26.306  1.00  0.00    -0.275 OA
ATOM      7  H   UNL A   1      31.185  26.342  27.750  1.00  0.00     0.163 HD
BRANCH   5   8
ATOM      8  C   UNL A   1      30.366  26.415  24.477  1.00  0.00     0.122 C 
ATOM      9  C   UNL A   1      31.479  26.063  23.480  1.00  0.00     0.122 C 
ATOM     10  C   UNL A   1      31.464  27.315  22.580  1.00  0.00     0.132 C 
ATOM     11  C   UNL A   1      29.878  27.789  24.013  1.00  0.00     0.132 C 
ATOM     12  C   UNL A   1      31.945  28.628  23.192  1.00  0.00     0.035 C 
ATOM     13  O   UNL A   1      30.021  27.584  22.566  1.00  0.00    -0.373 OA
ATOM     14  C   UNL A   1      30.803  28.986  24.140  1.00  0.00     0.035 C 
BRANCH   9  15
ATOM     15  C   UNL A   1      32.811  25.586  24.045  1.00  0.00     0.229 C 
ATOM     16  C   UNL A   1      31.152  23.064  23.006  1.00  0.00     0.031 C 
ATOM     17  C   UNL A   1      32.238  23.010  24.081  1.00  0.00     0.082 C 
ATOM     18  C   UNL A   1      33.201  21.888  23.611  1.00  0.00     0.025 C 
ATOM     19  N   UNL A   1      33.012  24.251  24.434  1.00  0.00    -0.337 N 
ATOM     20  C   UNL A   1      34.359  21.634  24.559  1.00  0.00     0.004 C 
ATOM     21  C   UNL A   1      34.170  24.009  25.352  1.00  0.00     0.082 C 
ATOM     22  C   UNL A   1      35.107  22.933  24.796  1.00  0.00     0.025 C 
ATOM     23  C   UNL A   1      33.736  23.644  26.784  1.00  0.00     0.031 C 
ATOM     24  O   UNL A   1      33.715  26.418  24.184  1.00  0.00    -0.274 OA
ENDBRANCH   9  15
ENDBRANCH   5   8
ENDBRANCH   3   4
ENDBRANCH   2   3
ENDBRANCH   1   2
BRANCH   1  25
ATOM     25  N   UNL A   1      33.835  30.485  26.875  1.00  0.00    -0.352 N 
ATOM     26  C   UNL A   1      34.682  31.080  27.781  1.00  0.00     0.251 C 
ATOM     27  H   UNL A   1      33.080  31.038  26.566  1.00  0.00     0.163 HD
ATOM     28  O   UNL A   1      34.397  32.166  28.277  1.00  0.00    -0.269 OA
BRANCH  26  29
ATOM     29  C   UNL A   1      35.921  30.376  28.169  1.00  0.00     0.039 A 
ATOM     30  C   UNL A   1      37.038  30.462  27.337  1.00  0.00     0.014 A 
ATOM     31  C   UNL A   1      35.988  29.685  29.381  1.00  0.00     0.014 A 
ATOM     32  C   UNL A   1      38.248  29.904  27.755  1.00  0.00     0.010 A 
ATOM     33  C   UNL A   1      37.212  29.207  29.832  1.00  0.00     0.010 A 
ATOM     34  C   UNL A   1      38.354  29.304  29.021  1.00  0.00    -0.014 A 
BRANCH  34  35
ATOM     35  C   UNL A   1      39.648  28.776  29.521  1.00  0.00     0.031 A 
ATOM     36  C   UNL A   1      40.362  29.475  30.646  1.00  0.00     0.074 A 
ATOM     37  C   UNL A   1      40.224  27.726  28.901  1.00  0.00     0.049 A 
ATOM     38  N   UNL A   1      41.525  29.205  31.177  1.00  0.00    -0.248 NA
ATOM     39  C   UNL A   1      39.697  30.653  31.230  1.00  0.00     0.031 C 
ATOM     40  C   UNL A   1      39.674  27.019  27.743  1.00  0.00     0.029 A 
ATOM     41  N   UNL A   1      41.415  27.088  29.143  1.00  0.00    -0.354 N 
ATOM     42  C   UNL A   1      41.749  30.196  32.125  1.00  0.00     0.074 A 
ATOM     43  C   UNL A   1      40.620  31.097  32.071  1.00  0.00     0.031 C 
ATOM     44  C   UNL A   1      40.520  26.043  27.379  1.00  0.00     0.029 A 
ATOM     45  C   UNL A   1      41.685  26.070  28.257  1.00  0.00     0.049 A 
ATOM     46  H   UNL A   1      42.019  27.336  29.880  1.00  0.00     0.167 HD
ATOM     47  C   UNL A   1      42.784  30.327  32.987  1.00  0.00     0.034 A 
ATOM     48  C   UNL A   1      42.754  25.255  28.162  1.00  0.00     0.034 A 
ATOM     49  C   UNL A   1      43.878  29.399  33.075  1.00  0.00     0.049 A 
ATOM     50  C   UNL A   1      43.864  25.387  29.168  1.00  0.00     0.074 A 
ATOM     51  C   UNL A   1      44.926  29.386  33.978  1.00  0.00     0.029 A 
ATOM     52  N   UNL A   1      44.069  28.320  32.225  1.00  0.00    -0.354 N 
ATOM     53  N   UNL A   1      43.976  26.229  30.168  1.00  0.00    -0.248 NA
ATOM     54  C   UNL A   1      44.978  24.433  29.060  1.00  0.00     0.031 C 
ATOM     55  C   UNL A   1      45.761  28.310  33.663  1.00  0.00     0.029 A 
ATOM     56  C   UNL A   1      45.221  27.639  32.577  1.00  0.00     0.049 A 
ATOM     57  H   UNL A   1      43.474  28.075  31.480  1.00  0.00     0.167 HD
ATOM     58  C   UNL A   1      45.151  25.885  30.827  1.00  0.00     0.074 A 
ATOM     59  C   UNL A   1      45.704  24.744  30.126  1.00  0.00     0.031 C 
ATOM     60  C   UNL A   1      45.729  26.471  31.904  1.00  0.00     0.034 A 
BRANCH  47  61
ATOM     61  C   UNL A   1      42.751  31.486  33.949  1.00  0.00     0.023 A 
ATOM     62  C   UNL A   1      43.319  32.720  33.570  1.00  0.00     0.012 A 
ATOM     63  C   UNL A   1      42.114  31.375  35.200  1.00  0.00     0.148 A 
ATOM     64  C   UNL A   1      43.289  33.813  34.432  1.00  0.00     0.002 A 
ATOM     65  C   UNL A   1      42.047  32.483  36.037  1.00  0.00     0.091 A 
ATOM     66  F   UNL A   1      41.600  30.190  35.554  1.00  0.00    -0.205 F 
ATOM     67  C   UNL A   1      42.644  33.698  35.661  1.00  0.00     0.022 A 
BRANCH  65  68
ATOM     68  S   UNL A   1      41.170  32.461  37.605  1.00  0.00     0.127 S 
ATOM     69  O   UNL A   1      42.019  31.579  38.405  1.00  0.00    -0.237 OA
ATOM     70  O   UNL A   1      41.211  33.870  38.000  1.00  0.00    -0.237 OA
ATOM     71  O   UNL A   1      39.839  31.952  37.311  1.00  0.00    -0.744 OA
ENDBRANCH  65  68
ENDBRANCH  47  61
BRANCH  48  72
ATOM     72  C   UNL A   1      42.787  24.191  27.118  1.00  0.00     0.023 A 
ATOM     73  C   UNL A   1      43.518  24.409  25.934  1.00  0.00     0.012 A 
ATOM     74  C   UNL A   1      42.130  22.959  27.302  1.00  0.00     0.148 A 
ATOM     75  C   UNL A   1      43.569  23.433  24.938  1.00  0.00     0.002 A 
ATOM     76  C   UNL A   1      42.230  21.970  26.330  1.00  0.00     0.091 A 
ATOM     77  F   UNL A   1      41.430  22.776  28.430  1.00  0.00    -0.205 F 
ATOM     78  C   UNL A   1      42.934  22.211  25.141  1.00  0.00     0.022 A 
BRANCH  76  79
ATOM     79  S   UNL A   1      41.558  20.320  26.565  1.00  0.00     0.127 S 
ATOM     80  O   UNL A   1      42.165  19.928  27.833  1.00  0.00    -0.237 OA
ATOM     81  O   UNL A   1      40.120  20.586  26.625  1.00  0.00    -0.237 OA
ATOM     82  O   UNL A   1      41.977  19.558  25.396  1.00  0.00    -0.744 OA
ENDBRANCH  76  79
ENDBRANCH  48  72
BRANCH  60  83
ATOM     83  C   UNL A   1      47.010  25.872  32.422  1.00  0.00     0.023 A 
ATOM     84  C   UNL A   1      46.978  24.991  33.521  1.00  0.00     0.012 A 
ATOM     85  C   UNL A   1      48.233  26.121  31.769  1.00  0.00     0.148 A 
ATOM     86  C   UNL A   1      48.148  24.390  33.981  1.00  0.00     0.002 A 
ATOM     87  C   UNL A   1      49.387  25.481  32.203  1.00  0.00     0.091 A 
ATOM     88  F   UNL A   1      48.246  26.977  30.737  1.00  0.00    -0.205 F 
ATOM     89  C   UNL A   1      49.349  24.624  33.316  1.00  0.00     0.022 A 
BRANCH  87  90
ATOM     90  S   UNL A   1      50.959  25.647  31.348  1.00  0.00     0.127 S 
ATOM     91  O   UNL A   1      51.813  24.743  32.114  1.00  0.00    -0.237 OA
ATOM     92  O   UNL A   1      50.630  25.180  30.000  1.00  0.00    -0.237 OA
ATOM     93  O   UNL A   1      51.310  27.059  31.426  1.00  0.00    -0.744 OA
ENDBRANCH  87  90
ENDBRANCH  60  83
ENDBRANCH  34  35
ENDBRANCH  26  29
ENDBRANCH   1  25
TORSDOF 14
ENDMDL
MODEL 3
REMARK VINA RESULT:     -11.9      1.301      1.650
REMARK SMILES C[C@H]1CCC[C@H](C)N1C(=O)[C@H]1[C@@H](C(=O)NCCCNC(=O)c2ccc(-c3c4nc(c(-c5cccc(S(=O)(=O)[O-])c5F)c5ccc([nH]5)c(-c5cccc(S(=O)(=O)[O-])c5F)c5nc(c(-c6cccc(S(=O)(=O)[O-])c6F)c6ccc3[nH]6)C=C5)C=C4)cc2)[C@H]2CC[C@@H]1O2
REMARK SMILES IDX 18 1 17 2 16 3 15 4 13 5 14 6 12 8 11 9 88 10 85 11 87 12
REMARK SMILES IDX 89 13 86 14 9 15 1 16 2 17 3 18 8 19 4 20 6 21 5 22 7 23
REMARK SMILES IDX 10 24 19 25 20 26 21 28 22 29 23 30 84 31 24 32 83 33 25 34
REMARK SMILES IDX 26 35 27 36 77 37 28 38 82 39 76 40 78 41 29 42 81 43 75 44
REMARK SMILES IDX 74 45 30 47 62 48 42 49 61 50 43 51 46 52 60 53 79 54 44 55
REMARK SMILES IDX 45 56 59 58 80 59 47 60 31 61 32 62 40 63 33 64 35 65 41 66
REMARK SMILES IDX 34 67 36 68 37 69 38 70 39 71 63 72 64 73 72 74 65 75 67 76
REMARK SMILES IDX 73 77 66 78 68 79 69 80 70 81 71 82 48 83 49 84 57 85 50 86
REMARK SMILES IDX 52 87 58 88 51 89 53 90 54 91 55 92 56 93
REMARK H PARENT 15 7 19 27 78 46 46 57
REMARK Flexibility Score: inf
ROOT
ATOM      1  C   UNL A   1      33.650  29.437  26.684  1.00  0.00     0.118 C 
ENDROOT
BRANCH   1   2
ATOM      2  C   UNL A   1      32.725  28.576  27.535  1.00  0.00     0.042 C 
BRANCH   2   3
ATOM      3  C   UNL A   1      31.435  28.205  26.821  1.00  0.00     0.117 C 
BRANCH   3   4
ATOM      4  N   UNL A   1      31.198  26.779  26.897  1.00  0.00    -0.356 N 
ATOM      5  C   UNL A   1      30.984  25.817  25.982  1.00  0.00     0.226 C 
ATOM      6  O   UNL A   1      30.808  24.681  26.445  1.00  0.00    -0.275 OA
ATOM      7  H   UNL A   1      31.193  26.438  27.820  1.00  0.00     0.163 HD
BRANCH   5   8
ATOM      8  C   UNL A   1      31.032  25.987  24.479  1.00  0.00     0.122 C 
ATOM      9  C   UNL A   1      32.344  25.709  23.733  1.00  0.00     0.122 C 
ATOM     10  C   UNL A   1      32.316  26.833  22.677  1.00  0.00     0.132 C 
ATOM     11  C   UNL A   1      30.447  27.203  23.757  1.00  0.00     0.132 C 
ATOM     12  C   UNL A   1      32.491  28.267  23.170  1.00  0.00     0.035 C 
ATOM     13  O   UNL A   1      30.876  26.862  22.394  1.00  0.00    -0.373 OA
ATOM     14  C   UNL A   1      31.158  28.540  23.863  1.00  0.00     0.035 C 
BRANCH   9  15
ATOM     15  C   UNL A   1      33.606  25.521  24.564  1.00  0.00     0.229 C 
ATOM     16  C   UNL A   1      33.535  23.316  22.255  1.00  0.00     0.031 C 
ATOM     17  C   UNL A   1      34.289  23.170  23.577  1.00  0.00     0.082 C 
ATOM     18  C   UNL A   1      35.732  22.775  23.164  1.00  0.00     0.025 C 
ATOM     19  N   UNL A   1      34.319  24.309  24.559  1.00  0.00    -0.337 N 
ATOM     20  C   UNL A   1      36.666  22.544  24.338  1.00  0.00     0.004 C 
ATOM     21  C   UNL A   1      35.253  24.102  25.710  1.00  0.00     0.082 C 
ATOM     22  C   UNL A   1      36.669  23.773  25.227  1.00  0.00     0.025 C 
ATOM     23  C   UNL A   1      34.765  23.020  26.692  1.00  0.00     0.031 C 
ATOM     24  O   UNL A   1      33.977  26.459  25.278  1.00  0.00    -0.274 OA
ENDBRANCH   9  15
ENDBRANCH   5   8
ENDBRANCH   3   4
ENDBRANCH   2   3
ENDBRANCH   1   2
BRANCH   1  25
ATOM     25  N   UNL A   1      33.704  30.821  27.131  1.00  0.00    -0.352 N 
ATOM     26  C   UNL A   1      34.632  31.415  27.955  1.00  0.00     0.251 C 
ATOM     27  H   UNL A   1      32.985  31.408  26.800  1.00  0.00     0.163 HD
ATOM     28  O   UNL A   1      34.456  32.558  28.364  1.00  0.00    -0.269 OA
BRANCH  26  29
ATOM     29  C   UNL A   1      35.823  30.643  28.361  1.00  0.00     0.039 A 
ATOM     30  C   UNL A   1      36.995  30.761  27.613  1.00  0.00     0.014 A 
ATOM     31  C   UNL A   1      35.792  29.852  29.513  1.00  0.00     0.014 A 
ATOM     32  C   UNL A   1      38.160  30.133  28.060  1.00  0.00     0.010 A 
ATOM     33  C   UNL A   1      36.970  29.301  30.001  1.00  0.00     0.010 A 
ATOM     34  C   UNL A   1      38.165  29.428  29.276  1.00  0.00    -0.014 A 
BRANCH  34  35
ATOM     35  C   UNL A   1      39.408  28.820  29.813  1.00  0.00     0.031 A 
ATOM     36  C   UNL A   1      40.068  29.406  31.032  1.00  0.00     0.074 A 
ATOM     37  C   UNL A   1      39.994  27.803  29.149  1.00  0.00     0.049 A 
ATOM     38  N   UNL A   1      41.186  29.057  31.611  1.00  0.00    -0.248 NA
ATOM     39  C   UNL A   1      39.400  30.557  31.664  1.00  0.00     0.031 C 
ATOM     40  C   UNL A   1      39.500  27.207  27.905  1.00  0.00     0.029 A 
ATOM     41  N   UNL A   1      41.148  27.109  29.413  1.00  0.00    -0.354 N 
ATOM     42  C   UNL A   1      41.375  29.964  32.647  1.00  0.00     0.074 A 
ATOM     43  C   UNL A   1      40.277  30.903  32.594  1.00  0.00     0.031 C 
ATOM     44  C   UNL A   1      40.341  26.234  27.518  1.00  0.00     0.029 A 
ATOM     45  C   UNL A   1      41.447  26.155  28.467  1.00  0.00     0.049 A 
ATOM     46  H   UNL A   1      41.709  27.279  30.204  1.00  0.00     0.167 HD
ATOM     47  C   UNL A   1      42.356  29.994  33.580  1.00  0.00     0.034 A 
ATOM     48  C   UNL A   1      42.496  25.315  28.375  1.00  0.00     0.034 A 
ATOM     49  C   UNL A   1      43.415  29.026  33.661  1.00  0.00     0.049 A 
ATOM     50  C   UNL A   1      43.542  25.331  29.455  1.00  0.00     0.074 A 
ATOM     51  C   UNL A   1      44.401  28.908  34.625  1.00  0.00     0.029 A 
ATOM     52  N   UNL A   1      43.631  28.011  32.742  1.00  0.00    -0.354 N 
ATOM     53  N   UNL A   1      43.612  26.089  30.524  1.00  0.00    -0.248 NA
ATOM     54  C   UNL A   1      44.633  24.352  29.342  1.00  0.00     0.031 C 
ATOM     55  C   UNL A   1      45.224  27.833  34.278  1.00  0.00     0.029 A 
ATOM     56  C   UNL A   1      44.737  27.266  33.110  1.00  0.00     0.049 A 
ATOM     57  H   UNL A   1      43.078  27.843  31.945  1.00  0.00     0.167 HD
ATOM     58  C   UNL A   1      44.732  25.656  31.225  1.00  0.00     0.074 A 
ATOM     59  C   UNL A   1      45.296  24.555  30.472  1.00  0.00     0.031 C 
ATOM     60  C   UNL A   1      45.254  26.137  32.380  1.00  0.00     0.034 A 
BRANCH  47  61
ATOM     61  C   UNL A   1      42.293  31.075  34.627  1.00  0.00     0.023 A 
ATOM     62  C   UNL A   1      41.652  30.814  35.856  1.00  0.00     0.012 A 
ATOM     63  C   UNL A   1      42.909  32.324  34.421  1.00  0.00     0.148 A 
ATOM     64  C   UNL A   1      41.593  31.790  36.849  1.00  0.00     0.002 A 
ATOM     65  C   UNL A   1      42.886  33.277  35.434  1.00  0.00     0.091 A 
ATOM     66  F   UNL A   1      43.494  32.563  33.240  1.00  0.00    -0.205 F 
ATOM     67  C   UNL A   1      42.219  33.016  36.642  1.00  0.00     0.022 A 
BRANCH  65  68
ATOM     68  S   UNL A   1      43.731  34.856  35.298  1.00  0.00     0.127 S 
ATOM     69  O   UNL A   1      43.787  35.281  36.696  1.00  0.00    -0.237 OA
ATOM     70  O   UNL A   1      45.021  34.468  34.726  1.00  0.00    -0.237 OA
ATOM     71  O   UNL A   1      42.904  35.678  34.426  1.00  0.00    -0.744 OA
ENDBRANCH  65  68
ENDBRANCH  47  61
BRANCH  48  72
ATOM     72  C   UNL A   1      42.567  24.334  27.253  1.00  0.00     0.023 A 
ATOM     73  C   UNL A   1      43.253  24.683  26.074  1.00  0.00     0.012 A 
ATOM     74  C   UNL A   1      41.990  23.054  27.359  1.00  0.00     0.148 A 
ATOM     75  C   UNL A   1      43.338  23.787  25.007  1.00  0.00     0.002 A 
ATOM     76  C   UNL A   1      42.125  22.147  26.313  1.00  0.00     0.091 A 
ATOM     77  F   UNL A   1      41.330  22.745  28.483  1.00  0.00    -0.205 F 
ATOM     78  C   UNL A   1      42.783  22.517  25.131  1.00  0.00     0.022 A 
BRANCH  76  79
ATOM     79  S   UNL A   1      41.559  20.446  26.438  1.00  0.00     0.127 S 
ATOM     80  O   UNL A   1      42.007  20.079  27.778  1.00  0.00    -0.237 OA
ATOM     81  O   UNL A   1      40.111  20.598  26.292  1.00  0.00    -0.237 OA
ATOM     82  O   UNL A   1      42.200  19.739  25.337  1.00  0.00    -0.744 OA
ENDBRANCH  76  79
ENDBRANCH  48  72
BRANCH  60  83
ATOM     83  C   UNL A   1      46.482  25.458  32.928  1.00  0.00     0.023 A 
ATOM     84  C   UNL A   1      47.760  25.958  32.611  1.00  0.00     0.012 A 
ATOM     85  C   UNL A   1      46.364  24.374  33.820  1.00  0.00     0.148 A 
ATOM     86  C   UNL A   1      48.904  25.371  33.148  1.00  0.00     0.002 A 
ATOM     87  C   UNL A   1      47.506  23.825  34.390  1.00  0.00     0.091 A 
ATOM     88  F   UNL A   1      45.140  23.901  34.095  1.00  0.00    -0.205 F 
ATOM     89  C   UNL A   1      48.777  24.314  34.047  1.00  0.00     0.022 A 
BRANCH  87  90
ATOM     90  S   UNL A   1      47.432  22.526  35.630  1.00  0.00     0.127 S 
ATOM     91  O   UNL A   1      46.589  23.139  36.653  1.00  0.00    -0.237 OA
ATOM     92  O   UNL A   1      46.800  21.430  34.894  1.00  0.00    -0.237 OA
ATOM     93  O   UNL A   1      48.811  22.270  36.024  1.00  0.00    -0.744 OA
ENDBRANCH  87  90
ENDBRANCH  60  83
ENDBRANCH  34  35
ENDBRANCH  26  29
ENDBRANCH   1  25
TORSDOF 14
ENDMDL
