MODEL 1
REMARK VINA RESULT:     -12.3      0.000      0.000
REMARK SMILES C[NH+]1CCC([N@@H+](C)CCC(=O)NCCCNC(=O)c2ccc(-c3c4nc(c(-c5cccc(S(=O)(=O)[O-])c5F)c5ccc([nH]5)c(-c5cccc(S(=O)(=O)[O-])c5F)c5nc(c(-c6cccc(S(=O)(=O)[O-])c6F)c6ccc3[nH]6)C=C5)C=C4)cc2)CC1
REMARK SMILES IDX 14 1 13 2 12 3 10 4 11 5 9 7 8 8 6 9 7 10 5 12 1 13 2 14
REMARK SMILES IDX 3 15 83 16 4 18 82 19 15 20 16 21 17 22 18 24 19 25 20 26
REMARK SMILES IDX 81 27 21 28 80 29 22 30 23 31 24 32 74 33 25 34 79 35 73 36
REMARK SMILES IDX 75 37 26 38 78 39 72 40 71 41 27 43 59 44 39 45 58 46 40 47
REMARK SMILES IDX 43 48 57 49 76 50 41 51 42 52 56 54 77 55 44 56 28 57 29 58
REMARK SMILES IDX 37 59 30 60 32 61 38 62 31 63 33 64 34 65 35 66 36 67 60 68
REMARK SMILES IDX 61 69 69 70 62 71 64 72 70 73 63 74 65 75 66 76 67 77 68 78
REMARK SMILES IDX 45 79 46 80 54 81 47 82 49 83 55 84 48 85 50 86 51 87 52 88
REMARK SMILES IDX 53 89
REMARK H PARENT 12 6 6 11 2 17 16 23 75 42 43 53
REMARK Flexibility Score: inf
ROOT
ATOM      1  C   UNL A   1      31.776  29.427  25.401  1.00  0.00     0.042 C 
ENDROOT
BRANCH   1   2
ATOM      2  C   UNL A   1      32.716  29.164  24.093  1.00  0.00     0.117 C 
BRANCH   2   3
ATOM      3  N   UNL A   1      33.040  27.563  22.949  1.00  0.00    -0.356 N 
ATOM      4  C   UNL A   1      32.987  26.272  22.433  1.00  0.00     0.225 C 
ATOM      5  O   UNL A   1      33.650  26.098  21.396  1.00  0.00    -0.275 OA
ATOM      6  H   UNL A   1      33.674  27.959  22.307  1.00  0.00     0.163 HD
BRANCH   4   7
ATOM      7  C   UNL A   1      32.157  25.088  22.904  1.00  0.00     0.161 C 
BRANCH   7   8
ATOM      8  C   UNL A   1      31.636  25.127  24.317  1.00  0.00     0.272 C 
BRANCH   8   9
ATOM      9  N   UNL A   1      31.979  23.937  25.072  1.00  0.00    -0.334 N 
ATOM     10  C   UNL A   1      31.840  24.101  26.511  1.00  0.00     0.332 C 
ATOM     11  H   UNL A   1      31.295  23.221  24.829  1.00  0.00     0.348 HD
BRANCH   9  12
ATOM     12  C   UNL A   1      33.307  23.446  24.679  1.00  0.00     0.195 C 
ATOM     13  C   UNL A   1      38.010  21.447  25.374  1.00  0.00     0.332 C 
ATOM     14  N   UNL A   1      36.670  21.863  25.769  1.00  0.00    -0.337 N 
ATOM     15  C   UNL A   1      35.348  20.807  25.019  1.00  0.00     0.268 C 
ATOM     16  C   UNL A   1      36.478  23.707  25.763  1.00  0.00     0.268 C 
ATOM     17  H   UNL A   1      36.523  21.663  26.758  1.00  0.00     0.347 HD
ATOM     18  C   UNL A   1      33.565  21.498  24.629  1.00  0.00     0.126 C 
ATOM     19  C   UNL A   1      34.734  24.541  25.471  1.00  0.00     0.126 C 
ENDBRANCH   9  12
ENDBRANCH   8   9
ENDBRANCH   7   8
ENDBRANCH   4   7
ENDBRANCH   2   3
ENDBRANCH   1   2
BRANCH   1  20
ATOM     20  C   UNL A   1      32.596  29.957  26.581  1.00  0.00     0.118 C 
BRANCH  20  21
ATOM     21  N   UNL A   1      32.358  31.323  27.020  1.00  0.00    -0.352 N 
ATOM     22  C   UNL A   1      33.314  32.163  27.568  1.00  0.00     0.251 C 
ATOM     23  H   UNL A   1      31.446  31.679  26.918  1.00  0.00     0.163 HD
ATOM     24  O   UNL A   1      33.040  33.300  27.922  1.00  0.00    -0.269 OA
BRANCH  22  25
ATOM     25  C   UNL A   1      34.669  31.598  27.781  1.00  0.00     0.039 A 
ATOM     26  C   UNL A   1      35.734  32.474  28.000  1.00  0.00     0.014 A 
ATOM     27  C   UNL A   1      34.818  30.228  27.994  1.00  0.00     0.014 A 
ATOM     28  C   UNL A   1      36.920  31.980  28.551  1.00  0.00     0.010 A 
ATOM     29  C   UNL A   1      35.950  29.765  28.652  1.00  0.00     0.010 A 
ATOM     30  C   UNL A   1      37.012  30.635  28.947  1.00  0.00    -0.014 A 
BRANCH  30  31
ATOM     31  C   UNL A   1      38.192  30.111  29.687  1.00  0.00     0.031 A 
ATOM     32  C   UNL A   1      38.426  30.534  31.114  1.00  0.00     0.074 A 
ATOM     33  C   UNL A   1      39.117  29.362  29.050  1.00  0.00     0.049 A 
ATOM     34  N   UNL A   1      39.457  30.305  31.885  1.00  0.00    -0.248 NA
ATOM     35  C   UNL A   1      37.390  31.375  31.738  1.00  0.00     0.031 C 
ATOM     36  C   UNL A   1      39.077  28.976  27.637  1.00  0.00     0.029 A 
ATOM     37  N   UNL A   1      40.290  28.811  29.505  1.00  0.00    -0.354 N 
ATOM     38  C   UNL A   1      39.227  31.032  33.046  1.00  0.00     0.074 A 
ATOM     39  C   UNL A   1      37.979  31.739  32.866  1.00  0.00     0.031 C 
ATOM     40  C   UNL A   1      40.158  28.231  27.350  1.00  0.00     0.029 A 
ATOM     41  C   UNL A   1      40.981  28.102  28.548  1.00  0.00     0.049 A 
ATOM     42  H   UNL A   1      40.608  28.913  30.431  1.00  0.00     0.167 HD
ATOM     43  C   UNL A   1      39.963  31.078  34.181  1.00  0.00     0.034 A 
ATOM     44  C   UNL A   1      42.136  27.411  28.632  1.00  0.00     0.034 A 
ATOM     45  C   UNL A   1      41.133  30.276  34.407  1.00  0.00     0.049 A 
ATOM     46  C   UNL A   1      42.846  27.340  29.958  1.00  0.00     0.074 A 
ATOM     47  C   UNL A   1      41.885  30.155  35.561  1.00  0.00     0.029 A 
ATOM     48  N   UNL A   1      41.699  29.432  33.466  1.00  0.00    -0.354 N 
ATOM     49  N   UNL A   1      42.528  27.912  31.094  1.00  0.00    -0.248 NA
ATOM     50  C   UNL A   1      44.047  26.493  30.029  1.00  0.00     0.031 C 
ATOM     51  C   UNL A   1      42.894  29.215  35.324  1.00  0.00     0.029 A 
ATOM     52  C   UNL A   1      42.774  28.761  34.020  1.00  0.00     0.049 A 
ATOM     53  H   UNL A   1      41.382  29.324  32.540  1.00  0.00     0.167 HD
ATOM     54  C   UNL A   1      43.464  27.468  32.020  1.00  0.00     0.074 A 
ATOM     55  C   UNL A   1      44.351  26.564  31.319  1.00  0.00     0.031 C 
ATOM     56  C   UNL A   1      43.589  27.797  33.329  1.00  0.00     0.034 A 
BRANCH  43  57
ATOM     57  C   UNL A   1      39.460  31.949  35.299  1.00  0.00     0.023 A 
ATOM     58  C   UNL A   1      38.529  31.419  36.217  1.00  0.00     0.012 A 
ATOM     59  C   UNL A   1      39.914  33.272  35.461  1.00  0.00     0.148 A 
ATOM     60  C   UNL A   1      38.025  32.206  37.251  1.00  0.00     0.002 A 
ATOM     61  C   UNL A   1      39.437  34.036  36.520  1.00  0.00     0.091 A 
ATOM     62  F   UNL A   1      40.778  33.769  34.563  1.00  0.00    -0.205 F 
ATOM     63  C   UNL A   1      38.485  33.509  37.407  1.00  0.00     0.022 A 
BRANCH  61  64
ATOM     64  S   UNL A   1      40.029  35.703  36.839  1.00  0.00     0.127 S 
ATOM     65  O   UNL A   1      41.465  35.484  36.990  1.00  0.00    -0.237 OA
ATOM     66  O   UNL A   1      39.645  36.411  35.616  1.00  0.00    -0.237 OA
ATOM     67  O   UNL A   1      39.325  36.146  38.034  1.00  0.00    -0.744 OA
ENDBRANCH  61  64
ENDBRANCH  43  57
BRANCH  44  68
ATOM     68  C   UNL A   1      42.624  26.626  27.461  1.00  0.00     0.023 A 
ATOM     69  C   UNL A   1      43.464  27.260  26.524  1.00  0.00     0.012 A 
ATOM     70  C   UNL A   1      42.301  25.269  27.284  1.00  0.00     0.148 A 
ATOM     71  C   UNL A   1      43.950  26.565  25.416  1.00  0.00     0.002 A 
ATOM     72  C   UNL A   1      42.826  24.568  26.200  1.00  0.00     0.091 A 
ATOM     73  F   UNL A   1      41.488  24.684  28.175  1.00  0.00    -0.205 F 
ATOM     74  C   UNL A   1      43.639  25.218  25.258  1.00  0.00     0.022 A 
BRANCH  72  75
ATOM     75  S   UNL A   1      42.572  22.800  25.998  1.00  0.00     0.127 S 
ATOM     76  O   UNL A   1      41.125  22.686  26.146  1.00  0.00    -0.237 OA
ATOM     77  O   UNL A   1      43.074  22.568  24.642  1.00  0.00    -0.237 OA
ATOM     78  O   UNL A   1      43.377  22.181  27.042  1.00  0.00    -0.744 OA
ENDBRANCH  72  75
ENDBRANCH  44  68
BRANCH  56  79
ATOM     79  C   UNL A   1      44.695  27.151  34.114  1.00  0.00     0.023 A 
ATOM     80  C   UNL A   1      45.953  27.780  34.183  1.00  0.00     0.012 A 
ATOM     81  C   UNL A   1      44.455  25.989  34.874  1.00  0.00     0.148 A 
ATOM     82  C   UNL A   1      46.961  27.255  34.990  1.00  0.00     0.002 A 
ATOM     83  C   UNL A   1      45.454  25.492  35.703  1.00  0.00     0.091 A 
ATOM     84  F   UNL A   1      43.258  25.393  34.773  1.00  0.00    -0.205 F 
ATOM     85  C   UNL A   1      46.708  26.121  35.759  1.00  0.00     0.022 A 
BRANCH  83  86
ATOM     86  S   UNL A   1      45.174  24.090  36.791  1.00  0.00     0.127 S 
ATOM     87  O   UNL A   1      46.493  23.911  37.394  1.00  0.00    -0.237 OA
ATOM     88  O   UNL A   1      44.149  24.597  37.705  1.00  0.00    -0.237 OA
ATOM     89  O   UNL A   1      44.721  23.006  35.927  1.00  0.00    -0.744 OA
ENDBRANCH  83  86
ENDBRANCH  56  79
ENDBRANCH  30  31
ENDBRANCH  22  25
ENDBRANCH  20  21
ENDBRANCH   1  20
TORSDOF 16
ENDMDL
MODEL 2
REMARK VINA RESULT:     -12.0      4.752     10.241
REMARK SMILES C[NH+]1CCC([N@@H+](C)CCC(=O)NCCCNC(=O)c2ccc(-c3c4nc(c(-c5cccc(S(=O)(=O)[O-])c5F)c5ccc([nH]5)c(-c5cccc(S(=O)(=O)[O-])c5F)c5nc(c(-c6cccc(S(=O)(=O)[O-])c6F)c6ccc3[nH]6)C=C5)C=C4)cc2)CC1
REMARK SMILES IDX 14 1 13 2 12 3 10 4 11 5 9 7 8 8 6 9 7 10 5 12 1 13 2 14
REMARK SMILES IDX 3 15 83 16 4 18 82 19 15 20 16 21 17 22 18 24 19 25 20 26
REMARK SMILES IDX 81 27 21 28 80 29 22 30 23 31 24 32 74 33 25 34 79 35 73 36
REMARK SMILES IDX 75 37 26 38 78 39 72 40 71 41 27 43 59 44 39 45 58 46 40 47
REMARK SMILES IDX 43 48 57 49 76 50 41 51 42 52 56 54 77 55 44 56 28 57 29 58
REMARK SMILES IDX 37 59 30 60 32 61 38 62 31 63 33 64 34 65 35 66 36 67 60 68
REMARK SMILES IDX 61 69 69 70 62 71 64 72 70 73 63 74 65 75 66 76 67 77 68 78
REMARK SMILES IDX 45 79 46 80 54 81 47 82 49 83 55 84 48 85 50 86 51 87 52 88
REMARK SMILES IDX 53 89
REMARK H PARENT 12 6 6 11 2 17 16 23 75 42 43 53
REMARK Flexibility Score: inf
ROOT
ATOM      1  C   UNL A   1      36.633  22.665  23.497  1.00  0.00     0.042 C 
ENDROOT
BRANCH   1   2
ATOM      2  C   UNL A   1      35.006  22.779  23.419  1.00  0.00     0.117 C 
BRANCH   2   3
ATOM      3  N   UNL A   1      33.528  21.855  24.387  1.00  0.00    -0.356 N 
ATOM      4  C   UNL A   1      32.586  21.519  25.355  1.00  0.00     0.225 C 
ATOM      5  O   UNL A   1      31.838  20.575  25.046  1.00  0.00    -0.275 OA
ATOM      6  H   UNL A   1      33.322  21.156  23.724  1.00  0.00     0.163 HD
BRANCH   4   7
ATOM      7  C   UNL A   1      32.288  22.205  26.678  1.00  0.00     0.161 C 
BRANCH   7   8
ATOM      8  C   UNL A   1      32.208  23.710  26.674  1.00  0.00     0.272 C 
BRANCH   8   9
ATOM      9  N   UNL A   1      30.863  24.198  26.910  1.00  0.00    -0.334 N 
ATOM     10  C   UNL A   1      29.868  23.141  27.003  1.00  0.00     0.332 C 
ATOM     11  H   UNL A   1      30.860  24.634  27.832  1.00  0.00     0.348 HD
BRANCH   9  12
ATOM     12  C   UNL A   1      30.511  25.228  25.923  1.00  0.00     0.195 C 
ATOM     13  C   UNL A   1      31.361  28.937  22.443  1.00  0.00     0.332 C 
ATOM     14  N   UNL A   1      31.727  27.870  23.364  1.00  0.00    -0.337 N 
ATOM     15  C   UNL A   1      31.165  26.205  22.782  1.00  0.00     0.268 C 
ATOM     16  C   UNL A   1      31.468  28.352  25.135  1.00  0.00     0.268 C 
ATOM     17  H   UNL A   1      32.737  27.734  23.353  1.00  0.00     0.347 HD
ATOM     18  C   UNL A   1      30.726  24.765  24.025  1.00  0.00     0.126 C 
ATOM     19  C   UNL A   1      31.106  27.008  26.508  1.00  0.00     0.126 C 
ENDBRANCH   9  12
ENDBRANCH   8   9
ENDBRANCH   7   8
ENDBRANCH   4   7
ENDBRANCH   2   3
ENDBRANCH   1   2
BRANCH   1  20
ATOM     20  C   UNL A   1      37.099  22.283  24.904  1.00  0.00     0.118 C 
BRANCH  20  21
ATOM     21  N   UNL A   1      38.024  21.168  25.037  1.00  0.00    -0.352 N 
ATOM     22  C   UNL A   1      39.133  21.146  25.868  1.00  0.00     0.251 C 
ATOM     23  H   UNL A   1      37.847  20.366  24.495  1.00  0.00     0.163 HD
ATOM     24  O   UNL A   1      39.873  20.175  25.923  1.00  0.00    -0.269 OA
BRANCH  22  25
ATOM     25  C   UNL A   1      39.432  22.383  26.630  1.00  0.00     0.039 A 
ATOM     26  C   UNL A   1      40.508  22.380  27.520  1.00  0.00     0.014 A 
ATOM     27  C   UNL A   1      38.801  23.577  26.280  1.00  0.00     0.014 A 
ATOM     28  C   UNL A   1      41.027  23.599  27.967  1.00  0.00     0.010 A 
ATOM     29  C   UNL A   1      39.395  24.783  26.629  1.00  0.00     0.010 A 
ATOM     30  C   UNL A   1      40.519  24.811  27.470  1.00  0.00    -0.014 A 
BRANCH  30  31
ATOM     31  C   UNL A   1      41.150  26.120  27.790  1.00  0.00     0.031 A 
ATOM     32  C   UNL A   1      42.567  26.392  27.357  1.00  0.00     0.074 A 
ATOM     33  C   UNL A   1      40.507  27.011  28.575  1.00  0.00     0.049 A 
ATOM     34  N   UNL A   1      43.341  27.402  27.653  1.00  0.00    -0.248 NA
ATOM     35  C   UNL A   1      43.219  25.362  26.529  1.00  0.00     0.031 C 
ATOM     36  C   UNL A   1      39.177  26.827  29.163  1.00  0.00     0.029 A 
ATOM     37  N   UNL A   1      40.897  28.246  29.034  1.00  0.00    -0.354 N 
ATOM     38  C   UNL A   1      44.585  27.093  27.114  1.00  0.00     0.074 A 
ATOM     39  C   UNL A   1      44.473  25.787  26.506  1.00  0.00     0.031 C 
ATOM     40  C   UNL A   1      38.854  27.917  29.879  1.00  0.00     0.029 A 
ATOM     41  C   UNL A   1      39.958  28.870  29.823  1.00  0.00     0.049 A 
ATOM     42  H   UNL A   1      41.770  28.647  28.818  1.00  0.00     0.167 HD
ATOM     43  C   UNL A   1      45.711  27.845  27.087  1.00  0.00     0.034 A 
ATOM     44  C   UNL A   1      39.977  30.080  30.417  1.00  0.00     0.034 A 
ATOM     45  C   UNL A   1      45.783  29.192  27.577  1.00  0.00     0.049 A 
ATOM     46  C   UNL A   1      41.180  30.966  30.226  1.00  0.00     0.074 A 
ATOM     47  C   UNL A   1      46.836  30.084  27.492  1.00  0.00     0.029 A 
ATOM     48  N   UNL A   1      44.745  29.853  28.214  1.00  0.00    -0.354 N 
ATOM     49  N   UNL A   1      42.292  30.715  29.578  1.00  0.00    -0.248 NA
ATOM     50  C   UNL A   1      41.116  32.316  30.806  1.00  0.00     0.031 C 
ATOM     51  C   UNL A   1      46.425  31.296  28.057  1.00  0.00     0.029 A 
ATOM     52  C   UNL A   1      45.119  31.152  28.502  1.00  0.00     0.049 A 
ATOM     53  H   UNL A   1      43.870  29.456  28.428  1.00  0.00     0.167 HD
ATOM     54  C   UNL A   1      43.042  31.883  29.640  1.00  0.00     0.074 A 
ATOM     55  C   UNL A   1      42.252  32.850  30.374  1.00  0.00     0.031 C 
ATOM     56  C   UNL A   1      44.283  32.126  29.153  1.00  0.00     0.034 A 
BRANCH  43  57
ATOM     57  C   UNL A   1      46.920  27.256  26.413  1.00  0.00     0.023 A 
ATOM     58  C   UNL A   1      47.050  27.371  25.013  1.00  0.00     0.012 A 
ATOM     59  C   UNL A   1      47.932  26.615  27.151  1.00  0.00     0.148 A 
ATOM     60  C   UNL A   1      48.146  26.818  24.354  1.00  0.00     0.002 A 
ATOM     61  C   UNL A   1      49.043  26.102  26.490  1.00  0.00     0.091 A 
ATOM     62  F   UNL A   1      47.780  26.490  28.478  1.00  0.00    -0.205 F 
ATOM     63  C   UNL A   1      49.146  26.193  25.092  1.00  0.00     0.022 A 
BRANCH  61  64
ATOM     64  S   UNL A   1      50.413  25.342  27.370  1.00  0.00     0.127 S 
ATOM     65  O   UNL A   1      49.765  24.186  27.986  1.00  0.00    -0.237 OA
ATOM     66  O   UNL A   1      51.340  25.015  26.284  1.00  0.00    -0.237 OA
ATOM     67  O   UNL A   1      50.901  26.361  28.289  1.00  0.00    -0.744 OA
ENDBRANCH  61  64
ENDBRANCH  43  57
BRANCH  44  68
ATOM     68  C   UNL A   1      38.769  30.577  31.137  1.00  0.00     0.023 A 
ATOM     69  C   UNL A   1      38.713  30.439  32.539  1.00  0.00     0.012 A 
ATOM     70  C   UNL A   1      37.706  31.209  30.468  1.00  0.00     0.148 A 
ATOM     71  C   UNL A   1      37.607  30.894  33.257  1.00  0.00     0.002 A 
ATOM     72  C   UNL A   1      36.625  31.702  31.196  1.00  0.00     0.091 A 
ATOM     73  F   UNL A   1      37.767  31.320  29.133  1.00  0.00    -0.205 F 
ATOM     74  C   UNL A   1      36.568  31.533  32.588  1.00  0.00     0.022 A 
BRANCH  72  75
ATOM     75  S   UNL A   1      35.308  32.647  30.420  1.00  0.00     0.127 S 
ATOM     76  O   UNL A   1      36.017  33.842  29.975  1.00  0.00    -0.237 OA
ATOM     77  O   UNL A   1      34.875  31.752  29.345  1.00  0.00    -0.237 OA
ATOM     78  O   UNL A   1      34.314  32.840  31.467  1.00  0.00    -0.744 OA
ENDBRANCH  72  75
ENDBRANCH  44  68
BRANCH  56  79
ATOM     79  C   UNL A   1      44.861  33.499  29.351  1.00  0.00     0.023 A 
ATOM     80  C   UNL A   1      45.563  33.789  30.535  1.00  0.00     0.012 A 
ATOM     81  C   UNL A   1      44.809  34.456  28.319  1.00  0.00     0.148 A 
ATOM     82  C   UNL A   1      46.197  35.020  30.696  1.00  0.00     0.002 A 
ATOM     83  C   UNL A   1      45.474  35.668  28.472  1.00  0.00     0.091 A 
ATOM     84  F   UNL A   1      44.113  34.167  27.209  1.00  0.00    -0.205 F 
ATOM     85  C   UNL A   1      46.164  35.952  29.661  1.00  0.00     0.022 A 
BRANCH  83  86
ATOM     86  S   UNL A   1      45.552  36.881  27.149  1.00  0.00     0.127 S 
ATOM     87  O   UNL A   1      44.150  37.272  27.018  1.00  0.00    -0.237 OA
ATOM     88  O   UNL A   1      46.423  37.912  27.716  1.00  0.00    -0.237 OA
ATOM     89  O   UNL A   1      46.123  36.180  26.005  1.00  0.00    -0.744 OA
ENDBRANCH  83  86
ENDBRANCH  56  79
ENDBRANCH  30  31
ENDBRANCH  22  25
ENDBRANCH  20  21
ENDBRANCH   1  20
TORSDOF 16
ENDMDL
MODEL 3
REMARK VINA RESULT:     -11.9      1.762      2.461
REMARK SMILES C[NH+]1CCC([N@@H+](C)CCC(=O)NCCCNC(=O)c2ccc(-c3c4nc(c(-c5cccc(S(=O)(=O)[O-])c5F)c5ccc([nH]5)c(-c5cccc(S(=O)(=O)[O-])c5F)c5nc(c(-c6cccc(S(=O)(=O)[O-])c6F)c6ccc3[nH]6)C=C5)C=C4)cc2)CC1
REMARK SMILES IDX 14 1 13 2 12 3 10 4 11 5 9 7 8 8 6 9 7 10 5 12 1 13 2 14
REMARK SMILES IDX 3 15 83 16 4 18 82 19 15 20 16 21 17 22 18 24 19 25 20 26
REMARK SMILES IDX 81 27 21 28 80 29 22 30 23 31 24 32 74 33 25 34 79 35 73 36
REMARK SMILES IDX 75 37 26 38 78 39 72 40 71 41 27 43 59 44 39 45 58 46 40 47
REMARK SMILES IDX 43 48 57 49 76 50 41 51 42 52 56 54 77 55 44 56 28 57 29 58
REMARK SMILES IDX 37 59 30 60 32 61 38 62 31 63 33 64 34 65 35 66 36 67 60 68
REMARK SMILES IDX 61 69 69 70 62 71 64 72 70 73 63 74 65 75 66 76 67 77 68 78
REMARK SMILES IDX 45 79 46 80 54 81 47 82 49 83 55 84 48 85 50 86 51 87 52 88
REMARK SMILES IDX 53 89
REMARK H PARENT 12 6 6 11 2 17 16 23 75 42 43 53
REMARK Flexibility Score: inf
ROOT
ATOM      1  C   UNL A   1      31.699  29.374  25.831  1.00  0.00     0.042 C 
ENDROOT
BRANCH   1   2
ATOM      2  C   UNL A   1      32.181  27.862  25.449  1.00  0.00     0.117 C 
BRANCH   2   3
ATOM      3  N   UNL A   1      31.729  26.063  26.182  1.00  0.00    -0.356 N 
ATOM      4  C   UNL A   1      31.812  24.721  26.541  1.00  0.00     0.225 C 
ATOM      5  O   UNL A   1      30.831  24.291  27.173  1.00  0.00    -0.275 OA
ATOM      6  H   UNL A   1      30.828  26.259  26.528  1.00  0.00     0.163 HD
BRANCH   4   7
ATOM      7  C   UNL A   1      32.967  23.751  26.355  1.00  0.00     0.161 C 
BRANCH   7   8
ATOM      8  C   UNL A   1      34.000  24.096  25.314  1.00  0.00     0.272 C 
BRANCH   8   9
ATOM      9  N   UNL A   1      35.065  23.115  25.236  1.00  0.00    -0.334 N 
ATOM     10  C   UNL A   1      36.380  23.700  25.018  1.00  0.00     0.332 C 
ATOM     11  H   UNL A   1      35.132  22.673  26.153  1.00  0.00     0.348 HD
BRANCH   9  12
ATOM     12  C   UNL A   1      34.733  22.074  24.255  1.00  0.00     0.195 C 
ATOM     13  C   UNL A   1      32.159  18.052  22.308  1.00  0.00     0.332 C 
ATOM     14  N   UNL A   1      32.429  19.124  23.256  1.00  0.00    -0.337 N 
ATOM     15  C   UNL A   1      32.154  20.803  22.527  1.00  0.00     0.268 C 
ATOM     16  C   UNL A   1      33.953  18.804  24.261  1.00  0.00     0.268 C 
ATOM     17  H   UNL A   1      31.719  19.126  23.988  1.00  0.00     0.347 HD
ATOM     18  C   UNL A   1      33.149  22.371  23.130  1.00  0.00     0.126 C 
ATOM     19  C   UNL A   1      35.003  20.277  25.004  1.00  0.00     0.126 C 
ENDBRANCH   9  12
ENDBRANCH   8   9
ENDBRANCH   7   8
ENDBRANCH   4   7
ENDBRANCH   2   3
ENDBRANCH   1   2
BRANCH   1  20
ATOM     20  C   UNL A   1      32.596  29.993  26.906  1.00  0.00     0.118 C 
BRANCH  20  21
ATOM     21  N   UNL A   1      32.444  31.412  27.189  1.00  0.00    -0.352 N 
ATOM     22  C   UNL A   1      33.467  32.261  27.579  1.00  0.00     0.251 C 
ATOM     23  H   UNL A   1      31.544  31.798  27.095  1.00  0.00     0.163 HD
ATOM     24  O   UNL A   1      33.265  33.444  27.808  1.00  0.00    -0.269 OA
BRANCH  22  25
ATOM     25  C   UNL A   1      34.807  31.658  27.784  1.00  0.00     0.039 A 
ATOM     26  C   UNL A   1      35.898  32.502  27.992  1.00  0.00     0.014 A 
ATOM     27  C   UNL A   1      34.917  30.284  28.002  1.00  0.00     0.014 A 
ATOM     28  C   UNL A   1      37.074  31.976  28.537  1.00  0.00     0.010 A 
ATOM     29  C   UNL A   1      36.040  29.791  28.654  1.00  0.00     0.010 A 
ATOM     30  C   UNL A   1      37.129  30.631  28.938  1.00  0.00    -0.014 A 
BRANCH  30  31
ATOM     31  C   UNL A   1      38.298  30.075  29.671  1.00  0.00     0.031 A 
ATOM     32  C   UNL A   1      38.562  30.505  31.091  1.00  0.00     0.074 A 
ATOM     33  C   UNL A   1      39.192  29.290  29.032  1.00  0.00     0.049 A 
ATOM     34  N   UNL A   1      39.592  30.250  31.853  1.00  0.00    -0.248 NA
ATOM     35  C   UNL A   1      37.561  31.387  31.717  1.00  0.00     0.031 C 
ATOM     36  C   UNL A   1      39.124  28.890  27.624  1.00  0.00     0.029 A 
ATOM     37  N   UNL A   1      40.351  28.704  29.481  1.00  0.00    -0.354 N 
ATOM     38  C   UNL A   1      39.399  30.996  33.009  1.00  0.00     0.074 A 
ATOM     39  C   UNL A   1      38.174  31.742  32.835  1.00  0.00     0.031 C 
ATOM     40  C   UNL A   1      40.176  28.106  27.334  1.00  0.00     0.029 A 
ATOM     41  C   UNL A   1      41.007  27.962  28.525  1.00  0.00     0.049 A 
ATOM     42  H   UNL A   1      40.682  28.805  30.403  1.00  0.00     0.167 HD
ATOM     43  C   UNL A   1      40.149  31.029  34.136  1.00  0.00     0.034 A 
ATOM     44  C   UNL A   1      42.140  27.235  28.605  1.00  0.00     0.034 A 
ATOM     45  C   UNL A   1      41.293  30.191  34.359  1.00  0.00     0.049 A 
ATOM     46  C   UNL A   1      42.861  27.153  29.924  1.00  0.00     0.074 A 
ATOM     47  C   UNL A   1      42.053  30.057  35.507  1.00  0.00     0.029 A 
ATOM     48  N   UNL A   1      41.821  29.319  33.421  1.00  0.00    -0.354 N 
ATOM     49  N   UNL A   1      42.574  27.748  31.057  1.00  0.00    -0.248 NA
ATOM     50  C   UNL A   1      44.034  26.268  29.992  1.00  0.00     0.031 C 
ATOM     51  C   UNL A   1      43.027  29.081  35.269  1.00  0.00     0.029 A 
ATOM     52  C   UNL A   1      42.878  28.618  33.971  1.00  0.00     0.049 A 
ATOM     53  H   UNL A   1      41.491  29.212  32.499  1.00  0.00     0.167 HD
ATOM     54  C   UNL A   1      43.504  27.282  31.979  1.00  0.00     0.074 A 
ATOM     55  C   UNL A   1      44.354  26.342  31.278  1.00  0.00     0.031 C 
ATOM     56  C   UNL A   1      43.654  27.620  33.283  1.00  0.00     0.034 A 
BRANCH  43  57
ATOM     57  C   UNL A   1      39.686  31.929  35.250  1.00  0.00     0.023 A 
ATOM     58  C   UNL A   1      40.054  33.290  35.230  1.00  0.00     0.012 A 
ATOM     59  C   UNL A   1      38.877  31.445  36.296  1.00  0.00     0.148 A 
ATOM     60  C   UNL A   1      39.662  34.146  36.258  1.00  0.00     0.002 A 
ATOM     61  C   UNL A   1      38.455  32.316  37.295  1.00  0.00     0.091 A 
ATOM     62  F   UNL A   1      38.559  30.142  36.313  1.00  0.00    -0.205 F 
ATOM     63  C   UNL A   1      38.856  33.662  37.283  1.00  0.00     0.022 A 
BRANCH  61  64
ATOM     64  S   UNL A   1      37.357  31.794  38.618  1.00  0.00     0.127 S 
ATOM     65  O   UNL A   1      36.289  32.785  38.526  1.00  0.00    -0.237 OA
ATOM     66  O   UNL A   1      36.975  30.445  38.194  1.00  0.00    -0.237 OA
ATOM     67  O   UNL A   1      38.160  31.836  39.832  1.00  0.00    -0.744 OA
ENDBRANCH  61  64
ENDBRANCH  43  57
BRANCH  44  68
ATOM     68  C   UNL A   1      42.588  26.421  27.437  1.00  0.00     0.023 A 
ATOM     69  C   UNL A   1      43.442  27.017  26.486  1.00  0.00     0.012 A 
ATOM     70  C   UNL A   1      42.216  25.075  27.276  1.00  0.00     0.148 A 
ATOM     71  C   UNL A   1      43.892  26.294  25.381  1.00  0.00     0.002 A 
ATOM     72  C   UNL A   1      42.706  24.346  26.195  1.00  0.00     0.091 A 
ATOM     73  F   UNL A   1      41.392  24.527  28.181  1.00  0.00    -0.205 F 
ATOM     74  C   UNL A   1      43.533  24.958  25.240  1.00  0.00     0.022 A 
BRANCH  72  75
ATOM     75  S   UNL A   1      42.389  22.586  26.013  1.00  0.00     0.127 S 
ATOM     76  O   UNL A   1      40.932  22.551  25.928  1.00  0.00    -0.237 OA
ATOM     77  O   UNL A   1      43.087  22.272  24.765  1.00  0.00    -0.237 OA
ATOM     78  O   UNL A   1      42.980  21.971  27.193  1.00  0.00    -0.744 OA
ENDBRANCH  72  75
ENDBRANCH  44  68
BRANCH  56  79
ATOM     79  C   UNL A   1      44.746  26.946  34.063  1.00  0.00     0.023 A 
ATOM     80  C   UNL A   1      46.027  27.528  34.105  1.00  0.00     0.012 A 
ATOM     81  C   UNL A   1      44.474  25.806  34.845  1.00  0.00     0.148 A 
ATOM     82  C   UNL A   1      47.027  26.979  34.906  1.00  0.00     0.002 A 
ATOM     83  C   UNL A   1      45.465  25.285  35.669  1.00  0.00     0.091 A 
ATOM     84  F   UNL A   1      43.254  25.254  34.770  1.00  0.00    -0.205 F 
ATOM     85  C   UNL A   1      46.742  25.868  35.697  1.00  0.00     0.022 A 
BRANCH  83  86
ATOM     86  S   UNL A   1      45.148  23.912  36.783  1.00  0.00     0.127 S 
ATOM     87  O   UNL A   1      44.553  22.927  35.882  1.00  0.00    -0.237 OA
ATOM     88  O   UNL A   1      46.491  23.572  37.257  1.00  0.00    -0.237 OA
ATOM     89  O   UNL A   1      44.266  24.439  37.816  1.00  0.00    -0.744 OA
ENDBRANCH  83  86
ENDBRANCH  56  79
ENDBRANCH  30  31
ENDBRANCH  22  25
ENDBRANCH  20  21
ENDBRANCH   1  20
TORSDOF 16
ENDMDL
