MODEL 1
REMARK VINA RESULT:     -12.2      0.000      0.000
REMARK SMILES O=C(NCCCNC(=O)[C@]1(CCc2ccccc2)C[C@H]2CC[C@@H]1O2)c1ccc(-c2c3nc(c(-c4cccc(S(=O)(=O)[O-])c4F)c4ccc([nH]4)c(-c4cccc(S(=O)(=O)[O-])c4F)c4nc(c(-c5cccc(S(=O)(=O)[O-])c5F)c5ccc2[nH]5)C=C4)C=C3)cc1
REMARK SMILES IDX 5 1 4 2 3 3 1 4 2 5 25 7 26 8 87 9 27 10 86 11 28 12 29 13
REMARK SMILES IDX 30 14 80 15 31 16 85 17 79 18 81 19 32 20 84 21 78 22 77 23
REMARK SMILES IDX 33 25 65 26 45 27 64 28 46 29 49 30 63 31 82 32 47 33 48 34
REMARK SMILES IDX 62 36 83 37 50 38 34 39 35 40 43 41 36 42 38 43 44 44 37 45
REMARK SMILES IDX 39 46 40 47 41 48 42 49 66 50 67 51 75 52 68 53 70 54 76 55
REMARK SMILES IDX 69 56 71 57 72 58 73 59 74 60 51 61 52 62 60 63 53 64 55 65
REMARK SMILES IDX 61 66 54 67 56 68 57 69 58 70 59 71 6 72 7 73 8 74 9 76
REMARK SMILES IDX 10 77 19 78 23 79 20 80 22 81 24 82 21 83 11 84 12 85 13 86
REMARK SMILES IDX 14 87 18 88 15 89 17 90 16 91
REMARK H PARENT 3 6 81 24 49 35 7 75
REMARK Flexibility Score: inf
ROOT
ATOM      1  C   UNL A   1      36.624  21.470  25.582  1.00  0.00     0.042 C 
ENDROOT
BRANCH   1   2
ATOM      2  C   UNL A   1      38.071  21.446  25.102  1.00  0.00     0.118 C 
BRANCH   2   3
ATOM      3  N   UNL A   1      38.893  20.525  25.881  1.00  0.00    -0.352 N 
ATOM      4  O   UNL A   1      40.741  19.771  26.908  1.00  0.00    -0.269 OA
ATOM      5  C   UNL A   1      40.058  20.736  26.578  1.00  0.00     0.251 C 
ATOM      6  H   UNL A   1      38.557  19.600  25.910  1.00  0.00     0.163 HD
BRANCH   5   7
ATOM      7  C   UNL A   1      40.482  22.107  26.930  1.00  0.00     0.039 A 
ATOM      8  C   UNL A   1      41.407  22.318  27.953  1.00  0.00     0.014 A 
ATOM      9  C   UNL A   1      40.005  23.191  26.188  1.00  0.00     0.014 A 
ATOM     10  C   UNL A   1      41.738  23.611  28.335  1.00  0.00     0.010 A 
ATOM     11  C   UNL A   1      40.422  24.488  26.504  1.00  0.00     0.010 A 
ATOM     12  C   UNL A   1      41.273  24.710  27.596  1.00  0.00    -0.014 A 
BRANCH  12  13
ATOM     13  C   UNL A   1      41.778  26.064  27.934  1.00  0.00     0.031 A 
ATOM     14  C   UNL A   1      43.172  26.492  27.572  1.00  0.00     0.074 A 
ATOM     15  C   UNL A   1      40.950  26.914  28.571  1.00  0.00     0.049 A 
ATOM     16  N   UNL A   1      43.748  27.651  27.765  1.00  0.00    -0.248 NA
ATOM     17  C   UNL A   1      44.035  25.496  26.917  1.00  0.00     0.031 C 
ATOM     18  C   UNL A   1      39.590  26.588  29.014  1.00  0.00     0.029 A 
ATOM     19  N   UNL A   1      41.118  28.218  28.959  1.00  0.00    -0.354 N 
ATOM     20  C   UNL A   1      45.049  27.514  27.297  1.00  0.00     0.074 A 
ATOM     21  C   UNL A   1      45.181  26.156  26.814  1.00  0.00     0.031 C 
ATOM     22  C   UNL A   1      39.039  27.668  29.583  1.00  0.00     0.029 A 
ATOM     23  C   UNL A   1      40.023  28.742  29.605  1.00  0.00     0.049 A 
ATOM     24  H   UNL A   1      41.942  28.729  28.791  1.00  0.00     0.167 HD
ATOM     25  C   UNL A   1      46.036  28.441  27.265  1.00  0.00     0.034 A 
ATOM     26  C   UNL A   1      39.836  29.947  30.175  1.00  0.00     0.034 A 
ATOM     27  C   UNL A   1      45.885  29.796  27.726  1.00  0.00     0.049 A 
ATOM     28  C   UNL A   1      40.942  30.958  30.106  1.00  0.00     0.074 A 
ATOM     29  C   UNL A   1      46.803  30.831  27.672  1.00  0.00     0.029 A 
ATOM     30  N   UNL A   1      44.749  30.305  28.339  1.00  0.00    -0.354 N 
ATOM     31  N   UNL A   1      42.119  30.851  29.540  1.00  0.00    -0.248 NA
ATOM     32  C   UNL A   1      40.687  32.264  30.728  1.00  0.00     0.031 C 
ATOM     33  C   UNL A   1      46.234  31.954  28.283  1.00  0.00     0.029 A 
ATOM     34  C   UNL A   1      44.948  31.632  28.684  1.00  0.00     0.049 A 
ATOM     35  H   UNL A   1      43.922  29.797  28.505  1.00  0.00     0.167 HD
ATOM     36  C   UNL A   1      42.738  32.082  29.715  1.00  0.00     0.074 A 
ATOM     37  C   UNL A   1      41.791  32.928  30.415  1.00  0.00     0.031 C 
ATOM     38  C   UNL A   1      43.981  32.472  29.343  1.00  0.00     0.034 A 
BRANCH  25  39
ATOM     39  C   UNL A   1      47.370  28.033  26.692  1.00  0.00     0.023 A 
ATOM     40  C   UNL A   1      48.426  27.682  27.558  1.00  0.00     0.012 A 
ATOM     41  C   UNL A   1      47.554  27.925  25.300  1.00  0.00     0.148 A 
ATOM     42  C   UNL A   1      49.653  27.260  27.047  1.00  0.00     0.002 A 
ATOM     43  C   UNL A   1      48.766  27.462  24.799  1.00  0.00     0.091 A 
ATOM     44  F   UNL A   1      46.546  28.281  24.492  1.00  0.00    -0.205 F 
ATOM     45  C   UNL A   1      49.819  27.139  25.670  1.00  0.00     0.022 A 
BRANCH  43  46
ATOM     46  S   UNL A   1      49.053  27.196  23.045  1.00  0.00     0.127 S 
ATOM     47  O   UNL A   1      50.510  27.087  22.999  1.00  0.00    -0.237 OA
ATOM     48  O   UNL A   1      48.340  25.941  22.805  1.00  0.00    -0.237 OA
ATOM     49  O   UNL A   1      48.490  28.354  22.365  1.00  0.00    -0.744 OA
ENDBRANCH  43  46
ENDBRANCH  25  39
BRANCH  26  50
ATOM     50  C   UNL A   1      38.535  30.260  30.830  1.00  0.00     0.023 A 
ATOM     51  C   UNL A   1      38.289  29.813  32.142  1.00  0.00     0.012 A 
ATOM     52  C   UNL A   1      37.563  31.044  30.176  1.00  0.00     0.148 A 
ATOM     53  C   UNL A   1      37.088  30.119  32.782  1.00  0.00     0.002 A 
ATOM     54  C   UNL A   1      36.397  31.397  30.842  1.00  0.00     0.091 A 
ATOM     55  F   UNL A   1      37.813  31.450  28.923  1.00  0.00    -0.205 F 
ATOM     56  C   UNL A   1      36.148  30.921  32.138  1.00  0.00     0.022 A 
BRANCH  54  57
ATOM     57  S   UNL A   1      35.201  32.540  30.143  1.00  0.00     0.127 S 
ATOM     58  O   UNL A   1      34.700  31.786  28.998  1.00  0.00    -0.237 OA
ATOM     59  O   UNL A   1      34.249  32.691  31.246  1.00  0.00    -0.237 OA
ATOM     60  O   UNL A   1      35.950  33.749  29.829  1.00  0.00    -0.744 OA
ENDBRANCH  54  57
ENDBRANCH  26  50
BRANCH  38  61
ATOM     61  C   UNL A   1      44.385  33.888  29.659  1.00  0.00     0.023 A 
ATOM     62  C   UNL A   1      45.077  34.172  30.853  1.00  0.00     0.012 A 
ATOM     63  C   UNL A   1      44.129  34.927  28.744  1.00  0.00     0.148 A 
ATOM     64  C   UNL A   1      45.478  35.474  31.146  1.00  0.00     0.002 A 
ATOM     65  C   UNL A   1      44.578  36.212  29.017  1.00  0.00     0.091 A 
ATOM     66  F   UNL A   1      43.450  34.640  27.623  1.00  0.00    -0.205 F 
ATOM     67  C   UNL A   1      45.241  36.491  30.224  1.00  0.00     0.022 A 
BRANCH  65  68
ATOM     68  S   UNL A   1      44.402  37.563  27.847  1.00  0.00     0.127 S 
ATOM     69  O   UNL A   1      45.150  37.057  26.696  1.00  0.00    -0.237 OA
ATOM     70  O   UNL A   1      42.953  37.620  27.655  1.00  0.00    -0.237 OA
ATOM     71  O   UNL A   1      44.973  38.735  28.497  1.00  0.00    -0.744 OA
ENDBRANCH  65  68
ENDBRANCH  38  61
ENDBRANCH  12  13
ENDBRANCH   5   7
ENDBRANCH   2   3
ENDBRANCH   1   2
BRANCH   1  72
ATOM     72  C   UNL A   1      36.207  22.830  26.119  1.00  0.00     0.117 C 
BRANCH  72  73
ATOM     73  N   UNL A   1      35.171  22.736  27.134  1.00  0.00    -0.355 N 
ATOM     74  C   UNL A   1      33.844  22.478  27.044  1.00  0.00     0.228 C 
ATOM     75  H   UNL A   1      35.492  22.888  28.052  1.00  0.00     0.163 HD
ATOM     76  O   UNL A   1      33.373  21.867  28.015  1.00  0.00    -0.274 OA
BRANCH  74  77
ATOM     77  C   UNL A   1      32.897  22.987  25.930  1.00  0.00     0.078 C 
ATOM     78  C   UNL A   1      33.335  24.449  25.629  1.00  0.00     0.051 C 
ATOM     79  C   UNL A   1      31.440  23.245  26.354  1.00  0.00     0.134 C 
ATOM     80  C   UNL A   1      32.177  25.273  26.209  1.00  0.00     0.120 C 
ATOM     81  C   UNL A   1      30.528  23.868  25.284  1.00  0.00     0.036 C 
ATOM     82  O   UNL A   1      31.624  24.396  27.214  1.00  0.00    -0.374 OA
ATOM     83  C   UNL A   1      31.025  25.311  25.218  1.00  0.00     0.035 C 
BRANCH  77  84
ATOM     84  C   UNL A   1      32.952  22.044  24.695  1.00  0.00     0.024 C 
BRANCH  84  85
ATOM     85  C   UNL A   1      32.171  20.715  24.744  1.00  0.00     0.037 C 
BRANCH  85  86
ATOM     86  C   UNL A   1      32.831  19.445  24.255  1.00  0.00    -0.048 A 
ATOM     87  C   UNL A   1      32.263  18.787  23.151  1.00  0.00     0.004 A 
ATOM     88  C   UNL A   1      33.971  18.882  24.845  1.00  0.00     0.004 A 
ATOM     89  C   UNL A   1      32.858  17.647  22.608  1.00  0.00     0.000 A 
ATOM     90  C   UNL A   1      34.577  17.753  24.290  1.00  0.00     0.000 A 
ATOM     91  C   UNL A   1      34.027  17.142  23.167  1.00  0.00     0.000 A 
ENDBRANCH  85  86
ENDBRANCH  84  85
ENDBRANCH  77  84
ENDBRANCH  74  77
ENDBRANCH  72  73
ENDBRANCH   1  72
TORSDOF 16
ENDMDL
MODEL 2
REMARK VINA RESULT:     -12.2      5.038      9.982
REMARK SMILES O=C(NCCCNC(=O)[C@]1(CCc2ccccc2)C[C@H]2CC[C@@H]1O2)c1ccc(-c2c3nc(c(-c4cccc(S(=O)(=O)[O-])c4F)c4ccc([nH]4)c(-c4cccc(S(=O)(=O)[O-])c4F)c4nc(c(-c5cccc(S(=O)(=O)[O-])c5F)c5ccc2[nH]5)C=C4)C=C3)cc1
REMARK SMILES IDX 5 1 4 2 3 3 1 4 2 5 25 7 26 8 87 9 27 10 86 11 28 12 29 13
REMARK SMILES IDX 30 14 80 15 31 16 85 17 79 18 81 19 32 20 84 21 78 22 77 23
REMARK SMILES IDX 33 25 65 26 45 27 64 28 46 29 49 30 63 31 82 32 47 33 48 34
REMARK SMILES IDX 62 36 83 37 50 38 34 39 35 40 43 41 36 42 38 43 44 44 37 45
REMARK SMILES IDX 39 46 40 47 41 48 42 49 66 50 67 51 75 52 68 53 70 54 76 55
REMARK SMILES IDX 69 56 71 57 72 58 73 59 74 60 51 61 52 62 60 63 53 64 55 65
REMARK SMILES IDX 61 66 54 67 56 68 57 69 58 70 59 71 6 72 7 73 8 74 9 76
REMARK SMILES IDX 10 77 19 78 23 79 20 80 22 81 24 82 21 83 11 84 12 85 13 86
REMARK SMILES IDX 14 87 18 88 15 89 17 90 16 91
REMARK H PARENT 3 6 81 24 49 35 7 75
REMARK Flexibility Score: inf
ROOT
ATOM      1  C   UNL A   1      31.842  28.385  26.000  1.00  0.00     0.042 C 
ENDROOT
BRANCH   1   2
ATOM      2  C   UNL A   1      32.914  29.363  25.532  1.00  0.00     0.118 C 
BRANCH   2   3
ATOM      3  N   UNL A   1      32.618  30.735  25.932  1.00  0.00    -0.352 N 
ATOM      4  O   UNL A   1      32.526  32.512  27.301  1.00  0.00    -0.269 OA
ATOM      5  C   UNL A   1      33.125  31.497  26.957  1.00  0.00     0.251 C 
ATOM      6  H   UNL A   1      31.944  31.188  25.377  1.00  0.00     0.163 HD
BRANCH   5   7
ATOM      7  C   UNL A   1      34.378  31.103  27.634  1.00  0.00     0.039 A 
ATOM      8  C   UNL A   1      35.350  32.058  27.931  1.00  0.00     0.014 A 
ATOM      9  C   UNL A   1      34.556  29.777  28.042  1.00  0.00     0.014 A 
ATOM     10  C   UNL A   1      36.559  31.669  28.491  1.00  0.00     0.010 A 
ATOM     11  C   UNL A   1      35.731  29.405  28.704  1.00  0.00     0.010 A 
ATOM     12  C   UNL A   1      36.752  30.344  28.911  1.00  0.00    -0.014 A 
BRANCH  12  13
ATOM     13  C   UNL A   1      37.991  30.003  29.653  1.00  0.00     0.031 A 
ATOM     14  C   UNL A   1      38.235  30.513  31.045  1.00  0.00     0.074 A 
ATOM     15  C   UNL A   1      38.899  29.211  29.050  1.00  0.00     0.049 A 
ATOM     16  N   UNL A   1      39.249  30.274  31.837  1.00  0.00    -0.248 NA
ATOM     17  C   UNL A   1      37.221  31.409  31.624  1.00  0.00     0.031 C 
ATOM     18  C   UNL A   1      38.787  28.696  27.681  1.00  0.00     0.029 A 
ATOM     19  N   UNL A   1      40.088  28.698  29.498  1.00  0.00    -0.354 N 
ATOM     20  C   UNL A   1      39.020  31.020  32.987  1.00  0.00     0.074 A 
ATOM     21  C   UNL A   1      37.771  31.725  32.788  1.00  0.00     0.031 C 
ATOM     22  C   UNL A   1      39.844  27.920  27.412  1.00  0.00     0.029 A 
ATOM     23  C   UNL A   1      40.740  27.930  28.561  1.00  0.00     0.049 A 
ATOM     24  H   UNL A   1      40.441  28.862  30.402  1.00  0.00     0.167 HD
ATOM     25  C   UNL A   1      39.778  31.099  34.107  1.00  0.00     0.034 A 
ATOM     26  C   UNL A   1      41.939  27.319  28.609  1.00  0.00     0.034 A 
ATOM     27  C   UNL A   1      41.006  30.374  34.302  1.00  0.00     0.049 A 
ATOM     28  C   UNL A   1      42.746  27.410  29.870  1.00  0.00     0.074 A 
ATOM     29  C   UNL A   1      41.810  30.332  35.428  1.00  0.00     0.029 A 
ATOM     30  N   UNL A   1      41.617  29.575  33.347  1.00  0.00    -0.354 N 
ATOM     31  N   UNL A   1      42.447  28.013  30.996  1.00  0.00    -0.248 NA
ATOM     32  C   UNL A   1      44.039  26.716  29.882  1.00  0.00     0.031 C 
ATOM     33  C   UNL A   1      42.924  29.535  35.141  1.00  0.00     0.029 A 
ATOM     34  C   UNL A   1      42.796  29.049  33.850  1.00  0.00     0.049 A 
ATOM     35  H   UNL A   1      41.265  29.405  32.444  1.00  0.00     0.167 HD
ATOM     36  C   UNL A   1      43.503  27.752  31.858  1.00  0.00     0.074 A 
ATOM     37  C   UNL A   1      44.435  26.911  31.132  1.00  0.00     0.031 C 
ATOM     38  C   UNL A   1      43.692  28.180  33.129  1.00  0.00     0.034 A 
BRANCH  25  39
ATOM     39  C   UNL A   1      39.294  31.987  35.226  1.00  0.00     0.023 A 
ATOM     40  C   UNL A   1      38.382  31.482  36.175  1.00  0.00     0.012 A 
ATOM     41  C   UNL A   1      39.798  33.293  35.379  1.00  0.00     0.148 A 
ATOM     42  C   UNL A   1      37.957  32.273  37.242  1.00  0.00     0.002 A 
ATOM     43  C   UNL A   1      39.402  34.061  36.469  1.00  0.00     0.091 A 
ATOM     44  F   UNL A   1      40.649  33.763  34.457  1.00  0.00    -0.205 F 
ATOM     45  C   UNL A   1      38.474  33.556  37.395  1.00  0.00     0.022 A 
BRANCH  43  46
ATOM     46  S   UNL A   1      40.072  35.696  36.799  1.00  0.00     0.127 S 
ATOM     47  O   UNL A   1      39.592  36.448  35.641  1.00  0.00    -0.237 OA
ATOM     48  O   UNL A   1      39.421  36.044  38.063  1.00  0.00    -0.237 OA
ATOM     49  O   UNL A   1      41.515  35.530  36.883  1.00  0.00    -0.744 OA
ENDBRANCH  43  46
ENDBRANCH  25  39
BRANCH  26  50
ATOM     50  C   UNL A   1      42.422  26.548  27.430  1.00  0.00     0.023 A 
ATOM     51  C   UNL A   1      43.224  27.182  26.462  1.00  0.00     0.012 A 
ATOM     52  C   UNL A   1      42.133  25.175  27.294  1.00  0.00     0.148 A 
ATOM     53  C   UNL A   1      43.708  26.469  25.365  1.00  0.00     0.002 A 
ATOM     54  C   UNL A   1      42.670  24.458  26.233  1.00  0.00     0.091 A 
ATOM     55  F   UNL A   1      41.359  24.594  28.220  1.00  0.00    -0.205 F 
ATOM     56  C   UNL A   1      43.443  25.105  25.257  1.00  0.00     0.022 A 
BRANCH  54  57
ATOM     57  S   UNL A   1      42.498  22.675  26.094  1.00  0.00     0.127 S 
ATOM     58  O   UNL A   1      41.047  22.515  26.097  1.00  0.00    -0.237 OA
ATOM     59  O   UNL A   1      43.145  22.410  24.807  1.00  0.00    -0.237 OA
ATOM     60  O   UNL A   1      43.201  22.122  27.244  1.00  0.00    -0.744 OA
ENDBRANCH  54  57
ENDBRANCH  26  50
BRANCH  38  61
ATOM     61  C   UNL A   1      44.942  27.724  33.835  1.00  0.00     0.023 A 
ATOM     62  C   UNL A   1      46.102  28.523  33.795  1.00  0.00     0.012 A 
ATOM     63  C   UNL A   1      44.947  26.533  34.585  1.00  0.00     0.148 A 
ATOM     64  C   UNL A   1      47.258  28.125  34.464  1.00  0.00     0.002 A 
ATOM     65  C   UNL A   1      46.086  26.169  35.292  1.00  0.00     0.091 A 
ATOM     66  F   UNL A   1      43.839  25.777  34.593  1.00  0.00    -0.205 F 
ATOM     67  C   UNL A   1      47.247  26.956  35.222  1.00  0.00     0.022 A 
BRANCH  65  68
ATOM     68  S   UNL A   1      46.131  24.733  36.370  1.00  0.00     0.127 S 
ATOM     69  O   UNL A   1      47.498  24.792  36.885  1.00  0.00    -0.237 OA
ATOM     70  O   UNL A   1      45.095  25.051  37.353  1.00  0.00    -0.237 OA
ATOM     71  O   UNL A   1      45.831  23.586  35.524  1.00  0.00    -0.744 OA
ENDBRANCH  65  68
ENDBRANCH  38  61
ENDBRANCH  12  13
ENDBRANCH   5   7
ENDBRANCH   2   3
ENDBRANCH   1   2
BRANCH   1  72
ATOM     72  C   UNL A   1      31.333  27.492  24.880  1.00  0.00     0.117 C 
BRANCH  72  73
ATOM     73  N   UNL A   1      30.458  26.436  25.361  1.00  0.00    -0.355 N 
ATOM     74  C   UNL A   1      30.720  25.280  26.019  1.00  0.00     0.228 C 
ATOM     75  H   UNL A   1      29.504  26.587  25.174  1.00  0.00     0.163 HD
ATOM     76  O   UNL A   1      29.831  24.927  26.808  1.00  0.00    -0.274 OA
BRANCH  74  77
ATOM     77  C   UNL A   1      31.931  24.349  25.766  1.00  0.00     0.078 C 
ATOM     78  C   UNL A   1      31.889  23.994  24.251  1.00  0.00     0.051 C 
ATOM     79  C   UNL A   1      31.824  22.933  26.358  1.00  0.00     0.134 C 
ATOM     80  C   UNL A   1      31.475  22.516  24.265  1.00  0.00     0.120 C 
ATOM     81  C   UNL A   1      32.966  21.967  26.004  1.00  0.00     0.036 C 
ATOM     82  O   UNL A   1      30.776  22.384  25.522  1.00  0.00    -0.374 OA
ATOM     83  C   UNL A   1      32.688  21.642  24.537  1.00  0.00     0.035 C 
BRANCH  77  84
ATOM     84  C   UNL A   1      33.250  25.036  26.217  1.00  0.00     0.024 C 
BRANCH  84  85
ATOM     85  C   UNL A   1      34.338  25.317  25.161  1.00  0.00     0.037 C 
BRANCH  85  86
ATOM     86  C   UNL A   1      35.370  24.256  24.853  1.00  0.00    -0.048 A 
ATOM     87  C   UNL A   1      36.210  23.828  25.895  1.00  0.00     0.004 A 
ATOM     88  C   UNL A   1      35.542  23.682  23.586  1.00  0.00     0.004 A 
ATOM     89  C   UNL A   1      37.139  22.805  25.696  1.00  0.00     0.000 A 
ATOM     90  C   UNL A   1      36.459  22.645  23.392  1.00  0.00     0.000 A 
ATOM     91  C   UNL A   1      37.250  22.201  24.448  1.00  0.00     0.000 A 
ENDBRANCH  85  86
ENDBRANCH  84  85
ENDBRANCH  77  84
ENDBRANCH  74  77
ENDBRANCH  72  73
ENDBRANCH   1  72
TORSDOF 16
ENDMDL
MODEL 3
REMARK VINA RESULT:     -12.2      1.381      7.777
REMARK SMILES O=C(NCCCNC(=O)[C@]1(CCc2ccccc2)C[C@H]2CC[C@@H]1O2)c1ccc(-c2c3nc(c(-c4cccc(S(=O)(=O)[O-])c4F)c4ccc([nH]4)c(-c4cccc(S(=O)(=O)[O-])c4F)c4nc(c(-c5cccc(S(=O)(=O)[O-])c5F)c5ccc2[nH]5)C=C4)C=C3)cc1
REMARK SMILES IDX 5 1 4 2 3 3 1 4 2 5 25 7 26 8 87 9 27 10 86 11 28 12 29 13
REMARK SMILES IDX 30 14 80 15 31 16 85 17 79 18 81 19 32 20 84 21 78 22 77 23
REMARK SMILES IDX 33 25 65 26 45 27 64 28 46 29 49 30 63 31 82 32 47 33 48 34
REMARK SMILES IDX 62 36 83 37 50 38 34 39 35 40 43 41 36 42 38 43 44 44 37 45
REMARK SMILES IDX 39 46 40 47 41 48 42 49 66 50 67 51 75 52 68 53 70 54 76 55
REMARK SMILES IDX 69 56 71 57 72 58 73 59 74 60 51 61 52 62 60 63 53 64 55 65
REMARK SMILES IDX 61 66 54 67 56 68 57 69 58 70 59 71 6 72 7 73 8 74 9 76
REMARK SMILES IDX 10 77 19 78 23 79 20 80 22 81 24 82 21 83 11 84 12 85 13 86
REMARK SMILES IDX 14 87 18 88 15 89 17 90 16 91
REMARK H PARENT 3 6 81 24 49 35 7 75
REMARK Flexibility Score: inf
ROOT
ATOM      1  C   UNL A   1      37.723  19.197  24.978  1.00  0.00     0.042 C 
ENDROOT
BRANCH   1   2
ATOM      2  C   UNL A   1      38.837  20.056  25.568  1.00  0.00     0.118 C 
BRANCH   2   3
ATOM      3  N   UNL A   1      39.941  19.249  26.078  1.00  0.00    -0.352 N 
ATOM      4  O   UNL A   1      42.073  18.732  26.552  1.00  0.00    -0.269 OA
ATOM      5  C   UNL A   1      41.218  19.605  26.438  1.00  0.00     0.251 C 
ATOM      6  H   UNL A   1      39.736  18.291  26.179  1.00  0.00     0.163 HD
BRANCH   5   7
ATOM      7  C   UNL A   1      41.557  21.021  26.689  1.00  0.00     0.039 A 
ATOM      8  C   UNL A   1      42.315  21.377  27.806  1.00  0.00     0.014 A 
ATOM      9  C   UNL A   1      41.176  21.999  25.765  1.00  0.00     0.014 A 
ATOM     10  C   UNL A   1      42.559  22.716  28.081  1.00  0.00     0.010 A 
ATOM     11  C   UNL A   1      41.516  23.337  25.988  1.00  0.00     0.010 A 
ATOM     12  C   UNL A   1      42.189  23.709  27.161  1.00  0.00    -0.014 A 
BRANCH  12  13
ATOM     13  C   UNL A   1      42.612  25.109  27.412  1.00  0.00     0.031 A 
ATOM     14  C   UNL A   1      41.701  26.093  28.089  1.00  0.00     0.074 A 
ATOM     15  C   UNL A   1      43.847  25.481  27.024  1.00  0.00     0.049 A 
ATOM     16  N   UNL A   1      41.937  27.338  28.411  1.00  0.00    -0.248 NA
ATOM     17  C   UNL A   1      40.350  25.628  28.444  1.00  0.00     0.031 C 
ATOM     18  C   UNL A   1      44.801  24.620  26.316  1.00  0.00     0.029 A 
ATOM     19  N   UNL A   1      44.519  26.668  27.166  1.00  0.00    -0.354 N 
ATOM     20  C   UNL A   1      40.758  27.820  28.966  1.00  0.00     0.074 A 
ATOM     21  C   UNL A   1      39.804  26.733  28.933  1.00  0.00     0.031 C 
ATOM     22  C   UNL A   1      45.939  25.296  26.112  1.00  0.00     0.029 A 
ATOM     23  C   UNL A   1      45.779  26.653  26.615  1.00  0.00     0.049 A 
ATOM     24  H   UNL A   1      44.136  27.454  27.618  1.00  0.00     0.167 HD
ATOM     25  C   UNL A   1      40.503  29.053  29.466  1.00  0.00     0.034 A 
ATOM     26  C   UNL A   1      46.699  27.629  26.506  1.00  0.00     0.034 A 
ATOM     27  C   UNL A   1      41.469  30.119  29.516  1.00  0.00     0.049 A 
ATOM     28  C   UNL A   1      46.393  28.978  27.086  1.00  0.00     0.074 A 
ATOM     29  C   UNL A   1      41.330  31.381  30.067  1.00  0.00     0.029 A 
ATOM     30  N   UNL A   1      42.749  30.056  28.986  1.00  0.00    -0.354 N 
ATOM     31  N   UNL A   1      45.319  29.374  27.727  1.00  0.00    -0.248 NA
ATOM     32  C   UNL A   1      47.431  30.008  26.956  1.00  0.00     0.031 C 
ATOM     33  C   UNL A   1      42.512  32.092  29.839  1.00  0.00     0.029 A 
ATOM     34  C   UNL A   1      43.404  31.262  29.179  1.00  0.00     0.049 A 
ATOM     35  H   UNL A   1      43.136  29.271  28.537  1.00  0.00     0.167 HD
ATOM     36  C   UNL A   1      45.561  30.689  28.098  1.00  0.00     0.074 A 
ATOM     37  C   UNL A   1      46.896  31.013  27.635  1.00  0.00     0.031 C 
ATOM     38  C   UNL A   1      44.748  31.555  28.749  1.00  0.00     0.034 A 
BRANCH  25  39
ATOM     39  C   UNL A   1      39.127  29.318  30.024  1.00  0.00     0.023 A 
ATOM     40  C   UNL A   1      38.814  28.914  31.337  1.00  0.00     0.012 A 
ATOM     41  C   UNL A   1      38.170  30.031  29.274  1.00  0.00     0.148 A 
ATOM     42  C   UNL A   1      37.561  29.189  31.886  1.00  0.00     0.002 A 
ATOM     43  C   UNL A   1      36.939  30.339  29.843  1.00  0.00     0.091 A 
ATOM     44  F   UNL A   1      38.478  30.391  28.021  1.00  0.00    -0.205 F 
ATOM     45  C   UNL A   1      36.630  29.910  31.144  1.00  0.00     0.022 A 
BRANCH  43  46
ATOM     46  S   UNL A   1      35.702  31.331  28.999  1.00  0.00     0.127 S 
ATOM     47  O   UNL A   1      35.006  30.320  28.204  1.00  0.00    -0.237 OA
ATOM     48  O   UNL A   1      34.923  31.867  30.117  1.00  0.00    -0.237 OA
ATOM     49  O   UNL A   1      36.438  32.329  28.237  1.00  0.00    -0.744 OA
ENDBRANCH  43  46
ENDBRANCH  25  39
BRANCH  26  50
ATOM     50  C   UNL A   1      48.001  27.345  25.842  1.00  0.00     0.023 A 
ATOM     51  C   UNL A   1      49.067  26.815  26.594  1.00  0.00     0.012 A 
ATOM     52  C   UNL A   1      48.170  27.548  24.458  1.00  0.00     0.148 A 
ATOM     53  C   UNL A   1      50.286  26.516  25.985  1.00  0.00     0.002 A 
ATOM     54  C   UNL A   1      49.365  27.192  23.846  1.00  0.00     0.091 A 
ATOM     55  F   UNL A   1      47.147  28.065  23.763  1.00  0.00    -0.205 F 
ATOM     56  C   UNL A   1      50.431  26.692  24.610  1.00  0.00     0.022 A 
BRANCH  54  57
ATOM     57  S   UNL A   1      49.587  27.250  22.066  1.00  0.00     0.127 S 
ATOM     58  O   UNL A   1      51.001  26.913  21.930  1.00  0.00    -0.237 OA
ATOM     59  O   UNL A   1      48.660  26.211  21.612  1.00  0.00    -0.237 OA
ATOM     60  O   UNL A   1      49.215  28.600  21.667  1.00  0.00    -0.744 OA
ENDBRANCH  54  57
ENDBRANCH  26  50
BRANCH  38  61
ATOM     61  C   UNL A   1      45.287  32.933  29.029  1.00  0.00     0.023 A 
ATOM     62  C   UNL A   1      46.024  33.174  30.206  1.00  0.00     0.012 A 
ATOM     63  C   UNL A   1      45.112  33.974  28.097  1.00  0.00     0.148 A 
ATOM     64  C   UNL A   1      46.549  34.438  30.467  1.00  0.00     0.002 A 
ATOM     65  C   UNL A   1      45.683  35.217  28.338  1.00  0.00     0.091 A 
ATOM     66  F   UNL A   1      44.390  33.730  26.994  1.00  0.00    -0.205 F 
ATOM     67  C   UNL A   1      46.389  35.455  29.528  1.00  0.00     0.022 A 
BRANCH  65  68
ATOM     68  S   UNL A   1      45.612  36.556  27.143  1.00  0.00     0.127 S 
ATOM     69  O   UNL A   1      44.169  36.728  26.975  1.00  0.00    -0.237 OA
ATOM     70  O   UNL A   1      46.276  37.645  27.859  1.00  0.00    -0.237 OA
ATOM     71  O   UNL A   1      46.326  36.082  25.966  1.00  0.00    -0.744 OA
ENDBRANCH  65  68
ENDBRANCH  38  61
ENDBRANCH  12  13
ENDBRANCH   5   7
ENDBRANCH   2   3
ENDBRANCH   1   2
BRANCH   1  72
ATOM     72  C   UNL A   1      36.472  19.999  24.658  1.00  0.00     0.117 C 
BRANCH  72  73
ATOM     73  N   UNL A   1      36.000  20.775  25.793  1.00  0.00    -0.355 N 
ATOM     74  C   UNL A   1      34.843  21.447  26.005  1.00  0.00     0.228 C 
ATOM     75  H   UNL A   1      36.636  20.819  26.543  1.00  0.00     0.163 HD
ATOM     76  O   UNL A   1      34.468  21.463  27.187  1.00  0.00    -0.274 OA
BRANCH  74  77
ATOM     77  C   UNL A   1      34.068  22.270  24.946  1.00  0.00     0.078 C 
ATOM     78  C   UNL A   1      35.136  23.119  24.197  1.00  0.00     0.051 C 
ATOM     79  C   UNL A   1      33.186  23.406  25.495  1.00  0.00     0.134 C 
ATOM     80  C   UNL A   1      34.844  24.541  24.695  1.00  0.00     0.120 C 
ATOM     81  C   UNL A   1      32.514  24.304  24.442  1.00  0.00     0.036 C 
ATOM     82  O   UNL A   1      34.207  24.317  25.971  1.00  0.00    -0.374 OA
ATOM     83  C   UNL A   1      33.683  25.133  23.913  1.00  0.00     0.035 C 
BRANCH  77  84
ATOM     84  C   UNL A   1      33.245  21.331  24.022  1.00  0.00     0.024 C 
BRANCH  84  85
ATOM     85  C   UNL A   1      32.369  20.239  24.667  1.00  0.00     0.037 C 
BRANCH  85  86
ATOM     86  C   UNL A   1      32.789  18.790  24.566  1.00  0.00    -0.048 A 
ATOM     87  C   UNL A   1      32.600  17.966  25.689  1.00  0.00     0.004 A 
ATOM     88  C   UNL A   1      33.364  18.224  23.420  1.00  0.00     0.004 A 
ATOM     89  C   UNL A   1      32.905  16.605  25.642  1.00  0.00     0.000 A 
ATOM     90  C   UNL A   1      33.651  16.858  23.367  1.00  0.00     0.000 A 
ATOM     91  C   UNL A   1      33.413  16.047  24.473  1.00  0.00     0.000 A 
ENDBRANCH  85  86
ENDBRANCH  84  85
ENDBRANCH  77  84
ENDBRANCH  74  77
ENDBRANCH  72  73
ENDBRANCH   1  72
TORSDOF 16
ENDMDL
