MODEL 1
REMARK VINA RESULT:     -11.3      0.000      0.000
REMARK SMILES CN(CCC(F)(F)F)C(=O)c1cccn1CC(=O)NCCCNC(=O)c1ccc(-c2c3nc(c(-c4cccc(S(=O)(=O)[O-])c4F)c4ccc([nH]4)c(-c4cccc(S(=O)(=O)[O-])c4F)c4nc(c(-c5cccc(S(=O)(=O)[O-])c5F)c5ccc2[nH]5)C=C4)C=C3)cc1
REMARK SMILES IDX 17 1 18 2 19 3 16 5 15 6 11 7 12 8 13 9 14 10 9 11 10 12
REMARK SMILES IDX 2 13 1 14 3 15 4 16 5 17 6 18 7 19 8 20 20 21 21 22 22 23
REMARK SMILES IDX 23 24 24 25 25 27 26 28 27 29 88 30 28 31 87 32 29 33 30 34
REMARK SMILES IDX 31 35 81 36 32 37 86 38 80 39 82 40 33 41 85 42 79 43 78 44
REMARK SMILES IDX 34 46 66 47 46 48 65 49 47 50 50 51 64 52 83 53 48 54 49 55
REMARK SMILES IDX 63 57 84 58 51 59 35 60 36 61 44 62 37 63 39 64 45 65 38 66
REMARK SMILES IDX 40 67 41 68 42 69 43 70 67 71 68 72 76 73 69 74 71 75 77 76
REMARK SMILES IDX 70 77 72 78 73 79 74 80 75 81 52 82 53 83 61 84 54 85 56 86
REMARK SMILES IDX 62 87 55 88 57 89 58 90 59 91 60 92
REMARK H PARENT 19 4 23 26 82 45 50 56
REMARK Flexibility Score: inf
ROOT
ATOM      1  C   UNL A   1      32.298  25.511  26.239  1.00  0.00     0.239 C 
ATOM      2  O   UNL A   1      31.966  24.789  27.179  1.00  0.00    -0.273 OA
ATOM      3  N   UNL A   1      32.361  26.861  26.436  1.00  0.00    -0.354 N 
ATOM      4  H   UNL A   1      32.091  27.177  27.329  1.00  0.00     0.163 HD
ENDROOT
BRANCH   1   5
ATOM      5  C   UNL A   1      32.713  24.926  24.909  1.00  0.00     0.222 C 
BRANCH   5   6
ATOM      6  N   UNL A   1      33.879  24.053  24.973  1.00  0.00    -0.334 N 
ATOM      7  C   UNL A   1      33.887  22.679  24.785  1.00  0.00     0.107 A 
ATOM      8  C   UNL A   1      35.204  22.352  24.502  1.00  0.00     0.033 A 
ATOM      9  C   UNL A   1      36.016  23.476  24.765  1.00  0.00     0.020 A 
ATOM     10  C   UNL A   1      35.170  24.509  25.087  1.00  0.00     0.087 A 
BRANCH   7  11
ATOM     11  C   UNL A   1      32.719  21.821  24.758  1.00  0.00     0.270 C 
ATOM     12  O   UNL A   1      31.899  21.836  25.676  1.00  0.00    -0.267 OA
BRANCH  11  13
ATOM     13  N   UNL A   1      32.581  20.912  23.688  1.00  0.00    -0.340 N 
ATOM     14  C   UNL A   1      32.037  21.460  22.453  1.00  0.00     0.147 C 
BRANCH  13  15
ATOM     15  C   UNL A   1      32.573  19.450  23.819  1.00  0.00     0.129 C 
BRANCH  15  16
ATOM     16  C   UNL A   1      33.828  18.803  24.390  1.00  0.00     0.137 C 
BRANCH  16  17
ATOM     17  C   UNL A   1      33.978  17.359  23.989  1.00  0.00     0.390 C 
ATOM     18  F   UNL A   1      35.105  16.814  24.484  1.00  0.00    -0.171 F 
ATOM     19  F   UNL A   1      32.939  16.634  24.465  1.00  0.00    -0.171 F 
ATOM     20  F   UNL A   1      33.973  17.219  22.650  1.00  0.00    -0.171 F 
ENDBRANCH  16  17
ENDBRANCH  15  16
ENDBRANCH  13  15
ENDBRANCH  11  13
ENDBRANCH   7  11
ENDBRANCH   5   6
ENDBRANCH   1   5
BRANCH   3  21
ATOM     21  C   UNL A   1      32.772  27.885  25.501  1.00  0.00     0.117 C 
BRANCH  21  22
ATOM     22  C   UNL A   1      34.225  28.306  25.709  1.00  0.00     0.042 C 
BRANCH  22  23
ATOM     23  C   UNL A   1      34.539  28.615  27.159  1.00  0.00     0.118 C 
BRANCH  23  24
ATOM     24  N   UNL A   1      34.884  30.027  27.297  1.00  0.00    -0.352 N 
ATOM     25  C   UNL A   1      36.016  30.597  27.821  1.00  0.00     0.251 C 
ATOM     26  H   UNL A   1      34.206  30.661  26.969  1.00  0.00     0.163 HD
ATOM     27  O   UNL A   1      35.996  31.773  28.149  1.00  0.00    -0.269 OA
BRANCH  25  28
ATOM     28  C   UNL A   1      37.233  29.785  27.996  1.00  0.00     0.039 A 
ATOM     29  C   UNL A   1      38.159  29.748  26.948  1.00  0.00     0.014 A 
ATOM     30  C   UNL A   1      37.437  29.039  29.161  1.00  0.00     0.014 A 
ATOM     31  C   UNL A   1      39.323  29.010  27.099  1.00  0.00     0.010 A 
ATOM     32  C   UNL A   1      38.619  28.350  29.338  1.00  0.00     0.010 A 
ATOM     33  C   UNL A   1      39.556  28.338  28.307  1.00  0.00    -0.014 A 
BRANCH  33  34
ATOM     34  C   UNL A   1      40.871  27.722  28.547  1.00  0.00     0.031 A 
ATOM     35  C   UNL A   1      40.869  26.255  28.042  1.00  0.00     0.074 A 
ATOM     36  C   UNL A   1      41.793  28.535  29.157  1.00  0.00     0.049 A 
ATOM     37  N   UNL A   1      41.376  25.182  28.574  1.00  0.00    -0.248 NA
ATOM     38  C   UNL A   1      40.058  25.901  26.840  1.00  0.00     0.031 C 
ATOM     39  C   UNL A   1      41.577  29.966  29.502  1.00  0.00     0.029 A 
ATOM     40  N   UNL A   1      43.086  28.364  29.601  1.00  0.00    -0.354 N 
ATOM     41  C   UNL A   1      41.169  24.111  27.660  1.00  0.00     0.074 A 
ATOM     42  C   UNL A   1      40.208  24.577  26.711  1.00  0.00     0.031 C 
ATOM     43  C   UNL A   1      42.639  30.482  30.160  1.00  0.00     0.029 A 
ATOM     44  C   UNL A   1      43.656  29.459  30.304  1.00  0.00     0.049 A 
ATOM     45  H   UNL A   1      43.585  27.531  29.440  1.00  0.00     0.167 HD
ATOM     46  C   UNL A   1      41.955  22.987  27.640  1.00  0.00     0.034 A 
ATOM     47  C   UNL A   1      44.835  29.511  31.005  1.00  0.00     0.034 A 
ATOM     48  C   UNL A   1      43.008  23.166  28.588  1.00  0.00     0.049 A 
ATOM     49  C   UNL A   1      45.472  28.210  30.766  1.00  0.00     0.074 A 
ATOM     50  C   UNL A   1      43.044  23.156  29.956  1.00  0.00     0.029 A 
ATOM     51  N   UNL A   1      44.121  23.805  28.092  1.00  0.00    -0.354 N 
ATOM     52  N   UNL A   1      46.009  27.846  29.638  1.00  0.00    -0.248 NA
ATOM     53  C   UNL A   1      45.346  27.173  31.797  1.00  0.00     0.031 C 
ATOM     54  C   UNL A   1      43.916  24.226  30.244  1.00  0.00     0.029 A 
ATOM     55  C   UNL A   1      44.572  24.642  29.076  1.00  0.00     0.049 A 
ATOM     56  H   UNL A   1      44.518  23.684  27.200  1.00  0.00     0.167 HD
ATOM     57  C   UNL A   1      45.928  26.478  29.719  1.00  0.00     0.074 A 
ATOM     58  C   UNL A   1      45.857  26.147  31.125  1.00  0.00     0.031 C 
ATOM     59  C   UNL A   1      45.385  25.769  28.692  1.00  0.00     0.034 A 
BRANCH  46  60
ATOM     60  C   UNL A   1      42.155  21.812  26.700  1.00  0.00     0.023 A 
ATOM     61  C   UNL A   1      41.150  20.798  26.788  1.00  0.00     0.012 A 
ATOM     62  C   UNL A   1      43.333  21.478  26.014  1.00  0.00     0.148 A 
ATOM     63  C   UNL A   1      41.359  19.486  26.370  1.00  0.00     0.002 A 
ATOM     64  C   UNL A   1      43.517  20.170  25.544  1.00  0.00     0.091 A 
ATOM     65  F   UNL A   1      44.298  22.394  25.883  1.00  0.00    -0.205 F 
ATOM     66  C   UNL A   1      42.557  19.168  25.764  1.00  0.00     0.022 A 
BRANCH  64  67
ATOM     67  S   UNL A   1      44.981  19.641  24.645  1.00  0.00     0.127 S 
ATOM     68  O   UNL A   1      45.051  18.222  24.986  1.00  0.00    -0.237 OA
ATOM     69  O   UNL A   1      44.594  19.911  23.258  1.00  0.00    -0.237 OA
ATOM     70  O   UNL A   1      46.067  20.479  25.132  1.00  0.00    -0.744 OA
ENDBRANCH  64  67
ENDBRANCH  46  60
BRANCH  47  71
ATOM     71  C   UNL A   1      45.489  30.430  32.019  1.00  0.00     0.023 A 
ATOM     72  C   UNL A   1      44.985  30.691  33.300  1.00  0.00     0.012 A 
ATOM     73  C   UNL A   1      46.750  31.035  31.721  1.00  0.00     0.148 A 
ATOM     74  C   UNL A   1      45.742  31.410  34.253  1.00  0.00     0.002 A 
ATOM     75  C   UNL A   1      47.550  31.624  32.693  1.00  0.00     0.091 A 
ATOM     76  F   UNL A   1      47.179  31.090  30.456  1.00  0.00    -0.205 F 
ATOM     77  C   UNL A   1      47.042  31.829  33.970  1.00  0.00     0.022 A 
BRANCH  75  78
ATOM     78  S   UNL A   1      49.293  31.990  32.394  1.00  0.00     0.127 S 
ATOM     79  O   UNL A   1      49.782  32.303  33.735  1.00  0.00    -0.237 OA
ATOM     80  O   UNL A   1      49.768  30.720  31.847  1.00  0.00    -0.237 OA
ATOM     81  O   UNL A   1      49.324  33.100  31.450  1.00  0.00    -0.744 OA
ENDBRANCH  75  78
ENDBRANCH  47  71
BRANCH  59  82
ATOM     82  C   UNL A   1      45.457  26.438  27.317  1.00  0.00     0.023 A 
ATOM     83  C   UNL A   1      44.242  26.882  26.759  1.00  0.00     0.012 A 
ATOM     84  C   UNL A   1      46.613  26.565  26.508  1.00  0.00     0.148 A 
ATOM     85  C   UNL A   1      44.172  27.411  25.465  1.00  0.00     0.002 A 
ATOM     86  C   UNL A   1      46.544  27.073  25.204  1.00  0.00     0.091 A 
ATOM     87  F   UNL A   1      47.785  26.188  27.011  1.00  0.00    -0.205 F 
ATOM     88  C   UNL A   1      45.320  27.504  24.687  1.00  0.00     0.022 A 
BRANCH  86  89
ATOM     89  S   UNL A   1      47.954  27.144  24.071  1.00  0.00     0.127 S 
ATOM     90  O   UNL A   1      48.959  27.859  24.862  1.00  0.00    -0.237 OA
ATOM     91  O   UNL A   1      48.255  25.731  23.859  1.00  0.00    -0.237 OA
ATOM     92  O   UNL A   1      47.506  27.875  22.892  1.00  0.00    -0.744 OA
ENDBRANCH  86  89
ENDBRANCH  59  82
ENDBRANCH  33  34
ENDBRANCH  25  28
ENDBRANCH  23  24
ENDBRANCH  22  23
ENDBRANCH  21  22
ENDBRANCH   3  21
TORSDOF 19
ENDMDL
MODEL 2
REMARK VINA RESULT:     -11.0      5.165      7.253
REMARK SMILES CN(CCC(F)(F)F)C(=O)c1cccn1CC(=O)NCCCNC(=O)c1ccc(-c2c3nc(c(-c4cccc(S(=O)(=O)[O-])c4F)c4ccc([nH]4)c(-c4cccc(S(=O)(=O)[O-])c4F)c4nc(c(-c5cccc(S(=O)(=O)[O-])c5F)c5ccc2[nH]5)C=C4)C=C3)cc1
REMARK SMILES IDX 17 1 18 2 19 3 16 5 15 6 11 7 12 8 13 9 14 10 9 11 10 12
REMARK SMILES IDX 2 13 1 14 3 15 4 16 5 17 6 18 7 19 8 20 20 21 21 22 22 23
REMARK SMILES IDX 23 24 24 25 25 27 26 28 27 29 88 30 28 31 87 32 29 33 30 34
REMARK SMILES IDX 31 35 81 36 32 37 86 38 80 39 82 40 33 41 85 42 79 43 78 44
REMARK SMILES IDX 34 46 66 47 46 48 65 49 47 50 50 51 64 52 83 53 48 54 49 55
REMARK SMILES IDX 63 57 84 58 51 59 35 60 36 61 44 62 37 63 39 64 45 65 38 66
REMARK SMILES IDX 40 67 41 68 42 69 43 70 67 71 68 72 76 73 69 74 71 75 77 76
REMARK SMILES IDX 70 77 72 78 73 79 74 80 75 81 52 82 53 83 61 84 54 85 56 86
REMARK SMILES IDX 62 87 55 88 57 89 58 90 59 91 60 92
REMARK H PARENT 19 4 23 26 82 45 50 56
REMARK Flexibility Score: inf
ROOT
ATOM      1  C   UNL A   1      31.662  28.405  26.955  1.00  0.00     0.239 C 
ATOM      2  O   UNL A   1      31.537  27.714  27.967  1.00  0.00    -0.273 OA
ATOM      3  N   UNL A   1      31.446  29.750  27.045  1.00  0.00    -0.354 N 
ATOM      4  H   UNL A   1      31.160  30.081  27.927  1.00  0.00     0.163 HD
ENDROOT
BRANCH   1   5
ATOM      5  C   UNL A   1      32.125  27.803  25.648  1.00  0.00     0.222 C 
BRANCH   5   6
ATOM      6  N   UNL A   1      31.047  27.460  24.728  1.00  0.00    -0.334 N 
ATOM      7  C   UNL A   1      30.196  26.369  24.831  1.00  0.00     0.107 A 
ATOM      8  C   UNL A   1      29.102  26.677  24.038  1.00  0.00     0.033 A 
ATOM      9  C   UNL A   1      29.406  27.823  23.272  1.00  0.00     0.020 A 
ATOM     10  C   UNL A   1      30.633  28.270  23.698  1.00  0.00     0.087 A 
BRANCH   7  11
ATOM     11  C   UNL A   1      30.383  25.229  25.707  1.00  0.00     0.270 C 
ATOM     12  O   UNL A   1      29.692  25.082  26.715  1.00  0.00    -0.267 OA
BRANCH  11  13
ATOM     13  N   UNL A   1      31.428  24.327  25.416  1.00  0.00    -0.340 N 
ATOM     14  C   UNL A   1      32.559  24.348  26.335  1.00  0.00     0.147 C 
BRANCH  13  15
ATOM     15  C   UNL A   1      31.646  23.678  24.119  1.00  0.00     0.129 C 
BRANCH  15  16
ATOM     16  C   UNL A   1      32.883  24.102  23.336  1.00  0.00     0.137 C 
BRANCH  16  17
ATOM     17  C   UNL A   1      32.559  24.999  22.170  1.00  0.00     0.390 C 
ATOM     18  F   UNL A   1      31.241  25.255  22.083  1.00  0.00    -0.171 F 
ATOM     19  F   UNL A   1      33.191  26.188  22.308  1.00  0.00    -0.171 F 
ATOM     20  F   UNL A   1      32.980  24.464  21.008  1.00  0.00    -0.171 F 
ENDBRANCH  16  17
ENDBRANCH  15  16
ENDBRANCH  13  15
ENDBRANCH  11  13
ENDBRANCH   7  11
ENDBRANCH   5   6
ENDBRANCH   1   5
BRANCH   3  21
ATOM     21  C   UNL A   1      31.584  30.751  26.010  1.00  0.00     0.117 C 
BRANCH  21  22
ATOM     22  C   UNL A   1      31.434  32.169  26.555  1.00  0.00     0.042 C 
BRANCH  22  23
ATOM     23  C   UNL A   1      32.693  32.665  27.238  1.00  0.00     0.118 C 
BRANCH  23  24
ATOM     24  N   UNL A   1      32.529  34.067  27.612  1.00  0.00    -0.352 N 
ATOM     25  C   UNL A   1      33.114  34.766  28.637  1.00  0.00     0.251 C 
ATOM     26  H   UNL A   1      31.909  34.585  27.048  1.00  0.00     0.163 HD
ATOM     27  O   UNL A   1      32.622  35.825  28.994  1.00  0.00    -0.269 OA
BRANCH  25  28
ATOM     28  C   UNL A   1      34.312  34.227  29.305  1.00  0.00     0.039 A 
ATOM     29  C   UNL A   1      34.136  33.477  30.473  1.00  0.00     0.014 A 
ATOM     30  C   UNL A   1      35.591  34.493  28.807  1.00  0.00     0.014 A 
ATOM     31  C   UNL A   1      35.247  32.940  31.105  1.00  0.00     0.010 A 
ATOM     32  C   UNL A   1      36.694  33.913  29.400  1.00  0.00     0.010 A 
ATOM     33  C   UNL A   1      36.517  33.140  30.547  1.00  0.00    -0.014 A 
BRANCH  33  34
ATOM     34  C   UNL A   1      37.669  32.409  31.097  1.00  0.00     0.031 A 
ATOM     35  C   UNL A   1      37.976  31.166  30.220  1.00  0.00     0.074 A 
ATOM     36  C   UNL A   1      38.210  32.946  32.238  1.00  0.00     0.049 A 
ATOM     37  N   UNL A   1      38.307  29.956  30.562  1.00  0.00    -0.248 NA
ATOM     38  C   UNL A   1      37.738  31.240  28.748  1.00  0.00     0.031 C 
ATOM     39  C   UNL A   1      37.770  34.214  32.879  1.00  0.00     0.029 A 
ATOM     40  N   UNL A   1      39.229  32.576  33.089  1.00  0.00    -0.354 N 
ATOM     41  C   UNL A   1      38.560  29.226  29.366  1.00  0.00     0.074 A 
ATOM     42  C   UNL A   1      38.024  30.011  28.299  1.00  0.00     0.031 C 
ATOM     43  C   UNL A   1      38.442  34.446  34.029  1.00  0.00     0.029 A 
ATOM     44  C   UNL A   1      39.389  33.373  34.254  1.00  0.00     0.049 A 
ATOM     45  H   UNL A   1      39.811  31.805  32.900  1.00  0.00     0.167 HD
ATOM     46  C   UNL A   1      39.370  28.120  29.327  1.00  0.00     0.034 A 
ATOM     47  C   UNL A   1      40.185  33.144  35.349  1.00  0.00     0.034 A 
ATOM     48  C   UNL A   1      39.942  27.944  30.623  1.00  0.00     0.049 A 
ATOM     49  C   UNL A   1      40.959  31.944  35.007  1.00  0.00     0.074 A 
ATOM     50  C   UNL A   1      39.432  27.517  31.819  1.00  0.00     0.029 A 
ATOM     51  N   UNL A   1      41.111  28.640  30.831  1.00  0.00    -0.354 N 
ATOM     52  N   UNL A   1      41.926  31.910  34.137  1.00  0.00    -0.248 NA
ATOM     53  C   UNL A   1      40.511  30.651  35.539  1.00  0.00     0.031 C 
ATOM     54  C   UNL A   1      40.037  28.399  32.738  1.00  0.00     0.029 A 
ATOM     55  C   UNL A   1      41.070  29.113  32.114  1.00  0.00     0.049 A 
ATOM     56  H   UNL A   1      41.837  28.774  30.181  1.00  0.00     0.167 HD
ATOM     57  C   UNL A   1      41.920  30.589  33.764  1.00  0.00     0.074 A 
ATOM     58  C   UNL A   1      41.320  29.851  34.855  1.00  0.00     0.031 C 
ATOM     59  C   UNL A   1      41.883  30.256  32.446  1.00  0.00     0.034 A 
BRANCH  46  60
ATOM     60  C   UNL A   1      40.012  27.277  28.241  1.00  0.00     0.023 A 
ATOM     61  C   UNL A   1      39.816  25.867  28.382  1.00  0.00     0.012 A 
ATOM     62  C   UNL A   1      40.999  27.691  27.332  1.00  0.00     0.148 A 
ATOM     63  C   UNL A   1      40.651  24.923  27.790  1.00  0.00     0.002 A 
ATOM     64  C   UNL A   1      41.802  26.734  26.693  1.00  0.00     0.091 A 
ATOM     65  F   UNL A   1      41.211  28.996  27.143  1.00  0.00    -0.205 F 
ATOM     66  C   UNL A   1      41.661  25.361  26.958  1.00  0.00     0.022 A 
BRANCH  64  67
ATOM     67  S   UNL A   1      43.084  27.155  25.506  1.00  0.00     0.127 S 
ATOM     68  O   UNL A   1      43.429  25.847  24.955  1.00  0.00    -0.237 OA
ATOM     69  O   UNL A   1      42.358  28.029  24.580  1.00  0.00    -0.237 OA
ATOM     70  O   UNL A   1      44.122  27.831  26.270  1.00  0.00    -0.744 OA
ENDBRANCH  64  67
ENDBRANCH  46  60
BRANCH  47  71
ATOM     71  C   UNL A   1      40.313  33.673  36.765  1.00  0.00     0.023 A 
ATOM     72  C   UNL A   1      41.115  34.759  37.141  1.00  0.00     0.012 A 
ATOM     73  C   UNL A   1      39.520  33.104  37.811  1.00  0.00     0.148 A 
ATOM     74  C   UNL A   1      41.040  35.309  38.442  1.00  0.00     0.002 A 
ATOM     75  C   UNL A   1      39.346  33.723  39.043  1.00  0.00     0.091 A 
ATOM     76  F   UNL A   1      38.948  31.908  37.636  1.00  0.00    -0.205 F 
ATOM     77  C   UNL A   1      40.120  34.828  39.374  1.00  0.00     0.022 A 
BRANCH  75  78
ATOM     78  S   UNL A   1      38.027  33.230  40.175  1.00  0.00     0.127 S 
ATOM     79  O   UNL A   1      38.527  31.964  40.705  1.00  0.00    -0.237 OA
ATOM     80  O   UNL A   1      38.031  34.340  41.128  1.00  0.00    -0.237 OA
ATOM     81  O   UNL A   1      36.814  33.130  39.374  1.00  0.00    -0.744 OA
ENDBRANCH  75  78
ENDBRANCH  47  71
BRANCH  59  82
ATOM     82  C   UNL A   1      42.447  31.306  31.484  1.00  0.00     0.023 A 
ATOM     83  C   UNL A   1      41.516  32.137  30.829  1.00  0.00     0.012 A 
ATOM     84  C   UNL A   1      43.806  31.457  31.114  1.00  0.00     0.148 A 
ATOM     85  C   UNL A   1      41.907  33.058  29.851  1.00  0.00     0.002 A 
ATOM     86  C   UNL A   1      44.199  32.363  30.120  1.00  0.00     0.091 A 
ATOM     87  F   UNL A   1      44.719  30.716  31.732  1.00  0.00    -0.205 F 
ATOM     88  C   UNL A   1      43.246  33.171  29.494  1.00  0.00     0.022 A 
BRANCH  86  89
ATOM     89  S   UNL A   1      45.896  32.518  29.508  1.00  0.00     0.127 S 
ATOM     90  O   UNL A   1      46.438  33.590  30.346  1.00  0.00    -0.237 OA
ATOM     91  O   UNL A   1      46.451  31.198  29.792  1.00  0.00    -0.237 OA
ATOM     92  O   UNL A   1      45.800  32.868  28.095  1.00  0.00    -0.744 OA
ENDBRANCH  86  89
ENDBRANCH  59  82
ENDBRANCH  33  34
ENDBRANCH  25  28
ENDBRANCH  23  24
ENDBRANCH  22  23
ENDBRANCH  21  22
ENDBRANCH   3  21
TORSDOF 19
ENDMDL
MODEL 3
REMARK VINA RESULT:     -10.9      3.296      7.719
REMARK SMILES CN(CCC(F)(F)F)C(=O)c1cccn1CC(=O)NCCCNC(=O)c1ccc(-c2c3nc(c(-c4cccc(S(=O)(=O)[O-])c4F)c4ccc([nH]4)c(-c4cccc(S(=O)(=O)[O-])c4F)c4nc(c(-c5cccc(S(=O)(=O)[O-])c5F)c5ccc2[nH]5)C=C4)C=C3)cc1
REMARK SMILES IDX 17 1 18 2 19 3 16 5 15 6 11 7 12 8 13 9 14 10 9 11 10 12
REMARK SMILES IDX 2 13 1 14 3 15 4 16 5 17 6 18 7 19 8 20 20 21 21 22 22 23
REMARK SMILES IDX 23 24 24 25 25 27 26 28 27 29 88 30 28 31 87 32 29 33 30 34
REMARK SMILES IDX 31 35 81 36 32 37 86 38 80 39 82 40 33 41 85 42 79 43 78 44
REMARK SMILES IDX 34 46 66 47 46 48 65 49 47 50 50 51 64 52 83 53 48 54 49 55
REMARK SMILES IDX 63 57 84 58 51 59 35 60 36 61 44 62 37 63 39 64 45 65 38 66
REMARK SMILES IDX 40 67 41 68 42 69 43 70 67 71 68 72 76 73 69 74 71 75 77 76
REMARK SMILES IDX 70 77 72 78 73 79 74 80 75 81 52 82 53 83 61 84 54 85 56 86
REMARK SMILES IDX 62 87 55 88 57 89 58 90 59 91 60 92
REMARK H PARENT 19 4 23 26 82 45 50 56
REMARK Flexibility Score: inf
ROOT
ATOM      1  C   UNL A   1      36.461  22.669  24.079  1.00  0.00     0.239 C 
ATOM      2  O   UNL A   1      36.426  23.352  23.055  1.00  0.00    -0.273 OA
ATOM      3  N   UNL A   1      36.874  21.371  23.990  1.00  0.00    -0.354 N 
ATOM      4  H   UNL A   1      37.082  21.048  23.084  1.00  0.00     0.163 HD
ENDROOT
BRANCH   1   5
ATOM      5  C   UNL A   1      36.138  23.265  25.430  1.00  0.00     0.222 C 
BRANCH   5   6
ATOM      6  N   UNL A   1      34.784  23.792  25.547  1.00  0.00    -0.334 N 
ATOM      7  C   UNL A   1      33.669  23.100  25.995  1.00  0.00     0.107 A 
ATOM      8  C   UNL A   1      32.746  24.072  26.349  1.00  0.00     0.033 A 
ATOM      9  C   UNL A   1      33.207  25.323  25.885  1.00  0.00     0.020 A 
ATOM     10  C   UNL A   1      34.461  25.115  25.363  1.00  0.00     0.087 A 
BRANCH   7  11
ATOM     11  C   UNL A   1      33.578  21.664  26.172  1.00  0.00     0.270 C 
ATOM     12  O   UNL A   1      33.803  21.143  27.265  1.00  0.00    -0.267 OA
BRANCH  11  13
ATOM     13  N   UNL A   1      33.300  20.867  25.041  1.00  0.00    -0.340 N 
ATOM     14  C   UNL A   1      32.829  21.580  23.861  1.00  0.00     0.147 C 
BRANCH  13  15
ATOM     15  C   UNL A   1      33.079  19.417  25.065  1.00  0.00     0.129 C 
BRANCH  15  16
ATOM     16  C   UNL A   1      34.042  18.561  24.251  1.00  0.00     0.137 C 
BRANCH  16  17
ATOM     17  C   UNL A   1      33.388  17.335  23.670  1.00  0.00     0.390 C 
ATOM     18  F   UNL A   1      32.698  17.617  22.549  1.00  0.00    -0.171 F 
ATOM     19  F   UNL A   1      34.327  16.417  23.343  1.00  0.00    -0.171 F 
ATOM     20  F   UNL A   1      32.562  16.752  24.559  1.00  0.00    -0.171 F 
ENDBRANCH  16  17
ENDBRANCH  15  16
ENDBRANCH  13  15
ENDBRANCH  11  13
ENDBRANCH   7  11
ENDBRANCH   5   6
ENDBRANCH   1   5
BRANCH   3  21
ATOM     21  C   UNL A   1      37.042  20.409  25.057  1.00  0.00     0.117 C 
BRANCH  21  22
ATOM     22  C   UNL A   1      38.358  19.643  24.942  1.00  0.00     0.042 C 
BRANCH  22  23
ATOM     23  C   UNL A   1      39.350  20.026  26.021  1.00  0.00     0.118 C 
BRANCH  23  24
ATOM     24  N   UNL A   1      40.448  19.063  26.043  1.00  0.00    -0.352 N 
ATOM     25  C   UNL A   1      41.801  19.290  26.055  1.00  0.00     0.251 C 
ATOM     26  H   UNL A   1      40.179  18.116  26.048  1.00  0.00     0.163 HD
ATOM     27  O   UNL A   1      42.560  18.384  25.749  1.00  0.00    -0.269 OA
BRANCH  25  28
ATOM     28  C   UNL A   1      42.319  20.620  26.419  1.00  0.00     0.039 A 
ATOM     29  C   UNL A   1      42.756  21.463  25.391  1.00  0.00     0.014 A 
ATOM     30  C   UNL A   1      42.412  21.012  27.758  1.00  0.00     0.014 A 
ATOM     31  C   UNL A   1      43.226  22.728  25.707  1.00  0.00     0.010 A 
ATOM     32  C   UNL A   1      42.826  22.291  28.072  1.00  0.00     0.010 A 
ATOM     33  C   UNL A   1      43.231  23.142  27.046  1.00  0.00    -0.014 A 
BRANCH  33  34
ATOM     34  C   UNL A   1      43.538  24.546  27.366  1.00  0.00     0.031 A 
ATOM     35  C   UNL A   1      42.223  25.327  27.632  1.00  0.00     0.074 A 
ATOM     36  C   UNL A   1      44.870  24.870  27.350  1.00  0.00     0.049 A 
ATOM     37  N   UNL A   1      41.868  26.524  27.268  1.00  0.00    -0.248 NA
ATOM     38  C   UNL A   1      41.076  24.621  28.275  1.00  0.00     0.031 C 
ATOM     39  C   UNL A   1      45.983  23.910  27.119  1.00  0.00     0.029 A 
ATOM     40  N   UNL A   1      45.581  26.037  27.533  1.00  0.00    -0.354 N 
ATOM     41  C   UNL A   1      40.595  26.789  27.849  1.00  0.00     0.074 A 
ATOM     42  C   UNL A   1      40.093  25.528  28.298  1.00  0.00     0.031 C 
ATOM     43  C   UNL A   1      47.179  24.537  27.091  1.00  0.00     0.029 A 
ATOM     44  C   UNL A   1      46.982  25.956  27.308  1.00  0.00     0.049 A 
ATOM     45  H   UNL A   1      45.144  26.875  27.804  1.00  0.00     0.167 HD
ATOM     46  C   UNL A   1      40.138  28.059  28.093  1.00  0.00     0.034 A 
ATOM     47  C   UNL A   1      47.902  26.973  27.239  1.00  0.00     0.034 A 
ATOM     48  C   UNL A   1      41.182  28.976  27.764  1.00  0.00     0.049 A 
ATOM     49  C   UNL A   1      47.148  28.184  27.586  1.00  0.00     0.074 A 
ATOM     50  C   UNL A   1      41.709  29.404  26.576  1.00  0.00     0.029 A 
ATOM     51  N   UNL A   1      42.065  29.228  28.789  1.00  0.00    -0.354 N 
ATOM     52  N   UNL A   1      46.725  28.475  28.782  1.00  0.00    -0.248 NA
ATOM     53  C   UNL A   1      46.678  29.048  26.497  1.00  0.00     0.031 C 
ATOM     54  C   UNL A   1      43.092  29.436  26.852  1.00  0.00     0.029 A 
ATOM     55  C   UNL A   1      43.312  29.306  28.231  1.00  0.00     0.049 A 
ATOM     56  H   UNL A   1      41.843  29.332  29.742  1.00  0.00     0.167 HD
ATOM     57  C   UNL A   1      45.666  29.305  28.509  1.00  0.00     0.074 A 
ATOM     58  C   UNL A   1      45.907  29.871  27.199  1.00  0.00     0.031 C 
ATOM     59  C   UNL A   1      44.454  29.067  29.077  1.00  0.00     0.034 A 
BRANCH  46  60
ATOM     60  C   UNL A   1      38.989  28.673  28.870  1.00  0.00     0.023 A 
ATOM     61  C   UNL A   1      38.177  29.582  28.121  1.00  0.00     0.012 A 
ATOM     62  C   UNL A   1      38.835  28.690  30.266  1.00  0.00     0.148 A 
ATOM     63  C   UNL A   1      37.385  30.559  28.718  1.00  0.00     0.002 A 
ATOM     64  C   UNL A   1      37.992  29.639  30.861  1.00  0.00     0.091 A 
ATOM     65  F   UNL A   1      39.552  27.847  31.015  1.00  0.00    -0.205 F 
ATOM     66  C   UNL A   1      37.309  30.599  30.095  1.00  0.00     0.022 A 
BRANCH  64  67
ATOM     67  S   UNL A   1      37.715  29.739  32.634  1.00  0.00     0.127 S 
ATOM     68  O   UNL A   1      36.579  30.654  32.714  1.00  0.00    -0.237 OA
ATOM     69  O   UNL A   1      37.395  28.348  32.966  1.00  0.00    -0.237 OA
ATOM     70  O   UNL A   1      38.969  30.211  33.204  1.00  0.00    -0.744 OA
ENDBRANCH  64  67
ENDBRANCH  46  60
BRANCH  47  71
ATOM     71  C   UNL A   1      49.328  27.155  26.758  1.00  0.00     0.023 A 
ATOM     72  C   UNL A   1      49.733  27.083  25.418  1.00  0.00     0.012 A 
ATOM     73  C   UNL A   1      50.355  27.500  27.692  1.00  0.00     0.148 A 
ATOM     74  C   UNL A   1      51.043  27.445  25.029  1.00  0.00     0.002 A 
ATOM     75  C   UNL A   1      51.598  27.983  27.298  1.00  0.00     0.091 A 
ATOM     76  F   UNL A   1      50.152  27.319  29.001  1.00  0.00    -0.205 F 
ATOM     77  C   UNL A   1      51.957  27.945  25.956  1.00  0.00     0.022 A 
BRANCH  75  78
ATOM     78  S   UNL A   1      52.707  28.809  28.460  1.00  0.00     0.127 S 
ATOM     79  O   UNL A   1      53.176  27.700  29.287  1.00  0.00    -0.237 OA
ATOM     80  O   UNL A   1      53.712  29.368  27.556  1.00  0.00    -0.237 OA
ATOM     81  O   UNL A   1      51.904  29.805  29.157  1.00  0.00    -0.744 OA
ENDBRANCH  75  78
ENDBRANCH  47  71
BRANCH  59  82
ATOM     82  C   UNL A   1      44.484  28.298  30.401  1.00  0.00     0.023 A 
ATOM     83  C   UNL A   1      44.072  26.951  30.367  1.00  0.00     0.012 A 
ATOM     84  C   UNL A   1      44.792  28.838  31.675  1.00  0.00     0.148 A 
ATOM     85  C   UNL A   1      43.958  26.183  31.531  1.00  0.00     0.002 A 
ATOM     86  C   UNL A   1      44.658  28.078  32.844  1.00  0.00     0.091 A 
ATOM     87  F   UNL A   1      45.217  30.095  31.747  1.00  0.00    -0.205 F 
ATOM     88  C   UNL A   1      44.248  26.745  32.769  1.00  0.00     0.022 A 
BRANCH  86  89
ATOM     89  S   UNL A   1      44.910  28.738  34.511  1.00  0.00     0.127 S 
ATOM     90  O   UNL A   1      46.324  29.121  34.489  1.00  0.00    -0.237 OA
ATOM     91  O   UNL A   1      43.985  29.866  34.543  1.00  0.00    -0.237 OA
ATOM     92  O   UNL A   1      44.610  27.654  35.440  1.00  0.00    -0.744 OA
ENDBRANCH  86  89
ENDBRANCH  59  82
ENDBRANCH  33  34
ENDBRANCH  25  28
ENDBRANCH  23  24
ENDBRANCH  22  23
ENDBRANCH  21  22
ENDBRANCH   3  21
TORSDOF 19
ENDMDL
