MODEL 1
REMARK VINA RESULT:     -13.4      0.000      0.000
REMARK SMILES CC(C)(C)c1cc2c(cc1Cl)C=C(C(=O)NCCCNC(=O)c1ccc(-c3c4nc(c(-c5cccc(S(=O)(=O)[O-])c5F)c5ccc([nH]5)c(-c5cccc(S(=O)(=O)[O-])c5F)c5nc(c(-c6cccc(S(=O)(=O)[O-])c6F)c6ccc3[nH]6)C=C5)C=C4)cc1)[C@H](C(F)(F)F)O2
REMARK SMILES IDX 19 1 18 2 17 3 16 4 14 5 15 6 13 8 5 9 6 10 10 11 7 12 9 13
REMARK SMILES IDX 11 14 8 15 91 16 12 17 86 18 2 19 1 20 3 21 4 22 87 23 88 24
REMARK SMILES IDX 89 25 90 26 20 27 21 28 22 30 23 31 24 32 85 33 25 34 84 35
REMARK SMILES IDX 26 36 27 37 28 38 78 39 29 40 83 41 77 42 79 43 30 44 82 45
REMARK SMILES IDX 76 46 75 47 31 49 63 50 43 51 62 52 44 53 47 54 61 55 80 56
REMARK SMILES IDX 45 57 46 58 60 60 81 61 48 62 32 63 33 64 41 65 34 66 36 67
REMARK SMILES IDX 42 68 35 69 37 70 38 71 39 72 40 73 64 74 65 75 73 76 66 77
REMARK SMILES IDX 68 78 74 79 67 80 69 81 70 82 71 83 72 84 49 85 50 86 58 87
REMARK SMILES IDX 51 88 53 89 59 90 52 91 54 92 55 93 56 94 57 95
REMARK H PARENT 16 7 20 29 79 48 47 59
REMARK Flexibility Score: inf
ROOT
ATOM      1  C   UNL A   1      31.905  30.926  26.652  1.00  0.00     0.118 C 
ENDROOT
BRANCH   1   2
ATOM      2  C   UNL A   1      31.203  30.524  25.363  1.00  0.00     0.042 C 
BRANCH   2   3
ATOM      3  C   UNL A   1      31.647  29.156  24.865  1.00  0.00     0.118 C 
BRANCH   3   4
ATOM      4  N   UNL A   1      32.826  29.255  24.018  1.00  0.00    -0.352 N 
ATOM      5  C   UNL A   1      33.657  28.410  23.367  1.00  0.00     0.251 C 
ATOM      6  O   UNL A   1      34.543  28.956  22.704  1.00  0.00    -0.270 OA
ATOM      7  H   UNL A   1      33.091  30.194  23.880  1.00  0.00     0.163 HD
BRANCH   5   8
ATOM      8  C   UNL A   1      33.560  26.922  23.385  1.00  0.00     0.067 C 
ATOM      9  C   UNL A   1      33.691  22.047  24.840  1.00  0.00    -0.020 A 
ATOM     10  C   UNL A   1      33.571  22.746  23.620  1.00  0.00     0.053 A 
ATOM     11  C   UNL A   1      33.841  22.848  25.997  1.00  0.00     0.045 A 
ATOM     12  C   UNL A   1      33.585  24.138  23.551  1.00  0.00     0.128 A 
ATOM     13  C   UNL A   1      33.839  24.255  25.921  1.00  0.00     0.032 A 
ATOM     14  Cl  UNL A   1      34.108  22.222  27.588  1.00  0.00    -0.084 Cl
ATOM     15  C   UNL A   1      33.718  24.904  24.696  1.00  0.00     0.019 A 
ATOM     16  O   UNL A   1      33.530  24.672  22.299  1.00  0.00    -0.475 OA
ATOM     17  C   UNL A   1      33.800  26.351  24.581  1.00  0.00     0.025 C 
ATOM     18  C   UNL A   1      33.165  26.074  22.206  1.00  0.00     0.314 C 
BRANCH   9  19
ATOM     19  C   UNL A   1      33.722  20.499  24.813  1.00  0.00    -0.012 C 
ATOM     20  C   UNL A   1      32.975  19.846  26.013  1.00  0.00     0.016 C 
ATOM     21  C   UNL A   1      35.153  19.923  24.883  1.00  0.00     0.016 C 
ATOM     22  C   UNL A   1      33.005  20.011  23.538  1.00  0.00     0.016 C 
ENDBRANCH   9  19
BRANCH  18  23
ATOM     23  C   UNL A   1      31.682  26.195  21.816  1.00  0.00     0.429 C 
ATOM     24  F   UNL A   1      31.188  27.437  22.020  1.00  0.00    -0.167 F 
ATOM     25  F   UNL A   1      31.525  25.918  20.497  1.00  0.00    -0.167 F 
ATOM     26  F   UNL A   1      30.892  25.339  22.503  1.00  0.00    -0.167 F 
ENDBRANCH  18  23
ENDBRANCH   5   8
ENDBRANCH   3   4
ENDBRANCH   2   3
ENDBRANCH   1   2
BRANCH   1  27
ATOM     27  N   UNL A   1      31.966  32.375  26.809  1.00  0.00    -0.352 N 
ATOM     28  C   UNL A   1      32.855  33.155  27.516  1.00  0.00     0.251 C 
ATOM     29  H   UNL A   1      31.261  32.874  26.335  1.00  0.00     0.163 HD
ATOM     30  O   UNL A   1      32.584  34.330  27.730  1.00  0.00    -0.269 OA
BRANCH  28  31
ATOM     31  C   UNL A   1      34.111  32.564  28.029  1.00  0.00     0.039 A 
ATOM     32  C   UNL A   1      34.166  31.212  28.365  1.00  0.00     0.014 A 
ATOM     33  C   UNL A   1      35.244  33.367  28.182  1.00  0.00     0.014 A 
ATOM     34  C   UNL A   1      35.267  30.718  29.052  1.00  0.00     0.010 A 
ATOM     35  C   UNL A   1      36.400  32.832  28.762  1.00  0.00     0.010 A 
ATOM     36  C   UNL A   1      36.403  31.517  29.253  1.00  0.00    -0.014 A 
BRANCH  36  37
ATOM     37  C   UNL A   1      37.576  30.941  29.965  1.00  0.00     0.031 A 
ATOM     38  C   UNL A   1      38.521  29.998  29.268  1.00  0.00     0.074 A 
ATOM     39  C   UNL A   1      37.812  31.312  31.241  1.00  0.00     0.049 A 
ATOM     40  N   UNL A   1      39.582  29.403  29.749  1.00  0.00    -0.248 NA
ATOM     41  C   UNL A   1      38.251  29.676  27.856  1.00  0.00     0.031 C 
ATOM     42  C   UNL A   1      36.959  32.202  32.034  1.00  0.00     0.029 A 
ATOM     43  N   UNL A   1      38.839  30.997  32.094  1.00  0.00    -0.354 N 
ATOM     44  C   UNL A   1      40.076  28.607  28.722  1.00  0.00     0.074 A 
ATOM     45  C   UNL A   1      39.202  28.791  27.586  1.00  0.00     0.031 C 
ATOM     46  C   UNL A   1      37.511  32.388  33.240  1.00  0.00     0.029 A 
ATOM     47  C   UNL A   1      38.719  31.577  33.335  1.00  0.00     0.049 A 
ATOM     48  H   UNL A   1      39.590  30.412  31.842  1.00  0.00     0.167 HD
ATOM     49  C   UNL A   1      41.172  27.813  28.723  1.00  0.00     0.034 A 
ATOM     50  C   UNL A   1      39.475  31.453  34.443  1.00  0.00     0.034 A 
ATOM     51  C   UNL A   1      42.075  27.679  29.833  1.00  0.00     0.049 A 
ATOM     52  C   UNL A   1      40.689  30.575  34.406  1.00  0.00     0.074 A 
ATOM     53  C   UNL A   1      43.238  26.929  29.899  1.00  0.00     0.029 A 
ATOM     54  N   UNL A   1      41.930  28.308  31.057  1.00  0.00    -0.354 N 
ATOM     55  N   UNL A   1      41.171  29.888  33.401  1.00  0.00    -0.248 NA
ATOM     56  C   UNL A   1      41.472  30.464  35.645  1.00  0.00     0.031 C 
ATOM     57  C   UNL A   1      43.792  27.097  31.170  1.00  0.00     0.029 A 
ATOM     58  C   UNL A   1      42.982  27.963  31.886  1.00  0.00     0.049 A 
ATOM     59  H   UNL A   1      41.190  28.910  31.300  1.00  0.00     0.167 HD
ATOM     60  C   UNL A   1      42.318  29.272  33.880  1.00  0.00     0.074 A 
ATOM     61  C   UNL A   1      42.475  29.685  35.259  1.00  0.00     0.031 C 
ATOM     62  C   UNL A   1      43.155  28.424  33.237  1.00  0.00     0.034 A 
BRANCH  49  63
ATOM     63  C   UNL A   1      41.517  27.051  27.473  1.00  0.00     0.023 A 
ATOM     64  C   UNL A   1      42.103  27.738  26.394  1.00  0.00     0.012 A 
ATOM     65  C   UNL A   1      41.427  25.646  27.442  1.00  0.00     0.148 A 
ATOM     66  C   UNL A   1      42.607  27.034  25.300  1.00  0.00     0.002 A 
ATOM     67  C   UNL A   1      41.957  24.950  26.361  1.00  0.00     0.091 A 
ATOM     68  F   UNL A   1      40.862  25.019  28.484  1.00  0.00    -0.205 F 
ATOM     69  C   UNL A   1      42.548  25.643  25.291  1.00  0.00     0.022 A 
BRANCH  67  70
ATOM     70  S   UNL A   1      41.987  23.156  26.276  1.00  0.00     0.127 S 
ATOM     71  O   UNL A   1      42.775  22.818  27.461  1.00  0.00    -0.237 OA
ATOM     72  O   UNL A   1      40.566  22.823  26.373  1.00  0.00    -0.237 OA
ATOM     73  O   UNL A   1      42.617  22.820  25.006  1.00  0.00    -0.744 OA
ENDBRANCH  67  70
ENDBRANCH  49  63
BRANCH  50  74
ATOM     74  C   UNL A   1      39.086  32.187  35.678  1.00  0.00     0.023 A 
ATOM     75  C   UNL A   1      39.403  33.551  35.810  1.00  0.00     0.012 A 
ATOM     76  C   UNL A   1      38.348  31.545  36.691  1.00  0.00     0.148 A 
ATOM     77  C   UNL A   1      39.000  34.262  36.940  1.00  0.00     0.002 A 
ATOM     78  C   UNL A   1      37.911  32.269  37.791  1.00  0.00     0.091 A 
ATOM     79  F   UNL A   1      38.068  30.242  36.542  1.00  0.00    -0.205 F 
ATOM     80  C   UNL A   1      38.245  33.625  37.924  1.00  0.00     0.022 A 
BRANCH  78  81
ATOM     81  S   UNL A   1      36.841  31.561  39.048  1.00  0.00     0.127 S 
ATOM     82  O   UNL A   1      37.703  31.596  40.226  1.00  0.00    -0.237 OA
ATOM     83  O   UNL A   1      35.731  32.514  39.068  1.00  0.00    -0.237 OA
ATOM     84  O   UNL A   1      36.487  30.234  38.565  1.00  0.00    -0.744 OA
ENDBRANCH  78  81
ENDBRANCH  50  74
BRANCH  62  85
ATOM     85  C   UNL A   1      44.336  27.887  33.992  1.00  0.00     0.023 A 
ATOM     86  C   UNL A   1      45.535  28.624  34.012  1.00  0.00     0.012 A 
ATOM     87  C   UNL A   1      44.211  26.732  34.787  1.00  0.00     0.148 A 
ATOM     88  C   UNL A   1      46.599  28.215  34.813  1.00  0.00     0.002 A 
ATOM     89  C   UNL A   1      45.263  26.350  35.609  1.00  0.00     0.091 A 
ATOM     90  F   UNL A   1      43.058  26.049  34.743  1.00  0.00    -0.205 F 
ATOM     91  C   UNL A   1      46.458  27.088  35.620  1.00  0.00     0.022 A 
BRANCH  89  92
ATOM     92  S   UNL A   1      45.153  24.958  36.738  1.00  0.00     0.127 S 
ATOM     93  O   UNL A   1      45.510  23.839  35.866  1.00  0.00    -0.237 OA
ATOM     94  O   UNL A   1      46.160  25.295  37.743  1.00  0.00    -0.237 OA
ATOM     95  O   UNL A   1      43.781  24.942  37.230  1.00  0.00    -0.744 OA
ENDBRANCH  89  92
ENDBRANCH  62  85
ENDBRANCH  36  37
ENDBRANCH  28  31
ENDBRANCH   1  27
TORSDOF 15
ENDMDL
MODEL 2
REMARK VINA RESULT:     -13.4      0.382      7.404
REMARK SMILES CC(C)(C)c1cc2c(cc1Cl)C=C(C(=O)NCCCNC(=O)c1ccc(-c3c4nc(c(-c5cccc(S(=O)(=O)[O-])c5F)c5ccc([nH]5)c(-c5cccc(S(=O)(=O)[O-])c5F)c5nc(c(-c6cccc(S(=O)(=O)[O-])c6F)c6ccc3[nH]6)C=C5)C=C4)cc1)[C@H](C(F)(F)F)O2
REMARK SMILES IDX 19 1 18 2 17 3 16 4 14 5 15 6 13 8 5 9 6 10 10 11 7 12 9 13
REMARK SMILES IDX 11 14 8 15 91 16 12 17 86 18 2 19 1 20 3 21 4 22 87 23 88 24
REMARK SMILES IDX 89 25 90 26 20 27 21 28 22 30 23 31 24 32 85 33 25 34 84 35
REMARK SMILES IDX 26 36 27 37 28 38 78 39 29 40 83 41 77 42 79 43 30 44 82 45
REMARK SMILES IDX 76 46 75 47 31 49 63 50 43 51 62 52 44 53 47 54 61 55 80 56
REMARK SMILES IDX 45 57 46 58 60 60 81 61 48 62 32 63 33 64 41 65 34 66 36 67
REMARK SMILES IDX 42 68 35 69 37 70 38 71 39 72 40 73 64 74 65 75 73 76 66 77
REMARK SMILES IDX 68 78 74 79 67 80 69 81 70 82 71 83 72 84 49 85 50 86 58 87
REMARK SMILES IDX 51 88 53 89 59 90 52 91 54 92 55 93 56 94 57 95
REMARK H PARENT 16 7 20 29 79 48 47 59
REMARK Flexibility Score: inf
ROOT
ATOM      1  C   UNL A   1      32.300  30.831  26.502  1.00  0.00     0.118 C 
ENDROOT
BRANCH   1   2
ATOM      2  C   UNL A   1      31.242  30.460  25.472  1.00  0.00     0.042 C 
BRANCH   2   3
ATOM      3  C   UNL A   1      31.563  29.154  24.758  1.00  0.00     0.118 C 
BRANCH   3   4
ATOM      4  N   UNL A   1      32.786  29.261  23.978  1.00  0.00    -0.352 N 
ATOM      5  C   UNL A   1      33.660  28.420  23.379  1.00  0.00     0.251 C 
ATOM      6  O   UNL A   1      34.577  28.972  22.764  1.00  0.00    -0.270 OA
ATOM      7  H   UNL A   1      33.050  30.201  23.852  1.00  0.00     0.163 HD
BRANCH   5   8
ATOM      8  C   UNL A   1      33.575  26.932  23.397  1.00  0.00     0.067 C 
ATOM      9  C   UNL A   1      33.693  22.061  24.870  1.00  0.00    -0.020 A 
ATOM     10  C   UNL A   1      33.613  22.756  23.644  1.00  0.00     0.053 A 
ATOM     11  C   UNL A   1      33.793  22.867  26.029  1.00  0.00     0.045 A 
ATOM     12  C   UNL A   1      33.617  24.148  23.572  1.00  0.00     0.128 A 
ATOM     13  C   UNL A   1      33.782  24.273  25.949  1.00  0.00     0.032 A 
ATOM     14  Cl  UNL A   1      34.007  22.247  27.630  1.00  0.00    -0.084 Cl
ATOM     15  C   UNL A   1      33.702  24.918  24.719  1.00  0.00     0.019 A 
ATOM     16  O   UNL A   1      33.604  24.679  22.317  1.00  0.00    -0.475 OA
ATOM     17  C   UNL A   1      33.775  26.366  24.602  1.00  0.00     0.025 C 
ATOM     18  C   UNL A   1      33.231  26.077  22.207  1.00  0.00     0.314 C 
BRANCH   9  19
ATOM     19  C   UNL A   1      33.738  20.514  24.848  1.00  0.00    -0.012 C 
ATOM     20  C   UNL A   1      33.064  19.860  26.090  1.00  0.00     0.016 C 
ATOM     21  C   UNL A   1      35.177  19.953  24.843  1.00  0.00     0.016 C 
ATOM     22  C   UNL A   1      32.957  20.012  23.616  1.00  0.00     0.016 C 
ENDBRANCH   9  19
BRANCH  18  23
ATOM     23  C   UNL A   1      31.762  26.185  21.762  1.00  0.00     0.429 C 
ATOM     24  F   UNL A   1      31.592  25.913  20.449  1.00  0.00    -0.167 F 
ATOM     25  F   UNL A   1      31.002  25.297  22.452  1.00  0.00    -0.167 F 
ATOM     26  F   UNL A   1      31.241  27.414  21.981  1.00  0.00    -0.167 F 
ENDBRANCH  18  23
ENDBRANCH   5   8
ENDBRANCH   3   4
ENDBRANCH   2   3
ENDBRANCH   1   2
BRANCH   1  27
ATOM     27  N   UNL A   1      32.285  32.257  26.806  1.00  0.00    -0.352 N 
ATOM     28  C   UNL A   1      33.118  33.002  27.612  1.00  0.00     0.251 C 
ATOM     29  H   UNL A   1      31.568  32.769  26.367  1.00  0.00     0.163 HD
ATOM     30  O   UNL A   1      32.785  34.134  27.937  1.00  0.00    -0.269 OA
BRANCH  28  31
ATOM     31  C   UNL A   1      34.390  32.420  28.097  1.00  0.00     0.039 A 
ATOM     32  C   UNL A   1      34.437  31.099  28.539  1.00  0.00     0.014 A 
ATOM     33  C   UNL A   1      35.548  33.203  28.118  1.00  0.00     0.014 A 
ATOM     34  C   UNL A   1      35.566  30.633  29.197  1.00  0.00     0.010 A 
ATOM     35  C   UNL A   1      36.725  32.686  28.670  1.00  0.00     0.010 A 
ATOM     36  C   UNL A   1      36.730  31.415  29.266  1.00  0.00    -0.014 A 
BRANCH  36  37
ATOM     37  C   UNL A   1      37.930  30.867  29.952  1.00  0.00     0.031 A 
ATOM     38  C   UNL A   1      38.253  31.245  31.374  1.00  0.00     0.074 A 
ATOM     39  C   UNL A   1      38.712  29.984  29.296  1.00  0.00     0.049 A 
ATOM     40  N   UNL A   1      39.265  30.863  32.110  1.00  0.00    -0.248 NA
ATOM     41  C   UNL A   1      37.332  32.165  32.065  1.00  0.00     0.031 C 
ATOM     42  C   UNL A   1      38.518  29.554  27.907  1.00  0.00     0.029 A 
ATOM     43  N   UNL A   1      39.818  29.283  29.705  1.00  0.00    -0.354 N 
ATOM     44  C   UNL A   1      39.130  31.526  33.324  1.00  0.00     0.074 A 
ATOM     45  C   UNL A   1      37.937  32.337  33.234  1.00  0.00     0.031 C 
ATOM     46  C   UNL A   1      39.447  28.642  27.592  1.00  0.00     0.029 A 
ATOM     47  C   UNL A   1      40.346  28.473  28.727  1.00  0.00     0.049 A 
ATOM     48  H   UNL A   1      40.196  29.352  30.611  1.00  0.00     0.167 HD
ATOM     49  C   UNL A   1      39.918  31.447  34.421  1.00  0.00     0.034 A 
ATOM     50  C   UNL A   1      41.449  27.700  28.724  1.00  0.00     0.034 A 
ATOM     51  C   UNL A   1      41.068  30.593  34.533  1.00  0.00     0.049 A 
ATOM     52  C   UNL A   1      42.294  27.625  29.960  1.00  0.00     0.074 A 
ATOM     53  C   UNL A   1      41.896  30.418  35.629  1.00  0.00     0.029 A 
ATOM     54  N   UNL A   1      41.548  29.770  33.530  1.00  0.00    -0.354 N 
ATOM     55  N   UNL A   1      42.105  28.209  31.116  1.00  0.00    -0.248 NA
ATOM     56  C   UNL A   1      43.493  26.777  29.900  1.00  0.00     0.031 C 
ATOM     57  C   UNL A   1      42.885  29.494  35.285  1.00  0.00     0.029 A 
ATOM     58  C   UNL A   1      42.661  29.084  33.981  1.00  0.00     0.049 A 
ATOM     59  H   UNL A   1      41.156  29.685  32.631  1.00  0.00     0.167 HD
ATOM     60  C   UNL A   1      43.151  27.792  31.926  1.00  0.00     0.074 A 
ATOM     61  C   UNL A   1      43.961  26.887  31.138  1.00  0.00     0.031 C 
ATOM     62  C   UNL A   1      43.425  28.146  33.203  1.00  0.00     0.034 A 
BRANCH  49  63
ATOM     63  C   UNL A   1      39.555  32.256  35.636  1.00  0.00     0.023 A 
ATOM     64  C   UNL A   1      39.933  33.611  35.693  1.00  0.00     0.012 A 
ATOM     65  C   UNL A   1      38.698  31.727  36.621  1.00  0.00     0.148 A 
ATOM     66  C   UNL A   1      39.453  34.435  36.710  1.00  0.00     0.002 A 
ATOM     67  C   UNL A   1      38.201  32.562  37.616  1.00  0.00     0.091 A 
ATOM     68  F   UNL A   1      38.357  30.434  36.541  1.00  0.00    -0.205 F 
ATOM     69  C   UNL A   1      38.577  33.915  37.660  1.00  0.00     0.022 A 
BRANCH  67  70
ATOM     70  S   UNL A   1      37.021  32.011  38.852  1.00  0.00     0.127 S 
ATOM     71  O   UNL A   1      37.668  32.446  40.091  1.00  0.00    -0.237 OA
ATOM     72  O   UNL A   1      35.824  32.768  38.490  1.00  0.00    -0.237 OA
ATOM     73  O   UNL A   1      36.913  30.567  38.695  1.00  0.00    -0.744 OA
ENDBRANCH  67  70
ENDBRANCH  49  63
BRANCH  50  74
ATOM     74  C   UNL A   1      41.806  26.942  27.494  1.00  0.00     0.023 A 
ATOM     75  C   UNL A   1      42.379  27.615  26.400  1.00  0.00     0.012 A 
ATOM     76  C   UNL A   1      41.633  25.545  27.437  1.00  0.00     0.148 A 
ATOM     77  C   UNL A   1      42.764  26.907  25.260  1.00  0.00     0.002 A 
ATOM     78  C   UNL A   1      42.061  24.842  26.319  1.00  0.00     0.091 A 
ATOM     79  F   UNL A   1      41.077  24.932  28.491  1.00  0.00    -0.205 F 
ATOM     80  C   UNL A   1      42.616  25.521  25.224  1.00  0.00     0.022 A 
BRANCH  78  81
ATOM     81  S   UNL A   1      42.014  23.049  26.233  1.00  0.00     0.127 S 
ATOM     82  O   UNL A   1      42.792  22.674  27.410  1.00  0.00    -0.237 OA
ATOM     83  O   UNL A   1      40.578  22.782  26.332  1.00  0.00    -0.237 OA
ATOM     84  O   UNL A   1      42.604  22.698  24.949  1.00  0.00    -0.744 OA
ENDBRANCH  78  81
ENDBRANCH  50  74
BRANCH  62  85
ATOM     85  C   UNL A   1      44.637  27.549  33.859  1.00  0.00     0.023 A 
ATOM     86  C   UNL A   1      45.867  28.227  33.784  1.00  0.00     0.012 A 
ATOM     87  C   UNL A   1      44.520  26.396  34.659  1.00  0.00     0.148 A 
ATOM     88  C   UNL A   1      46.971  27.763  34.497  1.00  0.00     0.002 A 
ATOM     89  C   UNL A   1      45.616  25.959  35.393  1.00  0.00     0.091 A 
ATOM     90  F   UNL A   1      43.336  25.769  34.706  1.00  0.00    -0.205 F 
ATOM     91  C   UNL A   1      46.842  26.639  35.310  1.00  0.00     0.022 A 
BRANCH  89  92
ATOM     92  S   UNL A   1      45.529  24.567  36.524  1.00  0.00     0.127 S 
ATOM     93  O   UNL A   1      45.157  23.476  35.624  1.00  0.00    -0.237 OA
ATOM     94  O   UNL A   1      46.899  24.498  37.033  1.00  0.00    -0.237 OA
ATOM     95  O   UNL A   1      44.524  24.915  37.520  1.00  0.00    -0.744 OA
ENDBRANCH  89  92
ENDBRANCH  62  85
ENDBRANCH  36  37
ENDBRANCH  28  31
ENDBRANCH   1  27
TORSDOF 15
ENDMDL
MODEL 3
REMARK VINA RESULT:     -13.4      2.166      2.822
REMARK SMILES CC(C)(C)c1cc2c(cc1Cl)C=C(C(=O)NCCCNC(=O)c1ccc(-c3c4nc(c(-c5cccc(S(=O)(=O)[O-])c5F)c5ccc([nH]5)c(-c5cccc(S(=O)(=O)[O-])c5F)c5nc(c(-c6cccc(S(=O)(=O)[O-])c6F)c6ccc3[nH]6)C=C5)C=C4)cc1)[C@H](C(F)(F)F)O2
REMARK SMILES IDX 19 1 18 2 17 3 16 4 14 5 15 6 13 8 5 9 6 10 10 11 7 12 9 13
REMARK SMILES IDX 11 14 8 15 91 16 12 17 86 18 2 19 1 20 3 21 4 22 87 23 88 24
REMARK SMILES IDX 89 25 90 26 20 27 21 28 22 30 23 31 24 32 85 33 25 34 84 35
REMARK SMILES IDX 26 36 27 37 28 38 78 39 29 40 83 41 77 42 79 43 30 44 82 45
REMARK SMILES IDX 76 46 75 47 31 49 63 50 43 51 62 52 44 53 47 54 61 55 80 56
REMARK SMILES IDX 45 57 46 58 60 60 81 61 48 62 32 63 33 64 41 65 34 66 36 67
REMARK SMILES IDX 42 68 35 69 37 70 38 71 39 72 40 73 64 74 65 75 73 76 66 77
REMARK SMILES IDX 68 78 74 79 67 80 69 81 70 82 71 83 72 84 49 85 50 86 58 87
REMARK SMILES IDX 51 88 53 89 59 90 52 91 54 92 55 93 56 94 57 95
REMARK H PARENT 16 7 20 29 79 48 47 59
REMARK Flexibility Score: inf
ROOT
ATOM      1  C   UNL A   1      32.755  32.782  27.493  1.00  0.00     0.118 C 
ENDROOT
BRANCH   1   2
ATOM      2  C   UNL A   1      31.597  32.219  26.681  1.00  0.00     0.042 C 
BRANCH   2   3
ATOM      3  C   UNL A   1      31.823  30.766  26.283  1.00  0.00     0.118 C 
BRANCH   3   4
ATOM      4  N   UNL A   1      31.121  30.436  25.053  1.00  0.00    -0.352 N 
ATOM      5  C   UNL A   1      30.984  29.361  24.244  1.00  0.00     0.251 C 
ATOM      6  O   UNL A   1      30.224  29.523  23.285  1.00  0.00    -0.270 OA
ATOM      7  H   UNL A   1      30.604  31.204  24.717  1.00  0.00     0.163 HD
BRANCH   5   8
ATOM      8  C   UNL A   1      31.651  28.043  24.443  1.00  0.00     0.067 C 
ATOM      9  C   UNL A   1      32.644  23.238  25.796  1.00  0.00    -0.020 A 
ATOM     10  C   UNL A   1      33.385  24.335  25.307  1.00  0.00     0.053 A 
ATOM     11  C   UNL A   1      31.265  23.472  26.011  1.00  0.00     0.045 A 
ATOM     12  C   UNL A   1      32.800  25.571  25.038  1.00  0.00     0.128 A 
ATOM     13  C   UNL A   1      30.678  24.720  25.722  1.00  0.00     0.032 A 
ATOM     14  Cl  UNL A   1      30.177  22.317  26.700  1.00  0.00    -0.084 Cl
ATOM     15  C   UNL A   1      31.446  25.776  25.241  1.00  0.00     0.019 A 
ATOM     16  O   UNL A   1      33.651  26.558  24.637  1.00  0.00    -0.475 OA
ATOM     17  C   UNL A   1      30.883  27.098  25.017  1.00  0.00     0.025 C 
ATOM     18  C   UNL A   1      33.051  27.713  23.997  1.00  0.00     0.314 C 
BRANCH   9  19
ATOM     19  C   UNL A   1      33.390  21.920  26.120  1.00  0.00    -0.012 C 
ATOM     20  C   UNL A   1      34.835  21.871  25.543  1.00  0.00     0.016 C 
ATOM     21  C   UNL A   1      32.692  20.673  25.534  1.00  0.00     0.016 C 
ATOM     22  C   UNL A   1      33.529  21.793  27.651  1.00  0.00     0.016 C 
ENDBRANCH   9  19
BRANCH  18  23
ATOM     23  C   UNL A   1      33.211  27.598  22.471  1.00  0.00     0.429 C 
ATOM     24  F   UNL A   1      34.068  26.618  22.108  1.00  0.00    -0.167 F 
ATOM     25  F   UNL A   1      32.014  27.311  21.899  1.00  0.00    -0.167 F 
ATOM     26  F   UNL A   1      33.660  28.743  21.908  1.00  0.00    -0.167 F 
ENDBRANCH  18  23
ENDBRANCH   5   8
ENDBRANCH   3   4
ENDBRANCH   2   3
ENDBRANCH   1   2
BRANCH   1  27
ATOM     27  N   UNL A   1      32.576  34.201  27.782  1.00  0.00    -0.352 N 
ATOM     28  C   UNL A   1      33.127  34.980  28.776  1.00  0.00     0.251 C 
ATOM     29  H   UNL A   1      31.968  34.676  27.171  1.00  0.00     0.163 HD
ATOM     30  O   UNL A   1      32.653  36.087  29.002  1.00  0.00    -0.269 OA
BRANCH  28  31
ATOM     31  C   UNL A   1      34.262  34.467  29.574  1.00  0.00     0.039 A 
ATOM     32  C   UNL A   1      35.566  34.570  29.091  1.00  0.00     0.014 A 
ATOM     33  C   UNL A   1      34.024  33.869  30.814  1.00  0.00     0.014 A 
ATOM     34  C   UNL A   1      36.593  33.892  29.731  1.00  0.00     0.010 A 
ATOM     35  C   UNL A   1      35.086  33.293  31.522  1.00  0.00     0.010 A 
ATOM     36  C   UNL A   1      36.371  33.250  30.960  1.00  0.00    -0.014 A 
BRANCH  36  37
ATOM     37  C   UNL A   1      37.506  32.561  31.632  1.00  0.00     0.031 A 
ATOM     38  C   UNL A   1      38.248  31.441  30.951  1.00  0.00     0.074 A 
ATOM     39  C   UNL A   1      37.897  32.985  32.852  1.00  0.00     0.049 A 
ATOM     40  N   UNL A   1      39.250  30.733  31.404  1.00  0.00    -0.248 NA
ATOM     41  C   UNL A   1      37.818  31.059  29.594  1.00  0.00     0.031 C 
ATOM     42  C   UNL A   1      37.246  34.047  33.626  1.00  0.00     0.029 A 
ATOM     43  N   UNL A   1      38.936  32.585  33.653  1.00  0.00    -0.354 N 
ATOM     44  C   UNL A   1      39.539  29.799  30.415  1.00  0.00     0.074 A 
ATOM     45  C   UNL A   1      38.610  30.027  29.333  1.00  0.00     0.031 C 
ATOM     46  C   UNL A   1      37.917  34.237  34.769  1.00  0.00     0.029 A 
ATOM     47  C   UNL A   1      39.002  33.266  34.846  1.00  0.00     0.049 A 
ATOM     48  H   UNL A   1      39.573  31.880  33.399  1.00  0.00     0.167 HD
ATOM     49  C   UNL A   1      40.508  28.855  30.405  1.00  0.00     0.034 A 
ATOM     50  C   UNL A   1      39.822  33.113  35.904  1.00  0.00     0.034 A 
ATOM     51  C   UNL A   1      41.472  28.671  31.455  1.00  0.00     0.049 A 
ATOM     52  C   UNL A   1      40.892  32.066  35.855  1.00  0.00     0.074 A 
ATOM     53  C   UNL A   1      42.519  27.764  31.501  1.00  0.00     0.029 A 
ATOM     54  N   UNL A   1      41.520  29.401  32.629  1.00  0.00    -0.354 N 
ATOM     55  N   UNL A   1      41.187  31.243  34.880  1.00  0.00    -0.248 NA
ATOM     56  C   UNL A   1      41.752  31.931  37.040  1.00  0.00     0.031 C 
ATOM     57  C   UNL A   1      43.194  27.941  32.710  1.00  0.00     0.029 A 
ATOM     58  C   UNL A   1      42.577  28.967  33.407  1.00  0.00     0.049 A 
ATOM     59  H   UNL A   1      40.894  30.122  32.872  1.00  0.00     0.167 HD
ATOM     60  C   UNL A   1      42.272  30.501  35.326  1.00  0.00     0.074 A 
ATOM     61  C   UNL A   1      42.599  30.986  36.650  1.00  0.00     0.031 C 
ATOM     62  C   UNL A   1      42.924  29.495  34.699  1.00  0.00     0.034 A 
BRANCH  49  63
ATOM     63  C   UNL A   1      40.638  27.962  29.202  1.00  0.00     0.023 A 
ATOM     64  C   UNL A   1      39.741  26.888  29.048  1.00  0.00     0.012 A 
ATOM     65  C   UNL A   1      41.520  28.293  28.154  1.00  0.00     0.148 A 
ATOM     66  C   UNL A   1      39.711  26.160  27.859  1.00  0.00     0.002 A 
ATOM     67  C   UNL A   1      41.464  27.580  26.962  1.00  0.00     0.091 A 
ATOM     68  F   UNL A   1      42.363  29.319  28.331  1.00  0.00    -0.205 F 
ATOM     69  C   UNL A   1      40.560  26.514  26.813  1.00  0.00     0.022 A 
BRANCH  67  70
ATOM     70  S   UNL A   1      42.470  27.991  25.532  1.00  0.00     0.127 S 
ATOM     71  O   UNL A   1      42.296  26.801  24.698  1.00  0.00    -0.237 OA
ATOM     72  O   UNL A   1      41.806  29.192  25.028  1.00  0.00    -0.237 OA
ATOM     73  O   UNL A   1      43.823  28.194  26.031  1.00  0.00    -0.744 OA
ENDBRANCH  67  70
ENDBRANCH  49  63
BRANCH  50  74
ATOM     74  C   UNL A   1      39.644  33.984  37.097  1.00  0.00     0.023 A 
ATOM     75  C   UNL A   1      40.059  35.327  37.051  1.00  0.00     0.012 A 
ATOM     76  C   UNL A   1      39.006  33.495  38.254  1.00  0.00     0.148 A 
ATOM     77  C   UNL A   1      39.852  36.167  38.145  1.00  0.00     0.002 A 
ATOM     78  C   UNL A   1      38.762  34.348  39.321  1.00  0.00     0.091 A 
ATOM     79  F   UNL A   1      38.628  32.209  38.273  1.00  0.00    -0.205 F 
ATOM     80  C   UNL A   1      39.194  35.682  39.275  1.00  0.00     0.022 A 
BRANCH  78  81
ATOM     81  S   UNL A   1      37.823  33.841  40.766  1.00  0.00     0.127 S 
ATOM     82  O   UNL A   1      37.541  35.124  41.403  1.00  0.00    -0.237 OA
ATOM     83  O   UNL A   1      36.665  33.187  40.156  1.00  0.00    -0.237 OA
ATOM     84  O   UNL A   1      38.696  32.946  41.511  1.00  0.00    -0.744 OA
ENDBRANCH  78  81
ENDBRANCH  50  74
BRANCH  62  85
ATOM     85  C   UNL A   1      44.076  28.846  35.410  1.00  0.00     0.023 A 
ATOM     86  C   UNL A   1      45.359  29.414  35.306  1.00  0.00     0.012 A 
ATOM     87  C   UNL A   1      43.857  27.765  36.284  1.00  0.00     0.148 A 
ATOM     88  C   UNL A   1      46.415  28.911  36.063  1.00  0.00     0.002 A 
ATOM     89  C   UNL A   1      44.907  27.290  37.061  1.00  0.00     0.091 A 
ATOM     90  F   UNL A   1      42.625  27.242  36.358  1.00  0.00    -0.205 F 
ATOM     91  C   UNL A   1      46.186  27.860  36.949  1.00  0.00     0.022 A 
BRANCH  89  92
ATOM     92  S   UNL A   1      44.696  25.991  38.282  1.00  0.00     0.127 S 
ATOM     93  O   UNL A   1      46.053  25.858  38.812  1.00  0.00    -0.237 OA
ATOM     94  O   UNL A   1      43.736  26.591  39.208  1.00  0.00    -0.237 OA
ATOM     95  O   UNL A   1      44.201  24.828  37.557  1.00  0.00    -0.744 OA
ENDBRANCH  89  92
ENDBRANCH  62  85
ENDBRANCH  36  37
ENDBRANCH  28  31
ENDBRANCH   1  27
TORSDOF 15
ENDMDL
