MODEL 1
REMARK VINA RESULT:     -11.0      0.000      0.000
REMARK SMILES CCn1cc(CC(=O)NCCCNC(=O)c2ccc(-c3c4nc(c(-c5cccc(S(=O)(=O)[O-])c5F)c5ccc([nH]5)c(-c5cccc(S(=O)(=O)[O-])c5F)c5nc(c(-c6cccc(S(=O)(=O)[O-])c6F)c6ccc3[nH]6)C=C5)C=C4)cc2)c2ccccc21
REMARK SMILES IDX 11 1 10 2 9 3 7 4 8 5 6 7 5 8 3 9 4 10 84 11 79 12 83 13
REMARK SMILES IDX 80 14 82 15 81 16 2 17 1 18 12 19 13 20 14 21 15 23 16 24
REMARK SMILES IDX 17 25 78 26 18 27 77 28 19 29 20 30 21 31 71 32 22 33 76 34
REMARK SMILES IDX 70 35 72 36 23 37 75 38 69 39 68 40 24 42 56 43 36 44 55 45
REMARK SMILES IDX 37 46 40 47 54 48 73 49 38 50 39 51 53 53 74 54 41 55 25 56
REMARK SMILES IDX 26 57 34 58 27 59 29 60 35 61 28 62 30 63 31 64 32 65 33 66
REMARK SMILES IDX 57 67 58 68 66 69 59 70 61 71 67 72 60 73 62 74 63 75 64 76
REMARK SMILES IDX 65 77 42 78 43 79 51 80 44 81 46 82 52 83 45 84 47 85 48 86
REMARK SMILES IDX 49 87 50 88
REMARK H PARENT 9 6 13 22 72 41 40 52
REMARK Flexibility Score: inf
ROOT
ATOM      1  C   UNL A   1      42.479  19.090  26.789  1.00  0.00     0.042 C 
ENDROOT
BRANCH   1   2
ATOM      2  C   UNL A   1      43.061  19.225  25.378  1.00  0.00     0.117 C 
BRANCH   2   3
ATOM      3  N   UNL A   1      44.493  19.480  25.379  1.00  0.00    -0.356 N 
ATOM      4  C   UNL A   1      45.168  20.667  25.369  1.00  0.00     0.224 C 
ATOM      5  O   UNL A   1      46.402  20.634  25.378  1.00  0.00    -0.275 OA
ATOM      6  H   UNL A   1      45.061  18.676  25.386  1.00  0.00     0.163 HD
BRANCH   4   7
ATOM      7  C   UNL A   1      44.416  21.988  25.410  1.00  0.00     0.137 C 
BRANCH   7   8
ATOM      8  C   UNL A   1      44.973  22.947  26.410  1.00  0.00    -0.013 A 
ATOM      9  N   UNL A   1      45.308  24.045  28.328  1.00  0.00    -0.347 N 
ATOM     10  C   UNL A   1      44.705  22.950  27.764  1.00  0.00     0.091 A 
ATOM     11  C   UNL A   1      46.037  24.724  27.372  1.00  0.00     0.048 A 
ATOM     12  C   UNL A   1      45.854  24.046  26.161  1.00  0.00     0.003 A 
ATOM     13  C   UNL A   1      46.820  25.888  27.451  1.00  0.00     0.027 A 
ATOM     14  C   UNL A   1      46.481  24.543  24.999  1.00  0.00     0.010 A 
ATOM     15  C   UNL A   1      47.428  26.361  26.284  1.00  0.00     0.002 A 
ATOM     16  C   UNL A   1      47.264  25.698  25.072  1.00  0.00     0.001 A 
BRANCH   9  17
ATOM     17  C   UNL A   1      45.082  24.463  29.705  1.00  0.00     0.119 C 
ATOM     18  C   UNL A   1      44.159  23.535  30.478  1.00  0.00     0.027 C 
ENDBRANCH   9  17
ENDBRANCH   7   8
ENDBRANCH   4   7
ENDBRANCH   2   3
ENDBRANCH   1   2
BRANCH   1  19
ATOM     19  C   UNL A   1      41.764  20.349  27.286  1.00  0.00     0.118 C 
BRANCH  19  20
ATOM     20  N   UNL A   1      40.539  20.644  26.569  1.00  0.00    -0.352 N 
ATOM     21  C   UNL A   1      39.761  21.747  26.359  1.00  0.00     0.251 C 
ATOM     22  H   UNL A   1      40.175  19.847  26.119  1.00  0.00     0.163 HD
ATOM     23  O   UNL A   1      38.806  21.574  25.595  1.00  0.00    -0.269 OA
BRANCH  21  24
ATOM     24  C   UNL A   1      39.940  23.083  26.992  1.00  0.00     0.039 A 
ATOM     25  C   UNL A   1      39.122  24.196  26.800  1.00  0.00     0.014 A 
ATOM     26  C   UNL A   1      41.074  23.222  27.817  1.00  0.00     0.014 A 
ATOM     27  C   UNL A   1      39.473  25.431  27.351  1.00  0.00     0.010 A 
ATOM     28  C   UNL A   1      41.422  24.448  28.377  1.00  0.00     0.010 A 
ATOM     29  C   UNL A   1      40.645  25.568  28.103  1.00  0.00    -0.014 A 
BRANCH  29  30
ATOM     30  C   UNL A   1      40.992  26.896  28.606  1.00  0.00     0.031 A 
ATOM     31  C   UNL A   1      42.296  27.455  28.141  1.00  0.00     0.074 A 
ATOM     32  C   UNL A   1      40.175  27.641  29.380  1.00  0.00     0.049 A 
ATOM     33  N   UNL A   1      43.346  27.728  28.849  1.00  0.00    -0.248 NA
ATOM     34  C   UNL A   1      42.474  27.656  26.697  1.00  0.00     0.031 C 
ATOM     35  C   UNL A   1      38.766  27.407  29.709  1.00  0.00     0.029 A 
ATOM     36  N   UNL A   1      40.424  28.854  29.953  1.00  0.00    -0.354 N 
ATOM     37  C   UNL A   1      44.260  28.309  27.968  1.00  0.00     0.074 A 
ATOM     38  C   UNL A   1      43.719  28.134  26.644  1.00  0.00     0.031 C 
ATOM     39  C   UNL A   1      38.230  28.543  30.210  1.00  0.00     0.029 A 
ATOM     40  C   UNL A   1      39.284  29.527  30.378  1.00  0.00     0.049 A 
ATOM     41  H   UNL A   1      41.333  29.219  30.057  1.00  0.00     0.167 HD
ATOM     42  C   UNL A   1      45.328  29.043  28.385  1.00  0.00     0.034 A 
ATOM     43  C   UNL A   1      39.220  30.821  30.771  1.00  0.00     0.034 A 
ATOM     44  C   UNL A   1      45.598  28.880  29.784  1.00  0.00     0.049 A 
ATOM     45  C   UNL A   1      40.586  31.212  31.190  1.00  0.00     0.074 A 
ATOM     46  C   UNL A   1      45.981  27.834  30.597  1.00  0.00     0.029 A 
ATOM     47  N   UNL A   1      45.154  29.868  30.627  1.00  0.00    -0.354 N 
ATOM     48  N   UNL A   1      41.201  30.715  32.225  1.00  0.00    -0.248 NA
ATOM     49  C   UNL A   1      41.427  31.913  30.234  1.00  0.00     0.031 C 
ATOM     50  C   UNL A   1      45.301  28.060  31.830  1.00  0.00     0.029 A 
ATOM     51  C   UNL A   1      44.572  29.244  31.697  1.00  0.00     0.049 A 
ATOM     52  H   UNL A   1      45.238  30.839  30.488  1.00  0.00     0.167 HD
ATOM     53  C   UNL A   1      42.534  30.665  31.847  1.00  0.00     0.074 A 
ATOM     54  C   UNL A   1      42.626  31.520  30.668  1.00  0.00     0.031 C 
ATOM     55  C   UNL A   1      43.376  29.719  32.357  1.00  0.00     0.034 A 
BRANCH  42  56
ATOM     56  C   UNL A   1      45.973  30.144  27.588  1.00  0.00     0.023 A 
ATOM     57  C   UNL A   1      47.381  30.238  27.583  1.00  0.00     0.012 A 
ATOM     58  C   UNL A   1      45.247  31.234  27.057  1.00  0.00     0.148 A 
ATOM     59  C   UNL A   1      48.037  31.367  27.077  1.00  0.00     0.002 A 
ATOM     60  C   UNL A   1      45.903  32.324  26.496  1.00  0.00     0.091 A 
ATOM     61  F   UNL A   1      43.918  31.272  27.205  1.00  0.00    -0.205 F 
ATOM     62  C   UNL A   1      47.298  32.406  26.521  1.00  0.00     0.022 A 
BRANCH  60  63
ATOM     63  S   UNL A   1      44.993  33.673  25.736  1.00  0.00     0.127 S 
ATOM     64  O   UNL A   1      46.084  34.523  25.255  1.00  0.00    -0.237 OA
ATOM     65  O   UNL A   1      44.248  32.975  24.683  1.00  0.00    -0.237 OA
ATOM     66  O   UNL A   1      44.164  34.220  26.790  1.00  0.00    -0.744 OA
ENDBRANCH  60  63
ENDBRANCH  42  56
BRANCH  43  67
ATOM     67  C   UNL A   1      38.154  31.833  30.565  1.00  0.00     0.023 A 
ATOM     68  C   UNL A   1      37.576  31.969  29.285  1.00  0.00     0.012 A 
ATOM     69  C   UNL A   1      37.491  32.434  31.657  1.00  0.00     0.148 A 
ATOM     70  C   UNL A   1      36.350  32.622  29.108  1.00  0.00     0.002 A 
ATOM     71  C   UNL A   1      36.277  33.093  31.474  1.00  0.00     0.091 A 
ATOM     72  F   UNL A   1      37.991  32.274  32.890  1.00  0.00    -0.205 F 
ATOM     73  C   UNL A   1      35.694  33.172  30.204  1.00  0.00     0.022 A 
BRANCH  71  74
ATOM     74  S   UNL A   1      35.372  33.817  32.849  1.00  0.00     0.127 S 
ATOM     75  O   UNL A   1      35.468  32.770  33.867  1.00  0.00    -0.237 OA
ATOM     76  O   UNL A   1      36.154  35.017  33.129  1.00  0.00    -0.237 OA
ATOM     77  O   UNL A   1      34.018  34.040  32.352  1.00  0.00    -0.744 OA
ENDBRANCH  71  74
ENDBRANCH  43  67
BRANCH  55  78
ATOM     78  C   UNL A   1      42.889  28.894  33.521  1.00  0.00     0.023 A 
ATOM     79  C   UNL A   1      41.880  27.919  33.366  1.00  0.00     0.012 A 
ATOM     80  C   UNL A   1      43.589  28.962  34.736  1.00  0.00     0.148 A 
ATOM     81  C   UNL A   1      41.567  27.040  34.406  1.00  0.00     0.002 A 
ATOM     82  C   UNL A   1      43.303  28.062  35.754  1.00  0.00     0.091 A 
ATOM     83  F   UNL A   1      44.557  29.884  34.855  1.00  0.00    -0.205 F 
ATOM     84  C   UNL A   1      42.288  27.103  35.596  1.00  0.00     0.022 A 
BRANCH  82  85
ATOM     85  S   UNL A   1      44.264  27.998  37.267  1.00  0.00     0.127 S 
ATOM     86  O   UNL A   1      44.045  29.330  37.827  1.00  0.00    -0.237 OA
ATOM     87  O   UNL A   1      43.612  26.912  38.001  1.00  0.00    -0.237 OA
ATOM     88  O   UNL A   1      45.636  27.710  36.866  1.00  0.00    -0.744 OA
ENDBRANCH  82  85
ENDBRANCH  55  78
ENDBRANCH  29  30
ENDBRANCH  21  24
ENDBRANCH  19  20
ENDBRANCH   1  19
TORSDOF 15
ENDMDL
MODEL 2
REMARK VINA RESULT:     -10.9      4.024     10.292
REMARK SMILES CCn1cc(CC(=O)NCCCNC(=O)c2ccc(-c3c4nc(c(-c5cccc(S(=O)(=O)[O-])c5F)c5ccc([nH]5)c(-c5cccc(S(=O)(=O)[O-])c5F)c5nc(c(-c6cccc(S(=O)(=O)[O-])c6F)c6ccc3[nH]6)C=C5)C=C4)cc2)c2ccccc21
REMARK SMILES IDX 11 1 10 2 9 3 7 4 8 5 6 7 5 8 3 9 4 10 84 11 79 12 83 13
REMARK SMILES IDX 80 14 82 15 81 16 2 17 1 18 12 19 13 20 14 21 15 23 16 24
REMARK SMILES IDX 17 25 78 26 18 27 77 28 19 29 20 30 21 31 71 32 22 33 76 34
REMARK SMILES IDX 70 35 72 36 23 37 75 38 69 39 68 40 24 42 56 43 36 44 55 45
REMARK SMILES IDX 37 46 40 47 54 48 73 49 38 50 39 51 53 53 74 54 41 55 25 56
REMARK SMILES IDX 26 57 34 58 27 59 29 60 35 61 28 62 30 63 31 64 32 65 33 66
REMARK SMILES IDX 57 67 58 68 66 69 59 70 61 71 67 72 60 73 62 74 63 75 64 76
REMARK SMILES IDX 65 77 42 78 43 79 51 80 44 81 46 82 52 83 45 84 47 85 48 86
REMARK SMILES IDX 49 87 50 88
REMARK H PARENT 9 6 13 22 72 41 40 52
REMARK Flexibility Score: inf
ROOT
ATOM      1  C   UNL A   1      34.303  30.472  27.362  1.00  0.00     0.042 C 
ENDROOT
BRANCH   1   2
ATOM      2  C   UNL A   1      33.078  30.063  26.537  1.00  0.00     0.117 C 
BRANCH   2   3
ATOM      3  N   UNL A   1      33.431  29.440  25.271  1.00  0.00    -0.356 N 
ATOM      4  C   UNL A   1      33.819  28.158  25.006  1.00  0.00     0.224 C 
ATOM      5  O   UNL A   1      34.063  27.855  23.835  1.00  0.00    -0.275 OA
ATOM      6  H   UNL A   1      33.382  30.033  24.486  1.00  0.00     0.163 HD
BRANCH   4   7
ATOM      7  C   UNL A   1      33.886  27.123  26.118  1.00  0.00     0.137 C 
BRANCH   7   8
ATOM      8  C   UNL A   1      33.411  25.774  25.689  1.00  0.00    -0.013 A 
ATOM      9  N   UNL A   1      32.061  24.041  25.274  1.00  0.00    -0.347 N 
ATOM     10  C   UNL A   1      32.093  25.376  25.585  1.00  0.00     0.091 A 
ATOM     11  C   UNL A   1      33.347  23.569  25.096  1.00  0.00     0.048 A 
ATOM     12  C   UNL A   1      34.213  24.643  25.338  1.00  0.00     0.003 A 
ATOM     13  C   UNL A   1      33.834  22.292  24.771  1.00  0.00     0.027 A 
ATOM     14  C   UNL A   1      35.605  24.432  25.242  1.00  0.00     0.010 A 
ATOM     15  C   UNL A   1      35.218  22.110  24.685  1.00  0.00     0.002 A 
ATOM     16  C   UNL A   1      36.094  23.165  24.915  1.00  0.00     0.001 A 
BRANCH   9  17
ATOM     17  C   UNL A   1      30.839  23.249  25.268  1.00  0.00     0.119 C 
ATOM     18  C   UNL A   1      30.316  22.930  26.659  1.00  0.00     0.027 C 
ENDBRANCH   9  17
ENDBRANCH   7   8
ENDBRANCH   4   7
ENDBRANCH   2   3
ENDBRANCH   1   2
BRANCH   1  19
ATOM     19  C   UNL A   1      34.348  31.963  27.706  1.00  0.00     0.118 C 
BRANCH  19  20
ATOM     20  N   UNL A   1      34.216  32.237  29.123  1.00  0.00    -0.352 N 
ATOM     21  C   UNL A   1      35.003  32.100  30.231  1.00  0.00     0.251 C 
ATOM     22  H   UNL A   1      33.335  32.619  29.344  1.00  0.00     0.163 HD
ATOM     23  O   UNL A   1      34.515  32.542  31.275  1.00  0.00    -0.269 OA
BRANCH  21  24
ATOM     24  C   UNL A   1      36.337  31.440  30.286  1.00  0.00     0.039 A 
ATOM     25  C   UNL A   1      37.559  32.036  29.974  1.00  0.00     0.014 A 
ATOM     26  C   UNL A   1      36.331  30.076  30.640  1.00  0.00     0.014 A 
ATOM     27  C   UNL A   1      38.727  31.271  29.939  1.00  0.00     0.010 A 
ATOM     28  C   UNL A   1      37.494  29.312  30.618  1.00  0.00     0.010 A 
ATOM     29  C   UNL A   1      38.688  29.900  30.218  1.00  0.00    -0.014 A 
BRANCH  29  30
ATOM     30  C   UNL A   1      39.931  29.137  30.111  1.00  0.00     0.031 A 
ATOM     31  C   UNL A   1      40.640  28.852  31.393  1.00  0.00     0.074 A 
ATOM     32  C   UNL A   1      40.402  28.631  28.951  1.00  0.00     0.049 A 
ATOM     33  N   UNL A   1      41.805  29.275  31.773  1.00  0.00    -0.248 NA
ATOM     34  C   UNL A   1      39.925  28.065  32.406  1.00  0.00     0.031 C 
ATOM     35  C   UNL A   1      39.729  28.552  27.651  1.00  0.00     0.029 A 
ATOM     36  N   UNL A   1      41.573  27.968  28.730  1.00  0.00    -0.354 N 
ATOM     37  C   UNL A   1      42.052  28.659  33.001  1.00  0.00     0.074 A 
ATOM     38  C   UNL A   1      40.820  28.021  33.394  1.00  0.00     0.031 C 
ATOM     39  C   UNL A   1      40.393  27.679  26.859  1.00  0.00     0.029 A 
ATOM     40  C   UNL A   1      41.608  27.261  27.534  1.00  0.00     0.049 A 
ATOM     41  H   UNL A   1      42.327  27.989  29.363  1.00  0.00     0.167 HD
ATOM     42  C   UNL A   1      43.296  28.568  33.548  1.00  0.00     0.034 A 
ATOM     43  C   UNL A   1      42.543  26.349  27.171  1.00  0.00     0.034 A 
ATOM     44  C   UNL A   1      44.243  29.439  32.914  1.00  0.00     0.049 A 
ATOM     45  C   UNL A   1      43.756  26.636  27.971  1.00  0.00     0.074 A 
ATOM     46  C   UNL A   1      44.386  30.803  32.776  1.00  0.00     0.029 A 
ATOM     47  N   UNL A   1      45.091  28.877  31.994  1.00  0.00    -0.354 N 
ATOM     48  N   UNL A   1      44.470  27.718  27.849  1.00  0.00    -0.248 NA
ATOM     49  C   UNL A   1      43.983  25.863  29.180  1.00  0.00     0.031 C 
ATOM     50  C   UNL A   1      44.936  30.984  31.473  1.00  0.00     0.029 A 
ATOM     51  C   UNL A   1      45.118  29.718  30.914  1.00  0.00     0.049 A 
ATOM     52  H   UNL A   1      45.586  28.031  32.090  1.00  0.00     0.167 HD
ATOM     53  C   UNL A   1      44.914  27.989  29.136  1.00  0.00     0.074 A 
ATOM     54  C   UNL A   1      44.683  26.756  29.883  1.00  0.00     0.031 C 
ATOM     55  C   UNL A   1      45.164  29.268  29.540  1.00  0.00     0.034 A 
BRANCH  42  56
ATOM     56  C   UNL A   1      43.741  27.478  34.484  1.00  0.00     0.023 A 
ATOM     57  C   UNL A   1      44.309  27.842  35.724  1.00  0.00     0.012 A 
ATOM     58  C   UNL A   1      43.858  26.126  34.088  1.00  0.00     0.148 A 
ATOM     59  C   UNL A   1      44.968  26.905  36.529  1.00  0.00     0.002 A 
ATOM     60  C   UNL A   1      44.455  25.187  34.921  1.00  0.00     0.091 A 
ATOM     61  F   UNL A   1      43.500  25.772  32.848  1.00  0.00    -0.205 F 
ATOM     62  C   UNL A   1      45.030  25.574  36.134  1.00  0.00     0.022 A 
BRANCH  60  63
ATOM     63  S   UNL A   1      44.529  23.450  34.469  1.00  0.00     0.127 S 
ATOM     64  O   UNL A   1      43.114  23.153  34.231  1.00  0.00    -0.237 OA
ATOM     65  O   UNL A   1      45.360  23.490  33.261  1.00  0.00    -0.237 OA
ATOM     66  O   UNL A   1      45.148  22.785  35.597  1.00  0.00    -0.744 OA
ENDBRANCH  60  63
ENDBRANCH  42  56
BRANCH  43  67
ATOM     67  C   UNL A   1      42.403  25.089  26.400  1.00  0.00     0.023 A 
ATOM     68  C   UNL A   1      43.368  24.774  25.420  1.00  0.00     0.012 A 
ATOM     69  C   UNL A   1      41.531  24.062  26.822  1.00  0.00     0.148 A 
ATOM     70  C   UNL A   1      43.504  23.471  24.927  1.00  0.00     0.002 A 
ATOM     71  C   UNL A   1      41.662  22.769  26.320  1.00  0.00     0.091 A 
ATOM     72  F   UNL A   1      40.641  24.321  27.789  1.00  0.00    -0.205 F 
ATOM     73  C   UNL A   1      42.661  22.465  25.387  1.00  0.00     0.022 A 
BRANCH  71  74
ATOM     74  S   UNL A   1      40.612  21.421  26.879  1.00  0.00     0.127 S 
ATOM     75  O   UNL A   1      39.284  21.870  26.456  1.00  0.00    -0.237 OA
ATOM     76  O   UNL A   1      41.145  20.290  26.126  1.00  0.00    -0.237 OA
ATOM     77  O   UNL A   1      40.786  21.363  28.326  1.00  0.00    -0.744 OA
ENDBRANCH  71  74
ENDBRANCH  43  67
BRANCH  55  78
ATOM     78  C   UNL A   1      45.189  30.349  28.490  1.00  0.00     0.023 A 
ATOM     79  C   UNL A   1      44.003  30.961  28.028  1.00  0.00     0.012 A 
ATOM     80  C   UNL A   1      46.428  30.889  28.108  1.00  0.00     0.148 A 
ATOM     81  C   UNL A   1      44.053  32.080  27.193  1.00  0.00     0.002 A 
ATOM     82  C   UNL A   1      46.474  32.025  27.310  1.00  0.00     0.091 A 
ATOM     83  F   UNL A   1      47.542  30.303  28.572  1.00  0.00    -0.205 F 
ATOM     84  C   UNL A   1      45.289  32.620  26.845  1.00  0.00     0.022 A 
BRANCH  82  85
ATOM     85  S   UNL A   1      48.017  32.851  26.916  1.00  0.00     0.127 S 
ATOM     86  O   UNL A   1      47.595  33.828  25.913  1.00  0.00    -0.237 OA
ATOM     87  O   UNL A   1      48.395  33.426  28.208  1.00  0.00    -0.237 OA
ATOM     88  O   UNL A   1      48.921  31.815  26.434  1.00  0.00    -0.744 OA
ENDBRANCH  82  85
ENDBRANCH  55  78
ENDBRANCH  29  30
ENDBRANCH  21  24
ENDBRANCH  19  20
ENDBRANCH   1  19
TORSDOF 15
ENDMDL
MODEL 3
REMARK VINA RESULT:     -10.8      3.370     10.440
REMARK SMILES CCn1cc(CC(=O)NCCCNC(=O)c2ccc(-c3c4nc(c(-c5cccc(S(=O)(=O)[O-])c5F)c5ccc([nH]5)c(-c5cccc(S(=O)(=O)[O-])c5F)c5nc(c(-c6cccc(S(=O)(=O)[O-])c6F)c6ccc3[nH]6)C=C5)C=C4)cc2)c2ccccc21
REMARK SMILES IDX 11 1 10 2 9 3 7 4 8 5 6 7 5 8 3 9 4 10 84 11 79 12 83 13
REMARK SMILES IDX 80 14 82 15 81 16 2 17 1 18 12 19 13 20 14 21 15 23 16 24
REMARK SMILES IDX 17 25 78 26 18 27 77 28 19 29 20 30 21 31 71 32 22 33 76 34
REMARK SMILES IDX 70 35 72 36 23 37 75 38 69 39 68 40 24 42 56 43 36 44 55 45
REMARK SMILES IDX 37 46 40 47 54 48 73 49 38 50 39 51 53 53 74 54 41 55 25 56
REMARK SMILES IDX 26 57 34 58 27 59 29 60 35 61 28 62 30 63 31 64 32 65 33 66
REMARK SMILES IDX 57 67 58 68 66 69 59 70 61 71 67 72 60 73 62 74 63 75 64 76
REMARK SMILES IDX 65 77 42 78 43 79 51 80 44 81 46 82 52 83 45 84 47 85 48 86
REMARK SMILES IDX 49 87 50 88
REMARK H PARENT 9 6 13 22 72 41 40 52
REMARK Flexibility Score: inf
ROOT
ATOM      1  C   UNL A   1      35.182  32.650  32.297  1.00  0.00     0.042 C 
ENDROOT
BRANCH   1   2
ATOM      2  C   UNL A   1      36.044  33.085  33.487  1.00  0.00     0.117 C 
BRANCH   2   3
ATOM      3  N   UNL A   1      36.674  31.966  34.170  1.00  0.00    -0.356 N 
ATOM      4  C   UNL A   1      37.821  31.290  33.865  1.00  0.00     0.224 C 
ATOM      5  O   UNL A   1      38.165  30.366  34.607  1.00  0.00    -0.275 OA
ATOM      6  H   UNL A   1      36.202  31.648  34.974  1.00  0.00     0.163 HD
BRANCH   4   7
ATOM      7  C   UNL A   1      38.676  31.710  32.680  1.00  0.00     0.137 C 
BRANCH   7   8
ATOM      8  C   UNL A   1      39.756  32.672  33.051  1.00  0.00    -0.013 A 
ATOM      9  N   UNL A   1      40.975  34.132  34.225  1.00  0.00    -0.347 N 
ATOM     10  C   UNL A   1      39.966  33.208  34.306  1.00  0.00     0.091 A 
ATOM     11  C   UNL A   1      41.487  34.158  32.943  1.00  0.00     0.048 A 
ATOM     12  C   UNL A   1      40.746  33.239  32.189  1.00  0.00     0.003 A 
ATOM     13  C   UNL A   1      42.515  34.922  32.366  1.00  0.00     0.027 A 
ATOM     14  C   UNL A   1      41.052  33.075  30.821  1.00  0.00     0.010 A 
ATOM     15  C   UNL A   1      42.794  34.742  31.007  1.00  0.00     0.002 A 
ATOM     16  C   UNL A   1      42.076  33.830  30.243  1.00  0.00     0.001 A 
BRANCH   9  17
ATOM     17  C   UNL A   1      41.334  35.023  35.320  1.00  0.00     0.119 C 
ATOM     18  C   UNL A   1      40.341  36.153  35.534  1.00  0.00     0.027 C 
ENDBRANCH   9  17
ENDBRANCH   7   8
ENDBRANCH   4   7
ENDBRANCH   2   3
ENDBRANCH   1   2
BRANCH   1  19
ATOM     19  C   UNL A   1      35.102  33.689  31.177  1.00  0.00     0.118 C 
BRANCH  19  20
ATOM     20  N   UNL A   1      34.494  33.188  29.961  1.00  0.00    -0.352 N 
ATOM     21  C   UNL A   1      34.780  32.217  29.044  1.00  0.00     0.251 C 
ATOM     22  H   UNL A   1      33.665  33.671  29.738  1.00  0.00     0.163 HD
ATOM     23  O   UNL A   1      33.927  32.064  28.164  1.00  0.00    -0.269 OA
BRANCH  21  24
ATOM     24  C   UNL A   1      36.016  31.388  28.996  1.00  0.00     0.039 A 
ATOM     25  C   UNL A   1      36.069  29.995  29.010  1.00  0.00     0.014 A 
ATOM     26  C   UNL A   1      37.231  32.103  28.987  1.00  0.00     0.014 A 
ATOM     27  C   UNL A   1      37.299  29.338  29.094  1.00  0.00     0.010 A 
ATOM     28  C   UNL A   1      38.459  31.452  29.059  1.00  0.00     0.010 A 
ATOM     29  C   UNL A   1      38.492  30.067  29.162  1.00  0.00    -0.014 A 
BRANCH  29  30
ATOM     30  C   UNL A   1      39.746  29.328  29.307  1.00  0.00     0.031 A 
ATOM     31  C   UNL A   1      40.173  29.025  30.704  1.00  0.00     0.074 A 
ATOM     32  C   UNL A   1      40.463  28.857  28.264  1.00  0.00     0.049 A 
ATOM     33  N   UNL A   1      41.220  29.458  31.332  1.00  0.00    -0.248 NA
ATOM     34  C   UNL A   1      39.275  28.202  31.527  1.00  0.00     0.031 C 
ATOM     35  C   UNL A   1      40.083  28.797  26.849  1.00  0.00     0.029 A 
ATOM     36  N   UNL A   1      41.668  28.219  28.284  1.00  0.00    -0.354 N 
ATOM     37  C   UNL A   1      41.214  28.818  32.572  1.00  0.00     0.074 A 
ATOM     38  C   UNL A   1      39.941  28.151  32.682  1.00  0.00     0.031 C 
ATOM     39  C   UNL A   1      40.919  27.954  26.200  1.00  0.00     0.029 A 
ATOM     40  C   UNL A   1      41.972  27.541  27.109  1.00  0.00     0.049 A 
ATOM     41  H   UNL A   1      42.270  28.238  29.064  1.00  0.00     0.167 HD
ATOM     42  C   UNL A   1      42.316  28.735  33.369  1.00  0.00     0.034 A 
ATOM     43  C   UNL A   1      42.981  26.655  26.936  1.00  0.00     0.034 A 
ATOM     44  C   UNL A   1      43.357  29.637  32.968  1.00  0.00     0.049 A 
ATOM     45  C   UNL A   1      43.991  26.943  27.981  1.00  0.00     0.074 A 
ATOM     46  C   UNL A   1      43.496  31.007  32.890  1.00  0.00     0.029 A 
ATOM     47  N   UNL A   1      44.392  29.111  32.239  1.00  0.00    -0.354 N 
ATOM     48  N   UNL A   1      44.691  28.040  28.035  1.00  0.00    -0.248 NA
ATOM     49  C   UNL A   1      43.973  26.146  29.196  1.00  0.00     0.031 C 
ATOM     50  C   UNL A   1      44.306  31.227  31.738  1.00  0.00     0.029 A 
ATOM     51  C   UNL A   1      44.630  29.978  31.206  1.00  0.00     0.049 A 
ATOM     52  H   UNL A   1      44.874  28.272  32.422  1.00  0.00     0.167 HD
ATOM     53  C   UNL A   1      44.845  28.287  29.391  1.00  0.00     0.074 A 
ATOM     54  C   UNL A   1      44.488  27.034  30.048  1.00  0.00     0.031 C 
ATOM     55  C   UNL A   1      44.976  29.561  29.865  1.00  0.00     0.034 A 
BRANCH  42  56
ATOM     56  C   UNL A   1      42.575  27.631  34.357  1.00  0.00     0.023 A 
ATOM     57  C   UNL A   1      42.417  27.904  35.733  1.00  0.00     0.012 A 
ATOM     58  C   UNL A   1      43.213  26.420  34.005  1.00  0.00     0.148 A 
ATOM     59  C   UNL A   1      42.875  27.016  36.712  1.00  0.00     0.002 A 
ATOM     60  C   UNL A   1      43.608  25.511  34.979  1.00  0.00     0.091 A 
ATOM     61  F   UNL A   1      43.549  26.203  32.728  1.00  0.00    -0.205 F 
ATOM     62  C   UNL A   1      43.460  25.812  36.336  1.00  0.00     0.022 A 
BRANCH  60  63
ATOM     63  S   UNL A   1      44.336  23.928  34.541  1.00  0.00     0.127 S 
ATOM     64  O   UNL A   1      45.432  24.347  33.664  1.00  0.00    -0.237 OA
ATOM     65  O   UNL A   1      44.758  23.420  35.851  1.00  0.00    -0.237 OA
ATOM     66  O   UNL A   1      43.267  23.170  33.924  1.00  0.00    -0.744 OA
ENDBRANCH  60  63
ENDBRANCH  42  56
BRANCH  43  67
ATOM     67  C   UNL A   1      43.036  25.411  26.128  1.00  0.00     0.023 A 
ATOM     68  C   UNL A   1      44.068  25.254  25.180  1.00  0.00     0.012 A 
ATOM     69  C   UNL A   1      42.292  24.266  26.491  1.00  0.00     0.148 A 
ATOM     70  C   UNL A   1      44.391  23.995  24.660  1.00  0.00     0.002 A 
ATOM     71  C   UNL A   1      42.610  23.017  25.962  1.00  0.00     0.091 A 
ATOM     72  F   UNL A   1      41.342  24.378  27.429  1.00  0.00    -0.205 F 
ATOM     73  C   UNL A   1      43.672  22.875  25.061  1.00  0.00     0.022 A 
BRANCH  71  74
ATOM     74  S   UNL A   1      41.727  21.527  26.446  1.00  0.00     0.127 S 
ATOM     75  O   UNL A   1      40.363  21.819  25.999  1.00  0.00    -0.237 OA
ATOM     76  O   UNL A   1      42.418  20.501  25.672  1.00  0.00    -0.237 OA
ATOM     77  O   UNL A   1      41.871  21.440  27.895  1.00  0.00    -0.744 OA
ENDBRANCH  71  74
ENDBRANCH  43  67
BRANCH  55  78
ATOM     78  C   UNL A   1      45.201  30.667  28.865  1.00  0.00     0.023 A 
ATOM     79  C   UNL A   1      44.130  31.435  28.358  1.00  0.00     0.012 A 
ATOM     80  C   UNL A   1      46.517  31.064  28.583  1.00  0.00     0.148 A 
ATOM     81  C   UNL A   1      44.369  32.568  27.576  1.00  0.00     0.002 A 
ATOM     82  C   UNL A   1      46.752  32.213  27.838  1.00  0.00     0.091 A 
ATOM     83  F   UNL A   1      47.520  30.330  29.090  1.00  0.00    -0.205 F 
ATOM     84  C   UNL A   1      45.681  32.964  27.327  1.00  0.00     0.022 A 
BRANCH  82  85
ATOM     85  S   UNL A   1      48.406  32.857  27.576  1.00  0.00     0.127 S 
ATOM     86  O   UNL A   1      48.956  31.906  26.611  1.00  0.00    -0.237 OA
ATOM     87  O   UNL A   1      48.135  34.190  27.035  1.00  0.00    -0.237 OA
ATOM     88  O   UNL A   1      49.053  32.861  28.882  1.00  0.00    -0.744 OA
ENDBRANCH  82  85
ENDBRANCH  55  78
ENDBRANCH  29  30
ENDBRANCH  21  24
ENDBRANCH  19  20
ENDBRANCH   1  19
TORSDOF 15
ENDMDL
