MODEL 1
REMARK VINA RESULT:     -10.1      0.000      0.000
REMARK SMILES O=C(Cc1ccc(-c2ccn(C(F)F)c(=O)c2)cc1)NCCCNC(=O)c1ccc(-c2c3nc(c(-c4cccc(S(=O)(=O)[O-])c4F)c4ccc([nH]4)c(-c4cccc(S(=O)(=O)[O-])c4F)c4nc(c(-c5cccc(S(=O)(=O)[O-])c5F)c5ccc2[nH]5)C=C4)C=C3)cc1
REMARK SMILES IDX 22 1 21 2 20 3 1 4 2 5 3 7 4 8 5 9 19 10 6 11 18 12 7 13
REMARK SMILES IDX 8 14 9 15 17 16 10 17 15 18 11 19 16 20 12 21 13 22 14 23
REMARK SMILES IDX 23 24 24 25 25 26 26 28 27 29 28 30 89 31 29 32 88 33 30 34
REMARK SMILES IDX 31 35 32 36 82 37 33 38 87 39 81 40 83 41 34 42 86 43 80 44
REMARK SMILES IDX 79 45 35 47 67 48 47 49 66 50 48 51 51 52 65 53 84 54 49 55
REMARK SMILES IDX 50 56 64 58 85 59 52 60 36 61 37 62 45 63 38 64 40 65 46 66
REMARK SMILES IDX 39 67 41 68 42 69 43 70 44 71 68 72 69 73 77 74 70 75 72 76
REMARK SMILES IDX 78 77 71 78 73 79 74 80 75 81 76 82 53 83 54 84 62 85 55 86
REMARK SMILES IDX 57 87 63 88 56 89 58 90 59 91 60 92 61 93
REMARK H PARENT 20 6 24 27 83 46 51 57
REMARK Flexibility Score: inf
ROOT
ATOM      1  C   UNL A   1      42.482  19.073  26.078  1.00  0.00     0.042 C 
ENDROOT
BRANCH   1   2
ATOM      2  C   UNL A   1      43.775  19.295  25.308  1.00  0.00     0.117 C 
BRANCH   2   3
ATOM      3  N   UNL A   1      44.306  20.635  25.466  1.00  0.00    -0.356 N 
ATOM      4  O   UNL A   1      46.530  20.042  25.418  1.00  0.00    -0.275 OA
ATOM      5  C   UNL A   1      45.660  20.906  25.449  1.00  0.00     0.224 C 
ATOM      6  H   UNL A   1      43.676  21.381  25.591  1.00  0.00     0.163 HD
BRANCH   5   7
ATOM      7  C   UNL A   1      45.988  22.389  25.410  1.00  0.00     0.135 C 
BRANCH   7   8
ATOM      8  C   UNL A   1      45.732  23.133  26.707  1.00  0.00    -0.039 A 
ATOM      9  C   UNL A   1      46.639  24.060  27.243  1.00  0.00     0.005 A 
ATOM     10  C   UNL A   1      44.542  22.884  27.408  1.00  0.00     0.005 A 
ATOM     11  C   UNL A   1      46.338  24.766  28.409  1.00  0.00     0.009 A 
ATOM     12  C   UNL A   1      44.246  23.580  28.584  1.00  0.00     0.009 A 
ATOM     13  C   UNL A   1      45.132  24.542  29.079  1.00  0.00    -0.018 A 
BRANCH  13  14
ATOM     14  C   UNL A   1      44.807  25.313  30.291  1.00  0.00    -0.011 A 
ATOM     15  C   UNL A   1      45.518  25.147  31.542  1.00  0.00     0.027 A 
ATOM     16  C   UNL A   1      43.812  26.213  30.215  1.00  0.00     0.080 A 
ATOM     17  C   UNL A   1      45.191  25.885  32.611  1.00  0.00     0.095 A 
ATOM     18  C   UNL A   1      43.438  27.042  31.392  1.00  0.00     0.255 A 
ATOM     19  N   UNL A   1      44.172  26.817  32.546  1.00  0.00    -0.258 N 
ATOM     20  O   UNL A   1      42.529  27.857  31.275  1.00  0.00    -0.269 OA
BRANCH  19  21
ATOM     21  C   UNL A   1      43.825  27.604  33.700  1.00  0.00     0.451 C 
ATOM     22  F   UNL A   1      43.852  26.859  34.831  1.00  0.00    -0.185 F 
ATOM     23  F   UNL A   1      44.680  28.644  33.859  1.00  0.00    -0.185 F 
ENDBRANCH  19  21
ENDBRANCH  13  14
ENDBRANCH   7   8
ENDBRANCH   5   7
ENDBRANCH   2   3
ENDBRANCH   1   2
BRANCH   1  24
ATOM     24  C   UNL A   1      41.692  20.341  26.380  1.00  0.00     0.118 C 
BRANCH  24  25
ATOM     25  N   UNL A   1      40.274  20.240  26.053  1.00  0.00    -0.352 N 
ATOM     26  C   UNL A   1      39.284  21.190  26.173  1.00  0.00     0.251 C 
ATOM     27  H   UNL A   1      39.984  19.369  25.696  1.00  0.00     0.163 HD
ATOM     28  O   UNL A   1      38.115  20.889  25.950  1.00  0.00    -0.269 OA
BRANCH  26  29
ATOM     29  C   UNL A   1      39.631  22.562  26.604  1.00  0.00     0.039 A 
ATOM     30  C   UNL A   1      40.514  22.734  27.674  1.00  0.00     0.014 A 
ATOM     31  C   UNL A   1      39.117  23.672  25.931  1.00  0.00     0.014 A 
ATOM     32  C   UNL A   1      40.958  24.017  28.006  1.00  0.00     0.010 A 
ATOM     33  C   UNL A   1      39.615  24.941  26.217  1.00  0.00     0.010 A 
ATOM     34  C   UNL A   1      40.550  25.125  27.247  1.00  0.00    -0.014 A 
BRANCH  34  35
ATOM     35  C   UNL A   1      41.110  26.484  27.473  1.00  0.00     0.031 A 
ATOM     36  C   UNL A   1      42.473  26.835  26.941  1.00  0.00     0.074 A 
ATOM     37  C   UNL A   1      40.455  27.351  28.269  1.00  0.00     0.049 A 
ATOM     38  N   UNL A   1      43.195  27.903  27.163  1.00  0.00    -0.248 NA
ATOM     39  C   UNL A   1      43.123  25.841  26.072  1.00  0.00     0.031 C 
ATOM     40  C   UNL A   1      39.158  27.103  28.905  1.00  0.00     0.029 A 
ATOM     41  N   UNL A   1      40.807  28.601  28.716  1.00  0.00    -0.354 N 
ATOM     42  C   UNL A   1      44.399  27.690  26.503  1.00  0.00     0.074 A 
ATOM     43  C   UNL A   1      44.319  26.383  25.889  1.00  0.00     0.031 C 
ATOM     44  C   UNL A   1      38.830  28.160  29.665  1.00  0.00     0.029 A 
ATOM     45  C   UNL A   1      39.905  29.145  29.602  1.00  0.00     0.049 A 
ATOM     46  H   UNL A   1      41.627  29.064  28.430  1.00  0.00     0.167 HD
ATOM     47  C   UNL A   1      45.465  28.518  26.396  1.00  0.00     0.034 A 
ATOM     48  C   UNL A   1      39.945  30.299  30.299  1.00  0.00     0.034 A 
ATOM     49  C   UNL A   1      45.519  29.840  26.959  1.00  0.00     0.049 A 
ATOM     50  C   UNL A   1      41.121  31.221  30.125  1.00  0.00     0.074 A 
ATOM     51  C   UNL A   1      46.518  30.789  26.829  1.00  0.00     0.029 A 
ATOM     52  N   UNL A   1      44.535  30.402  27.758  1.00  0.00    -0.354 N 
ATOM     53  N   UNL A   1      42.186  31.065  29.377  1.00  0.00    -0.248 NA
ATOM     54  C   UNL A   1      41.088  32.493  30.863  1.00  0.00     0.031 C 
ATOM     55  C   UNL A   1      46.142  31.921  27.559  1.00  0.00     0.029 A 
ATOM     56  C   UNL A   1      44.902  31.682  28.129  1.00  0.00     0.049 A 
ATOM     57  H   UNL A   1      43.698  29.954  28.021  1.00  0.00     0.167 HD
ATOM     58  C   UNL A   1      42.926  32.233  29.520  1.00  0.00     0.074 A 
ATOM     59  C   UNL A   1      42.184  33.092  30.418  1.00  0.00     0.031 C 
ATOM     60  C   UNL A   1      44.120  32.557  28.966  1.00  0.00     0.034 A 
BRANCH  47  61
ATOM     61  C   UNL A   1      46.644  28.043  25.589  1.00  0.00     0.023 A 
ATOM     62  C   UNL A   1      46.598  28.128  24.182  1.00  0.00     0.012 A 
ATOM     63  C   UNL A   1      47.816  27.578  26.216  1.00  0.00     0.148 A 
ATOM     64  C   UNL A   1      47.687  27.725  23.411  1.00  0.00     0.002 A 
ATOM     65  C   UNL A   1      48.913  27.219  25.441  1.00  0.00     0.091 A 
ATOM     66  F   UNL A   1      47.833  27.484  27.553  1.00  0.00    -0.205 F 
ATOM     67  C   UNL A   1      48.847  27.282  24.039  1.00  0.00     0.022 A 
BRANCH  65  68
ATOM     68  S   UNL A   1      50.478  26.709  26.162  1.00  0.00     0.127 S 
ATOM     69  O   UNL A   1      50.091  25.496  26.880  1.00  0.00    -0.237 OA
ATOM     70  O   UNL A   1      51.305  26.478  24.977  1.00  0.00    -0.237 OA
ATOM     71  O   UNL A   1      50.915  27.821  26.995  1.00  0.00    -0.744 OA
ENDBRANCH  65  68
ENDBRANCH  47  61
BRANCH  48  72
ATOM     72  C   UNL A   1      38.800  30.677  31.176  1.00  0.00     0.023 A 
ATOM     73  C   UNL A   1      38.861  30.382  32.551  1.00  0.00     0.012 A 
ATOM     74  C   UNL A   1      37.674  31.354  30.668  1.00  0.00     0.148 A 
ATOM     75  C   UNL A   1      37.810  30.726  33.401  1.00  0.00     0.002 A 
ATOM     76  C   UNL A   1      36.654  31.742  31.529  1.00  0.00     0.091 A 
ATOM     77  F   UNL A   1      37.628  31.614  29.354  1.00  0.00    -0.205 F 
ATOM     78  C   UNL A   1      36.712  31.415  32.893  1.00  0.00     0.022 A 
BRANCH  76  79
ATOM     79  S   UNL A   1      35.265  32.744  30.986  1.00  0.00     0.127 S 
ATOM     80  O   UNL A   1      35.908  34.026  30.715  1.00  0.00    -0.237 OA
ATOM     81  O   UNL A   1      34.812  32.018  29.798  1.00  0.00    -0.237 OA
ATOM     82  O   UNL A   1      34.317  32.727  32.093  1.00  0.00    -0.744 OA
ENDBRANCH  76  79
ENDBRANCH  48  72
BRANCH  60  83
ATOM     83  C   UNL A   1      44.691  33.917  29.264  1.00  0.00     0.023 A 
ATOM     84  C   UNL A   1      45.419  34.126  30.451  1.00  0.00     0.012 A 
ATOM     85  C   UNL A   1      44.598  34.955  28.316  1.00  0.00     0.148 A 
ATOM     86  C   UNL A   1      46.029  35.355  30.700  1.00  0.00     0.002 A 
ATOM     87  C   UNL A   1      45.245  36.162  28.550  1.00  0.00     0.091 A 
ATOM     88  F   UNL A   1      43.884  34.739  27.201  1.00  0.00    -0.205 F 
ATOM     89  C   UNL A   1      45.954  36.367  29.744  1.00  0.00     0.022 A 
BRANCH  87  90
ATOM     90  S   UNL A   1      45.284  37.486  27.335  1.00  0.00     0.127 S 
ATOM     91  O   UNL A   1      46.027  36.863  26.241  1.00  0.00    -0.237 OA
ATOM     92  O   UNL A   1      43.861  37.699  27.064  1.00  0.00    -0.237 OA
ATOM     93  O   UNL A   1      45.950  38.608  27.984  1.00  0.00    -0.744 OA
ENDBRANCH  87  90
ENDBRANCH  60  83
ENDBRANCH  34  35
ENDBRANCH  26  29
ENDBRANCH  24  25
ENDBRANCH   1  24
TORSDOF 16
ENDMDL
MODEL 2
REMARK VINA RESULT:     -10.0      2.446      3.911
REMARK SMILES O=C(Cc1ccc(-c2ccn(C(F)F)c(=O)c2)cc1)NCCCNC(=O)c1ccc(-c2c3nc(c(-c4cccc(S(=O)(=O)[O-])c4F)c4ccc([nH]4)c(-c4cccc(S(=O)(=O)[O-])c4F)c4nc(c(-c5cccc(S(=O)(=O)[O-])c5F)c5ccc2[nH]5)C=C4)C=C3)cc1
REMARK SMILES IDX 22 1 21 2 20 3 1 4 2 5 3 7 4 8 5 9 19 10 6 11 18 12 7 13
REMARK SMILES IDX 8 14 9 15 17 16 10 17 15 18 11 19 16 20 12 21 13 22 14 23
REMARK SMILES IDX 23 24 24 25 25 26 26 28 27 29 28 30 89 31 29 32 88 33 30 34
REMARK SMILES IDX 31 35 32 36 82 37 33 38 87 39 81 40 83 41 34 42 86 43 80 44
REMARK SMILES IDX 79 45 35 47 67 48 47 49 66 50 48 51 51 52 65 53 84 54 49 55
REMARK SMILES IDX 50 56 64 58 85 59 52 60 36 61 37 62 45 63 38 64 40 65 46 66
REMARK SMILES IDX 39 67 41 68 42 69 43 70 44 71 68 72 69 73 77 74 70 75 72 76
REMARK SMILES IDX 78 77 71 78 73 79 74 80 75 81 76 82 53 83 54 84 62 85 55 86
REMARK SMILES IDX 57 87 63 88 56 89 58 90 59 91 60 92 61 93
REMARK H PARENT 20 6 24 27 83 46 51 57
REMARK Flexibility Score: inf
ROOT
ATOM      1  C   UNL A   1      43.799  18.892  24.862  1.00  0.00     0.042 C 
ENDROOT
BRANCH   1   2
ATOM      2  C   UNL A   1      45.297  19.112  25.007  1.00  0.00     0.117 C 
BRANCH   2   3
ATOM      3  N   UNL A   1      45.755  20.328  24.361  1.00  0.00    -0.356 N 
ATOM      4  O   UNL A   1      45.483  21.708  26.184  1.00  0.00    -0.275 OA
ATOM      5  C   UNL A   1      45.866  21.530  25.032  1.00  0.00     0.224 C 
ATOM      6  H   UNL A   1      45.996  20.294  23.408  1.00  0.00     0.163 HD
BRANCH   5   7
ATOM      7  C   UNL A   1      46.569  22.615  24.235  1.00  0.00     0.135 C 
BRANCH   7   8
ATOM      8  C   UNL A   1      46.206  24.034  24.631  1.00  0.00    -0.039 A 
ATOM      9  C   UNL A   1      44.883  24.501  24.654  1.00  0.00     0.005 A 
ATOM     10  C   UNL A   1      47.233  24.923  24.984  1.00  0.00     0.005 A 
ATOM     11  C   UNL A   1      44.588  25.797  25.081  1.00  0.00     0.009 A 
ATOM     12  C   UNL A   1      46.939  26.227  25.397  1.00  0.00     0.009 A 
ATOM     13  C   UNL A   1      45.612  26.664  25.470  1.00  0.00    -0.018 A 
BRANCH  13  14
ATOM     14  C   UNL A   1      45.291  28.018  25.948  1.00  0.00    -0.011 A 
ATOM     15  C   UNL A   1      44.014  28.361  26.539  1.00  0.00     0.027 A 
ATOM     16  C   UNL A   1      46.238  28.966  25.834  1.00  0.00     0.080 A 
ATOM     17  C   UNL A   1      43.779  29.606  26.971  1.00  0.00     0.095 A 
ATOM     18  C   UNL A   1      45.994  30.354  26.311  1.00  0.00     0.255 A 
ATOM     19  N   UNL A   1      44.745  30.590  26.864  1.00  0.00    -0.258 N 
ATOM     20  O   UNL A   1      46.890  31.183  26.195  1.00  0.00    -0.269 OA
BRANCH  19  21
ATOM     21  C   UNL A   1      44.484  31.927  27.329  1.00  0.00     0.451 C 
ATOM     22  F   UNL A   1      44.152  32.749  26.304  1.00  0.00    -0.185 F 
ATOM     23  F   UNL A   1      43.470  31.944  28.229  1.00  0.00    -0.185 F 
ENDBRANCH  19  21
ENDBRANCH  13  14
ENDBRANCH   7   8
ENDBRANCH   5   7
ENDBRANCH   2   3
ENDBRANCH   1   2
BRANCH   1  24
ATOM     24  C   UNL A   1      43.033  18.817  26.178  1.00  0.00     0.118 C 
BRANCH  24  25
ATOM     25  N   UNL A   1      41.597  19.023  26.033  1.00  0.00    -0.352 N 
ATOM     26  C   UNL A   1      40.839  20.125  26.361  1.00  0.00     0.251 C 
ATOM     27  H   UNL A   1      41.098  18.267  25.645  1.00  0.00     0.163 HD
ATOM     28  O   UNL A   1      39.615  20.079  26.270  1.00  0.00    -0.269 OA
BRANCH  26  29
ATOM     29  C   UNL A   1      41.501  21.351  26.858  1.00  0.00     0.039 A 
ATOM     30  C   UNL A   1      41.775  22.386  25.959  1.00  0.00     0.014 A 
ATOM     31  C   UNL A   1      41.814  21.495  28.212  1.00  0.00     0.014 A 
ATOM     32  C   UNL A   1      42.274  23.602  26.434  1.00  0.00     0.010 A 
ATOM     33  C   UNL A   1      42.242  22.729  28.691  1.00  0.00     0.010 A 
ATOM     34  C   UNL A   1      42.463  23.800  27.811  1.00  0.00    -0.014 A 
BRANCH  34  35
ATOM     35  C   UNL A   1      42.851  25.121  28.371  1.00  0.00     0.031 A 
ATOM     36  C   UNL A   1      44.297  25.423  28.659  1.00  0.00     0.074 A 
ATOM     37  C   UNL A   1      41.895  25.993  28.746  1.00  0.00     0.049 A 
ATOM     38  N   UNL A   1      44.817  26.446  29.285  1.00  0.00    -0.248 NA
ATOM     39  C   UNL A   1      45.285  24.427  28.212  1.00  0.00     0.031 C 
ATOM     40  C   UNL A   1      40.452  25.789  28.587  1.00  0.00     0.029 A 
ATOM     41  N   UNL A   1      41.987  27.209  29.378  1.00  0.00    -0.354 N 
ATOM     42  C   UNL A   1      46.183  26.196  29.350  1.00  0.00     0.074 A 
ATOM     43  C   UNL A   1      46.408  24.915  28.718  1.00  0.00     0.031 C 
ATOM     44  C   UNL A   1      39.798  26.835  29.115  1.00  0.00     0.029 A 
ATOM     45  C   UNL A   1      40.766  27.768  29.681  1.00  0.00     0.049 A 
ATOM     46  H   UNL A   1      42.845  27.641  29.594  1.00  0.00     0.167 HD
ATOM     47  C   UNL A   1      47.163  26.974  29.867  1.00  0.00     0.034 A 
ATOM     48  C   UNL A   1      40.458  28.895  30.355  1.00  0.00     0.034 A 
ATOM     49  C   UNL A   1      46.943  28.273  30.444  1.00  0.00     0.049 A 
ATOM     50  C   UNL A   1      41.571  29.764  30.878  1.00  0.00     0.074 A 
ATOM     51  C   UNL A   1      47.882  29.175  30.912  1.00  0.00     0.029 A 
ATOM     52  N   UNL A   1      45.699  28.855  30.631  1.00  0.00    -0.354 N 
ATOM     53  N   UNL A   1      42.866  29.580  30.798  1.00  0.00    -0.248 NA
ATOM     54  C   UNL A   1      41.183  31.010  31.555  1.00  0.00     0.031 C 
ATOM     55  C   UNL A   1      47.204  30.300  31.392  1.00  0.00     0.029 A 
ATOM     56  C   UNL A   1      45.845  30.104  31.208  1.00  0.00     0.049 A 
ATOM     57  H   UNL A   1      44.839  28.441  30.388  1.00  0.00     0.167 HD
ATOM     58  C   UNL A   1      43.446  30.705  31.373  1.00  0.00     0.074 A 
ATOM     59  C   UNL A   1      42.362  31.570  31.788  1.00  0.00     0.031 C 
ATOM     60  C   UNL A   1      44.760  30.988  31.551  1.00  0.00     0.034 A 
BRANCH  47  61
ATOM     61  C   UNL A   1      48.578  26.469  29.780  1.00  0.00     0.023 A 
ATOM     62  C   UNL A   1      49.101  25.687  30.831  1.00  0.00     0.012 A 
ATOM     63  C   UNL A   1      49.368  26.709  28.638  1.00  0.00     0.148 A 
ATOM     64  C   UNL A   1      50.397  25.180  30.762  1.00  0.00     0.002 A 
ATOM     65  C   UNL A   1      50.645  26.163  28.559  1.00  0.00     0.091 A 
ATOM     66  F   UNL A   1      48.863  27.472  27.659  1.00  0.00    -0.205 F 
ATOM     67  C   UNL A   1      51.164  25.408  29.623  1.00  0.00     0.022 A 
BRANCH  65  68
ATOM     68  S   UNL A   1      51.679  26.337  27.100  1.00  0.00     0.127 S 
ATOM     69  O   UNL A   1      50.903  25.606  26.099  1.00  0.00    -0.237 OA
ATOM     70  O   UNL A   1      51.706  27.787  26.910  1.00  0.00    -0.237 OA
ATOM     71  O   UNL A   1      52.965  25.749  27.450  1.00  0.00    -0.744 OA
ENDBRANCH  65  68
ENDBRANCH  47  61
BRANCH  48  72
ATOM     72  C   UNL A   1      39.033  29.300  30.514  1.00  0.00     0.023 A 
ATOM     73  C   UNL A   1      38.372  29.027  31.727  1.00  0.00     0.012 A 
ATOM     74  C   UNL A   1      38.341  29.980  29.493  1.00  0.00     0.148 A 
ATOM     75  C   UNL A   1      37.040  29.398  31.911  1.00  0.00     0.002 A 
ATOM     76  C   UNL A   1      37.030  30.393  29.702  1.00  0.00     0.091 A 
ATOM     77  F   UNL A   1      38.982  30.218  28.340  1.00  0.00    -0.205 F 
ATOM     78  C   UNL A   1      36.372  30.089  30.905  1.00  0.00     0.022 A 
BRANCH  76  79
ATOM     79  S   UNL A   1      36.137  31.399  28.512  1.00  0.00     0.127 S 
ATOM     80  O   UNL A   1      36.948  32.613  28.477  1.00  0.00    -0.237 OA
ATOM     81  O   UNL A   1      36.206  30.576  27.304  1.00  0.00    -0.237 OA
ATOM     82  O   UNL A   1      34.794  31.547  29.058  1.00  0.00    -0.744 OA
ENDBRANCH  76  79
ENDBRANCH  48  72
BRANCH  60  83
ATOM     83  C   UNL A   1      45.119  32.308  32.178  1.00  0.00     0.023 A 
ATOM     84  C   UNL A   1      45.277  32.400  33.575  1.00  0.00     0.012 A 
ATOM     85  C   UNL A   1      45.405  33.428  31.373  1.00  0.00     0.148 A 
ATOM     86  C   UNL A   1      45.695  33.594  34.162  1.00  0.00     0.002 A 
ATOM     87  C   UNL A   1      45.865  34.600  31.961  1.00  0.00     0.091 A 
ATOM     88  F   UNL A   1      45.231  33.322  30.046  1.00  0.00    -0.205 F 
ATOM     89  C   UNL A   1      46.002  34.688  33.354  1.00  0.00     0.022 A 
BRANCH  87  90
ATOM     90  S   UNL A   1      46.376  36.027  30.994  1.00  0.00     0.127 S 
ATOM     91  O   UNL A   1      45.155  36.334  30.250  1.00  0.00    -0.237 OA
ATOM     92  O   UNL A   1      46.719  36.998  32.033  1.00  0.00    -0.237 OA
ATOM     93  O   UNL A   1      47.503  35.582  30.186  1.00  0.00    -0.744 OA
ENDBRANCH  87  90
ENDBRANCH  60  83
ENDBRANCH  34  35
ENDBRANCH  26  29
ENDBRANCH  24  25
ENDBRANCH   1  24
TORSDOF 16
ENDMDL
MODEL 3
REMARK VINA RESULT:      -9.9      5.988     10.655
REMARK SMILES O=C(Cc1ccc(-c2ccn(C(F)F)c(=O)c2)cc1)NCCCNC(=O)c1ccc(-c2c3nc(c(-c4cccc(S(=O)(=O)[O-])c4F)c4ccc([nH]4)c(-c4cccc(S(=O)(=O)[O-])c4F)c4nc(c(-c5cccc(S(=O)(=O)[O-])c5F)c5ccc2[nH]5)C=C4)C=C3)cc1
REMARK SMILES IDX 22 1 21 2 20 3 1 4 2 5 3 7 4 8 5 9 19 10 6 11 18 12 7 13
REMARK SMILES IDX 8 14 9 15 17 16 10 17 15 18 11 19 16 20 12 21 13 22 14 23
REMARK SMILES IDX 23 24 24 25 25 26 26 28 27 29 28 30 89 31 29 32 88 33 30 34
REMARK SMILES IDX 31 35 32 36 82 37 33 38 87 39 81 40 83 41 34 42 86 43 80 44
REMARK SMILES IDX 79 45 35 47 67 48 47 49 66 50 48 51 51 52 65 53 84 54 49 55
REMARK SMILES IDX 50 56 64 58 85 59 52 60 36 61 37 62 45 63 38 64 40 65 46 66
REMARK SMILES IDX 39 67 41 68 42 69 43 70 44 71 68 72 69 73 77 74 70 75 72 76
REMARK SMILES IDX 78 77 71 78 73 79 74 80 75 81 76 82 53 83 54 84 62 85 55 86
REMARK SMILES IDX 57 87 63 88 56 89 58 90 59 91 60 92 61 93
REMARK H PARENT 20 6 24 27 83 46 51 57
REMARK Flexibility Score: inf
ROOT
ATOM      1  C   UNL A   1      32.274  29.219  25.175  1.00  0.00     0.042 C 
ENDROOT
BRANCH   1   2
ATOM      2  C   UNL A   1      31.189  28.167  25.005  1.00  0.00     0.117 C 
BRANCH   2   3
ATOM      3  N   UNL A   1      31.498  27.196  23.973  1.00  0.00    -0.356 N 
ATOM      4  O   UNL A   1      30.177  28.132  22.334  1.00  0.00    -0.275 OA
ATOM      5  C   UNL A   1      31.003  27.296  22.687  1.00  0.00     0.224 C 
ATOM      6  H   UNL A   1      32.082  26.437  24.197  1.00  0.00     0.163 HD
BRANCH   5   7
ATOM      7  C   UNL A   1      31.622  26.307  21.713  1.00  0.00     0.135 C 
BRANCH   7   8
ATOM      8  C   UNL A   1      31.822  24.908  22.266  1.00  0.00    -0.039 A 
ATOM      9  C   UNL A   1      30.837  24.235  23.004  1.00  0.00     0.005 A 
ATOM     10  C   UNL A   1      33.045  24.258  22.039  1.00  0.00     0.005 A 
ATOM     11  C   UNL A   1      31.040  22.926  23.444  1.00  0.00     0.009 A 
ATOM     12  C   UNL A   1      33.256  22.952  22.494  1.00  0.00     0.009 A 
ATOM     13  C   UNL A   1      32.245  22.270  23.179  1.00  0.00    -0.018 A 
BRANCH  13  14
ATOM     14  C   UNL A   1      32.441  20.879  23.620  1.00  0.00    -0.011 A 
ATOM     15  C   UNL A   1      32.743  20.524  24.992  1.00  0.00     0.027 A 
ATOM     16  C   UNL A   1      32.322  19.906  22.700  1.00  0.00     0.080 A 
ATOM     17  C   UNL A   1      32.898  19.241  25.341  1.00  0.00     0.095 A 
ATOM     18  C   UNL A   1      32.489  18.475  23.073  1.00  0.00     0.255 A 
ATOM     19  N   UNL A   1      32.774  18.230  24.407  1.00  0.00    -0.258 N 
ATOM     20  O   UNL A   1      32.363  17.620  22.203  1.00  0.00    -0.269 OA
BRANCH  19  21
ATOM     21  C   UNL A   1      32.944  16.853  24.791  1.00  0.00     0.451 C 
ATOM     22  F   UNL A   1      34.024  16.695  25.594  1.00  0.00    -0.185 F 
ATOM     23  F   UNL A   1      31.855  16.390  25.453  1.00  0.00    -0.185 F 
ENDBRANCH  19  21
ENDBRANCH  13  14
ENDBRANCH   7   8
ENDBRANCH   5   7
ENDBRANCH   2   3
ENDBRANCH   1   2
BRANCH   1  24
ATOM     24  C   UNL A   1      32.483  29.697  26.608  1.00  0.00     0.118 C 
BRANCH  24  25
ATOM     25  N   UNL A   1      32.269  31.129  26.784  1.00  0.00    -0.352 N 
ATOM     26  C   UNL A   1      33.099  32.068  27.355  1.00  0.00     0.251 C 
ATOM     27  H   UNL A   1      31.409  31.473  26.447  1.00  0.00     0.163 HD
ATOM     28  O   UNL A   1      32.703  33.219  27.518  1.00  0.00    -0.269 OA
BRANCH  26  29
ATOM     29  C   UNL A   1      34.453  31.677  27.803  1.00  0.00     0.039 A 
ATOM     30  C   UNL A   1      35.459  32.646  27.849  1.00  0.00     0.014 A 
ATOM     31  C   UNL A   1      34.718  30.368  28.214  1.00  0.00     0.014 A 
ATOM     32  C   UNL A   1      36.704  32.327  28.398  1.00  0.00     0.010 A 
ATOM     33  C   UNL A   1      35.933  30.073  28.825  1.00  0.00     0.010 A 
ATOM     34  C   UNL A   1      36.933  31.051  28.937  1.00  0.00    -0.014 A 
BRANCH  34  35
ATOM     35  C   UNL A   1      38.189  30.715  29.660  1.00  0.00     0.031 A 
ATOM     36  C   UNL A   1      39.165  29.739  29.061  1.00  0.00     0.074 A 
ATOM     37  C   UNL A   1      38.383  31.181  30.910  1.00  0.00     0.049 A 
ATOM     38  N   UNL A   1      40.229  29.203  29.599  1.00  0.00    -0.248 NA
ATOM     39  C   UNL A   1      38.890  29.282  27.690  1.00  0.00     0.031 C 
ATOM     40  C   UNL A   1      37.476  32.078  31.630  1.00  0.00     0.029 A 
ATOM     41  N   UNL A   1      39.387  30.932  31.813  1.00  0.00    -0.354 N 
ATOM     42  C   UNL A   1      40.724  28.312  28.654  1.00  0.00     0.074 A 
ATOM     43  C   UNL A   1      39.831  28.364  27.517  1.00  0.00     0.031 C 
ATOM     44  C   UNL A   1      37.958  32.295  32.864  1.00  0.00     0.029 A 
ATOM     45  C   UNL A   1      39.187  31.527  33.038  1.00  0.00     0.049 A 
ATOM     46  H   UNL A   1      40.175  30.379  31.606  1.00  0.00     0.167 HD
ATOM     47  C   UNL A   1      41.833  27.539  28.717  1.00  0.00     0.034 A 
ATOM     48  C   UNL A   1      39.901  31.451  34.179  1.00  0.00     0.034 A 
ATOM     49  C   UNL A   1      42.750  27.531  29.825  1.00  0.00     0.049 A 
ATOM     50  C   UNL A   1      41.156  30.621  34.205  1.00  0.00     0.074 A 
ATOM     51  C   UNL A   1      43.949  26.851  29.943  1.00  0.00     0.029 A 
ATOM     52  N   UNL A   1      42.571  28.237  31.005  1.00  0.00    -0.354 N 
ATOM     53  N   UNL A   1      41.687  29.900  33.248  1.00  0.00    -0.248 NA
ATOM     54  C   UNL A   1      41.930  30.618  35.456  1.00  0.00     0.031 C 
ATOM     55  C   UNL A   1      44.491  27.137  31.200  1.00  0.00     0.029 A 
ATOM     56  C   UNL A   1      43.636  28.008  31.857  1.00  0.00     0.049 A 
ATOM     57  H   UNL A   1      41.801  28.816  31.205  1.00  0.00     0.167 HD
ATOM     58  C   UNL A   1      42.874  29.395  33.764  1.00  0.00     0.074 A 
ATOM     59  C   UNL A   1      42.991  29.899  35.116  1.00  0.00     0.031 C 
ATOM     60  C   UNL A   1      43.778  28.576  33.174  1.00  0.00     0.034 A 
BRANCH  47  61
ATOM     61  C   UNL A   1      42.155  26.676  27.526  1.00  0.00     0.023 A 
ATOM     62  C   UNL A   1      42.844  27.237  26.431  1.00  0.00     0.012 A 
ATOM     63  C   UNL A   1      41.838  25.304  27.514  1.00  0.00     0.148 A 
ATOM     64  C   UNL A   1      43.183  26.454  25.329  1.00  0.00     0.002 A 
ATOM     65  C   UNL A   1      42.218  24.521  26.429  1.00  0.00     0.091 A 
ATOM     66  F   UNL A   1      41.163  24.793  28.553  1.00  0.00    -0.205 F 
ATOM     67  C   UNL A   1      42.881  25.096  25.333  1.00  0.00     0.022 A 
BRANCH  65  68
ATOM     68  S   UNL A   1      41.941  22.746  26.377  1.00  0.00     0.127 S 
ATOM     69  O   UNL A   1      42.625  22.305  27.592  1.00  0.00    -0.237 OA
ATOM     70  O   UNL A   1      40.482  22.658  26.434  1.00  0.00    -0.237 OA
ATOM     71  O   UNL A   1      42.526  22.287  25.125  1.00  0.00    -0.744 OA
ENDBRANCH  65  68
ENDBRANCH  47  61
BRANCH  48  72
ATOM     72  C   UNL A   1      39.482  32.239  35.373  1.00  0.00     0.023 A 
ATOM     73  C   UNL A   1      38.689  31.622  36.359  1.00  0.00     0.012 A 
ATOM     74  C   UNL A   1      39.887  33.576  35.555  1.00  0.00     0.148 A 
ATOM     75  C   UNL A   1      38.283  32.329  37.491  1.00  0.00     0.002 A 
ATOM     76  C   UNL A   1      39.523  34.258  36.710  1.00  0.00     0.091 A 
ATOM     77  F   UNL A   1      40.629  34.151  34.598  1.00  0.00    -0.205 F 
ATOM     78  C   UNL A   1      38.707  33.642  37.673  1.00  0.00     0.022 A 
BRANCH  76  79
ATOM     79  S   UNL A   1      40.131  35.906  37.086  1.00  0.00     0.127 S 
ATOM     80  O   UNL A   1      41.565  35.672  37.227  1.00  0.00    -0.237 OA
ATOM     81  O   UNL A   1      39.742  36.655  35.890  1.00  0.00    -0.237 OA
ATOM     82  O   UNL A   1      39.430  36.312  38.298  1.00  0.00    -0.744 OA
ENDBRANCH  76  79
ENDBRANCH  48  72
BRANCH  60  83
ATOM     83  C   UNL A   1      45.009  28.203  33.955  1.00  0.00     0.023 A 
ATOM     84  C   UNL A   1      46.147  29.031  33.908  1.00  0.00     0.012 A 
ATOM     85  C   UNL A   1      44.997  27.090  34.820  1.00  0.00     0.148 A 
ATOM     86  C   UNL A   1      47.262  28.747  34.695  1.00  0.00     0.002 A 
ATOM     87  C   UNL A   1      46.094  26.838  35.634  1.00  0.00     0.091 A 
ATOM     88  F   UNL A   1      43.909  26.305  34.836  1.00  0.00    -0.205 F 
ATOM     89  C   UNL A   1      47.230  27.660  35.567  1.00  0.00     0.022 A 
BRANCH  87  90
ATOM     90  S   UNL A   1      46.105  25.520  36.856  1.00  0.00     0.127 S 
ATOM     91  O   UNL A   1      44.919  25.840  37.649  1.00  0.00    -0.237 OA
ATOM     92  O   UNL A   1      45.978  24.324  36.022  1.00  0.00    -0.237 OA
ATOM     93  O   UNL A   1      47.376  25.634  37.559  1.00  0.00    -0.744 OA
ENDBRANCH  87  90
ENDBRANCH  60  83
ENDBRANCH  34  35
ENDBRANCH  26  29
ENDBRANCH  24  25
ENDBRANCH   1  24
TORSDOF 16
ENDMDL
