MODEL 1
REMARK VINA RESULT:     -11.2      0.000      0.000
REMARK SMILES CS(=O)(=O)c1ccc(O[C@@H](F)C(=O)NCCCNC(=O)c2ccc(-c3c4nc(c(-c5cccc(S(=O)(=O)[O-])c5F)c5ccc([nH]5)c(-c5cccc(S(=O)(=O)[O-])c5F)c5nc(c(-c6cccc(S(=O)(=O)[O-])c6F)c6ccc3[nH]6)C=C5)C=C4)cc2)cc1
REMARK SMILES IDX 16 1 15 2 14 3 12 4 13 5 10 7 11 8 9 9 8 10 5 11 6 12 85 13
REMARK SMILES IDX 7 14 84 15 2 16 1 17 3 18 4 19 17 20 18 21 19 22 20 24 21 25
REMARK SMILES IDX 22 26 83 27 23 28 82 29 24 30 25 31 26 32 76 33 27 34 81 35
REMARK SMILES IDX 75 36 77 37 28 38 80 39 74 40 73 41 29 43 61 44 41 45 60 46
REMARK SMILES IDX 42 47 45 48 59 49 78 50 43 51 44 52 58 54 79 55 46 56 30 57
REMARK SMILES IDX 31 58 39 59 32 60 34 61 40 62 33 63 35 64 36 65 37 66 38 67
REMARK SMILES IDX 62 68 63 69 71 70 64 71 66 72 72 73 65 74 67 75 68 76 69 77
REMARK SMILES IDX 70 78 47 79 48 80 56 81 49 82 51 83 57 84 50 85 52 86 53 87
REMARK SMILES IDX 54 88 55 89
REMARK H PARENT 14 6 18 23 77 42 45 53
REMARK Flexibility Score: inf
ROOT
ATOM      1  C   UNL A   1      32.781  27.975  26.762  1.00  0.00     0.042 C 
ENDROOT
BRANCH   1   2
ATOM      2  C   UNL A   1      32.658  26.610  26.097  1.00  0.00     0.118 C 
BRANCH   2   3
ATOM      3  N   UNL A   1      31.560  25.852  26.663  1.00  0.00    -0.350 N 
ATOM      4  C   UNL A   1      30.528  25.214  26.032  1.00  0.00     0.294 C 
ATOM      5  O   UNL A   1      29.649  24.735  26.761  1.00  0.00    -0.267 OA
ATOM      6  H   UNL A   1      31.557  25.787  27.646  1.00  0.00     0.163 HD
BRANCH   4   7
ATOM      7  C   UNL A   1      30.465  25.036  24.481  1.00  0.00     0.440 C 
ATOM      8  F   UNL A   1      30.718  23.752  24.088  1.00  0.00    -0.191 F 
BRANCH   7   9
ATOM      9  O   UNL A   1      31.099  25.968  23.606  1.00  0.00    -0.452 OA
BRANCH   9  10
ATOM     10  C   UNL A   1      30.428  27.086  23.210  1.00  0.00     0.123 A 
ATOM     11  C   UNL A   1      28.936  29.404  22.766  1.00  0.00     0.067 A 
ATOM     12  C   UNL A   1      28.303  28.265  23.268  1.00  0.00     0.024 A 
ATOM     13  C   UNL A   1      30.270  29.346  22.356  1.00  0.00     0.024 A 
ATOM     14  C   UNL A   1      29.054  27.102  23.475  1.00  0.00     0.048 A 
ATOM     15  C   UNL A   1      31.005  28.173  22.555  1.00  0.00     0.048 A 
BRANCH  11  16
ATOM     16  S   UNL A   1      28.160  30.999  22.953  1.00  0.00     0.175 S 
ATOM     17  C   UNL A   1      29.258  31.934  23.972  1.00  0.00     0.163 C 
ATOM     18  O   UNL A   1      26.937  30.769  23.712  1.00  0.00    -0.224 OA
ATOM     19  O   UNL A   1      28.094  31.607  21.645  1.00  0.00    -0.224 OA
ENDBRANCH  11  16
ENDBRANCH   9  10
ENDBRANCH   7   9
ENDBRANCH   4   7
ENDBRANCH   2   3
ENDBRANCH   1   2
BRANCH   1  20
ATOM     20  C   UNL A   1      33.920  28.829  26.230  1.00  0.00     0.118 C 
BRANCH  20  21
ATOM     21  N   UNL A   1      33.818  30.206  26.700  1.00  0.00    -0.352 N 
ATOM     22  C   UNL A   1      34.546  30.879  27.653  1.00  0.00     0.251 C 
ATOM     23  H   UNL A   1      33.115  30.739  26.263  1.00  0.00     0.163 HD
ATOM     24  O   UNL A   1      34.117  31.955  28.066  1.00  0.00    -0.269 OA
BRANCH  22  25
ATOM     25  C   UNL A   1      35.836  30.353  28.161  1.00  0.00     0.039 A 
ATOM     26  C   UNL A   1      36.990  30.514  27.384  1.00  0.00     0.014 A 
ATOM     27  C   UNL A   1      35.909  29.629  29.353  1.00  0.00     0.014 A 
ATOM     28  C   UNL A   1      38.210  29.983  27.820  1.00  0.00     0.010 A 
ATOM     29  C   UNL A   1      37.141  29.194  29.836  1.00  0.00     0.010 A 
ATOM     30  C   UNL A   1      38.302  29.337  29.064  1.00  0.00    -0.014 A 
BRANCH  30  31
ATOM     31  C   UNL A   1      39.587  28.787  29.572  1.00  0.00     0.031 A 
ATOM     32  C   UNL A   1      40.319  29.480  30.695  1.00  0.00     0.074 A 
ATOM     33  C   UNL A   1      40.146  27.723  28.964  1.00  0.00     0.049 A 
ATOM     34  N   UNL A   1      41.490  29.208  31.212  1.00  0.00    -0.248 NA
ATOM     35  C   UNL A   1      39.664  30.656  31.292  1.00  0.00     0.031 C 
ATOM     36  C   UNL A   1      39.580  27.014  27.815  1.00  0.00     0.029 A 
ATOM     37  N   UNL A   1      41.330  27.070  29.205  1.00  0.00    -0.354 N 
ATOM     38  C   UNL A   1      41.732  30.203  32.153  1.00  0.00     0.074 A 
ATOM     39  C   UNL A   1      40.603  31.105  32.111  1.00  0.00     0.031 C 
ATOM     40  C   UNL A   1      40.409  26.021  27.458  1.00  0.00     0.029 A 
ATOM     41  C   UNL A   1      41.585  26.046  28.323  1.00  0.00     0.049 A 
ATOM     42  H   UNL A   1      41.939  27.311  29.940  1.00  0.00     0.167 HD
ATOM     43  C   UNL A   1      42.783  30.340  32.998  1.00  0.00     0.034 A 
ATOM     44  C   UNL A   1      42.650  25.229  28.212  1.00  0.00     0.034 A 
ATOM     45  C   UNL A   1      43.880  29.412  33.069  1.00  0.00     0.049 A 
ATOM     46  C   UNL A   1      43.784  25.371  29.190  1.00  0.00     0.074 A 
ATOM     47  C   UNL A   1      44.944  29.403  33.952  1.00  0.00     0.029 A 
ATOM     48  N   UNL A   1      44.057  28.332  32.218  1.00  0.00    -0.354 N 
ATOM     49  N   UNL A   1      43.923  26.225  30.176  1.00  0.00    -0.248 NA
ATOM     50  C   UNL A   1      44.896  24.417  29.064  1.00  0.00     0.031 C 
ATOM     51  C   UNL A   1      45.783  28.335  33.615  1.00  0.00     0.029 A 
ATOM     52  C   UNL A   1      45.221  27.656  32.545  1.00  0.00     0.049 A 
ATOM     53  H   UNL A   1      43.446  28.082  31.488  1.00  0.00     0.167 HD
ATOM     54  C   UNL A   1      45.114  25.890  30.809  1.00  0.00     0.074 A 
ATOM     55  C   UNL A   1      45.649  24.741  30.106  1.00  0.00     0.031 C 
ATOM     56  C   UNL A   1      45.717  26.486  31.867  1.00  0.00     0.034 A 
BRANCH  43  57
ATOM     57  C   UNL A   1      42.774  31.515  33.945  1.00  0.00     0.023 A 
ATOM     58  C   UNL A   1      43.255  32.768  33.510  1.00  0.00     0.012 A 
ATOM     59  C   UNL A   1      42.251  31.395  35.248  1.00  0.00     0.148 A 
ATOM     60  C   UNL A   1      43.260  33.867  34.369  1.00  0.00     0.002 A 
ATOM     61  C   UNL A   1      42.214  32.507  36.082  1.00  0.00     0.091 A 
ATOM     62  F   UNL A   1      41.812  30.194  35.653  1.00  0.00    -0.205 F 
ATOM     63  C   UNL A   1      42.732  33.738  35.649  1.00  0.00     0.022 A 
BRANCH  61  64
ATOM     64  S   UNL A   1      41.475  32.469  37.719  1.00  0.00     0.127 S 
ATOM     65  O   UNL A   1      42.247  31.408  38.366  1.00  0.00    -0.237 OA
ATOM     66  O   UNL A   1      41.757  33.816  38.216  1.00  0.00    -0.237 OA
ATOM     67  O   UNL A   1      40.063  32.180  37.517  1.00  0.00    -0.744 OA
ENDBRANCH  61  64
ENDBRANCH  43  57
BRANCH  44  68
ATOM     68  C   UNL A   1      42.658  24.157  27.175  1.00  0.00     0.023 A 
ATOM     69  C   UNL A   1      43.344  24.375  25.964  1.00  0.00     0.012 A 
ATOM     70  C   UNL A   1      42.033  22.913  27.395  1.00  0.00     0.148 A 
ATOM     71  C   UNL A   1      43.382  23.388  24.978  1.00  0.00     0.002 A 
ATOM     72  C   UNL A   1      42.126  21.913  26.434  1.00  0.00     0.091 A 
ATOM     73  F   UNL A   1      41.378  22.726  28.549  1.00  0.00    -0.205 F 
ATOM     74  C   UNL A   1      42.783  22.155  25.217  1.00  0.00     0.022 A 
BRANCH  72  75
ATOM     75  S   UNL A   1      41.511  20.247  26.707  1.00  0.00     0.127 S 
ATOM     76  O   UNL A   1      40.076  20.477  26.857  1.00  0.00    -0.237 OA
ATOM     77  O   UNL A   1      41.902  19.576  25.466  1.00  0.00    -0.237 OA
ATOM     78  O   UNL A   1      42.198  19.757  27.894  1.00  0.00    -0.744 OA
ENDBRANCH  72  75
ENDBRANCH  44  68
BRANCH  56  79
ATOM     79  C   UNL A   1      47.008  25.889  32.364  1.00  0.00     0.023 A 
ATOM     80  C   UNL A   1      48.238  26.339  31.844  1.00  0.00     0.012 A 
ATOM     81  C   UNL A   1      47.003  24.934  33.400  1.00  0.00     0.148 A 
ATOM     82  C   UNL A   1      49.441  25.824  32.325  1.00  0.00     0.002 A 
ATOM     83  C   UNL A   1      48.207  24.465  33.911  1.00  0.00     0.091 A 
ATOM     84  F   UNL A   1      45.822  24.505  33.869  1.00  0.00    -0.205 F 
ATOM     85  C   UNL A   1      49.427  24.898  33.365  1.00  0.00     0.022 A 
BRANCH  83  86
ATOM     86  S   UNL A   1      48.288  23.346  35.314  1.00  0.00     0.127 S 
ATOM     87  O   UNL A   1      47.588  22.171  34.798  1.00  0.00    -0.237 OA
ATOM     88  O   UNL A   1      49.731  23.171  35.486  1.00  0.00    -0.237 OA
ATOM     89  O   UNL A   1      47.627  24.033  36.416  1.00  0.00    -0.744 OA
ENDBRANCH  83  86
ENDBRANCH  56  79
ENDBRANCH  30  31
ENDBRANCH  22  25
ENDBRANCH  20  21
ENDBRANCH   1  20
TORSDOF 16
ENDMDL
MODEL 2
REMARK VINA RESULT:     -11.2      2.474      4.130
REMARK SMILES CS(=O)(=O)c1ccc(O[C@@H](F)C(=O)NCCCNC(=O)c2ccc(-c3c4nc(c(-c5cccc(S(=O)(=O)[O-])c5F)c5ccc([nH]5)c(-c5cccc(S(=O)(=O)[O-])c5F)c5nc(c(-c6cccc(S(=O)(=O)[O-])c6F)c6ccc3[nH]6)C=C5)C=C4)cc2)cc1
REMARK SMILES IDX 16 1 15 2 14 3 12 4 13 5 10 7 11 8 9 9 8 10 5 11 6 12 85 13
REMARK SMILES IDX 7 14 84 15 2 16 1 17 3 18 4 19 17 20 18 21 19 22 20 24 21 25
REMARK SMILES IDX 22 26 83 27 23 28 82 29 24 30 25 31 26 32 76 33 27 34 81 35
REMARK SMILES IDX 75 36 77 37 28 38 80 39 74 40 73 41 29 43 61 44 41 45 60 46
REMARK SMILES IDX 42 47 45 48 59 49 78 50 43 51 44 52 58 54 79 55 46 56 30 57
REMARK SMILES IDX 31 58 39 59 32 60 34 61 40 62 33 63 35 64 36 65 37 66 38 67
REMARK SMILES IDX 62 68 63 69 71 70 64 71 66 72 72 73 65 74 67 75 68 76 69 77
REMARK SMILES IDX 70 78 47 79 48 80 56 81 49 82 51 83 57 84 50 85 52 86 53 87
REMARK SMILES IDX 54 88 55 89
REMARK H PARENT 14 6 18 23 77 42 45 53
REMARK Flexibility Score: inf
ROOT
ATOM      1  C   UNL A   1      32.003  28.237  27.240  1.00  0.00     0.042 C 
ENDROOT
BRANCH   1   2
ATOM      2  C   UNL A   1      31.487  27.277  26.175  1.00  0.00     0.118 C 
BRANCH   2   3
ATOM      3  N   UNL A   1      31.012  26.045  26.772  1.00  0.00    -0.350 N 
ATOM      4  C   UNL A   1      31.545  24.786  26.709  1.00  0.00     0.294 C 
ATOM      5  O   UNL A   1      30.872  23.878  27.215  1.00  0.00    -0.267 OA
ATOM      6  H   UNL A   1      30.184  26.125  27.300  1.00  0.00     0.163 HD
BRANCH   4   7
ATOM      7  C   UNL A   1      32.949  24.492  26.090  1.00  0.00     0.440 C 
ATOM      8  F   UNL A   1      32.978  24.684  24.738  1.00  0.00    -0.191 F 
BRANCH   7   9
ATOM      9  O   UNL A   1      33.683  23.323  26.452  1.00  0.00    -0.452 OA
BRANCH   9  10
ATOM     10  C   UNL A   1      33.530  22.179  25.726  1.00  0.00     0.123 A 
ATOM     11  C   UNL A   1      33.397  19.659  24.531  1.00  0.00     0.067 A 
ATOM     12  C   UNL A   1      34.642  20.196  24.865  1.00  0.00     0.024 A 
ATOM     13  C   UNL A   1      32.239  20.428  24.662  1.00  0.00     0.024 A 
ATOM     14  C   UNL A   1      34.702  21.467  25.450  1.00  0.00     0.048 A 
ATOM     15  C   UNL A   1      32.315  21.702  25.235  1.00  0.00     0.048 A 
BRANCH  11  16
ATOM     16  S   UNL A   1      33.239  17.903  24.257  1.00  0.00     0.175 S 
ATOM     17  C   UNL A   1      32.668  17.743  22.594  1.00  0.00     0.163 C 
ATOM     18  O   UNL A   1      32.171  17.450  25.140  1.00  0.00    -0.224 OA
ATOM     19  O   UNL A   1      34.557  17.326  24.364  1.00  0.00    -0.224 OA
ENDBRANCH  11  16
ENDBRANCH   9  10
ENDBRANCH   7   9
ENDBRANCH   4   7
ENDBRANCH   2   3
ENDBRANCH   1   2
BRANCH   1  20
ATOM     20  C   UNL A   1      33.455  28.648  27.059  1.00  0.00     0.118 C 
BRANCH  20  21
ATOM     21  N   UNL A   1      33.603  30.099  27.073  1.00  0.00    -0.352 N 
ATOM     22  C   UNL A   1      34.557  30.891  27.667  1.00  0.00     0.251 C 
ATOM     23  H   UNL A   1      32.908  30.589  26.578  1.00  0.00     0.163 HD
ATOM     24  O   UNL A   1      34.340  32.099  27.764  1.00  0.00    -0.269 OA
BRANCH  22  25
ATOM     25  C   UNL A   1      35.840  30.330  28.156  1.00  0.00     0.039 A 
ATOM     26  C   UNL A   1      35.884  29.742  29.426  1.00  0.00     0.014 A 
ATOM     27  C   UNL A   1      37.017  30.450  27.416  1.00  0.00     0.014 A 
ATOM     28  C   UNL A   1      37.095  29.249  29.930  1.00  0.00     0.010 A 
ATOM     29  C   UNL A   1      38.196  29.866  27.872  1.00  0.00     0.010 A 
ATOM     30  C   UNL A   1      38.259  29.285  29.146  1.00  0.00    -0.014 A 
BRANCH  30  31
ATOM     31  C   UNL A   1      39.556  28.744  29.637  1.00  0.00     0.031 A 
ATOM     32  C   UNL A   1      40.292  29.438  30.756  1.00  0.00     0.074 A 
ATOM     33  C   UNL A   1      40.119  27.690  29.016  1.00  0.00     0.049 A 
ATOM     34  N   UNL A   1      41.471  29.175  31.260  1.00  0.00    -0.248 NA
ATOM     35  C   UNL A   1      39.632  30.603  31.368  1.00  0.00     0.031 C 
ATOM     36  C   UNL A   1      39.548  26.983  27.868  1.00  0.00     0.029 A 
ATOM     37  N   UNL A   1      41.312  27.048  29.240  1.00  0.00    -0.354 N 
ATOM     38  C   UNL A   1      41.713  30.166  32.204  1.00  0.00     0.074 A 
ATOM     39  C   UNL A   1      40.574  31.057  32.180  1.00  0.00     0.031 C 
ATOM     40  C   UNL A   1      40.384  26.001  27.496  1.00  0.00     0.029 A 
ATOM     41  C   UNL A   1      41.568  26.032  28.348  1.00  0.00     0.049 A 
ATOM     42  H   UNL A   1      41.927  27.291  29.970  1.00  0.00     0.167 HD
ATOM     43  C   UNL A   1      42.772  30.308  33.038  1.00  0.00     0.034 A 
ATOM     44  C   UNL A   1      42.641  25.227  28.220  1.00  0.00     0.034 A 
ATOM     45  C   UNL A   1      43.879  29.392  33.091  1.00  0.00     0.049 A 
ATOM     46  C   UNL A   1      43.783  25.375  29.188  1.00  0.00     0.074 A 
ATOM     47  C   UNL A   1      44.953  29.388  33.963  1.00  0.00     0.029 A 
ATOM     48  N   UNL A   1      44.058  28.319  32.232  1.00  0.00    -0.354 N 
ATOM     49  N   UNL A   1      43.924  26.224  30.177  1.00  0.00    -0.248 NA
ATOM     50  C   UNL A   1      44.903  24.434  29.043  1.00  0.00     0.031 C 
ATOM     51  C   UNL A   1      45.798  28.331  33.610  1.00  0.00     0.029 A 
ATOM     52  C   UNL A   1      45.233  27.653  32.542  1.00  0.00     0.049 A 
ATOM     53  H   UNL A   1      43.442  28.068  31.507  1.00  0.00     0.167 HD
ATOM     54  C   UNL A   1      45.125  25.898  30.795  1.00  0.00     0.074 A 
ATOM     55  C   UNL A   1      45.664  24.759  30.080  1.00  0.00     0.031 C 
ATOM     56  C   UNL A   1      45.733  26.492  31.851  1.00  0.00     0.034 A 
BRANCH  43  57
ATOM     57  C   UNL A   1      42.760  31.477  33.994  1.00  0.00     0.023 A 
ATOM     58  C   UNL A   1      43.392  32.685  33.629  1.00  0.00     0.012 A 
ATOM     59  C   UNL A   1      42.090  31.399  35.231  1.00  0.00     0.148 A 
ATOM     60  C   UNL A   1      43.399  33.776  34.497  1.00  0.00     0.002 A 
ATOM     61  C   UNL A   1      42.058  32.508  36.069  1.00  0.00     0.091 A 
ATOM     62  F   UNL A   1      41.508  30.240  35.571  1.00  0.00    -0.205 F 
ATOM     63  C   UNL A   1      42.725  33.691  35.711  1.00  0.00     0.022 A 
BRANCH  61  64
ATOM     64  S   UNL A   1      41.146  32.529  37.616  1.00  0.00     0.127 S 
ATOM     65  O   UNL A   1      39.852  31.986  37.203  1.00  0.00    -0.237 OA
ATOM     66  O   UNL A   1      41.942  31.634  38.456  1.00  0.00    -0.237 OA
ATOM     67  O   UNL A   1      41.130  33.917  38.055  1.00  0.00    -0.744 OA
ENDBRANCH  61  64
ENDBRANCH  43  57
BRANCH  44  68
ATOM     68  C   UNL A   1      42.648  24.162  27.176  1.00  0.00     0.023 A 
ATOM     69  C   UNL A   1      43.352  24.381  25.976  1.00  0.00     0.012 A 
ATOM     70  C   UNL A   1      42.006  22.925  27.380  1.00  0.00     0.148 A 
ATOM     71  C   UNL A   1      43.390  23.400  24.983  1.00  0.00     0.002 A 
ATOM     72  C   UNL A   1      42.099  21.930  26.414  1.00  0.00     0.091 A 
ATOM     73  F   UNL A   1      41.334  22.739  28.525  1.00  0.00    -0.205 F 
ATOM     74  C   UNL A   1      42.773  22.172  25.206  1.00  0.00     0.022 A 
BRANCH  72  75
ATOM     75  S   UNL A   1      41.460  20.270  26.668  1.00  0.00     0.127 S 
ATOM     76  O   UNL A   1      40.021  20.509  26.738  1.00  0.00    -0.237 OA
ATOM     77  O   UNL A   1      41.913  19.586  25.456  1.00  0.00    -0.237 OA
ATOM     78  O   UNL A   1      42.080  19.787  27.894  1.00  0.00    -0.744 OA
ENDBRANCH  72  75
ENDBRANCH  44  68
BRANCH  56  79
ATOM     79  C   UNL A   1      47.036  25.906  32.330  1.00  0.00     0.023 A 
ATOM     80  C   UNL A   1      48.255  26.374  31.802  1.00  0.00     0.012 A 
ATOM     81  C   UNL A   1      47.051  24.942  33.358  1.00  0.00     0.148 A 
ATOM     82  C   UNL A   1      49.469  25.869  32.267  1.00  0.00     0.002 A 
ATOM     83  C   UNL A   1      48.265  24.482  33.853  1.00  0.00     0.091 A 
ATOM     84  F   UNL A   1      45.880  24.497  33.835  1.00  0.00    -0.205 F 
ATOM     85  C   UNL A   1      49.475  24.933  33.299  1.00  0.00     0.022 A 
BRANCH  83  86
ATOM     86  S   UNL A   1      48.373  23.353  35.246  1.00  0.00     0.127 S 
ATOM     87  O   UNL A   1      49.814  23.116  35.326  1.00  0.00    -0.237 OA
ATOM     88  O   UNL A   1      47.826  24.158  36.339  1.00  0.00    -0.237 OA
ATOM     89  O   UNL A   1      47.569  22.193  34.888  1.00  0.00    -0.744 OA
ENDBRANCH  83  86
ENDBRANCH  56  79
ENDBRANCH  30  31
ENDBRANCH  22  25
ENDBRANCH  20  21
ENDBRANCH   1  20
TORSDOF 16
ENDMDL
MODEL 3
REMARK VINA RESULT:     -11.2      3.145      9.092
REMARK SMILES CS(=O)(=O)c1ccc(O[C@@H](F)C(=O)NCCCNC(=O)c2ccc(-c3c4nc(c(-c5cccc(S(=O)(=O)[O-])c5F)c5ccc([nH]5)c(-c5cccc(S(=O)(=O)[O-])c5F)c5nc(c(-c6cccc(S(=O)(=O)[O-])c6F)c6ccc3[nH]6)C=C5)C=C4)cc2)cc1
REMARK SMILES IDX 16 1 15 2 14 3 12 4 13 5 10 7 11 8 9 9 8 10 5 11 6 12 85 13
REMARK SMILES IDX 7 14 84 15 2 16 1 17 3 18 4 19 17 20 18 21 19 22 20 24 21 25
REMARK SMILES IDX 22 26 83 27 23 28 82 29 24 30 25 31 26 32 76 33 27 34 81 35
REMARK SMILES IDX 75 36 77 37 28 38 80 39 74 40 73 41 29 43 61 44 41 45 60 46
REMARK SMILES IDX 42 47 45 48 59 49 78 50 43 51 44 52 58 54 79 55 46 56 30 57
REMARK SMILES IDX 31 58 39 59 32 60 34 61 40 62 33 63 35 64 36 65 37 66 38 67
REMARK SMILES IDX 62 68 63 69 71 70 64 71 66 72 72 73 65 74 67 75 68 76 69 77
REMARK SMILES IDX 70 78 47 79 48 80 56 81 49 82 51 83 57 84 50 85 52 86 53 87
REMARK SMILES IDX 54 88 55 89
REMARK H PARENT 14 6 18 23 77 42 45 53
REMARK Flexibility Score: inf
ROOT
ATOM      1  C   UNL A   1      32.024  28.043  26.196  1.00  0.00     0.042 C 
ENDROOT
BRANCH   1   2
ATOM      2  C   UNL A   1      31.971  26.682  25.512  1.00  0.00     0.118 C 
BRANCH   2   3
ATOM      3  N   UNL A   1      31.335  25.697  26.362  1.00  0.00    -0.350 N 
ATOM      4  C   UNL A   1      31.666  24.386  26.572  1.00  0.00     0.294 C 
ATOM      5  O   UNL A   1      30.881  23.725  27.265  1.00  0.00    -0.267 OA
ATOM      6  H   UNL A   1      30.550  26.018  26.864  1.00  0.00     0.163 HD
BRANCH   4   7
ATOM      7  C   UNL A   1      32.983  23.748  26.025  1.00  0.00     0.440 C 
ATOM      8  F   UNL A   1      34.103  24.387  26.476  1.00  0.00    -0.191 F 
BRANCH   7   9
ATOM      9  O   UNL A   1      33.117  23.402  24.647  1.00  0.00    -0.452 OA
BRANCH   9  10
ATOM     10  C   UNL A   1      33.176  22.090  24.284  1.00  0.00     0.123 A 
ATOM     11  C   UNL A   1      33.289  19.324  23.918  1.00  0.00     0.067 A 
ATOM     12  C   UNL A   1      34.277  19.957  24.673  1.00  0.00     0.024 A 
ATOM     13  C   UNL A   1      32.332  20.077  23.234  1.00  0.00     0.024 A 
ATOM     14  C   UNL A   1      34.224  21.347  24.840  1.00  0.00     0.048 A 
ATOM     15  C   UNL A   1      32.298  21.466  23.399  1.00  0.00     0.048 A 
BRANCH  11  16
ATOM     16  S   UNL A   1      33.040  17.565  24.088  1.00  0.00     0.175 S 
ATOM     17  C   UNL A   1      34.576  16.935  24.690  1.00  0.00     0.163 C 
ATOM     18  O   UNL A   1      32.847  17.051  22.738  1.00  0.00    -0.224 OA
ATOM     19  O   UNL A   1      32.020  17.365  25.090  1.00  0.00    -0.224 OA
ENDBRANCH  11  16
ENDBRANCH   9  10
ENDBRANCH   7   9
ENDBRANCH   4   7
ENDBRANCH   2   3
ENDBRANCH   1   2
BRANCH   1  20
ATOM     20  C   UNL A   1      32.973  29.035  25.542  1.00  0.00     0.118 C 
BRANCH  20  21
ATOM     21  N   UNL A   1      32.618  30.409  25.875  1.00  0.00    -0.352 N 
ATOM     22  C   UNL A   1      33.104  31.243  26.854  1.00  0.00     0.251 C 
ATOM     23  H   UNL A   1      31.918  30.804  25.306  1.00  0.00     0.163 HD
ATOM     24  O   UNL A   1      32.479  32.270  27.114  1.00  0.00    -0.269 OA
BRANCH  22  25
ATOM     25  C   UNL A   1      34.369  30.946  27.571  1.00  0.00     0.039 A 
ATOM     26  C   UNL A   1      34.563  29.668  28.108  1.00  0.00     0.014 A 
ATOM     27  C   UNL A   1      35.330  31.935  27.792  1.00  0.00     0.014 A 
ATOM     28  C   UNL A   1      35.727  29.379  28.830  1.00  0.00     0.010 A 
ATOM     29  C   UNL A   1      36.532  31.618  28.419  1.00  0.00     0.010 A 
ATOM     30  C   UNL A   1      36.735  30.347  28.972  1.00  0.00    -0.014 A 
BRANCH  30  31
ATOM     31  C   UNL A   1      37.998  30.066  29.708  1.00  0.00     0.031 A 
ATOM     32  C   UNL A   1      39.025  29.128  29.123  1.00  0.00     0.074 A 
ATOM     33  C   UNL A   1      38.180  30.574  30.942  1.00  0.00     0.049 A 
ATOM     34  N   UNL A   1      40.140  28.688  29.649  1.00  0.00    -0.248 NA
ATOM     35  C   UNL A   1      38.746  28.585  27.783  1.00  0.00     0.031 C 
ATOM     36  C   UNL A   1      37.226  31.426  31.653  1.00  0.00     0.029 A 
ATOM     37  N   UNL A   1      39.216  30.423  31.831  1.00  0.00    -0.354 N 
ATOM     38  C   UNL A   1      40.664  27.784  28.732  1.00  0.00     0.074 A 
ATOM     39  C   UNL A   1      39.728  27.710  27.632  1.00  0.00     0.031 C 
ATOM     40  C   UNL A   1      37.723  31.730  32.862  1.00  0.00     0.029 A 
ATOM     41  C   UNL A   1      39.010  31.064  33.031  1.00  0.00     0.049 A 
ATOM     42  H   UNL A   1      40.029  29.905  31.630  1.00  0.00     0.167 HD
ATOM     43  C   UNL A   1      41.832  27.098  28.784  1.00  0.00     0.034 A 
ATOM     44  C   UNL A   1      39.764  31.099  34.147  1.00  0.00     0.034 A 
ATOM     45  C   UNL A   1      42.781  27.212  29.858  1.00  0.00     0.049 A 
ATOM     46  C   UNL A   1      41.078  30.366  34.163  1.00  0.00     0.074 A 
ATOM     47  C   UNL A   1      44.036  26.639  29.964  1.00  0.00     0.029 A 
ATOM     48  N   UNL A   1      42.578  27.946  31.017  1.00  0.00    -0.354 N 
ATOM     49  N   UNL A   1      41.630  29.639  33.222  1.00  0.00    -0.248 NA
ATOM     50  C   UNL A   1      41.891  30.484  35.382  1.00  0.00     0.031 C 
ATOM     51  C   UNL A   1      44.578  26.999  31.202  1.00  0.00     0.029 A 
ATOM     52  C   UNL A   1      43.678  27.829  31.851  1.00  0.00     0.049 A 
ATOM     53  H   UNL A   1      41.771  28.471  31.218  1.00  0.00     0.167 HD
ATOM     54  C   UNL A   1      42.866  29.243  33.719  1.00  0.00     0.074 A 
ATOM     55  C   UNL A   1      42.991  29.830  35.038  1.00  0.00     0.031 C 
ATOM     56  C   UNL A   1      43.808  28.457  33.142  1.00  0.00     0.034 A 
BRANCH  43  57
ATOM     57  C   UNL A   1      42.167  26.194  27.622  1.00  0.00     0.023 A 
ATOM     58  C   UNL A   1      42.933  26.692  26.547  1.00  0.00     0.012 A 
ATOM     59  C   UNL A   1      41.765  24.844  27.611  1.00  0.00     0.148 A 
ATOM     60  C   UNL A   1      43.251  25.878  25.461  1.00  0.00     0.002 A 
ATOM     61  C   UNL A   1      42.129  24.024  26.548  1.00  0.00     0.091 A 
ATOM     62  F   UNL A   1      41.024  24.388  28.632  1.00  0.00    -0.205 F 
ATOM     63  C   UNL A   1      42.858  24.544  25.466  1.00  0.00     0.022 A 
BRANCH  61  64
ATOM     64  S   UNL A   1      41.745  22.270  26.499  1.00  0.00     0.127 S 
ATOM     65  O   UNL A   1      42.375  21.865  25.243  1.00  0.00    -0.237 OA
ATOM     66  O   UNL A   1      42.413  21.775  27.703  1.00  0.00    -0.237 OA
ATOM     67  O   UNL A   1      40.293  22.175  26.530  1.00  0.00    -0.744 OA
ENDBRANCH  61  64
ENDBRANCH  43  57
BRANCH  44  68
ATOM     68  C   UNL A   1      39.323  31.916  35.314  1.00  0.00     0.023 A 
ATOM     69  C   UNL A   1      38.501  31.327  36.295  1.00  0.00     0.012 A 
ATOM     70  C   UNL A   1      39.745  33.249  35.483  1.00  0.00     0.148 A 
ATOM     71  C   UNL A   1      38.082  32.059  37.407  1.00  0.00     0.002 A 
ATOM     72  C   UNL A   1      39.374  33.953  36.622  1.00  0.00     0.091 A 
ATOM     73  F   UNL A   1      40.520  33.795  34.535  1.00  0.00    -0.205 F 
ATOM     74  C   UNL A   1      38.525  33.367  37.576  1.00  0.00     0.022 A 
BRANCH  72  75
ATOM     75  S   UNL A   1      40.009  35.591  36.999  1.00  0.00     0.127 S 
ATOM     76  O   UNL A   1      39.310  35.906  38.243  1.00  0.00    -0.237 OA
ATOM     77  O   UNL A   1      41.442  35.331  37.146  1.00  0.00    -0.237 OA
ATOM     78  O   UNL A   1      39.666  36.425  35.855  1.00  0.00    -0.744 OA
ENDBRANCH  72  75
ENDBRANCH  44  68
BRANCH  56  79
ATOM     79  C   UNL A   1      45.080  28.210  33.910  1.00  0.00     0.023 A 
ATOM     80  C   UNL A   1      46.173  29.088  33.764  1.00  0.00     0.012 A 
ATOM     81  C   UNL A   1      45.164  27.149  34.834  1.00  0.00     0.148 A 
ATOM     82  C   UNL A   1      47.340  28.894  34.500  1.00  0.00     0.002 A 
ATOM     83  C   UNL A   1      46.311  26.993  35.602  1.00  0.00     0.091 A 
ATOM     84  F   UNL A   1      44.121  26.314  34.945  1.00  0.00    -0.205 F 
ATOM     85  C   UNL A   1      47.406  27.856  35.426  1.00  0.00     0.022 A 
BRANCH  83  86
ATOM     86  S   UNL A   1      46.448  25.747  36.889  1.00  0.00     0.127 S 
ATOM     87  O   UNL A   1      46.053  24.535  36.172  1.00  0.00    -0.237 OA
ATOM     88  O   UNL A   1      47.868  25.815  37.235  1.00  0.00    -0.237 OA
ATOM     89  O   UNL A   1      45.546  26.166  37.953  1.00  0.00    -0.744 OA
ENDBRANCH  83  86
ENDBRANCH  56  79
ENDBRANCH  30  31
ENDBRANCH  22  25
ENDBRANCH  20  21
ENDBRANCH   1  20
TORSDOF 16
ENDMDL
