MODEL 1
REMARK VINA RESULT:     -11.9      0.000      0.000
REMARK SMILES C[C@H](C(=O)NCCCNC(=O)c1ccc(-c2c3nc(c(-c4cccc(S(=O)(=O)[O-])c4F)c4ccc([nH]4)c(-c4cccc(S(=O)(=O)[O-])c4F)c4nc(c(-c5cccc(S(=O)(=O)[O-])c5F)c5ccc2[nH]5)C=C4)C=C3)cc1)N1C(=O)C[C@](C)(c2ccccc2)C1=O
REMARK SMILES IDX 7 1 6 2 5 3 3 4 4 5 2 7 1 8 75 9 76 10 87 11 77 12 78 13
REMARK SMILES IDX 79 14 88 15 80 16 81 17 82 18 86 19 83 20 85 21 84 22 8 23
REMARK SMILES IDX 9 24 10 25 11 27 12 28 13 29 74 30 14 31 73 32 15 33 16 34
REMARK SMILES IDX 17 35 67 36 18 37 72 38 66 39 68 40 19 41 71 42 65 43 64 44
REMARK SMILES IDX 20 46 52 47 32 48 51 49 33 50 36 51 50 52 69 53 34 54 35 55
REMARK SMILES IDX 49 57 70 58 37 59 21 60 22 61 30 62 23 63 25 64 31 65 24 66
REMARK SMILES IDX 26 67 27 68 28 69 29 70 53 71 54 72 62 73 55 74 57 75 63 76
REMARK SMILES IDX 56 77 58 78 59 79 60 80 61 81 38 82 39 83 47 84 40 85 42 86
REMARK SMILES IDX 48 87 41 88 43 89 44 90 45 91 46 92
REMARK H PARENT 5 6 9 26 68 45 36 56
REMARK Flexibility Score: inf
ROOT
ATOM      1  C   UNL A   1      32.473  28.341  27.166  1.00  0.00     0.042 C 
ENDROOT
BRANCH   1   2
ATOM      2  C   UNL A   1      32.009  27.015  26.579  1.00  0.00     0.117 C 
BRANCH   2   3
ATOM      3  N   UNL A   1      32.551  26.778  25.250  1.00  0.00    -0.354 N 
ATOM      4  C   UNL A   1      32.287  25.805  24.326  1.00  0.00     0.243 C 
ATOM      5  O   UNL A   1      32.801  25.967  23.217  1.00  0.00    -0.273 OA
ATOM      6  H   UNL A   1      33.229  27.433  24.967  1.00  0.00     0.163 HD
BRANCH   4   7
ATOM      7  C   UNL A   1      31.348  24.614  24.650  1.00  0.00     0.179 C 
ATOM      8  C   UNL A   1      30.563  24.129  23.422  1.00  0.00     0.042 C 
BRANCH   7   9
ATOM      9  N   UNL A   1      32.110  23.551  25.314  1.00  0.00    -0.269 N 
ATOM     10  C   UNL A   1      32.008  23.262  26.640  1.00  0.00     0.231 C 
ATOM     11  C   UNL A   1      32.988  22.720  24.675  1.00  0.00     0.240 C 
ATOM     12  O   UNL A   1      31.187  23.727  27.415  1.00  0.00    -0.274 OA
ATOM     13  C   UNL A   1      33.090  22.298  27.035  1.00  0.00     0.122 C 
ATOM     14  C   UNL A   1      33.739  21.877  25.706  1.00  0.00     0.081 C 
ATOM     15  O   UNL A   1      33.162  22.671  23.464  1.00  0.00    -0.273 OA
ATOM     16  C   UNL A   1      33.398  20.401  25.438  1.00  0.00     0.027 C 
BRANCH  14  17
ATOM     17  C   UNL A   1      35.243  22.189  25.683  1.00  0.00    -0.032 A 
ATOM     18  C   UNL A   1      36.191  21.232  25.287  1.00  0.00     0.005 A 
ATOM     19  C   UNL A   1      35.730  23.459  26.063  1.00  0.00     0.005 A 
ATOM     20  C   UNL A   1      37.555  21.541  25.244  1.00  0.00     0.000 A 
ATOM     21  C   UNL A   1      37.095  23.762  26.034  1.00  0.00     0.000 A 
ATOM     22  C   UNL A   1      38.008  22.803  25.617  1.00  0.00     0.000 A 
ENDBRANCH  14  17
ENDBRANCH   7   9
ENDBRANCH   4   7
ENDBRANCH   2   3
ENDBRANCH   1   2
BRANCH   1  23
ATOM     23  C   UNL A   1      33.662  28.967  26.451  1.00  0.00     0.118 C 
BRANCH  23  24
ATOM     24  N   UNL A   1      33.755  30.398  26.693  1.00  0.00    -0.352 N 
ATOM     25  C   UNL A   1      34.637  31.075  27.502  1.00  0.00     0.251 C 
ATOM     26  H   UNL A   1      33.098  30.955  26.216  1.00  0.00     0.163 HD
ATOM     27  O   UNL A   1      34.435  32.255  27.772  1.00  0.00    -0.269 OA
BRANCH  25  28
ATOM     28  C   UNL A   1      35.824  30.379  28.052  1.00  0.00     0.039 A 
ATOM     29  C   UNL A   1      37.007  30.355  27.307  1.00  0.00     0.014 A 
ATOM     30  C   UNL A   1      35.764  29.736  29.291  1.00  0.00     0.014 A 
ATOM     31  C   UNL A   1      38.144  29.728  27.827  1.00  0.00     0.010 A 
ATOM     32  C   UNL A   1      36.916  29.179  29.839  1.00  0.00     0.010 A 
ATOM     33  C   UNL A   1      38.114  29.155  29.108  1.00  0.00    -0.014 A 
BRANCH  33  34
ATOM     34  C   UNL A   1      39.303  28.494  29.707  1.00  0.00     0.031 A 
ATOM     35  C   UNL A   1      39.959  29.101  30.918  1.00  0.00     0.074 A 
ATOM     36  C   UNL A   1      39.867  27.433  29.101  1.00  0.00     0.049 A 
ATOM     37  N   UNL A   1      41.092  28.788  31.490  1.00  0.00    -0.248 NA
ATOM     38  C   UNL A   1      39.262  30.235  31.545  1.00  0.00     0.031 C 
ATOM     39  C   UNL A   1      39.362  26.786  27.890  1.00  0.00     0.029 A 
ATOM     40  N   UNL A   1      41.018  26.742  29.395  1.00  0.00    -0.354 N 
ATOM     41  C   UNL A   1      41.271  29.717  32.508  1.00  0.00     0.074 A 
ATOM     42  C   UNL A   1      40.142  30.621  32.456  1.00  0.00     0.031 C 
ATOM     43  C   UNL A   1      40.208  25.808  27.532  1.00  0.00     0.029 A 
ATOM     44  C   UNL A   1      41.338  25.789  28.457  1.00  0.00     0.049 A 
ATOM     45  H   UNL A   1      41.560  26.913  30.199  1.00  0.00     0.167 HD
ATOM     46  C   UNL A   1      42.273  29.802  33.416  1.00  0.00     0.034 A 
ATOM     47  C   UNL A   1      42.433  25.012  28.332  1.00  0.00     0.034 A 
ATOM     48  C   UNL A   1      43.375  28.882  33.483  1.00  0.00     0.049 A 
ATOM     49  C   UNL A   1      43.525  25.102  29.362  1.00  0.00     0.074 A 
ATOM     50  C   UNL A   1      44.394  28.829  34.417  1.00  0.00     0.029 A 
ATOM     51  N   UNL A   1      43.613  27.865  32.572  1.00  0.00    -0.354 N 
ATOM     52  N   UNL A   1      43.615  25.901  30.397  1.00  0.00    -0.248 NA
ATOM     53  C   UNL A   1      44.651  24.164  29.228  1.00  0.00     0.031 C 
ATOM     54  C   UNL A   1      45.271  27.805  34.047  1.00  0.00     0.029 A 
ATOM     55  C   UNL A   1      44.771  27.187  32.911  1.00  0.00     0.049 A 
ATOM     56  H   UNL A   1      43.042  27.655  31.798  1.00  0.00     0.167 HD
ATOM     57  C   UNL A   1      44.782  25.537  31.061  1.00  0.00     0.074 A 
ATOM     58  C   UNL A   1      45.365  24.443  30.312  1.00  0.00     0.031 C 
ATOM     59  C   UNL A   1      45.317  26.065  32.189  1.00  0.00     0.034 A 
BRANCH  46  60
ATOM     60  C   UNL A   1      42.205  30.924  34.422  1.00  0.00     0.023 A 
ATOM     61  C   UNL A   1      41.587  30.714  35.672  1.00  0.00     0.012 A 
ATOM     62  C   UNL A   1      42.770  32.182  34.136  1.00  0.00     0.148 A 
ATOM     63  C   UNL A   1      41.478  31.753  36.595  1.00  0.00     0.002 A 
ATOM     64  C   UNL A   1      42.706  33.197  35.083  1.00  0.00     0.091 A 
ATOM     65  F   UNL A   1      43.339  32.374  32.937  1.00  0.00    -0.205 F 
ATOM     66  C   UNL A   1      42.045  32.991  36.304  1.00  0.00     0.022 A 
BRANCH  64  67
ATOM     67  S   UNL A   1      43.484  34.797  34.835  1.00  0.00     0.127 S 
ATOM     68  O   UNL A   1      43.167  35.476  36.090  1.00  0.00    -0.237 OA
ATOM     69  O   UNL A   1      44.893  34.434  34.678  1.00  0.00    -0.237 OA
ATOM     70  O   UNL A   1      42.868  35.360  33.642  1.00  0.00    -0.744 OA
ENDBRANCH  64  67
ENDBRANCH  46  60
BRANCH  47  71
ATOM     71  C   UNL A   1      42.520  24.059  27.190  1.00  0.00     0.023 A 
ATOM     72  C   UNL A   1      43.206  24.433  26.020  1.00  0.00     0.012 A 
ATOM     73  C   UNL A   1      41.992  22.756  27.295  1.00  0.00     0.148 A 
ATOM     74  C   UNL A   1      43.348  23.531  24.964  1.00  0.00     0.002 A 
ATOM     75  C   UNL A   1      42.189  21.845  26.265  1.00  0.00     0.091 A 
ATOM     76  F   UNL A   1      41.339  22.425  28.418  1.00  0.00    -0.205 F 
ATOM     77  C   UNL A   1      42.853  22.236  25.091  1.00  0.00     0.022 A 
BRANCH  75  78
ATOM     78  S   UNL A   1      41.716  20.119  26.403  1.00  0.00     0.127 S 
ATOM     79  O   UNL A   1      42.430  19.521  25.278  1.00  0.00    -0.237 OA
ATOM     80  O   UNL A   1      42.241  19.769  27.723  1.00  0.00    -0.237 OA
ATOM     81  O   UNL A   1      40.262  20.092  26.310  1.00  0.00    -0.744 OA
ENDBRANCH  75  78
ENDBRANCH  47  71
BRANCH  59  82
ATOM     82  C   UNL A   1      46.571  25.441  32.742  1.00  0.00     0.023 A 
ATOM     83  C   UNL A   1      47.836  25.941  32.376  1.00  0.00     0.012 A 
ATOM     84  C   UNL A   1      46.483  24.434  33.725  1.00  0.00     0.148 A 
ATOM     85  C   UNL A   1      48.994  25.438  32.971  1.00  0.00     0.002 A 
ATOM     86  C   UNL A   1      47.635  23.976  34.350  1.00  0.00     0.091 A 
ATOM     87  F   UNL A   1      45.269  23.961  34.044  1.00  0.00    -0.205 F 
ATOM     88  C   UNL A   1      48.892  24.469  33.967  1.00  0.00     0.022 A 
BRANCH  86  89
ATOM     89  S   UNL A   1      47.594  22.807  35.714  1.00  0.00     0.127 S 
ATOM     90  O   UNL A   1      47.084  21.603  35.060  1.00  0.00    -0.237 OA
ATOM     91  O   UNL A   1      49.003  22.741  36.103  1.00  0.00    -0.237 OA
ATOM     92  O   UNL A   1      46.713  23.387  36.719  1.00  0.00    -0.744 OA
ENDBRANCH  86  89
ENDBRANCH  59  82
ENDBRANCH  33  34
ENDBRANCH  25  28
ENDBRANCH  23  24
ENDBRANCH   1  23
TORSDOF 15
ENDMDL
MODEL 2
REMARK VINA RESULT:     -11.9      1.126      1.632
REMARK SMILES C[C@H](C(=O)NCCCNC(=O)c1ccc(-c2c3nc(c(-c4cccc(S(=O)(=O)[O-])c4F)c4ccc([nH]4)c(-c4cccc(S(=O)(=O)[O-])c4F)c4nc(c(-c5cccc(S(=O)(=O)[O-])c5F)c5ccc2[nH]5)C=C4)C=C3)cc1)N1C(=O)C[C@](C)(c2ccccc2)C1=O
REMARK SMILES IDX 7 1 6 2 5 3 3 4 4 5 2 7 1 8 75 9 76 10 87 11 77 12 78 13
REMARK SMILES IDX 79 14 88 15 80 16 81 17 82 18 86 19 83 20 85 21 84 22 8 23
REMARK SMILES IDX 9 24 10 25 11 27 12 28 13 29 74 30 14 31 73 32 15 33 16 34
REMARK SMILES IDX 17 35 67 36 18 37 72 38 66 39 68 40 19 41 71 42 65 43 64 44
REMARK SMILES IDX 20 46 52 47 32 48 51 49 33 50 36 51 50 52 69 53 34 54 35 55
REMARK SMILES IDX 49 57 70 58 37 59 21 60 22 61 30 62 23 63 25 64 31 65 24 66
REMARK SMILES IDX 26 67 27 68 28 69 29 70 53 71 54 72 62 73 55 74 57 75 63 76
REMARK SMILES IDX 56 77 58 78 59 79 60 80 61 81 38 82 39 83 47 84 40 85 42 86
REMARK SMILES IDX 48 87 41 88 43 89 44 90 45 91 46 92
REMARK H PARENT 5 6 9 26 68 45 36 56
REMARK Flexibility Score: inf
ROOT
ATOM      1  C   UNL A   1      32.692  28.040  27.243  1.00  0.00     0.042 C 
ENDROOT
BRANCH   1   2
ATOM      2  C   UNL A   1      31.866  27.091  26.385  1.00  0.00     0.117 C 
BRANCH   2   3
ATOM      3  N   UNL A   1      32.515  26.780  25.121  1.00  0.00    -0.354 N 
ATOM      4  C   UNL A   1      32.352  25.736  24.254  1.00  0.00     0.243 C 
ATOM      5  O   UNL A   1      32.945  25.837  23.177  1.00  0.00    -0.273 OA
ATOM      6  H   UNL A   1      33.192  27.437  24.842  1.00  0.00     0.163 HD
BRANCH   4   7
ATOM      7  C   UNL A   1      31.428  24.537  24.593  1.00  0.00     0.179 C 
ATOM      8  C   UNL A   1      30.681  23.999  23.364  1.00  0.00     0.042 C 
BRANCH   7   9
ATOM      9  N   UNL A   1      32.195  23.510  25.307  1.00  0.00    -0.269 N 
ATOM     10  C   UNL A   1      32.089  23.280  26.645  1.00  0.00     0.231 C 
ATOM     11  C   UNL A   1      33.081  22.657  24.709  1.00  0.00     0.240 C 
ATOM     12  O   UNL A   1      31.262  23.774  27.395  1.00  0.00    -0.274 OA
ATOM     13  C   UNL A   1      33.176  22.342  27.087  1.00  0.00     0.122 C 
ATOM     14  C   UNL A   1      33.833  21.867  25.780  1.00  0.00     0.081 C 
ATOM     15  O   UNL A   1      33.260  22.556  23.502  1.00  0.00    -0.273 OA
ATOM     16  C   UNL A   1      33.503  20.377  25.577  1.00  0.00     0.027 C 
BRANCH  14  17
ATOM     17  C   UNL A   1      35.335  22.187  25.748  1.00  0.00    -0.032 A 
ATOM     18  C   UNL A   1      35.831  23.446  26.124  1.00  0.00     0.005 A 
ATOM     19  C   UNL A   1      36.279  21.221  25.336  1.00  0.00     0.005 A 
ATOM     20  C   UNL A   1      37.205  23.713  26.116  1.00  0.00     0.000 A 
ATOM     21  C   UNL A   1      37.649  21.493  25.315  1.00  0.00     0.000 A 
ATOM     22  C   UNL A   1      38.114  22.740  25.712  1.00  0.00     0.000 A 
ENDBRANCH  14  17
ENDBRANCH   7   9
ENDBRANCH   4   7
ENDBRANCH   2   3
ENDBRANCH   1   2
BRANCH   1  23
ATOM     23  C   UNL A   1      33.839  28.719  26.508  1.00  0.00     0.118 C 
BRANCH  23  24
ATOM     24  N   UNL A   1      33.820  30.163  26.679  1.00  0.00    -0.352 N 
ATOM     25  C   UNL A   1      34.641  30.945  27.457  1.00  0.00     0.251 C 
ATOM     26  H   UNL A   1      33.126  30.644  26.172  1.00  0.00     0.163 HD
ATOM     27  O   UNL A   1      34.347  32.119  27.667  1.00  0.00    -0.269 OA
BRANCH  25  28
ATOM     28  C   UNL A   1      35.874  30.371  28.045  1.00  0.00     0.039 A 
ATOM     29  C   UNL A   1      35.821  29.801  29.321  1.00  0.00     0.014 A 
ATOM     30  C   UNL A   1      37.084  30.412  27.346  1.00  0.00     0.014 A 
ATOM     31  C   UNL A   1      36.970  29.229  29.876  1.00  0.00     0.010 A 
ATOM     32  C   UNL A   1      38.206  29.775  27.868  1.00  0.00     0.010 A 
ATOM     33  C   UNL A   1      38.167  29.191  29.143  1.00  0.00    -0.014 A 
BRANCH  33  34
ATOM     34  C   UNL A   1      39.407  28.576  29.686  1.00  0.00     0.031 A 
ATOM     35  C   UNL A   1      40.166  29.276  30.780  1.00  0.00     0.074 A 
ATOM     36  C   UNL A   1      39.918  27.466  29.121  1.00  0.00     0.049 A 
ATOM     37  N   UNL A   1      41.346  29.006  31.273  1.00  0.00    -0.248 NA
ATOM     38  C   UNL A   1      39.524  30.461  31.372  1.00  0.00     0.031 C 
ATOM     39  C   UNL A   1      39.309  26.725  28.017  1.00  0.00     0.029 A 
ATOM     40  N   UNL A   1      41.092  26.797  29.368  1.00  0.00    -0.354 N 
ATOM     41  C   UNL A   1      41.612  30.014  32.192  1.00  0.00     0.074 A 
ATOM     42  C   UNL A   1      40.481  30.916  32.166  1.00  0.00     0.031 C 
ATOM     43  C   UNL A   1      40.122  25.717  27.666  1.00  0.00     0.029 A 
ATOM     44  C   UNL A   1      41.330  25.768  28.486  1.00  0.00     0.049 A 
ATOM     45  H   UNL A   1      41.703  27.030  30.103  1.00  0.00     0.167 HD
ATOM     46  C   UNL A   1      42.691  30.168  32.998  1.00  0.00     0.034 A 
ATOM     47  C   UNL A   1      42.411  24.979  28.327  1.00  0.00     0.034 A 
ATOM     48  C   UNL A   1      43.797  29.252  33.042  1.00  0.00     0.049 A 
ATOM     49  C   UNL A   1      43.590  25.147  29.246  1.00  0.00     0.074 A 
ATOM     50  C   UNL A   1      44.895  29.271  33.882  1.00  0.00     0.029 A 
ATOM     51  N   UNL A   1      43.956  28.163  32.199  1.00  0.00    -0.354 N 
ATOM     52  N   UNL A   1      43.770  26.028  30.200  1.00  0.00    -0.248 NA
ATOM     53  C   UNL A   1      44.703  24.197  29.090  1.00  0.00     0.031 C 
ATOM     54  C   UNL A   1      45.739  28.216  33.521  1.00  0.00     0.029 A 
ATOM     55  C   UNL A   1      45.141  27.509  32.489  1.00  0.00     0.049 A 
ATOM     56  H   UNL A   1      43.319  27.893  31.499  1.00  0.00     0.167 HD
ATOM     57  C   UNL A   1      44.992  25.715  30.785  1.00  0.00     0.074 A 
ATOM     58  C   UNL A   1      45.509  24.560  30.080  1.00  0.00     0.031 C 
ATOM     59  C   UNL A   1      45.624  26.330  31.814  1.00  0.00     0.034 A 
BRANCH  46  60
ATOM     60  C   UNL A   1      42.710  31.369  33.910  1.00  0.00     0.023 A 
ATOM     61  C   UNL A   1      43.276  32.583  33.467  1.00  0.00     0.012 A 
ATOM     62  C   UNL A   1      42.150  31.303  35.201  1.00  0.00     0.148 A 
ATOM     63  C   UNL A   1      43.341  33.688  34.313  1.00  0.00     0.002 A 
ATOM     64  C   UNL A   1      42.169  32.426  36.019  1.00  0.00     0.091 A 
ATOM     65  F   UNL A   1      41.630  30.139  35.617  1.00  0.00    -0.205 F 
ATOM     66  C   UNL A   1      42.780  33.613  35.584  1.00  0.00     0.022 A 
BRANCH  64  67
ATOM     67  S   UNL A   1      41.392  32.452  37.638  1.00  0.00     0.127 S 
ATOM     68  O   UNL A   1      41.439  33.877  37.964  1.00  0.00    -0.237 OA
ATOM     69  O   UNL A   1      40.053  31.938  37.347  1.00  0.00    -0.237 OA
ATOM     70  O   UNL A   1      42.202  31.586  38.483  1.00  0.00    -0.744 OA
ENDBRANCH  64  67
ENDBRANCH  46  60
BRANCH  47  71
ATOM     71  C   UNL A   1      42.399  23.935  27.265  1.00  0.00     0.023 A 
ATOM     72  C   UNL A   1      42.987  24.206  26.015  1.00  0.00     0.012 A 
ATOM     73  C   UNL A   1      41.876  22.652  27.519  1.00  0.00     0.148 A 
ATOM     74  C   UNL A   1      43.037  23.220  25.028  1.00  0.00     0.002 A 
ATOM     75  C   UNL A   1      41.983  21.658  26.554  1.00  0.00     0.091 A 
ATOM     76  F   UNL A   1      41.317  22.420  28.715  1.00  0.00    -0.205 F 
ATOM     77  C   UNL A   1      42.549  21.945  25.301  1.00  0.00     0.022 A 
BRANCH  75  78
ATOM     78  S   UNL A   1      41.516  19.953  26.871  1.00  0.00     0.127 S 
ATOM     79  O   UNL A   1      40.640  19.666  25.738  1.00  0.00    -0.237 OA
ATOM     80  O   UNL A   1      42.812  19.277  26.837  1.00  0.00    -0.237 OA
ATOM     81  O   UNL A   1      40.872  19.950  28.179  1.00  0.00    -0.744 OA
ENDBRANCH  75  78
ENDBRANCH  47  71
BRANCH  59  82
ATOM     82  C   UNL A   1      46.924  25.747  32.304  1.00  0.00     0.023 A 
ATOM     83  C   UNL A   1      48.147  26.177  31.754  1.00  0.00     0.012 A 
ATOM     84  C   UNL A   1      46.930  24.860  33.400  1.00  0.00     0.148 A 
ATOM     85  C   UNL A   1      49.357  25.722  32.280  1.00  0.00     0.002 A 
ATOM     86  C   UNL A   1      48.138  24.452  33.951  1.00  0.00     0.091 A 
ATOM     87  F   UNL A   1      45.753  24.451  33.894  1.00  0.00    -0.205 F 
ATOM     88  C   UNL A   1      49.352  24.873  33.386  1.00  0.00     0.022 A 
BRANCH  86  89
ATOM     89  S   UNL A   1      48.231  23.447  35.436  1.00  0.00     0.127 S 
ATOM     90  O   UNL A   1      49.660  23.497  35.741  1.00  0.00    -0.237 OA
ATOM     91  O   UNL A   1      47.381  24.192  36.365  1.00  0.00    -0.237 OA
ATOM     92  O   UNL A   1      47.722  22.132  35.068  1.00  0.00    -0.744 OA
ENDBRANCH  86  89
ENDBRANCH  59  82
ENDBRANCH  33  34
ENDBRANCH  25  28
ENDBRANCH  23  24
ENDBRANCH   1  23
TORSDOF 15
ENDMDL
MODEL 3
REMARK VINA RESULT:     -11.9      4.238      9.710
REMARK SMILES C[C@H](C(=O)NCCCNC(=O)c1ccc(-c2c3nc(c(-c4cccc(S(=O)(=O)[O-])c4F)c4ccc([nH]4)c(-c4cccc(S(=O)(=O)[O-])c4F)c4nc(c(-c5cccc(S(=O)(=O)[O-])c5F)c5ccc2[nH]5)C=C4)C=C3)cc1)N1C(=O)C[C@](C)(c2ccccc2)C1=O
REMARK SMILES IDX 7 1 6 2 5 3 3 4 4 5 2 7 1 8 75 9 76 10 87 11 77 12 78 13
REMARK SMILES IDX 79 14 88 15 80 16 81 17 82 18 86 19 83 20 85 21 84 22 8 23
REMARK SMILES IDX 9 24 10 25 11 27 12 28 13 29 74 30 14 31 73 32 15 33 16 34
REMARK SMILES IDX 17 35 67 36 18 37 72 38 66 39 68 40 19 41 71 42 65 43 64 44
REMARK SMILES IDX 20 46 52 47 32 48 51 49 33 50 36 51 50 52 69 53 34 54 35 55
REMARK SMILES IDX 49 57 70 58 37 59 21 60 22 61 30 62 23 63 25 64 31 65 24 66
REMARK SMILES IDX 26 67 27 68 28 69 29 70 53 71 54 72 62 73 55 74 57 75 63 76
REMARK SMILES IDX 56 77 58 78 59 79 60 80 61 81 38 82 39 83 47 84 40 85 42 86
REMARK SMILES IDX 48 87 41 88 43 89 44 90 45 91 46 92
REMARK H PARENT 5 6 9 26 68 45 36 56
REMARK Flexibility Score: inf
ROOT
ATOM      1  C   UNL A   1      36.580  23.082  24.169  1.00  0.00     0.042 C 
ENDROOT
BRANCH   1   2
ATOM      2  C   UNL A   1      35.251  23.676  23.721  1.00  0.00     0.117 C 
BRANCH   2   3
ATOM      3  N   UNL A   1      34.270  23.710  24.793  1.00  0.00    -0.354 N 
ATOM      4  C   UNL A   1      32.930  23.985  24.785  1.00  0.00     0.243 C 
ATOM      5  O   UNL A   1      32.335  23.776  25.844  1.00  0.00    -0.273 OA
ATOM      6  H   UNL A   1      34.635  23.500  25.682  1.00  0.00     0.163 HD
BRANCH   4   7
ATOM      7  C   UNL A   1      32.211  24.469  23.499  1.00  0.00     0.179 C 
ATOM      8  C   UNL A   1      30.768  23.954  23.399  1.00  0.00     0.042 C 
BRANCH   7   9
ATOM      9  N   UNL A   1      32.320  25.928  23.391  1.00  0.00    -0.269 N 
ATOM     10  C   UNL A   1      33.113  26.563  22.485  1.00  0.00     0.231 C 
ATOM     11  C   UNL A   1      31.624  26.810  24.170  1.00  0.00     0.240 C 
ATOM     12  O   UNL A   1      33.714  26.035  21.562  1.00  0.00    -0.274 OA
ATOM     13  C   UNL A   1      33.177  28.029  22.805  1.00  0.00     0.122 C 
ATOM     14  C   UNL A   1      32.134  28.229  23.917  1.00  0.00     0.081 C 
ATOM     15  O   UNL A   1      30.742  26.510  24.963  1.00  0.00    -0.273 OA
ATOM     16  C   UNL A   1      30.962  29.051  23.350  1.00  0.00     0.027 C 
BRANCH  14  17
ATOM     17  C   UNL A   1      32.762  28.824  25.186  1.00  0.00    -0.032 A 
ATOM     18  C   UNL A   1      33.941  28.302  25.743  1.00  0.00     0.005 A 
ATOM     19  C   UNL A   1      32.171  29.924  25.846  1.00  0.00     0.005 A 
ATOM     20  C   UNL A   1      34.516  28.873  26.884  1.00  0.00     0.000 A 
ATOM     21  C   UNL A   1      32.738  30.484  26.994  1.00  0.00     0.000 A 
ATOM     22  C   UNL A   1      33.916  29.961  27.510  1.00  0.00     0.000 A 
ENDBRANCH  14  17
ENDBRANCH   7   9
ENDBRANCH   4   7
ENDBRANCH   2   3
ENDBRANCH   1   2
BRANCH   1  23
ATOM     23  C   UNL A   1      36.829  23.152  25.669  1.00  0.00     0.118 C 
BRANCH  23  24
ATOM     24  N   UNL A   1      37.886  22.247  26.091  1.00  0.00    -0.352 N 
ATOM     25  C   UNL A   1      39.149  22.555  26.542  1.00  0.00     0.251 C 
ATOM     26  H   UNL A   1      37.670  21.288  26.047  1.00  0.00     0.163 HD
ATOM     27  O   UNL A   1      39.995  21.671  26.639  1.00  0.00    -0.269 OA
BRANCH  25  28
ATOM     28  C   UNL A   1      39.489  23.952  26.901  1.00  0.00     0.039 A 
ATOM     29  C   UNL A   1      39.272  24.393  28.210  1.00  0.00     0.014 A 
ATOM     30  C   UNL A   1      40.003  24.830  25.943  1.00  0.00     0.014 A 
ATOM     31  C   UNL A   1      39.617  25.699  28.570  1.00  0.00     0.010 A 
ATOM     32  C   UNL A   1      40.415  26.104  26.322  1.00  0.00     0.010 A 
ATOM     33  C   UNL A   1      40.213  26.559  27.634  1.00  0.00    -0.014 A 
BRANCH  33  34
ATOM     34  C   UNL A   1      40.612  27.949  27.978  1.00  0.00     0.031 A 
ATOM     35  C   UNL A   1      42.070  28.317  28.012  1.00  0.00     0.074 A 
ATOM     36  C   UNL A   1      39.686  28.840  28.379  1.00  0.00     0.049 A 
ATOM     37  N   UNL A   1      42.638  29.411  28.448  1.00  0.00    -0.248 NA
ATOM     38  C   UNL A   1      43.017  27.301  27.524  1.00  0.00     0.031 C 
ATOM     39  C   UNL A   1      38.247  28.591  28.445  1.00  0.00     0.029 A 
ATOM     40  N   UNL A   1      39.827  30.123  28.853  1.00  0.00    -0.354 N 
ATOM     41  C   UNL A   1      44.007  29.196  28.337  1.00  0.00     0.074 A 
ATOM     42  C   UNL A   1      44.182  27.856  27.819  1.00  0.00     0.031 C 
ATOM     43  C   UNL A   1      37.638  29.674  28.951  1.00  0.00     0.029 A 
ATOM     44  C   UNL A   1      38.646  30.676  29.289  1.00  0.00     0.049 A 
ATOM     45  H   UNL A   1      40.688  30.599  28.877  1.00  0.00     0.167 HD
ATOM     46  C   UNL A   1      45.027  30.041  28.623  1.00  0.00     0.034 A 
ATOM     47  C   UNL A   1      38.402  31.840  29.923  1.00  0.00     0.034 A 
ATOM     48  C   UNL A   1      44.846  31.381  29.107  1.00  0.00     0.049 A 
ATOM     49  C   UNL A   1      39.542  32.778  30.212  1.00  0.00     0.074 A 
ATOM     50  C   UNL A   1      45.808  32.346  29.345  1.00  0.00     0.029 A 
ATOM     51  N   UNL A   1      43.624  31.943  29.445  1.00  0.00    -0.354 N 
ATOM     52  N   UNL A   1      40.821  32.612  29.980  1.00  0.00    -0.248 NA
ATOM     53  C   UNL A   1      39.206  34.075  30.819  1.00  0.00     0.031 C 
ATOM     54  C   UNL A   1      45.172  33.478  29.865  1.00  0.00     0.029 A 
ATOM     55  C   UNL A   1      43.808  33.236  29.903  1.00  0.00     0.049 A 
ATOM     56  H   UNL A   1      42.754  31.489  29.369  1.00  0.00     0.167 HD
ATOM     57  C   UNL A   1      41.438  33.794  30.373  1.00  0.00     0.074 A 
ATOM     58  C   UNL A   1      40.392  34.672  30.855  1.00  0.00     0.031 C 
ATOM     59  C   UNL A   1      42.754  34.120  30.334  1.00  0.00     0.034 A 
BRANCH  46  60
ATOM     60  C   UNL A   1      46.430  29.536  28.399  1.00  0.00     0.023 A 
ATOM     61  C   UNL A   1      47.052  29.713  27.145  1.00  0.00     0.012 A 
ATOM     62  C   UNL A   1      47.142  28.902  29.436  1.00  0.00     0.148 A 
ATOM     63  C   UNL A   1      48.331  29.214  26.908  1.00  0.00     0.002 A 
ATOM     64  C   UNL A   1      48.439  28.456  29.208  1.00  0.00     0.091 A 
ATOM     65  F   UNL A   1      46.534  28.724  30.617  1.00  0.00    -0.205 F 
ATOM     66  C   UNL A   1      49.028  28.594  27.941  1.00  0.00     0.022 A 
BRANCH  64  67
ATOM     67  S   UNL A   1      49.447  27.726  30.503  1.00  0.00     0.127 S 
ATOM     68  O   UNL A   1      50.709  27.498  29.800  1.00  0.00    -0.237 OA
ATOM     69  O   UNL A   1      49.491  28.795  31.501  1.00  0.00    -0.237 OA
ATOM     70  O   UNL A   1      48.740  26.527  30.932  1.00  0.00    -0.744 OA
ENDBRANCH  64  67
ENDBRANCH  46  60
BRANCH  47  71
ATOM     71  C   UNL A   1      37.001  32.186  30.296  1.00  0.00     0.023 A 
ATOM     72  C   UNL A   1      36.524  31.870  31.581  1.00  0.00     0.012 A 
ATOM     73  C   UNL A   1      36.171  32.894  29.405  1.00  0.00     0.148 A 
ATOM     74  C   UNL A   1      35.234  32.238  31.967  1.00  0.00     0.002 A 
ATOM     75  C   UNL A   1      34.911  33.310  29.816  1.00  0.00     0.091 A 
ATOM     76  F   UNL A   1      36.647  33.179  28.184  1.00  0.00    -0.205 F 
ATOM     77  C   UNL A   1      34.434  32.969  31.092  1.00  0.00     0.022 A 
BRANCH  75  78
ATOM     78  S   UNL A   1      33.873  34.378  28.812  1.00  0.00     0.127 S 
ATOM     79  O   UNL A   1      32.819  34.743  29.754  1.00  0.00    -0.237 OA
ATOM     80  O   UNL A   1      34.798  35.458  28.470  1.00  0.00    -0.237 OA
ATOM     81  O   UNL A   1      33.449  33.570  27.675  1.00  0.00    -0.744 OA
ENDBRANCH  75  78
ENDBRANCH  47  71
BRANCH  59  82
ATOM     82  C   UNL A   1      43.158  35.506  30.766  1.00  0.00     0.023 A 
ATOM     83  C   UNL A   1      43.532  35.755  32.100  1.00  0.00     0.012 A 
ATOM     84  C   UNL A   1      43.284  36.533  29.808  1.00  0.00     0.148 A 
ATOM     85  C   UNL A   1      44.012  37.009  32.478  1.00  0.00     0.002 A 
ATOM     86  C   UNL A   1      43.811  37.762  30.180  1.00  0.00     0.091 A 
ATOM     87  F   UNL A   1      42.905  36.278  28.548  1.00  0.00    -0.205 F 
ATOM     88  C   UNL A   1      44.166  38.006  31.516  1.00  0.00     0.022 A 
BRANCH  86  89
ATOM     89  S   UNL A   1      44.143  39.069  28.993  1.00  0.00     0.127 S 
ATOM     90  O   UNL A   1      44.940  38.366  27.990  1.00  0.00    -0.237 OA
ATOM     91  O   UNL A   1      42.796  39.437  28.556  1.00  0.00    -0.237 OA
ATOM     92  O   UNL A   1      44.850  40.112  29.726  1.00  0.00    -0.744 OA
ENDBRANCH  86  89
ENDBRANCH  59  82
ENDBRANCH  33  34
ENDBRANCH  25  28
ENDBRANCH  23  24
ENDBRANCH   1  23
TORSDOF 15
ENDMDL
