MODEL 1
REMARK VINA RESULT:     -12.7      0.000      0.000
REMARK SMILES Cc1cc(Cl)c2c(c1)C=C(C(=O)NCCCNC(=O)c1ccc(-c3c4nc(c(-c5cccc(S(=O)(=O)[O-])c5F)c5ccc([nH]5)c(-c5cccc(S(=O)(=O)[O-])c5F)c5nc(c(-c6cccc(S(=O)(=O)[O-])c6F)c6ccc3[nH]6)C=C5)C=C4)cc1)[C@@H](C(F)(F)F)O2
REMARK SMILES IDX 16 1 15 2 14 3 13 4 11 5 12 6 10 8 1 9 2 10 3 11 8 12 4 13
REMARK SMILES IDX 7 14 5 15 6 16 9 17 88 18 83 19 84 20 85 21 86 22 87 23
REMARK SMILES IDX 17 24 18 25 19 27 20 28 21 29 82 30 22 31 81 32 23 33 24 34
REMARK SMILES IDX 25 35 75 36 26 37 80 38 74 39 76 40 27 41 79 42 73 43 72 44
REMARK SMILES IDX 28 46 60 47 40 48 59 49 41 50 44 51 58 52 77 53 42 54 43 55
REMARK SMILES IDX 57 57 78 58 45 59 29 60 30 61 38 62 31 63 33 64 39 65 32 66
REMARK SMILES IDX 34 67 35 68 36 69 37 70 61 71 62 72 70 73 63 74 65 75 71 76
REMARK SMILES IDX 64 77 66 78 67 79 68 80 69 81 46 82 47 83 55 84 48 85 50 86
REMARK SMILES IDX 56 87 49 88 51 89 52 90 53 91 54 92
REMARK H PARENT 13 7 17 26 76 45 44 56
REMARK Flexibility Score: inf
ROOT
ATOM      1  C   UNL A   1      32.724  32.604  27.259  1.00  0.00     0.118 C 
ENDROOT
BRANCH   1   2
ATOM      2  C   UNL A   1      31.444  32.042  26.652  1.00  0.00     0.042 C 
BRANCH   2   3
ATOM      3  C   UNL A   1      31.503  30.533  26.479  1.00  0.00     0.118 C 
BRANCH   3   4
ATOM      4  N   UNL A   1      32.311  30.140  25.333  1.00  0.00    -0.352 N 
ATOM      5  C   UNL A   1      32.682  28.985  24.735  1.00  0.00     0.251 C 
ATOM      6  O   UNL A   1      33.378  29.116  23.721  1.00  0.00    -0.270 OA
ATOM      7  H   UNL A   1      32.687  30.923  24.872  1.00  0.00     0.163 HD
BRANCH   5   8
ATOM      8  C   UNL A   1      32.309  27.617  25.201  1.00  0.00     0.067 C 
ATOM      9  C   UNL A   1      34.868  22.121  26.481  1.00  0.00     0.044 C 
ATOM     10  C   UNL A   1      33.781  23.147  26.368  1.00  0.00    -0.049 A 
ATOM     11  C   UNL A   1      32.479  22.828  26.773  1.00  0.00     0.028 A 
ATOM     12  C   UNL A   1      34.058  24.446  25.916  1.00  0.00     0.015 A 
ATOM     13  C   UNL A   1      31.468  23.787  26.714  1.00  0.00     0.084 A 
ATOM     14  C   UNL A   1      33.044  25.410  25.851  1.00  0.00     0.019 A 
ATOM     15  Cl  UNL A   1      29.877  23.337  27.214  1.00  0.00    -0.080 Cl
ATOM     16  C   UNL A   1      31.747  25.075  26.249  1.00  0.00     0.146 A 
ATOM     17  C   UNL A   1      33.333  26.770  25.415  1.00  0.00     0.025 C 
ATOM     18  O   UNL A   1      30.735  25.993  26.250  1.00  0.00    -0.474 OA
ATOM     19  C   UNL A   1      30.895  27.156  25.400  1.00  0.00     0.314 C 
BRANCH  19  20
ATOM     20  C   UNL A   1      30.165  26.906  24.067  1.00  0.00     0.429 C 
ATOM     21  F   UNL A   1      29.191  25.975  24.219  1.00  0.00    -0.167 F 
ATOM     22  F   UNL A   1      29.559  28.017  23.582  1.00  0.00    -0.167 F 
ATOM     23  F   UNL A   1      30.998  26.467  23.094  1.00  0.00    -0.167 F 
ENDBRANCH  19  20
ENDBRANCH   5   8
ENDBRANCH   3   4
ENDBRANCH   2   3
ENDBRANCH   1   2
BRANCH   1  24
ATOM     24  N   UNL A   1      32.577  34.012  27.624  1.00  0.00    -0.352 N 
ATOM     25  C   UNL A   1      33.119  34.715  28.671  1.00  0.00     0.251 C 
ATOM     26  H   UNL A   1      31.999  34.538  27.026  1.00  0.00     0.163 HD
ATOM     27  O   UNL A   1      32.653  35.814  28.970  1.00  0.00    -0.269 OA
BRANCH  25  28
ATOM     28  C   UNL A   1      34.256  34.157  29.426  1.00  0.00     0.039 A 
ATOM     29  C   UNL A   1      34.014  33.348  30.539  1.00  0.00     0.014 A 
ATOM     30  C   UNL A   1      35.566  34.460  29.049  1.00  0.00     0.014 A 
ATOM     31  C   UNL A   1      35.090  32.794  31.234  1.00  0.00     0.010 A 
ATOM     32  C   UNL A   1      36.630  33.827  29.677  1.00  0.00     0.010 A 
ATOM     33  C   UNL A   1      36.406  33.005  30.789  1.00  0.00    -0.014 A 
BRANCH  33  34
ATOM     34  C   UNL A   1      37.567  32.399  31.482  1.00  0.00     0.031 A 
ATOM     35  C   UNL A   1      38.320  31.268  30.832  1.00  0.00     0.074 A 
ATOM     36  C   UNL A   1      37.887  32.807  32.726  1.00  0.00     0.049 A 
ATOM     37  N   UNL A   1      39.314  30.565  31.305  1.00  0.00    -0.248 NA
ATOM     38  C   UNL A   1      37.882  30.849  29.488  1.00  0.00     0.031 C 
ATOM     39  C   UNL A   1      37.175  33.837  33.488  1.00  0.00     0.029 A 
ATOM     40  N   UNL A   1      38.877  32.390  33.580  1.00  0.00    -0.354 N 
ATOM     41  C   UNL A   1      39.595  29.607  30.339  1.00  0.00     0.074 A 
ATOM     42  C   UNL A   1      38.644  29.787  29.269  1.00  0.00     0.031 C 
ATOM     43  C   UNL A   1      37.756  33.975  34.691  1.00  0.00     0.029 A 
ATOM     44  C   UNL A   1      38.859  33.025  34.801  1.00  0.00     0.049 A 
ATOM     45  H   UNL A   1      39.538  31.700  33.342  1.00  0.00     0.167 HD
ATOM     46  C   UNL A   1      40.582  28.683  30.331  1.00  0.00     0.034 A 
ATOM     47  C   UNL A   1      39.639  32.856  35.887  1.00  0.00     0.034 A 
ATOM     48  C   UNL A   1      41.566  28.556  31.369  1.00  0.00     0.049 A 
ATOM     49  C   UNL A   1      40.762  31.854  35.825  1.00  0.00     0.074 A 
ATOM     50  C   UNL A   1      42.667  27.720  31.403  1.00  0.00     0.029 A 
ATOM     51  N   UNL A   1      41.571  29.280  32.549  1.00  0.00    -0.354 N 
ATOM     52  N   UNL A   1      41.112  31.071  34.833  1.00  0.00    -0.248 NA
ATOM     53  C   UNL A   1      41.618  31.734  37.014  1.00  0.00     0.031 C 
ATOM     54  C   UNL A   1      43.323  27.918  32.620  1.00  0.00     0.029 A 
ATOM     55  C   UNL A   1      42.649  28.900  33.327  1.00  0.00     0.049 A 
ATOM     56  H   UNL A   1      40.907  29.962  32.797  1.00  0.00     0.167 HD
ATOM     57  C   UNL A   1      42.243  30.389  35.266  1.00  0.00     0.074 A 
ATOM     58  C   UNL A   1      42.536  30.872  36.599  1.00  0.00     0.031 C 
ATOM     59  C   UNL A   1      42.961  29.434  34.628  1.00  0.00     0.034 A 
BRANCH  46  60
ATOM     60  C   UNL A   1      40.712  27.779  29.134  1.00  0.00     0.023 A 
ATOM     61  C   UNL A   1      39.839  26.682  28.998  1.00  0.00     0.012 A 
ATOM     62  C   UNL A   1      41.597  28.095  28.085  1.00  0.00     0.148 A 
ATOM     63  C   UNL A   1      39.848  25.908  27.839  1.00  0.00     0.002 A 
ATOM     64  C   UNL A   1      41.567  27.349  26.914  1.00  0.00     0.091 A 
ATOM     65  F   UNL A   1      42.432  29.133  28.245  1.00  0.00    -0.205 F 
ATOM     66  C   UNL A   1      40.699  26.250  26.793  1.00  0.00     0.022 A 
BRANCH  64  67
ATOM     67  S   UNL A   1      42.553  27.761  25.470  1.00  0.00     0.127 S 
ATOM     68  O   UNL A   1      42.353  26.580  24.629  1.00  0.00    -0.237 OA
ATOM     69  O   UNL A   1      41.892  28.973  24.987  1.00  0.00    -0.237 OA
ATOM     70  O   UNL A   1      43.915  27.951  25.950  1.00  0.00    -0.744 OA
ENDBRANCH  64  67
ENDBRANCH  46  60
BRANCH  47  71
ATOM     71  C   UNL A   1      39.424  33.698  37.100  1.00  0.00     0.023 A 
ATOM     72  C   UNL A   1      39.861  35.037  37.101  1.00  0.00     0.012 A 
ATOM     73  C   UNL A   1      38.766  33.192  38.238  1.00  0.00     0.148 A 
ATOM     74  C   UNL A   1      39.677  35.846  38.224  1.00  0.00     0.002 A 
ATOM     75  C   UNL A   1      38.530  34.021  39.329  1.00  0.00     0.091 A 
ATOM     76  F   UNL A   1      38.370  31.911  38.227  1.00  0.00    -0.205 F 
ATOM     77  C   UNL A   1      39.003  35.343  39.332  1.00  0.00     0.022 A 
BRANCH  75  78
ATOM     78  S   UNL A   1      37.542  33.500  40.736  1.00  0.00     0.127 S 
ATOM     79  O   UNL A   1      38.402  32.491  41.349  1.00  0.00    -0.237 OA
ATOM     80  O   UNL A   1      37.412  34.744  41.494  1.00  0.00    -0.237 OA
ATOM     81  O   UNL A   1      36.291  33.010  40.173  1.00  0.00    -0.744 OA
ENDBRANCH  75  78
ENDBRANCH  47  71
BRANCH  59  82
ATOM     82  C   UNL A   1      44.151  28.845  35.339  1.00  0.00     0.023 A 
ATOM     83  C   UNL A   1      45.412  29.457  35.204  1.00  0.00     0.012 A 
ATOM     84  C   UNL A   1      43.991  27.773  36.240  1.00  0.00     0.148 A 
ATOM     85  C   UNL A   1      46.503  28.997  35.941  1.00  0.00     0.002 A 
ATOM     86  C   UNL A   1      45.069  27.357  37.010  1.00  0.00     0.091 A 
ATOM     87  F   UNL A   1      42.783  27.198  36.342  1.00  0.00    -0.205 F 
ATOM     88  C   UNL A   1      46.328  27.960  36.854  1.00  0.00     0.022 A 
BRANCH  86  89
ATOM     89  S   UNL A   1      44.914  26.108  38.293  1.00  0.00     0.127 S 
ATOM     90  O   UNL A   1      46.275  26.060  38.826  1.00  0.00    -0.237 OA
ATOM     91  O   UNL A   1      43.929  26.708  39.192  1.00  0.00    -0.237 OA
ATOM     92  O   UNL A   1      44.465  24.895  37.624  1.00  0.00    -0.744 OA
ENDBRANCH  86  89
ENDBRANCH  59  82
ENDBRANCH  33  34
ENDBRANCH  25  28
ENDBRANCH   1  24
TORSDOF 14
ENDMDL
MODEL 2
REMARK VINA RESULT:     -12.6      2.417      3.256
REMARK SMILES Cc1cc(Cl)c2c(c1)C=C(C(=O)NCCCNC(=O)c1ccc(-c3c4nc(c(-c5cccc(S(=O)(=O)[O-])c5F)c5ccc([nH]5)c(-c5cccc(S(=O)(=O)[O-])c5F)c5nc(c(-c6cccc(S(=O)(=O)[O-])c6F)c6ccc3[nH]6)C=C5)C=C4)cc1)[C@@H](C(F)(F)F)O2
REMARK SMILES IDX 16 1 15 2 14 3 13 4 11 5 12 6 10 8 1 9 2 10 3 11 8 12 4 13
REMARK SMILES IDX 7 14 5 15 6 16 9 17 88 18 83 19 84 20 85 21 86 22 87 23
REMARK SMILES IDX 17 24 18 25 19 27 20 28 21 29 82 30 22 31 81 32 23 33 24 34
REMARK SMILES IDX 25 35 75 36 26 37 80 38 74 39 76 40 27 41 79 42 73 43 72 44
REMARK SMILES IDX 28 46 60 47 40 48 59 49 41 50 44 51 58 52 77 53 42 54 43 55
REMARK SMILES IDX 57 57 78 58 45 59 29 60 30 61 38 62 31 63 33 64 39 65 32 66
REMARK SMILES IDX 34 67 35 68 36 69 37 70 61 71 62 72 70 73 63 74 65 75 71 76
REMARK SMILES IDX 64 77 66 78 67 79 68 80 69 81 46 82 47 83 55 84 48 85 50 86
REMARK SMILES IDX 56 87 49 88 51 89 52 90 53 91 54 92
REMARK H PARENT 13 7 17 26 76 45 44 56
REMARK Flexibility Score: inf
ROOT
ATOM      1  C   UNL A   1      32.859  29.029  25.220  1.00  0.00     0.118 C 
ENDROOT
BRANCH   1   2
ATOM      2  C   UNL A   1      32.996  28.928  23.706  1.00  0.00     0.042 C 
BRANCH   2   3
ATOM      3  C   UNL A   1      31.919  28.052  23.087  1.00  0.00     0.118 C 
BRANCH   3   4
ATOM      4  N   UNL A   1      32.442  27.196  22.032  1.00  0.00    -0.352 N 
ATOM      5  C   UNL A   1      32.990  25.963  21.940  1.00  0.00     0.251 C 
ATOM      6  O   UNL A   1      33.275  25.596  20.794  1.00  0.00    -0.270 OA
ATOM      7  H   UNL A   1      32.381  27.630  21.152  1.00  0.00     0.163 HD
BRANCH   5   8
ATOM      8  C   UNL A   1      33.253  25.051  23.092  1.00  0.00     0.067 C 
ATOM      9  C   UNL A   1      37.313  20.777  25.000  1.00  0.00     0.044 C 
ATOM     10  C   UNL A   1      36.123  21.686  25.078  1.00  0.00    -0.049 A 
ATOM     11  C   UNL A   1      35.346  21.716  26.243  1.00  0.00     0.028 A 
ATOM     12  C   UNL A   1      35.805  22.552  24.021  1.00  0.00     0.015 A 
ATOM     13  C   UNL A   1      34.263  22.588  26.344  1.00  0.00     0.084 A 
ATOM     14  C   UNL A   1      34.715  23.426  24.119  1.00  0.00     0.019 A 
ATOM     15  Cl  UNL A   1      33.331  22.576  27.799  1.00  0.00    -0.080 Cl
ATOM     16  C   UNL A   1      33.943  23.439  25.283  1.00  0.00     0.146 A 
ATOM     17  C   UNL A   1      34.402  24.353  23.038  1.00  0.00     0.025 C 
ATOM     18  O   UNL A   1      32.900  24.306  25.445  1.00  0.00    -0.474 OA
ATOM     19  C   UNL A   1      32.310  24.864  24.245  1.00  0.00     0.314 C 
BRANCH  19  20
ATOM     20  C   UNL A   1      31.071  24.031  23.862  1.00  0.00     0.429 C 
ATOM     21  F   UNL A   1      30.647  23.288  24.914  1.00  0.00    -0.167 F 
ATOM     22  F   UNL A   1      30.018  24.797  23.486  1.00  0.00    -0.167 F 
ATOM     23  F   UNL A   1      31.315  23.182  22.836  1.00  0.00    -0.167 F 
ENDBRANCH  19  20
ENDBRANCH   5   8
ENDBRANCH   3   4
ENDBRANCH   2   3
ENDBRANCH   1   2
BRANCH   1  24
ATOM     24  N   UNL A   1      32.372  30.345  25.632  1.00  0.00    -0.352 N 
ATOM     25  C   UNL A   1      32.758  31.140  26.682  1.00  0.00     0.251 C 
ATOM     26  H   UNL A   1      31.657  30.719  25.069  1.00  0.00     0.163 HD
ATOM     27  O   UNL A   1      32.039  32.077  27.030  1.00  0.00    -0.269 OA
BRANCH  25  28
ATOM     28  C   UNL A   1      34.027  30.876  27.384  1.00  0.00     0.039 A 
ATOM     29  C   UNL A   1      34.879  31.938  27.694  1.00  0.00     0.014 A 
ATOM     30  C   UNL A   1      34.388  29.567  27.712  1.00  0.00     0.014 A 
ATOM     31  C   UNL A   1      36.064  31.690  28.387  1.00  0.00     0.010 A 
ATOM     32  C   UNL A   1      35.514  29.334  28.489  1.00  0.00     0.010 A 
ATOM     33  C   UNL A   1      36.376  30.390  28.817  1.00  0.00    -0.014 A 
BRANCH  33  34
ATOM     34  C   UNL A   1      37.608  30.101  29.589  1.00  0.00     0.031 A 
ATOM     35  C   UNL A   1      38.639  29.159  29.026  1.00  0.00     0.074 A 
ATOM     36  C   UNL A   1      37.755  30.617  30.825  1.00  0.00     0.049 A 
ATOM     37  N   UNL A   1      39.744  28.729  29.575  1.00  0.00    -0.248 NA
ATOM     38  C   UNL A   1      38.385  28.601  27.685  1.00  0.00     0.031 C 
ATOM     39  C   UNL A   1      36.781  31.475  31.505  1.00  0.00     0.029 A 
ATOM     40  N   UNL A   1      38.768  30.477  31.740  1.00  0.00    -0.354 N 
ATOM     41  C   UNL A   1      40.294  27.831  28.668  1.00  0.00     0.074 A 
ATOM     42  C   UNL A   1      39.386  27.743  27.550  1.00  0.00     0.031 C 
ATOM     43  C   UNL A   1      37.247  31.789  32.724  1.00  0.00     0.029 A 
ATOM     44  C   UNL A   1      38.535  31.132  32.927  1.00  0.00     0.049 A 
ATOM     45  H   UNL A   1      39.585  29.956  31.564  1.00  0.00     0.167 HD
ATOM     46  C   UNL A   1      41.469  27.168  28.747  1.00  0.00     0.034 A 
ATOM     47  C   UNL A   1      39.273  31.192  34.054  1.00  0.00     0.034 A 
ATOM     48  C   UNL A   1      42.398  27.315  29.832  1.00  0.00     0.049 A 
ATOM     49  C   UNL A   1      40.601  30.483  34.089  1.00  0.00     0.074 A 
ATOM     50  C   UNL A   1      43.662  26.765  29.955  1.00  0.00     0.029 A 
ATOM     51  N   UNL A   1      42.169  28.060  30.977  1.00  0.00    -0.354 N 
ATOM     52  N   UNL A   1      41.179  29.771  33.151  1.00  0.00    -0.248 NA
ATOM     53  C   UNL A   1      41.397  30.611  35.319  1.00  0.00     0.031 C 
ATOM     54  C   UNL A   1      44.186  27.156  31.188  1.00  0.00     0.029 A 
ATOM     55  C   UNL A   1      43.263  27.975  31.818  1.00  0.00     0.049 A 
ATOM     56  H   UNL A   1      41.351  28.574  31.163  1.00  0.00     0.167 HD
ATOM     57  C   UNL A   1      42.414  29.392  33.665  1.00  0.00     0.074 A 
ATOM     58  C   UNL A   1      42.513  29.978  34.986  1.00  0.00     0.031 C 
ATOM     59  C   UNL A   1      43.369  28.613  33.105  1.00  0.00     0.034 A 
BRANCH  46  60
ATOM     60  C   UNL A   1      41.873  26.279  27.601  1.00  0.00     0.023 A 
ATOM     61  C   UNL A   1      42.756  26.772  26.621  1.00  0.00     0.012 A 
ATOM     62  C   UNL A   1      41.491  24.923  27.573  1.00  0.00     0.148 A 
ATOM     63  C   UNL A   1      43.250  25.931  25.625  1.00  0.00     0.002 A 
ATOM     64  C   UNL A   1      42.024  24.081  26.606  1.00  0.00     0.091 A 
ATOM     65  F   UNL A   1      40.633  24.482  28.505  1.00  0.00    -0.205 F 
ATOM     66  C   UNL A   1      42.898  24.585  25.626  1.00  0.00     0.022 A 
BRANCH  64  67
ATOM     67  S   UNL A   1      41.711  22.312  26.574  1.00  0.00     0.127 S 
ATOM     68  O   UNL A   1      42.288  21.887  27.850  1.00  0.00    -0.237 OA
ATOM     69  O   UNL A   1      40.250  22.264  26.519  1.00  0.00    -0.237 OA
ATOM     70  O   UNL A   1      42.390  21.801  25.392  1.00  0.00    -0.744 OA
ENDBRANCH  64  67
ENDBRANCH  46  60
BRANCH  47  71
ATOM     71  C   UNL A   1      38.801  32.000  35.215  1.00  0.00     0.023 A 
ATOM     72  C   UNL A   1      38.860  33.406  35.151  1.00  0.00     0.012 A 
ATOM     73  C   UNL A   1      38.268  31.390  36.368  1.00  0.00     0.148 A 
ATOM     74  C   UNL A   1      38.430  34.188  36.225  1.00  0.00     0.002 A 
ATOM     75  C   UNL A   1      37.784  32.176  37.408  1.00  0.00     0.091 A 
ATOM     76  F   UNL A   1      38.233  30.051  36.420  1.00  0.00    -0.205 F 
ATOM     77  C   UNL A   1      37.882  33.574  37.347  1.00  0.00     0.022 A 
BRANCH  75  78
ATOM     78  S   UNL A   1      36.930  31.474  38.824  1.00  0.00     0.127 S 
ATOM     79  O   UNL A   1      37.898  31.690  39.896  1.00  0.00    -0.237 OA
ATOM     80  O   UNL A   1      35.729  32.307  38.898  1.00  0.00    -0.237 OA
ATOM     81  O   UNL A   1      36.670  30.084  38.473  1.00  0.00    -0.744 OA
ENDBRANCH  75  78
ENDBRANCH  47  71
BRANCH  59  82
ATOM     82  C   UNL A   1      44.625  28.348  33.894  1.00  0.00     0.023 A 
ATOM     83  C   UNL A   1      45.689  29.268  33.834  1.00  0.00     0.012 A 
ATOM     84  C   UNL A   1      44.693  27.265  34.794  1.00  0.00     0.148 A 
ATOM     85  C   UNL A   1      46.813  29.102  34.642  1.00  0.00     0.002 A 
ATOM     86  C   UNL A   1      45.790  27.137  35.634  1.00  0.00     0.091 A 
ATOM     87  F   UNL A   1      43.672  26.395  34.824  1.00  0.00    -0.205 F 
ATOM     88  C   UNL A   1      46.857  28.049  35.552  1.00  0.00     0.022 A 
BRANCH  86  89
ATOM     89  S   UNL A   1      45.886  25.882  36.916  1.00  0.00     0.127 S 
ATOM     90  O   UNL A   1      47.182  26.177  37.524  1.00  0.00    -0.237 OA
ATOM     91  O   UNL A   1      44.731  26.207  37.753  1.00  0.00    -0.237 OA
ATOM     92  O   UNL A   1      45.797  24.600  36.231  1.00  0.00    -0.744 OA
ENDBRANCH  86  89
ENDBRANCH  59  82
ENDBRANCH  33  34
ENDBRANCH  25  28
ENDBRANCH   1  24
TORSDOF 14
ENDMDL
MODEL 3
REMARK VINA RESULT:     -12.6      2.635      8.097
REMARK SMILES Cc1cc(Cl)c2c(c1)C=C(C(=O)NCCCNC(=O)c1ccc(-c3c4nc(c(-c5cccc(S(=O)(=O)[O-])c5F)c5ccc([nH]5)c(-c5cccc(S(=O)(=O)[O-])c5F)c5nc(c(-c6cccc(S(=O)(=O)[O-])c6F)c6ccc3[nH]6)C=C5)C=C4)cc1)[C@@H](C(F)(F)F)O2
REMARK SMILES IDX 16 1 15 2 14 3 13 4 11 5 12 6 10 8 1 9 2 10 3 11 8 12 4 13
REMARK SMILES IDX 7 14 5 15 6 16 9 17 88 18 83 19 84 20 85 21 86 22 87 23
REMARK SMILES IDX 17 24 18 25 19 27 20 28 21 29 82 30 22 31 81 32 23 33 24 34
REMARK SMILES IDX 25 35 75 36 26 37 80 38 74 39 76 40 27 41 79 42 73 43 72 44
REMARK SMILES IDX 28 46 60 47 40 48 59 49 41 50 44 51 58 52 77 53 42 54 43 55
REMARK SMILES IDX 57 57 78 58 45 59 29 60 30 61 38 62 31 63 33 64 39 65 32 66
REMARK SMILES IDX 34 67 35 68 36 69 37 70 61 71 62 72 70 73 63 74 65 75 71 76
REMARK SMILES IDX 64 77 66 78 67 79 68 80 69 81 46 82 47 83 55 84 48 85 50 86
REMARK SMILES IDX 56 87 49 88 51 89 52 90 53 91 54 92
REMARK H PARENT 13 7 17 26 76 45 44 56
REMARK Flexibility Score: inf
ROOT
ATOM      1  C   UNL A   1      32.976  29.060  25.479  1.00  0.00     0.118 C 
ENDROOT
BRANCH   1   2
ATOM      2  C   UNL A   1      33.239  28.928  23.984  1.00  0.00     0.042 C 
BRANCH   2   3
ATOM      3  C   UNL A   1      32.086  28.258  23.253  1.00  0.00     0.118 C 
BRANCH   3   4
ATOM      4  N   UNL A   1      32.544  27.409  22.163  1.00  0.00    -0.352 N 
ATOM      5  C   UNL A   1      33.028  26.154  22.022  1.00  0.00     0.251 C 
ATOM      6  O   UNL A   1      33.269  25.807  20.860  1.00  0.00    -0.270 OA
ATOM      7  H   UNL A   1      32.485  27.872  21.297  1.00  0.00     0.163 HD
BRANCH   5   8
ATOM      8  C   UNL A   1      33.269  25.196  23.143  1.00  0.00     0.067 C 
ATOM      9  C   UNL A   1      37.323  20.886  24.980  1.00  0.00     0.044 C 
ATOM     10  C   UNL A   1      36.121  21.778  25.063  1.00  0.00    -0.049 A 
ATOM     11  C   UNL A   1      35.313  21.751  26.206  1.00  0.00     0.028 A 
ATOM     12  C   UNL A   1      35.823  22.686  24.035  1.00  0.00     0.015 A 
ATOM     13  C   UNL A   1      34.217  22.607  26.314  1.00  0.00     0.084 A 
ATOM     14  C   UNL A   1      34.721  23.543  24.139  1.00  0.00     0.019 A 
ATOM     15  Cl  UNL A   1      33.246  22.524  27.740  1.00  0.00    -0.080 Cl
ATOM     16  C   UNL A   1      33.917  23.499  25.281  1.00  0.00     0.146 A 
ATOM     17  C   UNL A   1      34.427  24.513  23.091  1.00  0.00     0.025 C 
ATOM     18  O   UNL A   1      32.860  24.348  25.451  1.00  0.00    -0.474 OA
ATOM     19  C   UNL A   1      32.297  24.951  24.259  1.00  0.00     0.314 C 
BRANCH  19  20
ATOM     20  C   UNL A   1      31.079  24.123  23.807  1.00  0.00     0.429 C 
ATOM     21  F   UNL A   1      30.636  23.329  24.813  1.00  0.00    -0.167 F 
ATOM     22  F   UNL A   1      30.027  24.893  23.438  1.00  0.00    -0.167 F 
ATOM     23  F   UNL A   1      31.359  23.323  22.751  1.00  0.00    -0.167 F 
ENDBRANCH  19  20
ENDBRANCH   5   8
ENDBRANCH   3   4
ENDBRANCH   2   3
ENDBRANCH   1   2
BRANCH   1  24
ATOM     24  N   UNL A   1      32.659  30.438  25.854  1.00  0.00    -0.352 N 
ATOM     25  C   UNL A   1      33.151  31.211  26.875  1.00  0.00     0.251 C 
ATOM     26  H   UNL A   1      31.989  30.879  25.284  1.00  0.00     0.163 HD
ATOM     27  O   UNL A   1      32.557  32.239  27.198  1.00  0.00    -0.269 OA
BRANCH  25  28
ATOM     28  C   UNL A   1      34.385  30.813  27.576  1.00  0.00     0.039 A 
ATOM     29  C   UNL A   1      35.452  31.711  27.657  1.00  0.00     0.014 A 
ATOM     30  C   UNL A   1      34.498  29.536  28.130  1.00  0.00     0.014 A 
ATOM     31  C   UNL A   1      36.608  31.346  28.348  1.00  0.00     0.010 A 
ATOM     32  C   UNL A   1      35.605  29.212  28.903  1.00  0.00     0.010 A 
ATOM     33  C   UNL A   1      36.680  30.105  29.003  1.00  0.00    -0.014 A 
BRANCH  33  34
ATOM     34  C   UNL A   1      37.879  29.704  29.778  1.00  0.00     0.031 A 
ATOM     35  C   UNL A   1      38.109  30.280  31.150  1.00  0.00     0.074 A 
ATOM     36  C   UNL A   1      38.796  28.894  29.213  1.00  0.00     0.049 A 
ATOM     37  N   UNL A   1      39.125  30.106  31.953  1.00  0.00    -0.248 NA
ATOM     38  C   UNL A   1      37.081  31.193  31.681  1.00  0.00     0.031 C 
ATOM     39  C   UNL A   1      38.719  28.343  27.858  1.00  0.00     0.029 A 
ATOM     40  N   UNL A   1      39.986  28.411  29.698  1.00  0.00    -0.354 N 
ATOM     41  C   UNL A   1      38.877  30.910  33.058  1.00  0.00     0.074 A 
ATOM     42  C   UNL A   1      37.635  31.604  32.813  1.00  0.00     0.031 C 
ATOM     43  C   UNL A   1      39.808  27.594  27.624  1.00  0.00     0.029 A 
ATOM     44  C   UNL A   1      40.676  27.635  28.797  1.00  0.00     0.049 A 
ATOM     45  H   UNL A   1      40.314  28.602  30.607  1.00  0.00     0.167 HD
ATOM     46  C   UNL A   1      39.602  31.029  34.193  1.00  0.00     0.034 A 
ATOM     47  C   UNL A   1      41.877  27.030  28.901  1.00  0.00     0.034 A 
ATOM     48  C   UNL A   1      40.800  30.282  34.458  1.00  0.00     0.049 A 
ATOM     49  C   UNL A   1      42.634  27.141  30.198  1.00  0.00     0.074 A 
ATOM     50  C   UNL A   1      41.550  30.256  35.620  1.00  0.00     0.029 A 
ATOM     51  N   UNL A   1      41.421  29.435  33.557  1.00  0.00    -0.354 N 
ATOM     52  N   UNL A   1      42.298  27.775  31.296  1.00  0.00    -0.248 NA
ATOM     53  C   UNL A   1      43.917  26.428  30.287  1.00  0.00     0.031 C 
ATOM     54  C   UNL A   1      42.643  29.413  35.411  1.00  0.00     0.029 A 
ATOM     55  C   UNL A   1      42.554  28.889  34.131  1.00  0.00     0.049 A 
ATOM     56  H   UNL A   1      41.103  29.248  32.644  1.00  0.00     0.167 HD
ATOM     57  C   UNL A   1      43.310  27.515  32.212  1.00  0.00     0.074 A 
ATOM     58  C   UNL A   1      44.257  26.641  31.551  1.00  0.00     0.031 C 
ATOM     59  C   UNL A   1      43.454  27.974  33.478  1.00  0.00     0.034 A 
BRANCH  46  60
ATOM     60  C   UNL A   1      39.093  31.938  35.280  1.00  0.00     0.023 A 
ATOM     61  C   UNL A   1      38.191  31.434  36.238  1.00  0.00     0.012 A 
ATOM     62  C   UNL A   1      39.614  33.238  35.434  1.00  0.00     0.148 A 
ATOM     63  C   UNL A   1      37.808  32.212  37.329  1.00  0.00     0.002 A 
ATOM     64  C   UNL A   1      39.265  33.989  36.549  1.00  0.00     0.091 A 
ATOM     65  F   UNL A   1      40.456  33.703  34.499  1.00  0.00    -0.205 F 
ATOM     66  C   UNL A   1      38.356  33.481  37.494  1.00  0.00     0.022 A 
BRANCH  64  67
ATOM     67  S   UNL A   1      39.985  35.596  36.906  1.00  0.00     0.127 S 
ATOM     68  O   UNL A   1      39.322  35.944  38.163  1.00  0.00    -0.237 OA
ATOM     69  O   UNL A   1      41.405  35.270  37.035  1.00  0.00    -0.237 OA
ATOM     70  O   UNL A   1      39.649  36.451  35.776  1.00  0.00    -0.744 OA
ENDBRANCH  64  67
ENDBRANCH  46  60
BRANCH  47  71
ATOM     71  C   UNL A   1      42.405  26.215  27.769  1.00  0.00     0.023 A 
ATOM     72  C   UNL A   1      43.374  26.768  26.909  1.00  0.00     0.012 A 
ATOM     73  C   UNL A   1      41.977  24.890  27.555  1.00  0.00     0.148 A 
ATOM     74  C   UNL A   1      43.881  26.030  25.838  1.00  0.00     0.002 A 
ATOM     75  C   UNL A   1      42.532  24.139  26.524  1.00  0.00     0.091 A 
ATOM     76  F   UNL A   1      41.043  24.383  28.372  1.00  0.00    -0.205 F 
ATOM     77  C   UNL A   1      43.470  24.714  25.653  1.00  0.00     0.022 A 
BRANCH  75  78
ATOM     78  S   UNL A   1      42.169  22.394  26.304  1.00  0.00     0.127 S 
ATOM     79  O   UNL A   1      42.978  22.063  25.134  1.00  0.00    -0.237 OA
ATOM     80  O   UNL A   1      42.643  21.823  27.565  1.00  0.00    -0.237 OA
ATOM     81  O   UNL A   1      40.725  22.316  26.120  1.00  0.00    -0.744 OA
ENDBRANCH  75  78
ENDBRANCH  47  71
BRANCH  59  82
ATOM     82  C   UNL A   1      44.667  27.539  34.259  1.00  0.00     0.023 A 
ATOM     83  C   UNL A   1      45.808  28.363  34.285  1.00  0.00     0.012 A 
ATOM     84  C   UNL A   1      44.623  26.387  35.070  1.00  0.00     0.148 A 
ATOM     85  C   UNL A   1      46.898  28.036  35.091  1.00  0.00     0.002 A 
ATOM     86  C   UNL A   1      45.690  26.097  35.910  1.00  0.00     0.091 A 
ATOM     87  F   UNL A   1      43.530  25.611  35.020  1.00  0.00    -0.205 F 
ATOM     88  C   UNL A   1      46.833  26.915  35.914  1.00  0.00     0.022 A 
BRANCH  86  89
ATOM     89  S   UNL A   1      45.651  24.742  37.089  1.00  0.00     0.127 S 
ATOM     90  O   UNL A   1      46.898  24.951  37.823  1.00  0.00    -0.237 OA
ATOM     91  O   UNL A   1      44.438  25.032  37.854  1.00  0.00    -0.237 OA
ATOM     92  O   UNL A   1      45.592  23.521  36.298  1.00  0.00    -0.744 OA
ENDBRANCH  86  89
ENDBRANCH  59  82
ENDBRANCH  33  34
ENDBRANCH  25  28
ENDBRANCH   1  24
TORSDOF 14
ENDMDL
