MODEL 1
REMARK VINA RESULT:     -10.5      0.000      0.000
REMARK SMILES C=CCN(CC(=O)NCCCNC(=O)c1ccc(-c2c3nc(c(-c4cccc(S(=O)(=O)[O-])c4F)c4ccc([nH]4)c(-c4cccc(S(=O)(=O)[O-])c4F)c4nc(c(-c5cccc(S(=O)(=O)[O-])c5F)c5ccc2[nH]5)C=C4)C=C3)cc1)S(=O)(=O)Cc1cc(C)on1
REMARK SMILES IDX 9 1 8 2 6 3 7 4 5 6 4 7 3 8 2 9 1 10 78 11 79 12 80 13 81 14
REMARK SMILES IDX 82 15 83 16 87 17 84 18 86 19 85 20 10 21 11 22 12 23 13 24
REMARK SMILES IDX 14 26 15 27 16 28 77 29 17 30 76 31 18 32 19 33 20 34 70 35
REMARK SMILES IDX 21 36 75 37 69 38 71 39 22 40 74 41 68 42 67 43 23 45 55 46
REMARK SMILES IDX 35 47 54 48 36 49 39 50 53 51 72 52 37 53 38 54 52 56 73 57
REMARK SMILES IDX 40 58 24 59 25 60 33 61 26 62 28 63 34 64 27 65 29 66 30 67
REMARK SMILES IDX 31 68 32 69 56 70 57 71 65 72 58 73 60 74 66 75 59 76 61 77
REMARK SMILES IDX 62 78 63 79 64 80 41 81 42 82 50 83 43 84 45 85 51 86 44 87
REMARK SMILES IDX 46 88 47 89 48 90 49 91
REMARK H PARENT 8 5 12 25 71 44 39 55
REMARK Flexibility Score: inf
ROOT
ATOM      1  C   UNL A   1      31.778  29.179  24.774  1.00  0.00     0.117 C 
ENDROOT
BRANCH   1   2
ATOM      2  N   UNL A   1      31.313  29.680  23.494  1.00  0.00    -0.355 N 
ATOM      3  C   UNL A   1      30.483  29.111  22.569  1.00  0.00     0.235 C 
ATOM      4  O   UNL A   1      30.169  29.782  21.581  1.00  0.00    -0.274 OA
ATOM      5  H   UNL A   1      31.651  30.572  23.252  1.00  0.00     0.163 HD
BRANCH   3   6
ATOM      6  C   UNL A   1      29.886  27.726  22.779  1.00  0.00     0.202 C 
BRANCH   6   7
ATOM      7  N   UNL A   1      30.794  26.560  22.997  1.00  0.00    -0.188 NA
BRANCH   7   8
ATOM      8  C   UNL A   1      31.484  26.144  21.762  1.00  0.00     0.129 C 
BRANCH   8   9
ATOM      9  C   UNL A   1      32.969  26.086  21.797  1.00  0.00    -0.018 C 
ATOM     10  C   UNL A   1      33.704  26.267  22.904  1.00  0.00     0.005 C 
ENDBRANCH   8   9
ENDBRANCH   7   8
BRANCH   7  11
ATOM     11  S   UNL A   1      30.370  25.470  24.234  1.00  0.00     0.220 S 
ATOM     12  O   UNL A   1      29.072  25.861  24.734  1.00  0.00    -0.212 OA
ATOM     13  O   UNL A   1      30.592  24.107  23.796  1.00  0.00    -0.212 OA
BRANCH  11  14
ATOM     14  C   UNL A   1      31.619  25.778  25.493  1.00  0.00     0.214 C 
BRANCH  14  15
ATOM     15  C   UNL A   1      32.077  24.556  26.225  1.00  0.00     0.100 A 
ATOM     16  C   UNL A   1      33.223  23.744  26.039  1.00  0.00     0.073 A 
ATOM     17  N   UNL A   1      31.352  24.101  27.262  1.00  0.00    -0.084 NA
ATOM     18  C   UNL A   1      33.170  22.814  27.040  1.00  0.00     0.133 A 
ATOM     19  O   UNL A   1      32.037  23.006  27.762  1.00  0.00    -0.361 OA
ATOM     20  C   UNL A   1      34.069  21.723  27.455  1.00  0.00     0.091 C 
ENDBRANCH  14  15
ENDBRANCH  11  14
ENDBRANCH   7  11
ENDBRANCH   6   7
ENDBRANCH   3   6
ENDBRANCH   1   2
BRANCH   1  21
ATOM     21  C   UNL A   1      33.301  29.160  24.867  1.00  0.00     0.042 C 
BRANCH  21  22
ATOM     22  C   UNL A   1      33.852  29.223  26.280  1.00  0.00     0.118 C 
BRANCH  22  23
ATOM     23  N   UNL A   1      33.785  30.563  26.844  1.00  0.00    -0.352 N 
ATOM     24  C   UNL A   1      34.551  31.170  27.811  1.00  0.00     0.251 C 
ATOM     25  H   UNL A   1      33.071  31.129  26.472  1.00  0.00     0.163 HD
ATOM     26  O   UNL A   1      34.176  32.251  28.263  1.00  0.00    -0.269 OA
BRANCH  24  27
ATOM     27  C   UNL A   1      35.795  30.546  28.329  1.00  0.00     0.039 A 
ATOM     28  C   UNL A   1      36.998  30.792  27.658  1.00  0.00     0.014 A 
ATOM     29  C   UNL A   1      35.791  29.687  29.428  1.00  0.00     0.014 A 
ATOM     30  C   UNL A   1      38.189  30.222  28.121  1.00  0.00     0.010 A 
ATOM     31  C   UNL A   1      36.990  29.209  29.953  1.00  0.00     0.010 A 
ATOM     32  C   UNL A   1      38.203  29.451  29.294  1.00  0.00    -0.014 A 
BRANCH  32  33
ATOM     33  C   UNL A   1      39.466  28.871  29.826  1.00  0.00     0.031 A 
ATOM     34  C   UNL A   1      40.123  29.468  31.046  1.00  0.00     0.074 A 
ATOM     35  C   UNL A   1      40.057  27.845  29.180  1.00  0.00     0.049 A 
ATOM     36  N   UNL A   1      41.244  29.129  31.628  1.00  0.00    -0.248 NA
ATOM     37  C   UNL A   1      39.444  30.611  31.683  1.00  0.00     0.031 C 
ATOM     38  C   UNL A   1      39.561  27.221  27.951  1.00  0.00     0.029 A 
ATOM     39  N   UNL A   1      41.215  27.160  29.454  1.00  0.00    -0.354 N 
ATOM     40  C   UNL A   1      41.421  30.031  32.672  1.00  0.00     0.074 A 
ATOM     41  C   UNL A   1      40.313  30.958  32.621  1.00  0.00     0.031 C 
ATOM     42  C   UNL A   1      40.403  26.240  27.584  1.00  0.00     0.029 A 
ATOM     43  C   UNL A   1      41.517  26.190  28.525  1.00  0.00     0.049 A 
ATOM     44  H   UNL A   1      41.777  27.345  30.241  1.00  0.00     0.167 HD
ATOM     45  C   UNL A   1      42.398  30.069  33.609  1.00  0.00     0.034 A 
ATOM     46  C   UNL A   1      42.577  25.362  28.433  1.00  0.00     0.034 A 
ATOM     47  C   UNL A   1      43.480  29.124  33.682  1.00  0.00     0.049 A 
ATOM     48  C   UNL A   1      43.641  25.417  29.497  1.00  0.00     0.074 A 
ATOM     49  C   UNL A   1      44.478  29.032  34.636  1.00  0.00     0.029 A 
ATOM     50  N   UNL A   1      43.712  28.115  32.762  1.00  0.00    -0.354 N 
ATOM     51  N   UNL A   1      43.709  26.183  30.558  1.00  0.00    -0.248 NA
ATOM     52  C   UNL A   1      44.756  24.468  29.371  1.00  0.00     0.031 C 
ATOM     53  C   UNL A   1      45.334  27.988  34.274  1.00  0.00     0.029 A 
ATOM     54  C   UNL A   1      44.844  27.401  33.119  1.00  0.00     0.049 A 
ATOM     55  H   UNL A   1      43.155  27.931  31.971  1.00  0.00     0.167 HD
ATOM     56  C   UNL A   1      44.849  25.780  31.246  1.00  0.00     0.074 A 
ATOM     57  C   UNL A   1      45.427  24.688  30.492  1.00  0.00     0.031 C 
ATOM     58  C   UNL A   1      45.376  26.279  32.391  1.00  0.00     0.034 A 
BRANCH  45  59
ATOM     59  C   UNL A   1      42.321  31.138  34.669  1.00  0.00     0.023 A 
ATOM     60  C   UNL A   1      41.699  30.853  35.903  1.00  0.00     0.012 A 
ATOM     61  C   UNL A   1      42.927  32.395  34.477  1.00  0.00     0.148 A 
ATOM     62  C   UNL A   1      41.654  31.810  36.915  1.00  0.00     0.002 A 
ATOM     63  C   UNL A   1      42.921  33.327  35.508  1.00  0.00     0.091 A 
ATOM     64  F   UNL A   1      43.499  32.654  33.292  1.00  0.00    -0.205 F 
ATOM     65  C   UNL A   1      42.275  33.041  36.722  1.00  0.00     0.022 A 
BRANCH  63  66
ATOM     66  S   UNL A   1      43.762  34.910  35.395  1.00  0.00     0.127 S 
ATOM     67  O   UNL A   1      45.111  34.500  35.005  1.00  0.00    -0.237 OA
ATOM     68  O   UNL A   1      43.002  35.586  34.343  1.00  0.00    -0.237 OA
ATOM     69  O   UNL A   1      43.656  35.520  36.713  1.00  0.00    -0.744 OA
ENDBRANCH  63  66
ENDBRANCH  45  59
BRANCH  46  70
ATOM     70  C   UNL A   1      42.669  24.376  27.318  1.00  0.00     0.023 A 
ATOM     71  C   UNL A   1      43.367  24.718  26.142  1.00  0.00     0.012 A 
ATOM     72  C   UNL A   1      42.064  23.108  27.410  1.00  0.00     0.148 A 
ATOM     73  C   UNL A   1      43.423  23.835  25.064  1.00  0.00     0.002 A 
ATOM     74  C   UNL A   1      42.176  22.209  26.356  1.00  0.00     0.091 A 
ATOM     75  F   UNL A   1      41.395  22.803  28.530  1.00  0.00    -0.205 F 
ATOM     76  C   UNL A   1      42.834  22.578  25.174  1.00  0.00     0.022 A 
BRANCH  74  77
ATOM     77  S   UNL A   1      41.566  20.522  26.461  1.00  0.00     0.127 S 
ATOM     78  O   UNL A   1      42.280  19.877  25.362  1.00  0.00    -0.237 OA
ATOM     79  O   UNL A   1      42.006  20.127  27.799  1.00  0.00    -0.237 OA
ATOM     80  O   UNL A   1      40.121  20.618  26.310  1.00  0.00    -0.744 OA
ENDBRANCH  74  77
ENDBRANCH  46  70
BRANCH  58  81
ATOM     81  C   UNL A   1      46.612  25.616  32.940  1.00  0.00     0.023 A 
ATOM     82  C   UNL A   1      47.890  26.109  32.604  1.00  0.00     0.012 A 
ATOM     83  C   UNL A   1      46.502  24.545  33.849  1.00  0.00     0.148 A 
ATOM     84  C   UNL A   1      49.037  25.521  33.136  1.00  0.00     0.002 A 
ATOM     85  C   UNL A   1      47.647  24.000  34.417  1.00  0.00     0.091 A 
ATOM     86  F   UNL A   1      45.279  24.080  34.143  1.00  0.00    -0.205 F 
ATOM     87  C   UNL A   1      48.916  24.477  34.049  1.00  0.00     0.022 A 
BRANCH  85  88
ATOM     88  S   UNL A   1      47.585  22.723  35.677  1.00  0.00     0.127 S 
ATOM     89  O   UNL A   1      46.707  21.733  35.054  1.00  0.00    -0.237 OA
ATOM     90  O   UNL A   1      48.986  22.318  35.775  1.00  0.00    -0.237 OA
ATOM     91  O   UNL A   1      47.052  23.361  36.873  1.00  0.00    -0.744 OA
ENDBRANCH  85  88
ENDBRANCH  58  81
ENDBRANCH  32  33
ENDBRANCH  24  27
ENDBRANCH  22  23
ENDBRANCH  21  22
ENDBRANCH   1  21
TORSDOF 19
ENDMDL
MODEL 2
REMARK VINA RESULT:     -10.4      3.094      8.293
REMARK SMILES C=CCN(CC(=O)NCCCNC(=O)c1ccc(-c2c3nc(c(-c4cccc(S(=O)(=O)[O-])c4F)c4ccc([nH]4)c(-c4cccc(S(=O)(=O)[O-])c4F)c4nc(c(-c5cccc(S(=O)(=O)[O-])c5F)c5ccc2[nH]5)C=C4)C=C3)cc1)S(=O)(=O)Cc1cc(C)on1
REMARK SMILES IDX 9 1 8 2 6 3 7 4 5 6 4 7 3 8 2 9 1 10 78 11 79 12 80 13 81 14
REMARK SMILES IDX 82 15 83 16 87 17 84 18 86 19 85 20 10 21 11 22 12 23 13 24
REMARK SMILES IDX 14 26 15 27 16 28 77 29 17 30 76 31 18 32 19 33 20 34 70 35
REMARK SMILES IDX 21 36 75 37 69 38 71 39 22 40 74 41 68 42 67 43 23 45 55 46
REMARK SMILES IDX 35 47 54 48 36 49 39 50 53 51 72 52 37 53 38 54 52 56 73 57
REMARK SMILES IDX 40 58 24 59 25 60 33 61 26 62 28 63 34 64 27 65 29 66 30 67
REMARK SMILES IDX 31 68 32 69 56 70 57 71 65 72 58 73 60 74 66 75 59 76 61 77
REMARK SMILES IDX 62 78 63 79 64 80 41 81 42 82 50 83 43 84 45 85 51 86 44 87
REMARK SMILES IDX 46 88 47 89 48 90 49 91
REMARK H PARENT 8 5 12 25 71 44 39 55
REMARK Flexibility Score: inf
ROOT
ATOM      1  C   UNL A   1      32.098  27.055  26.395  1.00  0.00     0.117 C 
ENDROOT
BRANCH   1   2
ATOM      2  N   UNL A   1      31.001  26.127  26.602  1.00  0.00    -0.355 N 
ATOM      3  C   UNL A   1      30.982  24.761  26.581  1.00  0.00     0.235 C 
ATOM      4  O   UNL A   1      29.926  24.191  26.872  1.00  0.00    -0.274 OA
ATOM      5  H   UNL A   1      30.132  26.549  26.785  1.00  0.00     0.163 HD
BRANCH   3   6
ATOM      6  C   UNL A   1      32.239  23.950  26.296  1.00  0.00     0.202 C 
BRANCH   6   7
ATOM      7  N   UNL A   1      32.746  23.850  24.893  1.00  0.00    -0.188 NA
BRANCH   7   8
ATOM      8  C   UNL A   1      31.656  23.827  23.900  1.00  0.00     0.129 C 
BRANCH   8   9
ATOM      9  C   UNL A   1      31.648  24.899  22.872  1.00  0.00    -0.018 C 
ATOM     10  C   UNL A   1      30.860  25.983  22.919  1.00  0.00     0.005 C 
ENDBRANCH   8   9
ENDBRANCH   7   8
BRANCH   7  11
ATOM     11  S   UNL A   1      34.229  23.046  24.662  1.00  0.00     0.220 S 
ATOM     12  O   UNL A   1      34.257  22.566  23.300  1.00  0.00    -0.212 OA
ATOM     13  O   UNL A   1      35.319  23.856  25.163  1.00  0.00    -0.212 OA
BRANCH  11  14
ATOM     14  C   UNL A   1      34.112  21.649  25.791  1.00  0.00     0.214 C 
BRANCH  14  15
ATOM     15  C   UNL A   1      33.568  20.398  25.177  1.00  0.00     0.100 A 
ATOM     16  C   UNL A   1      34.234  19.286  24.604  1.00  0.00     0.073 A 
ATOM     17  N   UNL A   1      32.238  20.206  25.147  1.00  0.00    -0.084 NA
ATOM     18  C   UNL A   1      33.242  18.405  24.274  1.00  0.00     0.133 A 
ATOM     19  O   UNL A   1      32.040  18.960  24.572  1.00  0.00    -0.361 OA
ATOM     20  C   UNL A   1      33.245  17.047  23.703  1.00  0.00     0.091 C 
ENDBRANCH  14  15
ENDBRANCH  11  14
ENDBRANCH   7  11
ENDBRANCH   6   7
ENDBRANCH   3   6
ENDBRANCH   1   2
BRANCH   1  21
ATOM     21  C   UNL A   1      31.688  28.250  25.540  1.00  0.00     0.042 C 
BRANCH  21  22
ATOM     22  C   UNL A   1      32.765  29.305  25.363  1.00  0.00     0.118 C 
BRANCH  22  23
ATOM     23  N   UNL A   1      32.308  30.636  25.735  1.00  0.00    -0.352 N 
ATOM     24  C   UNL A   1      32.728  31.482  26.733  1.00  0.00     0.251 C 
ATOM     25  H   UNL A   1      31.576  30.987  25.181  1.00  0.00     0.163 HD
ATOM     26  O   UNL A   1      32.053  32.481  26.976  1.00  0.00    -0.269 OA
BRANCH  24  27
ATOM     27  C   UNL A   1      33.954  31.210  27.526  1.00  0.00     0.039 A 
ATOM     28  C   UNL A   1      34.206  29.898  27.941  1.00  0.00     0.014 A 
ATOM     29  C   UNL A   1      34.829  32.227  27.910  1.00  0.00     0.014 A 
ATOM     30  C   UNL A   1      35.353  29.606  28.687  1.00  0.00     0.010 A 
ATOM     31  C   UNL A   1      36.025  31.919  28.558  1.00  0.00     0.010 A 
ATOM     32  C   UNL A   1      36.292  30.609  28.976  1.00  0.00    -0.014 A 
BRANCH  32  33
ATOM     33  C   UNL A   1      37.538  30.311  29.732  1.00  0.00     0.031 A 
ATOM     34  C   UNL A   1      38.587  29.401  29.142  1.00  0.00     0.074 A 
ATOM     35  C   UNL A   1      37.703  30.808  30.975  1.00  0.00     0.049 A 
ATOM     36  N   UNL A   1      39.713  28.990  29.666  1.00  0.00    -0.248 NA
ATOM     37  C   UNL A   1      38.328  28.861  27.795  1.00  0.00     0.031 C 
ATOM     38  C   UNL A   1      36.735  31.644  31.687  1.00  0.00     0.029 A 
ATOM     39  N   UNL A   1      38.736  30.665  31.868  1.00  0.00    -0.354 N 
ATOM     40  C   UNL A   1      40.277  28.125  28.734  1.00  0.00     0.074 A 
ATOM     41  C   UNL A   1      39.351  28.036  27.627  1.00  0.00     0.031 C 
ATOM     42  C   UNL A   1      37.223  31.948  32.902  1.00  0.00     0.029 A 
ATOM     43  C   UNL A   1      38.518  31.298  33.071  1.00  0.00     0.049 A 
ATOM     44  H   UNL A   1      39.555  30.157  31.668  1.00  0.00     0.167 HD
ATOM     45  C   UNL A   1      41.470  27.486  28.778  1.00  0.00     0.034 A 
ATOM     46  C   UNL A   1      39.270  31.340  34.190  1.00  0.00     0.034 A 
ATOM     47  C   UNL A   1      42.407  27.604  29.863  1.00  0.00     0.049 A 
ATOM     48  C   UNL A   1      40.598  30.631  34.204  1.00  0.00     0.074 A 
ATOM     49  C   UNL A   1      43.672  27.055  29.969  1.00  0.00     0.029 A 
ATOM     50  N   UNL A   1      42.177  28.309  31.033  1.00  0.00    -0.354 N 
ATOM     51  N   UNL A   1      41.175  29.938  33.253  1.00  0.00    -0.248 NA
ATOM     52  C   UNL A   1      41.395  30.739  35.435  1.00  0.00     0.031 C 
ATOM     53  C   UNL A   1      44.196  27.401  31.217  1.00  0.00     0.029 A 
ATOM     54  C   UNL A   1      43.274  28.201  31.872  1.00  0.00     0.049 A 
ATOM     55  H   UNL A   1      41.356  28.813  31.239  1.00  0.00     0.167 HD
ATOM     56  C   UNL A   1      42.418  29.565  33.754  1.00  0.00     0.074 A 
ATOM     57  C   UNL A   1      42.518  30.128  35.084  1.00  0.00     0.031 C 
ATOM     58  C   UNL A   1      43.384  28.814  33.170  1.00  0.00     0.034 A 
BRANCH  45  59
ATOM     59  C   UNL A   1      41.860  26.635  27.596  1.00  0.00     0.023 A 
ATOM     60  C   UNL A   1      42.643  27.194  26.564  1.00  0.00     0.012 A 
ATOM     61  C   UNL A   1      41.520  25.269  27.541  1.00  0.00     0.148 A 
ATOM     62  C   UNL A   1      43.054  26.417  25.483  1.00  0.00     0.002 A 
ATOM     63  C   UNL A   1      41.975  24.489  26.485  1.00  0.00     0.091 A 
ATOM     64  F   UNL A   1      40.762  24.760  28.523  1.00  0.00    -0.205 F 
ATOM     65  C   UNL A   1      42.731  25.063  25.449  1.00  0.00     0.022 A 
BRANCH  63  66
ATOM     66  S   UNL A   1      41.685  22.719  26.387  1.00  0.00     0.127 S 
ATOM     67  O   UNL A   1      42.358  22.379  25.133  1.00  0.00    -0.237 OA
ATOM     68  O   UNL A   1      42.358  22.232  27.591  1.00  0.00    -0.237 OA
ATOM     69  O   UNL A   1      40.239  22.545  26.382  1.00  0.00    -0.744 OA
ENDBRANCH  63  66
ENDBRANCH  45  59
BRANCH  46  70
ATOM     70  C   UNL A   1      38.810  32.116  35.377  1.00  0.00     0.023 A 
ATOM     71  C   UNL A   1      38.950  33.518  35.389  1.00  0.00     0.012 A 
ATOM     72  C   UNL A   1      38.242  31.476  36.496  1.00  0.00     0.148 A 
ATOM     73  C   UNL A   1      38.576  34.262  36.509  1.00  0.00     0.002 A 
ATOM     74  C   UNL A   1      37.816  32.229  37.583  1.00  0.00     0.091 A 
ATOM     75  F   UNL A   1      38.127  30.140  36.472  1.00  0.00    -0.205 F 
ATOM     76  C   UNL A   1      38.002  33.618  37.602  1.00  0.00     0.022 A 
BRANCH  74  77
ATOM     77  S   UNL A   1      36.944  31.500  38.975  1.00  0.00     0.127 S 
ATOM     78  O   UNL A   1      35.705  32.273  38.989  1.00  0.00    -0.237 OA
ATOM     79  O   UNL A   1      36.799  30.109  38.544  1.00  0.00    -0.237 OA
ATOM     80  O   UNL A   1      37.819  31.682  40.124  1.00  0.00    -0.744 OA
ENDBRANCH  74  77
ENDBRANCH  46  70
BRANCH  58  81
ATOM     81  C   UNL A   1      44.662  28.598  33.936  1.00  0.00     0.023 A 
ATOM     82  C   UNL A   1      45.692  29.559  33.883  1.00  0.00     0.012 A 
ATOM     83  C   UNL A   1      44.811  27.470  34.769  1.00  0.00     0.148 A 
ATOM     84  C   UNL A   1      46.865  29.381  34.617  1.00  0.00     0.002 A 
ATOM     85  C   UNL A   1      45.959  27.328  35.539  1.00  0.00     0.091 A 
ATOM     86  F   UNL A   1      43.827  26.560  34.793  1.00  0.00    -0.205 F 
ATOM     87  C   UNL A   1      46.992  28.274  35.453  1.00  0.00     0.022 A 
BRANCH  85  88
ATOM     88  S   UNL A   1      46.168  25.989  36.718  1.00  0.00     0.127 S 
ATOM     89  O   UNL A   1      46.347  24.839  35.832  1.00  0.00    -0.237 OA
ATOM     90  O   UNL A   1      47.374  26.398  37.437  1.00  0.00    -0.237 OA
ATOM     91  O   UNL A   1      44.957  25.969  37.526  1.00  0.00    -0.744 OA
ENDBRANCH  85  88
ENDBRANCH  58  81
ENDBRANCH  32  33
ENDBRANCH  24  27
ENDBRANCH  22  23
ENDBRANCH  21  22
ENDBRANCH   1  21
TORSDOF 19
ENDMDL
MODEL 3
REMARK VINA RESULT:     -10.4      5.198      7.966
REMARK SMILES C=CCN(CC(=O)NCCCNC(=O)c1ccc(-c2c3nc(c(-c4cccc(S(=O)(=O)[O-])c4F)c4ccc([nH]4)c(-c4cccc(S(=O)(=O)[O-])c4F)c4nc(c(-c5cccc(S(=O)(=O)[O-])c5F)c5ccc2[nH]5)C=C4)C=C3)cc1)S(=O)(=O)Cc1cc(C)on1
REMARK SMILES IDX 9 1 8 2 6 3 7 4 5 6 4 7 3 8 2 9 1 10 78 11 79 12 80 13 81 14
REMARK SMILES IDX 82 15 83 16 87 17 84 18 86 19 85 20 10 21 11 22 12 23 13 24
REMARK SMILES IDX 14 26 15 27 16 28 77 29 17 30 76 31 18 32 19 33 20 34 70 35
REMARK SMILES IDX 21 36 75 37 69 38 71 39 22 40 74 41 68 42 67 43 23 45 55 46
REMARK SMILES IDX 35 47 54 48 36 49 39 50 53 51 72 52 37 53 38 54 52 56 73 57
REMARK SMILES IDX 40 58 24 59 25 60 33 61 26 62 28 63 34 64 27 65 29 66 30 67
REMARK SMILES IDX 31 68 32 69 56 70 57 71 65 72 58 73 60 74 66 75 59 76 61 77
REMARK SMILES IDX 62 78 63 79 64 80 41 81 42 82 50 83 43 84 45 85 51 86 44 87
REMARK SMILES IDX 46 88 47 89 48 90 49 91
REMARK H PARENT 8 5 12 25 71 44 39 55
REMARK Flexibility Score: inf
ROOT
ATOM      1  C   UNL A   1      33.504  22.716  24.480  1.00  0.00     0.117 C 
ENDROOT
BRANCH   1   2
ATOM      2  N   UNL A   1      32.945  23.074  25.771  1.00  0.00    -0.355 N 
ATOM      3  C   UNL A   1      32.123  24.107  26.124  1.00  0.00     0.235 C 
ATOM      4  O   UNL A   1      31.713  24.151  27.288  1.00  0.00    -0.274 OA
ATOM      5  H   UNL A   1      33.200  22.478  26.511  1.00  0.00     0.163 HD
BRANCH   3   6
ATOM      6  C   UNL A   1      31.646  25.132  25.103  1.00  0.00     0.202 C 
BRANCH   6   7
ATOM      7  N   UNL A   1      32.506  26.315  24.794  1.00  0.00    -0.188 NA
BRANCH   7   8
ATOM      8  C   UNL A   1      33.134  26.886  26.000  1.00  0.00     0.129 C 
BRANCH   8   9
ATOM      9  C   UNL A   1      32.425  28.006  26.672  1.00  0.00    -0.018 C 
ATOM     10  C   UNL A   1      31.471  27.845  27.601  1.00  0.00     0.005 C 
ENDBRANCH   8   9
ENDBRANCH   7   8
BRANCH   7  11
ATOM     11  S   UNL A   1      32.072  27.254  23.442  1.00  0.00     0.220 S 
ATOM     12  O   UNL A   1      32.892  28.442  23.454  1.00  0.00    -0.212 OA
ATOM     13  O   UNL A   1      32.022  26.425  22.254  1.00  0.00    -0.212 OA
BRANCH  11  14
ATOM     14  C   UNL A   1      30.362  27.697  23.788  1.00  0.00     0.214 C 
BRANCH  14  15
ATOM     15  C   UNL A   1      29.884  28.927  23.083  1.00  0.00     0.100 A 
ATOM     16  C   UNL A   1      29.408  30.159  23.597  1.00  0.00     0.073 A 
ATOM     17  N   UNL A   1      29.901  28.963  21.739  1.00  0.00    -0.084 NA
ATOM     18  C   UNL A   1      29.186  30.944  22.499  1.00  0.00     0.133 A 
ATOM     19  O   UNL A   1      29.455  30.225  21.380  1.00  0.00    -0.361 OA
ATOM     20  C   UNL A   1      28.750  32.340  22.327  1.00  0.00     0.091 C 
ENDBRANCH  14  15
ENDBRANCH  11  14
ENDBRANCH   7  11
ENDBRANCH   6   7
ENDBRANCH   3   6
ENDBRANCH   1   2
BRANCH   1  21
ATOM     21  C   UNL A   1      35.027  22.634  24.514  1.00  0.00     0.042 C 
BRANCH  21  22
ATOM     22  C   UNL A   1      35.607  22.135  25.826  1.00  0.00     0.118 C 
BRANCH  22  23
ATOM     23  N   UNL A   1      36.579  21.069  25.634  1.00  0.00    -0.352 N 
ATOM     24  C   UNL A   1      37.953  21.093  25.656  1.00  0.00     0.251 C 
ATOM     25  H   UNL A   1      36.187  20.184  25.459  1.00  0.00     0.163 HD
ATOM     26  O   UNL A   1      38.563  20.097  25.270  1.00  0.00    -0.269 OA
BRANCH  24  27
ATOM     27  C   UNL A   1      38.708  22.289  26.110  1.00  0.00     0.039 A 
ATOM     28  C   UNL A   1      39.863  22.101  26.876  1.00  0.00     0.014 A 
ATOM     29  C   UNL A   1      38.272  23.587  25.840  1.00  0.00     0.014 A 
ATOM     30  C   UNL A   1      40.599  23.206  27.319  1.00  0.00     0.010 A 
ATOM     31  C   UNL A   1      39.063  24.681  26.186  1.00  0.00     0.010 A 
ATOM     32  C   UNL A   1      40.225  24.508  26.950  1.00  0.00    -0.014 A 
BRANCH  32  33
ATOM     33  C   UNL A   1      41.018  25.693  27.374  1.00  0.00     0.031 A 
ATOM     34  C   UNL A   1      40.383  26.773  28.215  1.00  0.00     0.074 A 
ATOM     35  C   UNL A   1      42.293  25.831  26.956  1.00  0.00     0.049 A 
ATOM     36  N   UNL A   1      40.899  27.896  28.643  1.00  0.00    -0.248 NA
ATOM     37  C   UNL A   1      38.975  26.578  28.607  1.00  0.00     0.031 C 
ATOM     38  C   UNL A   1      43.004  24.893  26.084  1.00  0.00     0.029 A 
ATOM     39  N   UNL A   1      43.212  26.824  27.190  1.00  0.00    -0.354 N 
ATOM     40  C   UNL A   1      39.877  28.552  29.322  1.00  0.00     0.074 A 
ATOM     41  C   UNL A   1      38.699  27.722  29.216  1.00  0.00     0.031 C 
ATOM     42  C   UNL A   1      44.248  25.351  25.865  1.00  0.00     0.029 A 
ATOM     43  C   UNL A   1      44.413  26.630  26.546  1.00  0.00     0.049 A 
ATOM     44  H   UNL A   1      43.028  27.603  27.764  1.00  0.00     0.167 HD
ATOM     45  C   UNL A   1      39.921  29.724  30.000  1.00  0.00     0.034 A 
ATOM     46  C   UNL A   1      45.518  27.401  26.499  1.00  0.00     0.034 A 
ATOM     47  C   UNL A   1      41.103  30.531  30.136  1.00  0.00     0.049 A 
ATOM     48  C   UNL A   1      45.542  28.692  27.273  1.00  0.00     0.074 A 
ATOM     49  C   UNL A   1      41.268  31.696  30.863  1.00  0.00     0.029 A 
ATOM     50  N   UNL A   1      42.318  30.265  29.526  1.00  0.00    -0.354 N 
ATOM     51  N   UNL A   1      44.610  29.219  28.029  1.00  0.00    -0.248 NA
ATOM     52  C   UNL A   1      46.784  29.477  27.218  1.00  0.00     0.031 C 
ATOM     53  C   UNL A   1      42.574  32.154  30.666  1.00  0.00     0.029 A 
ATOM     54  C   UNL A   1      43.235  31.249  29.851  1.00  0.00     0.049 A 
ATOM     55  H   UNL A   1      42.502  29.490  28.946  1.00  0.00     0.167 HD
ATOM     56  C   UNL A   1      45.167  30.372  28.571  1.00  0.00     0.074 A 
ATOM     57  C   UNL A   1      46.524  30.454  28.075  1.00  0.00     0.031 C 
ATOM     58  C   UNL A   1      44.601  31.288  29.396  1.00  0.00     0.034 A 
BRANCH  45  59
ATOM     59  C   UNL A   1      38.664  30.186  30.693  1.00  0.00     0.023 A 
ATOM     60  C   UNL A   1      38.498  29.938  32.072  1.00  0.00     0.012 A 
ATOM     61  C   UNL A   1      37.687  30.929  30.003  1.00  0.00     0.148 A 
ATOM     62  C   UNL A   1      37.367  30.395  32.745  1.00  0.00     0.002 A 
ATOM     63  C   UNL A   1      36.585  31.423  30.692  1.00  0.00     0.091 A 
ATOM     64  F   UNL A   1      37.854  31.141  28.690  1.00  0.00    -0.205 F 
ATOM     65  C   UNL A   1      36.417  31.147  32.059  1.00  0.00     0.022 A 
BRANCH  63  66
ATOM     66  S   UNL A   1      35.345  32.471  29.922  1.00  0.00     0.127 S 
ATOM     67  O   UNL A   1      36.135  33.651  29.570  1.00  0.00    -0.237 OA
ATOM     68  O   UNL A   1      34.922  31.658  28.782  1.00  0.00    -0.237 OA
ATOM     69  O   UNL A   1      34.319  32.691  30.932  1.00  0.00    -0.744 OA
ENDBRANCH  63  66
ENDBRANCH  45  59
BRANCH  46  70
ATOM     70  C   UNL A   1      46.713  26.957  25.726  1.00  0.00     0.023 A 
ATOM     71  C   UNL A   1      47.574  25.985  26.272  1.00  0.00     0.012 A 
ATOM     72  C   UNL A   1      47.006  27.495  24.457  1.00  0.00     0.148 A 
ATOM     73  C   UNL A   1      48.727  25.591  25.593  1.00  0.00     0.002 A 
ATOM     74  C   UNL A   1      48.124  27.053  23.759  1.00  0.00     0.091 A 
ATOM     75  F   UNL A   1      46.183  28.427  23.957  1.00  0.00    -0.205 F 
ATOM     76  C   UNL A   1      48.998  26.119  24.333  1.00  0.00     0.022 A 
BRANCH  74  77
ATOM     77  S   UNL A   1      48.476  27.577  22.077  1.00  0.00     0.127 S 
ATOM     78  O   UNL A   1      48.911  26.327  21.459  1.00  0.00    -0.237 OA
ATOM     79  O   UNL A   1      47.168  28.061  21.633  1.00  0.00    -0.237 OA
ATOM     80  O   UNL A   1      49.490  28.615  22.194  1.00  0.00    -0.744 OA
ENDBRANCH  74  77
ENDBRANCH  46  70
BRANCH  58  81
ATOM     81  C   UNL A   1      45.459  32.433  29.866  1.00  0.00     0.023 A 
ATOM     82  C   UNL A   1      46.247  32.300  31.027  1.00  0.00     0.012 A 
ATOM     83  C   UNL A   1      45.538  33.621  29.110  1.00  0.00     0.148 A 
ATOM     84  C   UNL A   1      47.070  33.344  31.448  1.00  0.00     0.002 A 
ATOM     85  C   UNL A   1      46.401  34.635  29.506  1.00  0.00     0.091 A 
ATOM     86  F   UNL A   1      44.769  33.734  28.018  1.00  0.00    -0.205 F 
ATOM     87  C   UNL A   1      47.156  34.503  30.682  1.00  0.00     0.022 A 
BRANCH  85  88
ATOM     88  S   UNL A   1      46.654  36.121  28.530  1.00  0.00     0.127 S 
ATOM     89  O   UNL A   1      45.346  36.768  28.631  1.00  0.00    -0.237 OA
ATOM     90  O   UNL A   1      47.725  36.793  29.264  1.00  0.00    -0.237 OA
ATOM     91  O   UNL A   1      47.023  35.670  27.195  1.00  0.00    -0.744 OA
ENDBRANCH  85  88
ENDBRANCH  58  81
ENDBRANCH  32  33
ENDBRANCH  24  27
ENDBRANCH  22  23
ENDBRANCH  21  22
ENDBRANCH   1  21
TORSDOF 19
ENDMDL
