MODEL 1
REMARK VINA RESULT:     -11.6      0.000      0.000
REMARK SMILES [NH3+][C@@H](CCCCC(=O)NCCCNC(=O)c1ccc(-c2c3nc(c(-c4cccc(S(=O)(=O)[O-])c4F)c4ccc([nH]4)c(-c4cccc(S(=O)(=O)[O-])c4F)c4nc(c(-c5cccc(S(=O)(=O)[O-])c5F)c5ccc2[nH]5)C=C4)C=C3)cc1)c1ccc(-c2ccccc2)cc1
REMARK SMILES IDX 7 1 8 2 9 3 6 5 5 6 4 7 3 8 2 9 1 10 79 14 80 15 90 16 81 17
REMARK SMILES IDX 89 18 82 19 83 20 84 21 88 22 85 23 87 24 86 25 10 26 11 27
REMARK SMILES IDX 12 28 13 29 14 30 15 32 16 33 17 34 78 35 18 36 77 37 19 38
REMARK SMILES IDX 20 39 21 40 71 41 22 42 76 43 70 44 72 45 23 46 75 47 69 48
REMARK SMILES IDX 68 49 24 51 56 52 36 53 55 54 37 55 40 56 54 57 73 58 38 59
REMARK SMILES IDX 39 60 53 62 74 63 41 64 25 65 26 66 34 67 27 68 29 69 35 70
REMARK SMILES IDX 28 71 30 72 31 73 32 74 33 75 57 76 58 77 66 78 59 79 61 80
REMARK SMILES IDX 67 81 60 82 62 83 63 84 64 85 65 86 42 87 43 88 51 89 44 90
REMARK SMILES IDX 46 91 52 92 45 93 47 94 48 95 49 96 50 97
REMARK H PARENT 9 4 1 11 1 12 1 13 13 31 72 50 40 61
REMARK Flexibility Score: inf
ROOT
ATOM      1  C   UNL A   1      37.155  23.254  25.739  1.00  0.00     0.219 C 
ATOM      2  O   UNL A   1      37.769  24.209  26.218  1.00  0.00    -0.275 OA
ATOM      3  N   UNL A   1      37.873  22.206  25.250  1.00  0.00    -0.356 N 
ATOM      4  H   UNL A   1      38.850  22.285  25.336  1.00  0.00     0.163 HD
ENDROOT
BRANCH   1   5
ATOM      5  C   UNL A   1      35.638  23.220  25.724  1.00  0.00     0.100 C 
BRANCH   5   6
ATOM      6  C   UNL A   1      34.987  24.397  24.994  1.00  0.00     0.010 C 
BRANCH   6   7
ATOM      7  C   UNL A   1      34.040  25.355  25.749  1.00  0.00     0.007 C 
BRANCH   7   8
ATOM      8  C   UNL A   1      32.743  25.841  25.073  1.00  0.00     0.070 C 
BRANCH   8   9
ATOM      9  C   UNL A   1      31.456  25.050  25.386  1.00  0.00     0.211 C 
BRANCH   9  10
ATOM     10  N   UNL A   1      31.015  25.263  26.765  1.00  0.00    -0.351 N 
ATOM     11  H   UNL A   1      30.116  24.803  26.909  1.00  0.00     0.345 HD
ATOM     12  H   UNL A   1      30.917  26.263  26.939  1.00  0.00     0.345 HD
ATOM     13  H   UNL A   1      31.704  24.871  27.407  1.00  0.00     0.345 HD
ENDBRANCH   9  10
BRANCH   9  14
ATOM     14  C   UNL A   1      31.643  23.594  25.011  1.00  0.00     0.009 A 
ATOM     15  C   UNL A   1      31.798  22.598  25.980  1.00  0.00     0.010 A 
ATOM     16  C   UNL A   1      31.837  23.252  23.663  1.00  0.00     0.010 A 
ATOM     17  C   UNL A   1      32.223  21.320  25.619  1.00  0.00     0.009 A 
ATOM     18  C   UNL A   1      32.251  21.966  23.304  1.00  0.00     0.009 A 
ATOM     19  C   UNL A   1      32.478  20.985  24.280  1.00  0.00    -0.018 A 
BRANCH  19  20
ATOM     20  C   UNL A   1      32.994  19.650  23.938  1.00  0.00    -0.018 A 
ATOM     21  C   UNL A   1      32.374  18.884  22.936  1.00  0.00     0.009 A 
ATOM     22  C   UNL A   1      34.079  19.081  24.625  1.00  0.00     0.009 A 
ATOM     23  C   UNL A   1      32.811  17.594  22.637  1.00  0.00     0.001 A 
ATOM     24  C   UNL A   1      34.522  17.790  24.324  1.00  0.00     0.001 A 
ATOM     25  C   UNL A   1      33.886  17.047  23.331  1.00  0.00     0.000 A 
ENDBRANCH  19  20
ENDBRANCH   9  14
ENDBRANCH   8   9
ENDBRANCH   7   8
ENDBRANCH   6   7
ENDBRANCH   5   6
ENDBRANCH   1   5
BRANCH   3  26
ATOM     26  C   UNL A   1      37.398  20.993  24.622  1.00  0.00     0.117 C 
BRANCH  26  27
ATOM     27  C   UNL A   1      38.259  19.801  25.004  1.00  0.00     0.042 C 
BRANCH  27  28
ATOM     28  C   UNL A   1      39.250  20.095  26.111  1.00  0.00     0.118 C 
BRANCH  28  29
ATOM     29  N   UNL A   1      40.361  19.157  26.119  1.00  0.00    -0.352 N 
ATOM     30  C   UNL A   1      41.713  19.391  26.160  1.00  0.00     0.251 C 
ATOM     31  H   UNL A   1      40.104  18.207  26.093  1.00  0.00     0.163 HD
ATOM     32  O   UNL A   1      42.486  18.458  25.964  1.00  0.00    -0.269 OA
BRANCH  30  33
ATOM     33  C   UNL A   1      42.237  20.752  26.420  1.00  0.00     0.039 A 
ATOM     34  C   UNL A   1      42.575  21.563  25.333  1.00  0.00     0.014 A 
ATOM     35  C   UNL A   1      42.423  21.227  27.720  1.00  0.00     0.014 A 
ATOM     36  C   UNL A   1      43.054  22.857  25.552  1.00  0.00     0.010 A 
ATOM     37  C   UNL A   1      42.784  22.551  27.935  1.00  0.00     0.010 A 
ATOM     38  C   UNL A   1      43.138  23.371  26.856  1.00  0.00    -0.014 A 
BRANCH  38  39
ATOM     39  C   UNL A   1      43.631  24.747  27.118  1.00  0.00     0.031 A 
ATOM     40  C   UNL A   1      42.688  25.795  27.651  1.00  0.00     0.074 A 
ATOM     41  C   UNL A   1      44.899  25.075  26.805  1.00  0.00     0.049 A 
ATOM     42  N   UNL A   1      42.913  27.060  27.896  1.00  0.00    -0.248 NA
ATOM     43  C   UNL A   1      41.299  25.376  27.912  1.00  0.00     0.031 C 
ATOM     44  C   UNL A   1      45.885  24.172  26.208  1.00  0.00     0.029 A 
ATOM     45  N   UNL A   1      45.571  26.265  26.928  1.00  0.00    -0.354 N 
ATOM     46  C   UNL A   1      41.692  27.593  28.293  1.00  0.00     0.074 A 
ATOM     47  C   UNL A   1      40.718  26.527  28.212  1.00  0.00     0.031 C 
ATOM     48  C   UNL A   1      47.040  24.834  26.032  1.00  0.00     0.029 A 
ATOM     49  C   UNL A   1      46.867  26.216  26.469  1.00  0.00     0.049 A 
ATOM     50  H   UNL A   1      45.164  27.077  27.308  1.00  0.00     0.167 HD
ATOM     51  C   UNL A   1      41.408  28.846  28.718  1.00  0.00     0.034 A 
ATOM     52  C   UNL A   1      47.808  27.178  26.403  1.00  0.00     0.034 A 
ATOM     53  C   UNL A   1      42.390  29.888  28.843  1.00  0.00     0.049 A 
ATOM     54  C   UNL A   1      47.483  28.552  26.921  1.00  0.00     0.074 A 
ATOM     55  C   UNL A   1      42.232  31.163  29.354  1.00  0.00     0.029 A 
ATOM     56  N   UNL A   1      43.712  29.778  28.442  1.00  0.00    -0.354 N 
ATOM     57  N   UNL A   1      46.363  28.994  27.440  1.00  0.00    -0.248 NA
ATOM     58  C   UNL A   1      48.560  29.550  26.878  1.00  0.00     0.031 C 
ATOM     59  C   UNL A   1      43.451  31.836  29.230  1.00  0.00     0.029 A 
ATOM     60  C   UNL A   1      44.380  30.967  28.679  1.00  0.00     0.049 A 
ATOM     61  H   UNL A   1      44.117  28.972  28.046  1.00  0.00     0.167 HD
ATOM     62  C   UNL A   1      46.611  30.309  27.820  1.00  0.00     0.074 A 
ATOM     63  C   UNL A   1      47.994  30.583  27.488  1.00  0.00     0.031 C 
ATOM     64  C   UNL A   1      45.769  31.209  28.384  1.00  0.00     0.034 A 
BRANCH  51  65
ATOM     65  C   UNL A   1      39.985  29.144  29.119  1.00  0.00     0.023 A 
ATOM     66  C   UNL A   1      39.021  29.425  28.128  1.00  0.00     0.012 A 
ATOM     67  C   UNL A   1      39.593  29.113  30.472  1.00  0.00     0.148 A 
ATOM     68  C   UNL A   1      37.704  29.717  28.479  1.00  0.00     0.002 A 
ATOM     69  C   UNL A   1      38.267  29.355  30.809  1.00  0.00     0.091 A 
ATOM     70  F   UNL A   1      40.525  28.866  31.403  1.00  0.00    -0.205 F 
ATOM     71  C   UNL A   1      37.324  29.672  29.818  1.00  0.00     0.022 A 
BRANCH  69  72
ATOM     72  S   UNL A   1      37.661  29.237  32.496  1.00  0.00     0.127 S 
ATOM     73  O   UNL A   1      38.560  30.155  33.196  1.00  0.00    -0.237 OA
ATOM     74  O   UNL A   1      36.284  29.716  32.362  1.00  0.00    -0.237 OA
ATOM     75  O   UNL A   1      37.782  27.836  32.870  1.00  0.00    -0.744 OA
ENDBRANCH  69  72
ENDBRANCH  51  65
BRANCH  52  76
ATOM     76  C   UNL A   1      49.168  26.851  25.890  1.00  0.00     0.023 A 
ATOM     77  C   UNL A   1      50.047  26.095  26.689  1.00  0.00     0.012 A 
ATOM     78  C   UNL A   1      49.581  27.249  24.603  1.00  0.00     0.148 A 
ATOM     79  C   UNL A   1      51.323  25.767  26.231  1.00  0.00     0.002 A 
ATOM     80  C   UNL A   1      50.832  26.870  24.130  1.00  0.00     0.091 A 
ATOM     81  F   UNL A   1      48.732  27.972  23.860  1.00  0.00    -0.205 F 
ATOM     82  C   UNL A   1      51.712  26.145  24.948  1.00  0.00     0.022 A 
BRANCH  80  83
ATOM     83  S   UNL A   1      51.367  27.195  22.446  1.00  0.00     0.127 S 
ATOM     84  O   UNL A   1      52.575  26.380  22.353  1.00  0.00    -0.237 OA
ATOM     85  O   UNL A   1      50.228  26.703  21.671  1.00  0.00    -0.237 OA
ATOM     86  O   UNL A   1      51.570  28.636  22.367  1.00  0.00    -0.744 OA
ENDBRANCH  80  83
ENDBRANCH  52  76
BRANCH  64  87
ATOM     87  C   UNL A   1      46.323  32.569  28.722  1.00  0.00     0.023 A 
ATOM     88  C   UNL A   1      46.989  32.775  29.946  1.00  0.00     0.012 A 
ATOM     89  C   UNL A   1      46.248  33.621  27.788  1.00  0.00     0.148 A 
ATOM     90  C   UNL A   1      47.541  34.018  30.251  1.00  0.00     0.002 A 
ATOM     91  C   UNL A   1      46.849  34.840  28.075  1.00  0.00     0.091 A 
ATOM     92  F   UNL A   1      45.595  33.409  26.636  1.00  0.00    -0.205 F 
ATOM     93  C   UNL A   1      47.483  35.045  29.310  1.00  0.00     0.022 A 
BRANCH  91  94
ATOM     94  S   UNL A   1      46.912  36.185  26.887  1.00  0.00     0.127 S 
ATOM     95  O   UNL A   1      47.796  37.136  27.561  1.00  0.00    -0.237 OA
ATOM     96  O   UNL A   1      47.498  35.535  25.714  1.00  0.00    -0.237 OA
ATOM     97  O   UNL A   1      45.537  36.630  26.708  1.00  0.00    -0.744 OA
ENDBRANCH  91  94
ENDBRANCH  64  87
ENDBRANCH  38  39
ENDBRANCH  30  33
ENDBRANCH  28  29
ENDBRANCH  27  28
ENDBRANCH  26  27
ENDBRANCH   3  26
TORSDOF 20
ENDMDL
MODEL 2
REMARK VINA RESULT:     -11.1      1.591      7.728
REMARK SMILES [NH3+][C@@H](CCCCC(=O)NCCCNC(=O)c1ccc(-c2c3nc(c(-c4cccc(S(=O)(=O)[O-])c4F)c4ccc([nH]4)c(-c4cccc(S(=O)(=O)[O-])c4F)c4nc(c(-c5cccc(S(=O)(=O)[O-])c5F)c5ccc2[nH]5)C=C4)C=C3)cc1)c1ccc(-c2ccccc2)cc1
REMARK SMILES IDX 7 1 8 2 9 3 6 5 5 6 4 7 3 8 2 9 1 10 79 14 80 15 90 16 81 17
REMARK SMILES IDX 89 18 82 19 83 20 84 21 88 22 85 23 87 24 86 25 10 26 11 27
REMARK SMILES IDX 12 28 13 29 14 30 15 32 16 33 17 34 78 35 18 36 77 37 19 38
REMARK SMILES IDX 20 39 21 40 71 41 22 42 76 43 70 44 72 45 23 46 75 47 69 48
REMARK SMILES IDX 68 49 24 51 56 52 36 53 55 54 37 55 40 56 54 57 73 58 38 59
REMARK SMILES IDX 39 60 53 62 74 63 41 64 25 65 26 66 34 67 27 68 29 69 35 70
REMARK SMILES IDX 28 71 30 72 31 73 32 74 33 75 57 76 58 77 66 78 59 79 61 80
REMARK SMILES IDX 67 81 60 82 62 83 63 84 64 85 65 86 42 87 43 88 51 89 44 90
REMARK SMILES IDX 46 91 52 92 45 93 47 94 48 95 49 96 50 97
REMARK H PARENT 9 4 1 11 1 12 1 13 13 31 72 50 40 61
REMARK Flexibility Score: inf
ROOT
ATOM      1  C   UNL A   1      37.496  23.272  25.739  1.00  0.00     0.219 C 
ATOM      2  O   UNL A   1      38.190  24.205  26.146  1.00  0.00    -0.275 OA
ATOM      3  N   UNL A   1      38.123  22.176  25.230  1.00  0.00    -0.356 N 
ATOM      4  H   UNL A   1      39.107  22.206  25.246  1.00  0.00     0.163 HD
ENDROOT
BRANCH   1   5
ATOM      5  C   UNL A   1      35.983  23.318  25.830  1.00  0.00     0.100 C 
BRANCH   5   6
ATOM      6  C   UNL A   1      35.335  24.454  25.033  1.00  0.00     0.010 C 
BRANCH   6   7
ATOM      7  C   UNL A   1      34.167  25.262  25.638  1.00  0.00     0.007 C 
BRANCH   7   8
ATOM      8  C   UNL A   1      32.781  25.225  24.964  1.00  0.00     0.070 C 
BRANCH   8   9
ATOM      9  C   UNL A   1      31.777  24.178  25.491  1.00  0.00     0.211 C 
BRANCH   9  10
ATOM     10  N   UNL A   1      31.387  24.455  26.874  1.00  0.00    -0.351 N 
ATOM     11  H   UNL A   1      32.202  24.372  27.481  1.00  0.00     0.345 HD
ATOM     12  H   UNL A   1      30.676  23.784  27.167  1.00  0.00     0.345 HD
ATOM     13  H   UNL A   1      31.010  25.401  26.939  1.00  0.00     0.345 HD
ENDBRANCH   9  10
BRANCH   9  14
ATOM     14  C   UNL A   1      32.325  22.783  25.267  1.00  0.00     0.009 A 
ATOM     15  C   UNL A   1      32.249  22.154  24.021  1.00  0.00     0.010 A 
ATOM     16  C   UNL A   1      32.766  22.034  26.369  1.00  0.00     0.010 A 
ATOM     17  C   UNL A   1      32.518  20.792  23.898  1.00  0.00     0.009 A 
ATOM     18  C   UNL A   1      33.048  20.671  26.240  1.00  0.00     0.009 A 
ATOM     19  C   UNL A   1      32.901  20.020  25.007  1.00  0.00    -0.018 A 
BRANCH  19  20
ATOM     20  C   UNL A   1      33.111  18.571  24.861  1.00  0.00    -0.018 A 
ATOM     21  C   UNL A   1      33.865  18.066  23.789  1.00  0.00     0.009 A 
ATOM     22  C   UNL A   1      32.531  17.650  25.750  1.00  0.00     0.009 A 
ATOM     23  C   UNL A   1      34.026  16.692  23.602  1.00  0.00     0.001 A 
ATOM     24  C   UNL A   1      32.695  16.274  25.567  1.00  0.00     0.001 A 
ATOM     25  C   UNL A   1      33.441  15.797  24.491  1.00  0.00     0.000 A 
ENDBRANCH  19  20
ENDBRANCH   9  14
ENDBRANCH   8   9
ENDBRANCH   7   8
ENDBRANCH   6   7
ENDBRANCH   5   6
ENDBRANCH   1   5
BRANCH   3  26
ATOM     26  C   UNL A   1      37.544  20.975  24.670  1.00  0.00     0.117 C 
BRANCH  26  27
ATOM     27  C   UNL A   1      38.386  19.754  24.998  1.00  0.00     0.042 C 
BRANCH  27  28
ATOM     28  C   UNL A   1      39.269  19.930  26.215  1.00  0.00     0.118 C 
BRANCH  28  29
ATOM     29  N   UNL A   1      40.540  19.238  26.079  1.00  0.00    -0.352 N 
ATOM     30  C   UNL A   1      41.820  19.735  26.071  1.00  0.00     0.251 C 
ATOM     31  H   UNL A   1      40.473  18.261  25.978  1.00  0.00     0.163 HD
ATOM     32  O   UNL A   1      42.745  18.996  25.749  1.00  0.00    -0.269 OA
BRANCH  30  33
ATOM     33  C   UNL A   1      42.083  21.148  26.427  1.00  0.00     0.039 A 
ATOM     34  C   UNL A   1      42.278  21.480  27.771  1.00  0.00     0.014 A 
ATOM     35  C   UNL A   1      42.115  22.152  25.456  1.00  0.00     0.014 A 
ATOM     36  C   UNL A   1      42.547  22.803  28.129  1.00  0.00     0.010 A 
ATOM     37  C   UNL A   1      42.498  23.443  25.799  1.00  0.00     0.010 A 
ATOM     38  C   UNL A   1      42.685  23.793  27.142  1.00  0.00    -0.014 A 
BRANCH  38  39
ATOM     39  C   UNL A   1      42.983  25.204  27.493  1.00  0.00     0.031 A 
ATOM     40  C   UNL A   1      44.387  25.733  27.354  1.00  0.00     0.074 A 
ATOM     41  C   UNL A   1      42.013  25.985  28.008  1.00  0.00     0.049 A 
ATOM     42  N   UNL A   1      44.856  26.916  27.656  1.00  0.00    -0.248 NA
ATOM     43  C   UNL A   1      45.406  24.801  26.841  1.00  0.00     0.031 C 
ATOM     44  C   UNL A   1      40.635  25.564  28.267  1.00  0.00     0.029 A 
ATOM     45  N   UNL A   1      42.045  27.292  28.426  1.00  0.00    -0.354 N 
ATOM     46  C   UNL A   1      46.224  26.855  27.413  1.00  0.00     0.074 A 
ATOM     47  C   UNL A   1      46.518  25.506  26.984  1.00  0.00     0.031 C 
ATOM     48  C   UNL A   1      39.949  26.597  28.783  1.00  0.00     0.029 A 
ATOM     49  C   UNL A   1      40.845  27.740  28.925  1.00  0.00     0.049 A 
ATOM     50  H   UNL A   1      42.851  27.854  28.374  1.00  0.00     0.167 HD
ATOM     51  C   UNL A   1      47.150  27.838  27.506  1.00  0.00     0.034 A 
ATOM     52  C   UNL A   1      40.506  28.936  29.444  1.00  0.00     0.034 A 
ATOM     53  C   UNL A   1      46.843  29.190  27.886  1.00  0.00     0.049 A 
ATOM     54  C   UNL A   1      41.541  30.026  29.498  1.00  0.00     0.074 A 
ATOM     55  C   UNL A   1      47.685  30.287  27.919  1.00  0.00     0.029 A 
ATOM     56  N   UNL A   1      45.598  29.627  28.311  1.00  0.00    -0.354 N 
ATOM     57  N   UNL A   1      42.794  29.994  29.115  1.00  0.00    -0.248 NA
ATOM     58  C   UNL A   1      41.106  31.329  30.021  1.00  0.00     0.031 C 
ATOM     59  C   UNL A   1      46.956  31.380  28.396  1.00  0.00     0.029 A 
ATOM     60  C   UNL A   1      45.650  30.974  28.622  1.00  0.00     0.049 A 
ATOM     61  H   UNL A   1      44.794  29.062  28.380  1.00  0.00     0.167 HD
ATOM     62  C   UNL A   1      43.288  31.278  29.314  1.00  0.00     0.074 A 
ATOM     63  C   UNL A   1      42.191  32.069  29.835  1.00  0.00     0.031 C 
ATOM     64  C   UNL A   1      44.537  31.757  29.096  1.00  0.00     0.034 A 
BRANCH  51  65
ATOM     65  C   UNL A   1      48.574  27.494  27.150  1.00  0.00     0.023 A 
ATOM     66  C   UNL A   1      49.433  26.955  28.131  1.00  0.00     0.012 A 
ATOM     67  C   UNL A   1      49.055  27.671  25.837  1.00  0.00     0.148 A 
ATOM     68  C   UNL A   1      50.757  26.644  27.825  1.00  0.00     0.002 A 
ATOM     69  C   UNL A   1      50.361  27.311  25.528  1.00  0.00     0.091 A 
ATOM     70  F   UNL A   1      48.234  28.205  24.922  1.00  0.00    -0.205 F 
ATOM     71  C   UNL A   1      51.218  26.812  26.523  1.00  0.00     0.022 A 
BRANCH  69  72
ATOM     72  S   UNL A   1      51.023  27.411  23.862  1.00  0.00     0.127 S 
ATOM     73  O   UNL A   1      49.997  26.705  23.095  1.00  0.00    -0.237 OA
ATOM     74  O   UNL A   1      51.068  28.856  23.635  1.00  0.00    -0.237 OA
ATOM     75  O   UNL A   1      52.327  26.764  23.908  1.00  0.00    -0.744 OA
ENDBRANCH  69  72
ENDBRANCH  51  65
BRANCH  52  76
ATOM     76  C   UNL A   1      39.104  29.183  29.886  1.00  0.00     0.023 A 
ATOM     77  C   UNL A   1      38.719  28.830  31.193  1.00  0.00     0.012 A 
ATOM     78  C   UNL A   1      38.166  29.800  29.036  1.00  0.00     0.148 A 
ATOM     79  C   UNL A   1      37.415  29.057  31.638  1.00  0.00     0.002 A 
ATOM     80  C   UNL A   1      36.886  30.076  29.503  1.00  0.00     0.091 A 
ATOM     81  F   UNL A   1      38.552  30.124  27.794  1.00  0.00    -0.205 F 
ATOM     82  C   UNL A   1      36.503  29.689  30.797  1.00  0.00     0.022 A 
BRANCH  80  83
ATOM     83  S   UNL A   1      35.686  31.004  28.542  1.00  0.00     0.127 S 
ATOM     84  O   UNL A   1      35.133  29.969  27.674  1.00  0.00    -0.237 OA
ATOM     85  O   UNL A   1      34.779  31.489  29.582  1.00  0.00    -0.237 OA
ATOM     86  O   UNL A   1      36.444  32.052  27.870  1.00  0.00    -0.744 OA
ENDBRANCH  80  83
ENDBRANCH  52  76
BRANCH  64  87
ATOM     87  C   UNL A   1      44.786  33.216  29.376  1.00  0.00     0.023 A 
ATOM     88  C   UNL A   1      45.248  33.622  30.644  1.00  0.00     0.012 A 
ATOM     89  C   UNL A   1      44.633  34.175  28.356  1.00  0.00     0.148 A 
ATOM     90  C   UNL A   1      45.521  34.965  30.901  1.00  0.00     0.002 A 
ATOM     91  C   UNL A   1      44.959  35.502  28.602  1.00  0.00     0.091 A 
ATOM     92  F   UNL A   1      44.175  33.770  27.162  1.00  0.00    -0.205 F 
ATOM     93  C   UNL A   1      45.389  35.902  29.877  1.00  0.00     0.022 A 
BRANCH  91  94
ATOM     94  S   UNL A   1      44.917  36.759  27.320  1.00  0.00     0.127 S 
ATOM     95  O   UNL A   1      43.533  36.668  26.859  1.00  0.00    -0.237 OA
ATOM     96  O   UNL A   1      45.233  37.975  28.068  1.00  0.00    -0.237 OA
ATOM     97  O   UNL A   1      45.926  36.371  26.343  1.00  0.00    -0.744 OA
ENDBRANCH  91  94
ENDBRANCH  64  87
ENDBRANCH  38  39
ENDBRANCH  30  33
ENDBRANCH  28  29
ENDBRANCH  27  28
ENDBRANCH  26  27
ENDBRANCH   3  26
TORSDOF 20
ENDMDL
MODEL 3
REMARK VINA RESULT:     -10.9      6.450     11.832
REMARK SMILES [NH3+][C@@H](CCCCC(=O)NCCCNC(=O)c1ccc(-c2c3nc(c(-c4cccc(S(=O)(=O)[O-])c4F)c4ccc([nH]4)c(-c4cccc(S(=O)(=O)[O-])c4F)c4nc(c(-c5cccc(S(=O)(=O)[O-])c5F)c5ccc2[nH]5)C=C4)C=C3)cc1)c1ccc(-c2ccccc2)cc1
REMARK SMILES IDX 7 1 8 2 9 3 6 5 5 6 4 7 3 8 2 9 1 10 79 14 80 15 90 16 81 17
REMARK SMILES IDX 89 18 82 19 83 20 84 21 88 22 85 23 87 24 86 25 10 26 11 27
REMARK SMILES IDX 12 28 13 29 14 30 15 32 16 33 17 34 78 35 18 36 77 37 19 38
REMARK SMILES IDX 20 39 21 40 71 41 22 42 76 43 70 44 72 45 23 46 75 47 69 48
REMARK SMILES IDX 68 49 24 51 56 52 36 53 55 54 37 55 40 56 54 57 73 58 38 59
REMARK SMILES IDX 39 60 53 62 74 63 41 64 25 65 26 66 34 67 27 68 29 69 35 70
REMARK SMILES IDX 28 71 30 72 31 73 32 74 33 75 57 76 58 77 66 78 59 79 61 80
REMARK SMILES IDX 67 81 60 82 62 83 63 84 64 85 65 86 42 87 43 88 51 89 44 90
REMARK SMILES IDX 46 91 52 92 45 93 47 94 48 95 49 96 50 97
REMARK H PARENT 9 4 1 11 1 12 1 13 13 31 72 50 40 61
REMARK Flexibility Score: inf
ROOT
ATOM      1  C   UNL A   1      33.676  28.806  26.867  1.00  0.00     0.219 C 
ATOM      2  O   UNL A   1      34.728  28.687  27.499  1.00  0.00    -0.275 OA
ATOM      3  N   UNL A   1      32.871  29.867  27.149  1.00  0.00    -0.356 N 
ATOM      4  H   UNL A   1      33.208  30.483  27.839  1.00  0.00     0.163 HD
ENDROOT
BRANCH   1   5
ATOM      5  C   UNL A   1      33.297  27.823  25.776  1.00  0.00     0.100 C 
BRANCH   5   6
ATOM      6  C   UNL A   1      33.271  26.359  26.225  1.00  0.00     0.010 C 
BRANCH   6   7
ATOM      7  C   UNL A   1      34.091  25.296  25.463  1.00  0.00     0.007 C 
BRANCH   7   8
ATOM      8  C   UNL A   1      33.408  23.999  24.985  1.00  0.00     0.070 C 
BRANCH   8   9
ATOM      9  C   UNL A   1      32.944  23.957  23.514  1.00  0.00     0.211 C 
BRANCH   9  10
ATOM     10  N   UNL A   1      34.080  23.977  22.591  1.00  0.00    -0.351 N 
ATOM     11  H   UNL A   1      33.860  23.414  21.769  1.00  0.00     0.345 HD
ATOM     12  H   UNL A   1      34.902  23.592  23.056  1.00  0.00     0.345 HD
ATOM     13  H   UNL A   1      34.269  24.938  22.305  1.00  0.00     0.345 HD
ENDBRANCH   9  10
BRANCH   9  14
ATOM     14  C   UNL A   1      31.922  25.046  23.266  1.00  0.00     0.009 A 
ATOM     15  C   UNL A   1      32.235  26.197  22.536  1.00  0.00     0.010 A 
ATOM     16  C   UNL A   1      30.682  24.987  23.923  1.00  0.00     0.010 A 
ATOM     17  C   UNL A   1      31.372  27.292  22.538  1.00  0.00     0.009 A 
ATOM     18  C   UNL A   1      29.814  26.083  23.912  1.00  0.00     0.009 A 
ATOM     19  C   UNL A   1      30.158  27.266  23.242  1.00  0.00    -0.018 A 
BRANCH  19  20
ATOM     20  C   UNL A   1      29.301  28.461  23.284  1.00  0.00    -0.018 A 
ATOM     21  C   UNL A   1      27.910  28.345  23.133  1.00  0.00     0.009 A 
ATOM     22  C   UNL A   1      29.843  29.750  23.426  1.00  0.00     0.009 A 
ATOM     23  C   UNL A   1      27.087  29.472  23.111  1.00  0.00     0.001 A 
ATOM     24  C   UNL A   1      29.020  30.880  23.410  1.00  0.00     0.001 A 
ATOM     25  C   UNL A   1      27.643  30.739  23.251  1.00  0.00     0.000 A 
ENDBRANCH  19  20
ENDBRANCH   9  14
ENDBRANCH   8   9
ENDBRANCH   7   8
ENDBRANCH   6   7
ENDBRANCH   5   6
ENDBRANCH   1   5
BRANCH   3  26
ATOM     26  C   UNL A   1      31.590  30.213  26.576  1.00  0.00     0.117 C 
BRANCH  26  27
ATOM     27  C   UNL A   1      31.380  31.718  26.567  1.00  0.00     0.042 C 
BRANCH  27  28
ATOM     28  C   UNL A   1      32.665  32.515  26.643  1.00  0.00     0.118 C 
BRANCH  28  29
ATOM     29  N   UNL A   1      32.469  33.824  27.242  1.00  0.00    -0.352 N 
ATOM     30  C   UNL A   1      33.064  34.391  28.341  1.00  0.00     0.251 C 
ATOM     31  H   UNL A   1      31.806  34.394  26.788  1.00  0.00     0.163 HD
ATOM     32  O   UNL A   1      32.611  35.438  28.792  1.00  0.00    -0.269 OA
BRANCH  30  33
ATOM     33  C   UNL A   1      34.227  33.741  28.989  1.00  0.00     0.039 A 
ATOM     34  C   UNL A   1      35.447  34.422  29.023  1.00  0.00     0.014 A 
ATOM     35  C   UNL A   1      34.134  32.461  29.540  1.00  0.00     0.014 A 
ATOM     36  C   UNL A   1      36.553  33.837  29.645  1.00  0.00     0.010 A 
ATOM     37  C   UNL A   1      35.198  31.933  30.261  1.00  0.00     0.010 A 
ATOM     38  C   UNL A   1      36.430  32.597  30.293  1.00  0.00    -0.014 A 
BRANCH  38  39
ATOM     39  C   UNL A   1      37.585  31.958  30.973  1.00  0.00     0.031 A 
ATOM     40  C   UNL A   1      38.413  30.931  30.244  1.00  0.00     0.074 A 
ATOM     41  C   UNL A   1      37.842  32.241  32.265  1.00  0.00     0.049 A 
ATOM     42  N   UNL A   1      39.426  30.227  30.680  1.00  0.00    -0.248 NA
ATOM     43  C   UNL A   1      38.033  30.630  28.853  1.00  0.00     0.031 C 
ATOM     44  C   UNL A   1      37.064  33.156  33.103  1.00  0.00     0.029 A 
ATOM     45  N   UNL A   1      38.819  31.771  33.106  1.00  0.00    -0.354 N 
ATOM     46  C   UNL A   1      39.771  29.374  29.638  1.00  0.00     0.074 A 
ATOM     47  C   UNL A   1      38.832  29.614  28.566  1.00  0.00     0.031 C 
ATOM     48  C   UNL A   1      37.604  33.194  34.332  1.00  0.00     0.029 A 
ATOM     49  C   UNL A   1      38.741  32.281  34.381  1.00  0.00     0.049 A 
ATOM     50  H   UNL A   1      39.510  31.129  32.824  1.00  0.00     0.167 HD
ATOM     51  C   UNL A   1      40.795  28.492  29.564  1.00  0.00     0.034 A 
ATOM     52  C   UNL A   1      39.498  32.036  35.469  1.00  0.00     0.034 A 
ATOM     53  C   UNL A   1      41.755  28.293  30.616  1.00  0.00     0.049 A 
ATOM     54  C   UNL A   1      40.656  31.085  35.350  1.00  0.00     0.074 A 
ATOM     55  C   UNL A   1      42.887  27.499  30.610  1.00  0.00     0.029 A 
ATOM     56  N   UNL A   1      41.689  28.887  31.867  1.00  0.00    -0.354 N 
ATOM     57  N   UNL A   1      41.062  30.404  34.306  1.00  0.00    -0.248 NA
ATOM     58  C   UNL A   1      41.484  30.895  36.550  1.00  0.00     0.031 C 
ATOM     59  C   UNL A   1      43.486  27.585  31.869  1.00  0.00     0.029 A 
ATOM     60  C   UNL A   1      42.751  28.466  32.647  1.00  0.00     0.049 A 
ATOM     61  H   UNL A   1      40.989  29.516  32.157  1.00  0.00     0.167 HD
ATOM     62  C   UNL A   1      42.212  29.735  34.709  1.00  0.00     0.074 A 
ATOM     63  C   UNL A   1      42.448  30.108  36.089  1.00  0.00     0.031 C 
ATOM     64  C   UNL A   1      42.996  28.882  34.005  1.00  0.00     0.034 A 
BRANCH  51  65
ATOM     65  C   UNL A   1      40.953  27.708  28.286  1.00  0.00     0.023 A 
ATOM     66  C   UNL A   1      41.550  28.314  27.160  1.00  0.00     0.012 A 
ATOM     67  C   UNL A   1      40.543  26.363  28.207  1.00  0.00     0.148 A 
ATOM     68  C   UNL A   1      41.692  27.611  25.964  1.00  0.00     0.002 A 
ATOM     69  C   UNL A   1      40.734  25.653  27.027  1.00  0.00     0.091 A 
ATOM     70  F   UNL A   1      39.957  25.808  29.277  1.00  0.00    -0.205 F 
ATOM     71  C   UNL A   1      41.293  26.279  25.900  1.00  0.00     0.022 A 
BRANCH  69  72
ATOM     72  S   UNL A   1      40.332  23.910  26.871  1.00  0.00     0.127 S 
ATOM     73  O   UNL A   1      40.715  23.401  28.187  1.00  0.00    -0.237 OA
ATOM     74  O   UNL A   1      38.889  23.948  26.628  1.00  0.00    -0.237 OA
ATOM     75  O   UNL A   1      41.122  23.413  25.753  1.00  0.00    -0.744 OA
ENDBRANCH  69  72
ENDBRANCH  51  65
BRANCH  52  76
ATOM     76  C   UNL A   1      39.223  32.760  36.742  1.00  0.00     0.023 A 
ATOM     77  C   UNL A   1      39.833  34.007  36.974  1.00  0.00     0.012 A 
ATOM     78  C   UNL A   1      38.332  32.241  37.703  1.00  0.00     0.148 A 
ATOM     79  C   UNL A   1      39.587  34.711  38.154  1.00  0.00     0.002 A 
ATOM     80  C   UNL A   1      38.047  32.973  38.849  1.00  0.00     0.091 A 
ATOM     81  F   UNL A   1      37.766  31.049  37.464  1.00  0.00    -0.205 F 
ATOM     82  C   UNL A   1      38.687  34.200  39.085  1.00  0.00     0.022 A 
BRANCH  80  83
ATOM     83  S   UNL A   1      36.804  32.460  40.039  1.00  0.00     0.127 S 
ATOM     84  O   UNL A   1      35.598  32.428  39.216  1.00  0.00    -0.237 OA
ATOM     85  O   UNL A   1      37.307  31.148  40.449  1.00  0.00    -0.237 OA
ATOM     86  O   UNL A   1      36.824  33.467  41.091  1.00  0.00    -0.744 OA
ENDBRANCH  80  83
ENDBRANCH  52  76
BRANCH  64  87
ATOM     87  C   UNL A   1      44.213  28.320  34.693  1.00  0.00     0.023 A 
ATOM     88  C   UNL A   1      45.428  29.032  34.670  1.00  0.00     0.012 A 
ATOM     89  C   UNL A   1      44.126  27.121  35.428  1.00  0.00     0.148 A 
ATOM     90  C   UNL A   1      46.549  28.541  35.339  1.00  0.00     0.002 A 
ATOM     91  C   UNL A   1      45.230  26.667  36.137  1.00  0.00     0.091 A 
ATOM     92  F   UNL A   1      42.965  26.451  35.423  1.00  0.00    -0.205 F 
ATOM     93  C   UNL A   1      46.446  27.367  36.083  1.00  0.00     0.022 A 
BRANCH  91  94
ATOM     94  S   UNL A   1      45.163  25.222  37.202  1.00  0.00     0.127 S 
ATOM     95  O   UNL A   1      46.539  24.734  37.128  1.00  0.00    -0.237 OA
ATOM     96  O   UNL A   1      44.791  25.805  38.492  1.00  0.00    -0.237 OA
ATOM     97  O   UNL A   1      44.156  24.342  36.624  1.00  0.00    -0.744 OA
ENDBRANCH  91  94
ENDBRANCH  64  87
ENDBRANCH  38  39
ENDBRANCH  30  33
ENDBRANCH  28  29
ENDBRANCH  27  28
ENDBRANCH  26  27
ENDBRANCH   3  26
TORSDOF 20
ENDMDL
