MODEL 1
REMARK VINA RESULT:     -10.6      0.000      0.000
REMARK SMILES C[C@H](Cc1cccs1)N(C)C(=O)N1CC[C@@H](CC(=O)NCCCNC(=O)c2ccc(-c3c4nc(c(-c5cccc(S(=O)(=O)[O-])c5F)c5ccc([nH]5)c(-c5cccc(S(=O)(=O)[O-])c5F)c5nc(c(-c6cccc(S(=O)(=O)[O-])c6F)c6ccc3[nH]6)C=C5)C=C4)cc2)C1
REMARK SMILES IDX 18 1 19 2 20 3 17 5 16 6 13 7 14 8 90 9 15 10 11 11 12 12
REMARK SMILES IDX 9 13 10 14 2 15 1 16 3 17 4 18 5 19 8 20 6 21 7 22 21 23
REMARK SMILES IDX 22 24 23 25 24 26 25 27 26 29 27 30 28 31 89 32 29 33 88 34
REMARK SMILES IDX 30 35 31 36 32 37 82 38 33 39 87 40 81 41 83 42 34 43 86 44
REMARK SMILES IDX 80 45 79 46 35 48 67 49 47 50 66 51 48 52 51 53 65 54 84 55
REMARK SMILES IDX 49 56 50 57 64 59 85 60 52 61 36 62 37 63 45 64 38 65 40 66
REMARK SMILES IDX 46 67 39 68 41 69 42 70 43 71 44 72 68 73 69 74 77 75 70 76
REMARK SMILES IDX 72 77 78 78 71 79 73 80 74 81 75 82 76 83 53 84 54 85 62 86
REMARK SMILES IDX 55 87 57 88 63 89 56 90 58 91 59 92 60 93 61 94
REMARK H PARENT 20 4 24 28 83 47 51 58
REMARK Flexibility Score: inf
ROOT
ATOM      1  C   UNL A   1      37.375  23.534  25.585  1.00  0.00     0.220 C 
ATOM      2  O   UNL A   1      37.942  24.378  26.282  1.00  0.00    -0.275 OA
ATOM      3  N   UNL A   1      37.988  22.340  25.385  1.00  0.00    -0.356 N 
ATOM      4  H   UNL A   1      38.862  22.243  25.829  1.00  0.00     0.163 HD
ENDROOT
BRANCH   1   5
ATOM      5  C   UNL A   1      36.002  23.803  25.011  1.00  0.00     0.105 C 
BRANCH   5   6
ATOM      6  C   UNL A   1      34.837  22.955  25.540  1.00  0.00     0.020 C 
ATOM      7  N   UNL A   1      32.621  23.888  25.593  1.00  0.00    -0.324 N 
ATOM      8  C   UNL A   1      32.740  23.179  24.331  1.00  0.00     0.122 C 
ATOM      9  C   UNL A   1      33.799  23.647  26.419  1.00  0.00     0.125 C 
ATOM     10  C   UNL A   1      33.983  22.311  24.446  1.00  0.00     0.027 C 
BRANCH   7  11
ATOM     11  C   UNL A   1      31.596  24.617  26.168  1.00  0.00     0.320 C 
ATOM     12  O   UNL A   1      31.145  24.220  27.248  1.00  0.00    -0.248 OA
BRANCH  11  13
ATOM     13  N   UNL A   1      31.043  25.718  25.533  1.00  0.00    -0.325 N 
ATOM     14  C   UNL A   1      29.639  25.899  25.205  1.00  0.00     0.149 C 
BRANCH  13  15
ATOM     15  C   UNL A   1      31.878  26.945  25.339  1.00  0.00     0.088 C 
ATOM     16  C   UNL A   1      32.523  27.071  23.952  1.00  0.00     0.031 C 
BRANCH  15  17
ATOM     17  C   UNL A   1      32.838  27.281  26.515  1.00  0.00     0.071 C 
BRANCH  17  18
ATOM     18  C   UNL A   1      33.032  28.738  26.841  1.00  0.00     0.007 A 
ATOM     19  C   UNL A   1      32.099  29.758  26.830  1.00  0.00     0.015 A 
ATOM     20  S   UNL A   1      34.549  29.308  27.413  1.00  0.00    -0.149 S 
ATOM     21  C   UNL A   1      32.684  31.032  27.090  1.00  0.00     0.012 A 
ATOM     22  C   UNL A   1      34.035  30.936  27.336  1.00  0.00     0.065 A 
ENDBRANCH  17  18
ENDBRANCH  15  17
ENDBRANCH  13  15
ENDBRANCH  11  13
ENDBRANCH   7  11
ENDBRANCH   5   6
ENDBRANCH   1   5
BRANCH   3  23
ATOM     23  C   UNL A   1      37.564  21.181  24.619  1.00  0.00     0.117 C 
BRANCH  23  24
ATOM     24  C   UNL A   1      38.364  19.942  24.997  1.00  0.00     0.042 C 
BRANCH  24  25
ATOM     25  C   UNL A   1      39.327  20.171  26.153  1.00  0.00     0.118 C 
BRANCH  25  26
ATOM     26  N   UNL A   1      40.453  19.251  26.118  1.00  0.00    -0.352 N 
ATOM     27  C   UNL A   1      41.807  19.490  26.098  1.00  0.00     0.251 C 
ATOM     28  H   UNL A   1      40.204  18.300  26.106  1.00  0.00     0.163 HD
ATOM     29  O   UNL A   1      42.563  18.557  25.829  1.00  0.00    -0.269 OA
BRANCH  27  30
ATOM     30  C   UNL A   1      42.375  20.835  26.373  1.00  0.00     0.039 A 
ATOM     31  C   UNL A   1      42.634  21.197  27.702  1.00  0.00     0.014 A 
ATOM     32  C   UNL A   1      42.582  21.775  25.364  1.00  0.00     0.014 A 
ATOM     33  C   UNL A   1      43.130  22.472  28.002  1.00  0.00     0.010 A 
ATOM     34  C   UNL A   1      43.182  23.001  25.650  1.00  0.00     0.010 A 
ATOM     35  C   UNL A   1      43.432  23.381  26.976  1.00  0.00    -0.014 A 
BRANCH  35  36
ATOM     36  C   UNL A   1      43.950  24.748  27.258  1.00  0.00     0.031 A 
ATOM     37  C   UNL A   1      43.025  25.806  27.811  1.00  0.00     0.074 A 
ATOM     38  C   UNL A   1      45.221  25.069  26.945  1.00  0.00     0.049 A 
ATOM     39  N   UNL A   1      43.256  27.077  28.023  1.00  0.00    -0.248 NA
ATOM     40  C   UNL A   1      41.651  25.389  28.139  1.00  0.00     0.031 C 
ATOM     41  C   UNL A   1      46.203  24.161  26.351  1.00  0.00     0.029 A 
ATOM     42  N   UNL A   1      45.898  26.259  27.059  1.00  0.00    -0.354 N 
ATOM     43  C   UNL A   1      42.050  27.615  28.457  1.00  0.00     0.074 A 
ATOM     44  C   UNL A   1      41.080  26.544  28.447  1.00  0.00     0.031 C 
ATOM     45  C   UNL A   1      47.354  24.823  26.155  1.00  0.00     0.029 A 
ATOM     46  C   UNL A   1      47.184  26.213  26.571  1.00  0.00     0.049 A 
ATOM     47  H   UNL A   1      45.501  27.069  27.452  1.00  0.00     0.167 HD
ATOM     48  C   UNL A   1      41.775  28.881  28.858  1.00  0.00     0.034 A 
ATOM     49  C   UNL A   1      48.115  27.181  26.455  1.00  0.00     0.034 A 
ATOM     50  C   UNL A   1      42.752  29.932  28.926  1.00  0.00     0.049 A 
ATOM     51  C   UNL A   1      47.798  28.570  26.943  1.00  0.00     0.074 A 
ATOM     52  C   UNL A   1      42.594  31.223  29.400  1.00  0.00     0.029 A 
ATOM     53  N   UNL A   1      44.068  29.818  28.506  1.00  0.00    -0.354 N 
ATOM     54  N   UNL A   1      46.690  29.022  27.475  1.00  0.00    -0.248 NA
ATOM     55  C   UNL A   1      48.870  29.572  26.845  1.00  0.00     0.031 C 
ATOM     56  C   UNL A   1      43.809  31.896  29.243  1.00  0.00     0.029 A 
ATOM     57  C   UNL A   1      44.732  31.014  28.704  1.00  0.00     0.049 A 
ATOM     58  H   UNL A   1      44.470  29.004  28.123  1.00  0.00     0.167 HD
ATOM     59  C   UNL A   1      46.946  30.346  27.818  1.00  0.00     0.074 A 
ATOM     60  C   UNL A   1      48.317  30.619  27.442  1.00  0.00     0.031 C 
ATOM     61  C   UNL A   1      46.116  31.254  28.386  1.00  0.00     0.034 A 
BRANCH  48  62
ATOM     62  C   UNL A   1      40.369  29.189  29.306  1.00  0.00     0.023 A 
ATOM     63  C   UNL A   1      39.348  29.349  28.345  1.00  0.00     0.012 A 
ATOM     64  C   UNL A   1      40.043  29.255  30.675  1.00  0.00     0.148 A 
ATOM     65  C   UNL A   1      38.036  29.610  28.738  1.00  0.00     0.002 A 
ATOM     66  C   UNL A   1      38.723  29.467  31.060  1.00  0.00     0.091 A 
ATOM     67  F   UNL A   1      41.027  29.117  31.574  1.00  0.00    -0.205 F 
ATOM     68  C   UNL A   1      37.722  29.658  30.093  1.00  0.00     0.022 A 
BRANCH  66  69
ATOM     69  S   UNL A   1      38.204  29.457  32.779  1.00  0.00     0.127 S 
ATOM     70  O   UNL A   1      37.890  30.870  32.999  1.00  0.00    -0.237 OA
ATOM     71  O   UNL A   1      37.034  28.576  32.740  1.00  0.00    -0.237 OA
ATOM     72  O   UNL A   1      39.328  28.940  33.538  1.00  0.00    -0.744 OA
ENDBRANCH  66  69
ENDBRANCH  48  62
BRANCH  49  73
ATOM     73  C   UNL A   1      49.458  26.854  25.898  1.00  0.00     0.023 A 
ATOM     74  C   UNL A   1      50.390  26.157  26.691  1.00  0.00     0.012 A 
ATOM     75  C   UNL A   1      49.805  27.205  24.579  1.00  0.00     0.148 A 
ATOM     76  C   UNL A   1      51.655  25.843  26.193  1.00  0.00     0.002 A 
ATOM     77  C   UNL A   1      51.044  26.836  24.068  1.00  0.00     0.091 A 
ATOM     78  F   UNL A   1      48.910  27.879  23.844  1.00  0.00    -0.205 F 
ATOM     79  C   UNL A   1      51.978  26.172  24.878  1.00  0.00     0.022 A 
BRANCH  77  80
ATOM     80  S   UNL A   1      51.480  27.088  22.344  1.00  0.00     0.127 S 
ATOM     81  O   UNL A   1      50.266  26.646  21.662  1.00  0.00    -0.237 OA
ATOM     82  O   UNL A   1      51.724  28.529  22.302  1.00  0.00    -0.237 OA
ATOM     83  O   UNL A   1      52.669  26.274  22.119  1.00  0.00    -0.744 OA
ENDBRANCH  77  80
ENDBRANCH  49  73
BRANCH  61  84
ATOM     84  C   UNL A   1      46.670  32.618  28.704  1.00  0.00     0.023 A 
ATOM     85  C   UNL A   1      47.307  32.852  29.937  1.00  0.00     0.012 A 
ATOM     86  C   UNL A   1      46.645  33.637  27.730  1.00  0.00     0.148 A 
ATOM     87  C   UNL A   1      47.891  34.091  30.206  1.00  0.00     0.002 A 
ATOM     88  C   UNL A   1      47.273  34.849  27.986  1.00  0.00     0.091 A 
ATOM     89  F   UNL A   1      46.017  33.397  26.570  1.00  0.00    -0.205 F 
ATOM     90  C   UNL A   1      47.887  35.082  29.227  1.00  0.00     0.022 A 
BRANCH  88  91
ATOM     91  S   UNL A   1      47.405  36.146  26.749  1.00  0.00     0.127 S 
ATOM     92  O   UNL A   1      47.216  37.348  27.560  1.00  0.00    -0.237 OA
ATOM     93  O   UNL A   1      48.765  35.956  26.246  1.00  0.00    -0.237 OA
ATOM     94  O   UNL A   1      46.356  35.882  25.774  1.00  0.00    -0.744 OA
ENDBRANCH  88  91
ENDBRANCH  61  84
ENDBRANCH  35  36
ENDBRANCH  27  30
ENDBRANCH  25  26
ENDBRANCH  24  25
ENDBRANCH  23  24
ENDBRANCH   3  23
TORSDOF 19
ENDMDL
MODEL 2
REMARK VINA RESULT:     -10.5      2.283      7.892
REMARK SMILES C[C@H](Cc1cccs1)N(C)C(=O)N1CC[C@@H](CC(=O)NCCCNC(=O)c2ccc(-c3c4nc(c(-c5cccc(S(=O)(=O)[O-])c5F)c5ccc([nH]5)c(-c5cccc(S(=O)(=O)[O-])c5F)c5nc(c(-c6cccc(S(=O)(=O)[O-])c6F)c6ccc3[nH]6)C=C5)C=C4)cc2)C1
REMARK SMILES IDX 18 1 19 2 20 3 17 5 16 6 13 7 14 8 90 9 15 10 11 11 12 12
REMARK SMILES IDX 9 13 10 14 2 15 1 16 3 17 4 18 5 19 8 20 6 21 7 22 21 23
REMARK SMILES IDX 22 24 23 25 24 26 25 27 26 29 27 30 28 31 89 32 29 33 88 34
REMARK SMILES IDX 30 35 31 36 32 37 82 38 33 39 87 40 81 41 83 42 34 43 86 44
REMARK SMILES IDX 80 45 79 46 35 48 67 49 47 50 66 51 48 52 51 53 65 54 84 55
REMARK SMILES IDX 49 56 50 57 64 59 85 60 52 61 36 62 37 63 45 64 38 65 40 66
REMARK SMILES IDX 46 67 39 68 41 69 42 70 43 71 44 72 68 73 69 74 77 75 70 76
REMARK SMILES IDX 72 77 78 78 71 79 73 80 74 81 75 82 76 83 53 84 54 85 62 86
REMARK SMILES IDX 55 87 57 88 63 89 56 90 58 91 59 92 60 93 61 94
REMARK H PARENT 20 4 24 28 83 47 51 58
REMARK Flexibility Score: inf
ROOT
ATOM      1  C   UNL A   1      37.639  23.085  25.726  1.00  0.00     0.220 C 
ATOM      2  O   UNL A   1      38.126  23.945  26.463  1.00  0.00    -0.275 OA
ATOM      3  N   UNL A   1      38.198  21.849  25.713  1.00  0.00    -0.356 N 
ATOM      4  H   UNL A   1      38.969  21.737  26.316  1.00  0.00     0.163 HD
ENDROOT
BRANCH   1   5
ATOM      5  C   UNL A   1      36.413  23.386  24.893  1.00  0.00     0.105 C 
BRANCH   5   6
ATOM      6  C   UNL A   1      35.050  22.978  25.470  1.00  0.00     0.020 C 
ATOM      7  N   UNL A   1      33.078  24.190  24.819  1.00  0.00    -0.324 N 
ATOM      8  C   UNL A   1      33.185  23.058  23.915  1.00  0.00     0.122 C 
ATOM      9  C   UNL A   1      34.088  24.094  25.868  1.00  0.00     0.125 C 
ATOM     10  C   UNL A   1      34.206  22.116  24.531  1.00  0.00     0.027 C 
BRANCH   7  11
ATOM     11  C   UNL A   1      32.167  25.226  24.925  1.00  0.00     0.320 C 
ATOM     12  O   UNL A   1      31.097  24.993  25.498  1.00  0.00    -0.248 OA
BRANCH  11  13
ATOM     13  N   UNL A   1      32.409  26.467  24.356  1.00  0.00    -0.325 N 
ATOM     14  C   UNL A   1      33.627  27.248  24.495  1.00  0.00     0.149 C 
BRANCH  13  15
ATOM     15  C   UNL A   1      31.458  26.999  23.331  1.00  0.00     0.088 C 
ATOM     16  C   UNL A   1      31.583  26.356  21.943  1.00  0.00     0.031 C 
BRANCH  15  17
ATOM     17  C   UNL A   1      31.322  28.548  23.300  1.00  0.00     0.071 C 
BRANCH  17  18
ATOM     18  C   UNL A   1      30.054  29.109  22.715  1.00  0.00     0.007 A 
ATOM     19  C   UNL A   1      29.908  30.079  21.740  1.00  0.00     0.015 A 
ATOM     20  S   UNL A   1      28.526  28.466  23.167  1.00  0.00    -0.149 S 
ATOM     21  C   UNL A   1      28.542  30.430  21.525  1.00  0.00     0.012 A 
ATOM     22  C   UNL A   1      27.691  29.684  22.308  1.00  0.00     0.065 A 
ENDBRANCH  17  18
ENDBRANCH  15  17
ENDBRANCH  13  15
ENDBRANCH  11  13
ENDBRANCH   7  11
ENDBRANCH   5   6
ENDBRANCH   1   5
BRANCH   3  23
ATOM     23  C   UNL A   1      37.844  20.663  24.954  1.00  0.00     0.117 C 
BRANCH  23  24
ATOM     24  C   UNL A   1      38.738  19.484  25.313  1.00  0.00     0.042 C 
BRANCH  24  25
ATOM     25  C   UNL A   1      39.731  19.794  26.424  1.00  0.00     0.118 C 
BRANCH  25  26
ATOM     26  N   UNL A   1      41.058  19.276  26.131  1.00  0.00    -0.352 N 
ATOM     27  C   UNL A   1      42.263  19.924  25.989  1.00  0.00     0.251 C 
ATOM     28  H   UNL A   1      41.101  18.300  26.016  1.00  0.00     0.163 HD
ATOM     29  O   UNL A   1      43.209  19.302  25.506  1.00  0.00    -0.269 OA
BRANCH  27  30
ATOM     30  C   UNL A   1      42.446  21.345  26.381  1.00  0.00     0.039 A 
ATOM     31  C   UNL A   1      42.498  22.319  25.375  1.00  0.00     0.014 A 
ATOM     32  C   UNL A   1      42.648  21.730  27.706  1.00  0.00     0.014 A 
ATOM     33  C   UNL A   1      42.711  23.664  25.705  1.00  0.00     0.010 A 
ATOM     34  C   UNL A   1      42.746  23.079  28.044  1.00  0.00     0.010 A 
ATOM     35  C   UNL A   1      42.814  24.062  27.047  1.00  0.00    -0.014 A 
BRANCH  35  36
ATOM     36  C   UNL A   1      43.051  25.480  27.434  1.00  0.00     0.031 A 
ATOM     37  C   UNL A   1      44.454  26.040  27.426  1.00  0.00     0.074 A 
ATOM     38  C   UNL A   1      42.030  26.243  27.872  1.00  0.00     0.049 A 
ATOM     39  N   UNL A   1      44.879  27.211  27.828  1.00  0.00    -0.248 NA
ATOM     40  C   UNL A   1      45.523  25.157  26.929  1.00  0.00     0.031 C 
ATOM     41  C   UNL A   1      40.637  25.810  27.987  1.00  0.00     0.029 A 
ATOM     42  N   UNL A   1      42.012  27.539  28.329  1.00  0.00    -0.354 N 
ATOM     43  C   UNL A   1      46.261  27.184  27.682  1.00  0.00     0.074 A 
ATOM     44  C   UNL A   1      46.609  25.872  27.185  1.00  0.00     0.031 C 
ATOM     45  C   UNL A   1      39.900  26.819  28.479  1.00  0.00     0.029 A 
ATOM     46  C   UNL A   1      40.772  27.959  28.752  1.00  0.00     0.049 A 
ATOM     47  H   UNL A   1      42.811  28.113  28.351  1.00  0.00     0.167 HD
ATOM     48  C   UNL A   1      47.163  28.170  27.909  1.00  0.00     0.034 A 
ATOM     49  C   UNL A   1      40.381  29.122  29.311  1.00  0.00     0.034 A 
ATOM     50  C   UNL A   1      46.813  29.494  28.345  1.00  0.00     0.049 A 
ATOM     51  C   UNL A   1      41.395  30.216  29.519  1.00  0.00     0.074 A 
ATOM     52  C   UNL A   1      47.642  30.588  28.521  1.00  0.00     0.029 A 
ATOM     53  N   UNL A   1      45.531  29.905  28.676  1.00  0.00    -0.354 N 
ATOM     54  N   UNL A   1      42.676  30.213  29.246  1.00  0.00    -0.248 NA
ATOM     55  C   UNL A   1      40.903  31.483  30.079  1.00  0.00     0.031 C 
ATOM     56  C   UNL A   1      46.864  31.654  28.983  1.00  0.00     0.029 A 
ATOM     57  C   UNL A   1      45.546  31.233  29.061  1.00  0.00     0.049 A 
ATOM     58  H   UNL A   1      44.729  29.335  28.643  1.00  0.00     0.167 HD
ATOM     59  C   UNL A   1      43.134  31.490  29.557  1.00  0.00     0.074 A 
ATOM     60  C   UNL A   1      41.991  32.241  30.030  1.00  0.00     0.031 C 
ATOM     61  C   UNL A   1      44.391  31.990  29.466  1.00  0.00     0.034 A 
BRANCH  48  62
ATOM     62  C   UNL A   1      48.616  27.872  27.642  1.00  0.00     0.023 A 
ATOM     63  C   UNL A   1      49.426  27.355  28.675  1.00  0.00     0.012 A 
ATOM     64  C   UNL A   1      49.165  28.042  26.355  1.00  0.00     0.148 A 
ATOM     65  C   UNL A   1      50.766  27.050  28.443  1.00  0.00     0.002 A 
ATOM     66  C   UNL A   1      50.490  27.688  26.119  1.00  0.00     0.091 A 
ATOM     67  F   UNL A   1      48.387  28.549  25.389  1.00  0.00    -0.205 F 
ATOM     68  C   UNL A   1      51.295  27.205  27.165  1.00  0.00     0.022 A 
BRANCH  66  69
ATOM     69  S   UNL A   1      51.236  27.768  24.487  1.00  0.00     0.127 S 
ATOM     70  O   UNL A   1      52.501  27.063  24.708  1.00  0.00    -0.237 OA
ATOM     71  O   UNL A   1      50.267  27.033  23.672  1.00  0.00    -0.237 OA
ATOM     72  O   UNL A   1      51.354  29.179  24.166  1.00  0.00    -0.744 OA
ENDBRANCH  66  69
ENDBRANCH  48  62
BRANCH  49  73
ATOM     73  C   UNL A   1      38.949  29.330  29.667  1.00  0.00     0.023 A 
ATOM     74  C   UNL A   1      38.509  29.049  30.974  1.00  0.00     0.012 A 
ATOM     75  C   UNL A   1      38.029  29.830  28.725  1.00  0.00     0.148 A 
ATOM     76  C   UNL A   1      37.173  29.232  31.330  1.00  0.00     0.002 A 
ATOM     77  C   UNL A   1      36.713  30.068  29.103  1.00  0.00     0.091 A 
ATOM     78  F   UNL A   1      38.464  30.080  27.482  1.00  0.00    -0.205 F 
ATOM     79  C   UNL A   1      36.277  29.752  30.399  1.00  0.00     0.022 A 
BRANCH  77  80
ATOM     80  S   UNL A   1      35.536  30.874  28.011  1.00  0.00     0.127 S 
ATOM     81  O   UNL A   1      34.377  31.031  28.886  1.00  0.00    -0.237 OA
ATOM     82  O   UNL A   1      36.234  32.116  27.679  1.00  0.00    -0.237 OA
ATOM     83  O   UNL A   1      35.365  29.966  26.884  1.00  0.00    -0.744 OA
ENDBRANCH  77  80
ENDBRANCH  49  73
BRANCH  61  84
ATOM     84  C   UNL A   1      44.603  33.437  29.821  1.00  0.00     0.023 A 
ATOM     85  C   UNL A   1      45.031  33.792  31.114  1.00  0.00     0.012 A 
ATOM     86  C   UNL A   1      44.473  34.435  28.834  1.00  0.00     0.148 A 
ATOM     87  C   UNL A   1      45.305  35.124  31.428  1.00  0.00     0.002 A 
ATOM     88  C   UNL A   1      44.796  35.752  29.139  1.00  0.00     0.091 A 
ATOM     89  F   UNL A   1      44.046  34.077  27.615  1.00  0.00    -0.205 F 
ATOM     90  C   UNL A   1      45.201  36.100  30.438  1.00  0.00     0.022 A 
BRANCH  88  91
ATOM     91  S   UNL A   1      44.789  37.057  27.904  1.00  0.00     0.127 S 
ATOM     92  O   UNL A   1      45.733  36.535  26.918  1.00  0.00    -0.237 OA
ATOM     93  O   UNL A   1      43.393  37.064  27.470  1.00  0.00    -0.237 OA
ATOM     94  O   UNL A   1      45.215  38.267  28.594  1.00  0.00    -0.744 OA
ENDBRANCH  88  91
ENDBRANCH  61  84
ENDBRANCH  35  36
ENDBRANCH  27  30
ENDBRANCH  25  26
ENDBRANCH  24  25
ENDBRANCH  23  24
ENDBRANCH   3  23
TORSDOF 19
ENDMDL
MODEL 3
REMARK VINA RESULT:      -9.9      1.693      2.056
REMARK SMILES C[C@H](Cc1cccs1)N(C)C(=O)N1CC[C@@H](CC(=O)NCCCNC(=O)c2ccc(-c3c4nc(c(-c5cccc(S(=O)(=O)[O-])c5F)c5ccc([nH]5)c(-c5cccc(S(=O)(=O)[O-])c5F)c5nc(c(-c6cccc(S(=O)(=O)[O-])c6F)c6ccc3[nH]6)C=C5)C=C4)cc2)C1
REMARK SMILES IDX 18 1 19 2 20 3 17 5 16 6 13 7 14 8 90 9 15 10 11 11 12 12
REMARK SMILES IDX 9 13 10 14 2 15 1 16 3 17 4 18 5 19 8 20 6 21 7 22 21 23
REMARK SMILES IDX 22 24 23 25 24 26 25 27 26 29 27 30 28 31 89 32 29 33 88 34
REMARK SMILES IDX 30 35 31 36 32 37 82 38 33 39 87 40 81 41 83 42 34 43 86 44
REMARK SMILES IDX 80 45 79 46 35 48 67 49 47 50 66 51 48 52 51 53 65 54 84 55
REMARK SMILES IDX 49 56 50 57 64 59 85 60 52 61 36 62 37 63 45 64 38 65 40 66
REMARK SMILES IDX 46 67 39 68 41 69 42 70 43 71 44 72 68 73 69 74 77 75 70 76
REMARK SMILES IDX 72 77 78 78 71 79 73 80 74 81 75 82 76 83 53 84 54 85 62 86
REMARK SMILES IDX 55 87 57 88 63 89 56 90 58 91 59 92 60 93 61 94
REMARK H PARENT 20 4 24 28 83 47 51 58
REMARK Flexibility Score: inf
ROOT
ATOM      1  C   UNL A   1      38.639  23.211  26.495  1.00  0.00     0.220 C 
ATOM      2  O   UNL A   1      39.037  23.914  27.427  1.00  0.00    -0.275 OA
ATOM      3  N   UNL A   1      39.147  21.959  26.364  1.00  0.00    -0.356 N 
ATOM      4  H   UNL A   1      39.810  21.708  27.048  1.00  0.00     0.163 HD
ENDROOT
BRANCH   1   5
ATOM      5  C   UNL A   1      37.572  23.713  25.549  1.00  0.00     0.105 C 
BRANCH   5   6
ATOM      6  C   UNL A   1      36.108  23.526  25.974  1.00  0.00     0.020 C 
ATOM      7  N   UNL A   1      34.376  23.572  24.306  1.00  0.00    -0.324 N 
ATOM      8  C   UNL A   1      34.745  22.178  24.480  1.00  0.00     0.122 C 
ATOM      9  C   UNL A   1      35.057  24.400  25.296  1.00  0.00     0.125 C 
ATOM     10  C   UNL A   1      35.569  22.111  25.756  1.00  0.00     0.027 C 
BRANCH   7  11
ATOM     11  C   UNL A   1      33.457  24.206  23.490  1.00  0.00     0.320 C 
ATOM     12  O   UNL A   1      33.698  24.249  22.279  1.00  0.00    -0.248 OA
BRANCH  11  13
ATOM     13  N   UNL A   1      32.335  24.832  24.011  1.00  0.00    -0.325 N 
ATOM     14  C   UNL A   1      31.367  24.236  24.918  1.00  0.00     0.149 C 
BRANCH  13  15
ATOM     15  C   UNL A   1      32.170  26.308  23.828  1.00  0.00     0.088 C 
ATOM     16  C   UNL A   1      33.461  27.061  23.481  1.00  0.00     0.031 C 
BRANCH  15  17
ATOM     17  C   UNL A   1      31.300  27.012  24.908  1.00  0.00     0.071 C 
BRANCH  17  18
ATOM     18  C   UNL A   1      31.973  28.067  25.744  1.00  0.00     0.007 A 
ATOM     19  C   UNL A   1      32.855  27.904  26.796  1.00  0.00     0.015 A 
ATOM     20  S   UNL A   1      31.773  29.733  25.371  1.00  0.00    -0.149 S 
ATOM     21  C   UNL A   1      33.196  29.142  27.416  1.00  0.00     0.012 A 
ATOM     22  C   UNL A   1      32.598  30.211  26.789  1.00  0.00     0.065 A 
ENDBRANCH  17  18
ENDBRANCH  15  17
ENDBRANCH  13  15
ENDBRANCH  11  13
ENDBRANCH   7  11
ENDBRANCH   5   6
ENDBRANCH   1   5
BRANCH   3  23
ATOM     23  C   UNL A   1      38.873  20.931  25.376  1.00  0.00     0.117 C 
BRANCH  23  24
ATOM     24  C   UNL A   1      39.346  19.563  25.852  1.00  0.00     0.042 C 
BRANCH  24  25
ATOM     25  C   UNL A   1      40.631  19.616  26.665  1.00  0.00     0.118 C 
BRANCH  25  26
ATOM     26  N   UNL A   1      41.772  19.108  25.919  1.00  0.00    -0.352 N 
ATOM     27  C   UNL A   1      42.882  19.753  25.426  1.00  0.00     0.251 C 
ATOM     28  H   UNL A   1      41.744  18.141  25.736  1.00  0.00     0.163 HD
ATOM     29  O   UNL A   1      43.597  19.156  24.621  1.00  0.00    -0.269 OA
BRANCH  27  30
ATOM     30  C   UNL A   1      43.228  21.142  25.822  1.00  0.00     0.039 A 
ATOM     31  C   UNL A   1      43.097  22.165  24.874  1.00  0.00     0.014 A 
ATOM     32  C   UNL A   1      43.752  21.448  27.078  1.00  0.00     0.014 A 
ATOM     33  C   UNL A   1      43.453  23.480  25.199  1.00  0.00     0.010 A 
ATOM     34  C   UNL A   1      43.999  22.772  27.439  1.00  0.00     0.010 A 
ATOM     35  C   UNL A   1      43.887  23.802  26.494  1.00  0.00    -0.014 A 
BRANCH  35  36
ATOM     36  C   UNL A   1      44.284  25.186  26.873  1.00  0.00     0.031 A 
ATOM     37  C   UNL A   1      43.266  26.127  27.470  1.00  0.00     0.074 A 
ATOM     38  C   UNL A   1      45.530  25.630  26.610  1.00  0.00     0.049 A 
ATOM     39  N   UNL A   1      43.387  27.396  27.767  1.00  0.00    -0.248 NA
ATOM     40  C   UNL A   1      41.926  25.578  27.740  1.00  0.00     0.031 C 
ATOM     41  C   UNL A   1      46.595  24.845  25.982  1.00  0.00     0.029 A 
ATOM     42  N   UNL A   1      46.103  26.861  26.813  1.00  0.00    -0.354 N 
ATOM     43  C   UNL A   1      42.132  27.805  28.206  1.00  0.00     0.074 A 
ATOM     44  C   UNL A   1      41.255  26.660  28.107  1.00  0.00     0.031 C 
ATOM     45  C   UNL A   1      47.690  25.611  25.854  1.00  0.00     0.029 A 
ATOM     46  C   UNL A   1      47.397  26.952  26.353  1.00  0.00     0.049 A 
ATOM     47  H   UNL A   1      45.634  27.609  27.248  1.00  0.00     0.167 HD
ATOM     48  C   UNL A   1      41.746  29.015  28.680  1.00  0.00     0.034 A 
ATOM     49  C   UNL A   1      48.247  27.998  26.319  1.00  0.00     0.034 A 
ATOM     50  C   UNL A   1      42.631  30.136  28.836  1.00  0.00     0.049 A 
ATOM     51  C   UNL A   1      47.807  29.322  26.886  1.00  0.00     0.074 A 
ATOM     52  C   UNL A   1      42.358  31.376  29.387  1.00  0.00     0.029 A 
ATOM     53  N   UNL A   1      43.959  30.157  28.440  1.00  0.00    -0.354 N 
ATOM     54  N   UNL A   1      46.656  29.647  27.421  1.00  0.00    -0.248 NA
ATOM     55  C   UNL A   1      48.793  30.413  26.876  1.00  0.00     0.031 C 
ATOM     56  C   UNL A   1      43.515  32.156  29.300  1.00  0.00     0.029 A 
ATOM     57  C   UNL A   1      44.517  31.389  28.728  1.00  0.00     0.049 A 
ATOM     58  H   UNL A   1      44.434  29.406  28.015  1.00  0.00     0.167 HD
ATOM     59  C   UNL A   1      46.794  30.963  27.852  1.00  0.00     0.074 A 
ATOM     60  C   UNL A   1      48.144  31.371  27.525  1.00  0.00     0.031 C 
ATOM     61  C   UNL A   1      45.882  31.761  28.457  1.00  0.00     0.034 A 
BRANCH  48  62
ATOM     62  C   UNL A   1      40.312  29.177  29.115  1.00  0.00     0.023 A 
ATOM     63  C   UNL A   1      39.309  29.396  28.147  1.00  0.00     0.012 A 
ATOM     64  C   UNL A   1      39.947  29.049  30.469  1.00  0.00     0.148 A 
ATOM     65  C   UNL A   1      37.973  29.525  28.525  1.00  0.00     0.002 A 
ATOM     66  C   UNL A   1      38.606  29.129  30.832  1.00  0.00     0.091 A 
ATOM     67  F   UNL A   1      40.913  28.857  31.377  1.00  0.00    -0.205 F 
ATOM     68  C   UNL A   1      37.620  29.380  29.863  1.00  0.00     0.022 A 
BRANCH  66  69
ATOM     69  S   UNL A   1      38.043  28.868  32.518  1.00  0.00     0.127 S 
ATOM     70  O   UNL A   1      38.937  29.753  33.266  1.00  0.00    -0.237 OA
ATOM     71  O   UNL A   1      36.653  29.327  32.450  1.00  0.00    -0.237 OA
ATOM     72  O   UNL A   1      38.202  27.450  32.782  1.00  0.00    -0.744 OA
ENDBRANCH  66  69
ENDBRANCH  48  62
BRANCH  49  73
ATOM     73  C   UNL A   1      49.621  27.820  25.773  1.00  0.00     0.023 A 
ATOM     74  C   UNL A   1      49.840  27.938  24.387  1.00  0.00     0.012 A 
ATOM     75  C   UNL A   1      50.715  27.562  26.621  1.00  0.00     0.148 A 
ATOM     76  C   UNL A   1      51.117  27.772  23.851  1.00  0.00     0.002 A 
ATOM     77  C   UNL A   1      51.995  27.458  26.087  1.00  0.00     0.091 A 
ATOM     78  F   UNL A   1      50.486  27.441  27.936  1.00  0.00    -0.205 F 
ATOM     79  C   UNL A   1      52.196  27.543  24.702  1.00  0.00     0.022 A 
BRANCH  77  80
ATOM     80  S   UNL A   1      53.454  27.314  27.125  1.00  0.00     0.127 S 
ATOM     81  O   UNL A   1      54.529  27.412  26.142  1.00  0.00    -0.237 OA
ATOM     82  O   UNL A   1      53.313  28.474  28.006  1.00  0.00    -0.237 OA
ATOM     83  O   UNL A   1      53.325  26.030  27.804  1.00  0.00    -0.744 OA
ENDBRANCH  77  80
ENDBRANCH  49  73
BRANCH  61  84
ATOM     84  C   UNL A   1      46.315  33.142  28.872  1.00  0.00     0.023 A 
ATOM     85  C   UNL A   1      46.937  33.343  30.119  1.00  0.00     0.012 A 
ATOM     86  C   UNL A   1      46.194  34.222  27.975  1.00  0.00     0.148 A 
ATOM     87  C   UNL A   1      47.411  34.606  30.477  1.00  0.00     0.002 A 
ATOM     88  C   UNL A   1      46.713  35.464  28.317  1.00  0.00     0.091 A 
ATOM     89  F   UNL A   1      45.581  34.012  26.800  1.00  0.00    -0.205 F 
ATOM     90  C   UNL A   1      47.312  35.661  29.572  1.00  0.00     0.022 A 
BRANCH  88  91
ATOM     91  S   UNL A   1      46.722  36.853  27.178  1.00  0.00     0.127 S 
ATOM     92  O   UNL A   1      45.293  37.048  26.937  1.00  0.00    -0.237 OA
ATOM     93  O   UNL A   1      47.355  37.903  27.974  1.00  0.00    -0.237 OA
ATOM     94  O   UNL A   1      47.495  36.422  26.021  1.00  0.00    -0.744 OA
ENDBRANCH  88  91
ENDBRANCH  61  84
ENDBRANCH  35  36
ENDBRANCH  27  30
ENDBRANCH  25  26
ENDBRANCH  24  25
ENDBRANCH  23  24
ENDBRANCH   3  23
TORSDOF 19
ENDMDL
