MODEL 1
REMARK VINA RESULT:     -10.1      0.000      0.000
REMARK SMILES Cc1ncccc1C(=O)NCCOCC(=O)NCCCNC(=O)c1ccc(-c2c3nc(c(-c4cccc(S(=O)(=O)[O-])c4F)c4ccc([nH]4)c(-c4cccc(S(=O)(=O)[O-])c4F)c4nc(c(-c5cccc(S(=O)(=O)[O-])c5F)c5ccc2[nH]5)C=C4)C=C3)cc1
REMARK SMILES IDX 18 1 17 2 15 3 16 4 14 6 13 7 12 8 11 9 10 10 8 11 9 12 7 14
REMARK SMILES IDX 1 15 2 16 3 17 4 18 6 19 5 20 19 21 20 22 21 23 22 24 23 26
REMARK SMILES IDX 24 27 25 28 86 29 26 30 85 31 27 32 28 33 29 34 79 35 30 36
REMARK SMILES IDX 84 37 78 38 80 39 31 40 83 41 77 42 76 43 32 45 64 46 44 47
REMARK SMILES IDX 63 48 45 49 48 50 62 51 81 52 46 53 47 54 61 56 82 57 49 58
REMARK SMILES IDX 33 59 34 60 42 61 35 62 37 63 43 64 36 65 38 66 39 67 40 68
REMARK SMILES IDX 41 69 65 70 66 71 74 72 67 73 69 74 75 75 68 76 70 77 71 78
REMARK SMILES IDX 72 79 73 80 50 81 51 82 59 83 52 84 54 85 60 86 53 87 55 88
REMARK SMILES IDX 56 89 57 90 58 91
REMARK H PARENT 17 5 10 13 21 25 80 44 48 55
REMARK Flexibility Score: inf
ROOT
ATOM      1  C   UNL A   1      34.099  34.772  30.126  1.00  0.00     0.117 C 
ENDROOT
BRANCH   1   2
ATOM      2  N   UNL A   1      32.949  35.290  30.844  1.00  0.00    -0.354 N 
ATOM      3  C   UNL A   1      32.924  36.215  31.848  1.00  0.00     0.245 C 
ATOM      4  O   UNL A   1      31.838  36.578  32.300  1.00  0.00    -0.272 OA
ATOM      5  H   UNL A   1      32.076  34.927  30.573  1.00  0.00     0.163 HD
BRANCH   3   6
ATOM      6  C   UNL A   1      34.250  36.759  32.398  1.00  0.00     0.260 C 
BRANCH   6   7
ATOM      7  O   UNL A   1      35.177  35.867  32.997  1.00  0.00    -0.370 OA
BRANCH   7   8
ATOM      8  C   UNL A   1      34.622  34.914  33.905  1.00  0.00     0.182 C 
BRANCH   8   9
ATOM      9  C   UNL A   1      34.751  33.458  33.458  1.00  0.00     0.144 C 
BRANCH   9  10
ATOM     10  N   UNL A   1      35.911  32.752  33.967  1.00  0.00    -0.350 N 
ATOM     11  C   UNL A   1      37.217  32.728  33.559  1.00  0.00     0.253 C 
ATOM     12  O   UNL A   1      38.022  32.076  34.226  1.00  0.00    -0.269 OA
ATOM     13  H   UNL A   1      35.724  32.184  34.749  1.00  0.00     0.163 HD
BRANCH  11  14
ATOM     14  C   UNL A   1      37.704  33.391  32.328  1.00  0.00     0.061 A 
ATOM     15  C   UNL A   1      39.592  34.753  33.397  1.00  0.00     0.067 C 
ATOM     16  C   UNL A   1      38.770  34.290  32.235  1.00  0.00     0.050 A 
ATOM     17  N   UNL A   1      39.179  34.807  31.040  1.00  0.00    -0.261 NA
ATOM     18  C   UNL A   1      38.572  34.377  29.913  1.00  0.00     0.111 A 
ATOM     19  C   UNL A   1      37.122  32.947  31.129  1.00  0.00     0.017 A 
ATOM     20  C   UNL A   1      37.560  33.441  29.905  1.00  0.00     0.021 A 
ENDBRANCH  11  14
ENDBRANCH   9  10
ENDBRANCH   8   9
ENDBRANCH   7   8
ENDBRANCH   6   7
ENDBRANCH   3   6
ENDBRANCH   1   2
BRANCH   1  21
ATOM     21  C   UNL A   1      33.736  34.137  28.787  1.00  0.00     0.042 C 
BRANCH  21  22
ATOM     22  C   UNL A   1      34.673  33.024  28.326  1.00  0.00     0.118 C 
BRANCH  22  23
ATOM     23  N   UNL A   1      33.960  31.834  27.888  1.00  0.00    -0.352 N 
ATOM     24  C   UNL A   1      34.388  30.544  27.710  1.00  0.00     0.251 C 
ATOM     25  H   UNL A   1      33.007  31.981  27.685  1.00  0.00     0.163 HD
ATOM     26  O   UNL A   1      33.649  29.752  27.128  1.00  0.00    -0.269 OA
BRANCH  24  27
ATOM     27  C   UNL A   1      35.712  30.094  28.198  1.00  0.00     0.039 A 
ATOM     28  C   UNL A   1      36.806  30.180  27.331  1.00  0.00     0.014 A 
ATOM     29  C   UNL A   1      35.875  29.524  29.462  1.00  0.00     0.014 A 
ATOM     30  C   UNL A   1      38.062  29.728  27.743  1.00  0.00     0.010 A 
ATOM     31  C   UNL A   1      37.144  29.146  29.901  1.00  0.00     0.010 A 
ATOM     32  C   UNL A   1      38.248  29.223  29.039  1.00  0.00    -0.014 A 
BRANCH  32  33
ATOM     33  C   UNL A   1      39.582  28.753  29.495  1.00  0.00     0.031 A 
ATOM     34  C   UNL A   1      40.308  29.474  30.601  1.00  0.00     0.074 A 
ATOM     35  C   UNL A   1      40.171  27.713  28.873  1.00  0.00     0.049 A 
ATOM     36  N   UNL A   1      41.482  29.217  31.121  1.00  0.00    -0.248 NA
ATOM     37  C   UNL A   1      39.645  30.654  31.179  1.00  0.00     0.031 C 
ATOM     38  C   UNL A   1      39.612  26.984  27.732  1.00  0.00     0.029 A 
ATOM     39  N   UNL A   1      41.378  27.100  29.098  1.00  0.00    -0.354 N 
ATOM     40  C   UNL A   1      41.713  30.220  32.057  1.00  0.00     0.074 A 
ATOM     41  C   UNL A   1      40.574  31.111  32.007  1.00  0.00     0.031 C 
ATOM     42  C   UNL A   1      40.469  26.019  27.364  1.00  0.00     0.029 A 
ATOM     43  C   UNL A   1      41.646  26.071  28.226  1.00  0.00     0.049 A 
ATOM     44  H   UNL A   1      41.994  27.373  29.816  1.00  0.00     0.167 HD
ATOM     45  C   UNL A   1      42.758  30.369  32.905  1.00  0.00     0.034 A 
ATOM     46  C   UNL A   1      42.715  25.256  28.136  1.00  0.00     0.034 A 
ATOM     47  C   UNL A   1      43.862  29.451  32.992  1.00  0.00     0.049 A 
ATOM     48  C   UNL A   1      43.828  25.397  29.140  1.00  0.00     0.074 A 
ATOM     49  C   UNL A   1      44.924  29.463  33.880  1.00  0.00     0.029 A 
ATOM     50  N   UNL A   1      44.048  28.358  32.161  1.00  0.00    -0.354 N 
ATOM     51  N   UNL A   1      43.946  26.251  30.127  1.00  0.00    -0.248 NA
ATOM     52  C   UNL A   1      44.933  24.432  29.044  1.00  0.00     0.031 C 
ATOM     53  C   UNL A   1      45.760  28.381  33.576  1.00  0.00     0.029 A 
ATOM     54  C   UNL A   1      45.208  27.686  32.511  1.00  0.00     0.049 A 
ATOM     55  H   UNL A   1      43.444  28.096  31.429  1.00  0.00     0.167 HD
ATOM     56  C   UNL A   1      45.119  25.907  30.790  1.00  0.00     0.074 A 
ATOM     57  C   UNL A   1      45.658  24.748  30.108  1.00  0.00     0.031 C 
ATOM     58  C   UNL A   1      45.706  26.504  31.857  1.00  0.00     0.034 A 
BRANCH  45  59
ATOM     59  C   UNL A   1      42.723  31.538  33.857  1.00  0.00     0.023 A 
ATOM     60  C   UNL A   1      43.215  32.791  33.436  1.00  0.00     0.012 A 
ATOM     61  C   UNL A   1      42.162  31.415  35.144  1.00  0.00     0.148 A 
ATOM     62  C   UNL A   1      43.184  33.892  34.291  1.00  0.00     0.002 A 
ATOM     63  C   UNL A   1      42.095  32.527  35.974  1.00  0.00     0.091 A 
ATOM     64  F   UNL A   1      41.719  30.212  35.537  1.00  0.00    -0.205 F 
ATOM     65  C   UNL A   1      42.617  33.763  35.555  1.00  0.00     0.022 A 
BRANCH  63  66
ATOM     66  S   UNL A   1      41.312  32.484  37.591  1.00  0.00     0.127 S 
ATOM     67  O   UNL A   1      41.373  33.891  37.986  1.00  0.00    -0.237 OA
ATOM     68  O   UNL A   1      39.970  31.998  37.272  1.00  0.00    -0.237 OA
ATOM     69  O   UNL A   1      42.111  31.572  38.398  1.00  0.00    -0.744 OA
ENDBRANCH  63  66
ENDBRANCH  45  59
BRANCH  46  70
ATOM     70  C   UNL A   1      42.741  24.174  27.111  1.00  0.00     0.023 A 
ATOM     71  C   UNL A   1      43.449  24.378  25.911  1.00  0.00     0.012 A 
ATOM     72  C   UNL A   1      42.099  22.940  27.330  1.00  0.00     0.148 A 
ATOM     73  C   UNL A   1      43.491  23.385  24.931  1.00  0.00     0.002 A 
ATOM     74  C   UNL A   1      42.190  21.935  26.372  1.00  0.00     0.091 A 
ATOM     75  F   UNL A   1      41.421  22.770  28.472  1.00  0.00    -0.205 F 
ATOM     76  C   UNL A   1      42.871  22.161  25.166  1.00  0.00     0.022 A 
BRANCH  74  77
ATOM     77  S   UNL A   1      41.538  20.284  26.653  1.00  0.00     0.127 S 
ATOM     78  O   UNL A   1      41.893  19.608  25.405  1.00  0.00    -0.237 OA
ATOM     79  O   UNL A   1      42.304  19.851  27.825  1.00  0.00    -0.237 OA
ATOM     80  O   UNL A   1      40.118  20.460  26.899  1.00  0.00    -0.744 OA
ENDBRANCH  74  77
ENDBRANCH  46  70
BRANCH  58  81
ATOM     81  C   UNL A   1      46.985  25.901  32.374  1.00  0.00     0.023 A 
ATOM     82  C   UNL A   1      46.951  25.031  33.482  1.00  0.00     0.012 A 
ATOM     83  C   UNL A   1      48.214  26.155  31.734  1.00  0.00     0.148 A 
ATOM     84  C   UNL A   1      48.123  24.455  33.968  1.00  0.00     0.002 A 
ATOM     85  C   UNL A   1      49.372  25.539  32.195  1.00  0.00     0.091 A 
ATOM     86  F   UNL A   1      48.234  27.003  30.695  1.00  0.00    -0.205 F 
ATOM     87  C   UNL A   1      49.331  24.699  33.320  1.00  0.00     0.022 A 
BRANCH  85  88
ATOM     88  S   UNL A   1      50.950  25.727  31.357  1.00  0.00     0.127 S 
ATOM     89  O   UNL A   1      51.808  24.833  32.130  1.00  0.00    -0.237 OA
ATOM     90  O   UNL A   1      50.646  25.260  30.003  1.00  0.00    -0.237 OA
ATOM     91  O   UNL A   1      51.275  27.145  31.442  1.00  0.00    -0.744 OA
ENDBRANCH  85  88
ENDBRANCH  58  81
ENDBRANCH  32  33
ENDBRANCH  24  27
ENDBRANCH  22  23
ENDBRANCH  21  22
ENDBRANCH   1  21
TORSDOF 18
ENDMDL
MODEL 2
REMARK VINA RESULT:      -9.8      1.927      2.318
REMARK SMILES Cc1ncccc1C(=O)NCCOCC(=O)NCCCNC(=O)c1ccc(-c2c3nc(c(-c4cccc(S(=O)(=O)[O-])c4F)c4ccc([nH]4)c(-c4cccc(S(=O)(=O)[O-])c4F)c4nc(c(-c5cccc(S(=O)(=O)[O-])c5F)c5ccc2[nH]5)C=C4)C=C3)cc1
REMARK SMILES IDX 18 1 17 2 15 3 16 4 14 6 13 7 12 8 11 9 10 10 8 11 9 12 7 14
REMARK SMILES IDX 1 15 2 16 3 17 4 18 6 19 5 20 19 21 20 22 21 23 22 24 23 26
REMARK SMILES IDX 24 27 25 28 86 29 26 30 85 31 27 32 28 33 29 34 79 35 30 36
REMARK SMILES IDX 84 37 78 38 80 39 31 40 83 41 77 42 76 43 32 45 64 46 44 47
REMARK SMILES IDX 63 48 45 49 48 50 62 51 81 52 46 53 47 54 61 56 82 57 49 58
REMARK SMILES IDX 33 59 34 60 42 61 35 62 37 63 43 64 36 65 38 66 39 67 40 68
REMARK SMILES IDX 41 69 65 70 66 71 74 72 67 73 69 74 75 75 68 76 70 77 71 78
REMARK SMILES IDX 72 79 73 80 50 81 51 82 59 83 52 84 54 85 60 86 53 87 55 88
REMARK SMILES IDX 56 89 57 90 58 91
REMARK H PARENT 17 5 10 13 21 25 80 44 48 55
REMARK Flexibility Score: inf
ROOT
ATOM      1  C   UNL A   1      34.180  34.508  30.061  1.00  0.00     0.117 C 
ENDROOT
BRANCH   1   2
ATOM      2  N   UNL A   1      32.897  35.083  30.421  1.00  0.00    -0.354 N 
ATOM      3  C   UNL A   1      32.640  36.101  31.293  1.00  0.00     0.245 C 
ATOM      4  O   UNL A   1      31.482  36.497  31.426  1.00  0.00    -0.272 OA
ATOM      5  H   UNL A   1      32.111  34.688  29.979  1.00  0.00     0.163 HD
BRANCH   3   6
ATOM      6  C   UNL A   1      33.798  36.708  32.098  1.00  0.00     0.260 C 
BRANCH   6   7
ATOM      7  O   UNL A   1      34.188  36.108  33.324  1.00  0.00    -0.370 OA
BRANCH   7   8
ATOM      8  C   UNL A   1      35.330  35.253  33.258  1.00  0.00     0.182 C 
BRANCH   8   9
ATOM      9  C   UNL A   1      35.531  34.362  34.484  1.00  0.00     0.144 C 
BRANCH   9  10
ATOM     10  N   UNL A   1      35.861  32.979  34.200  1.00  0.00    -0.350 N 
ATOM     11  C   UNL A   1      36.808  32.414  33.388  1.00  0.00     0.253 C 
ATOM     12  O   UNL A   1      36.912  31.187  33.386  1.00  0.00    -0.269 OA
ATOM     13  H   UNL A   1      35.301  32.326  34.679  1.00  0.00     0.163 HD
BRANCH  11  14
ATOM     14  C   UNL A   1      37.671  33.192  32.471  1.00  0.00     0.061 A 
ATOM     15  C   UNL A   1      39.383  33.988  34.201  1.00  0.00     0.067 C 
ATOM     16  C   UNL A   1      38.830  33.892  32.814  1.00  0.00     0.050 A 
ATOM     17  N   UNL A   1      39.591  34.536  31.880  1.00  0.00    -0.261 NA
ATOM     18  C   UNL A   1      39.240  34.427  30.581  1.00  0.00     0.111 A 
ATOM     19  C   UNL A   1      37.359  33.078  31.105  1.00  0.00     0.017 A 
ATOM     20  C   UNL A   1      38.152  33.699  30.145  1.00  0.00     0.021 A 
ENDBRANCH  11  14
ENDBRANCH   9  10
ENDBRANCH   8   9
ENDBRANCH   7   8
ENDBRANCH   6   7
ENDBRANCH   3   6
ENDBRANCH   1   2
BRANCH   1  21
ATOM     21  C   UNL A   1      34.431  34.491  28.556  1.00  0.00     0.042 C 
BRANCH  21  22
ATOM     22  C   UNL A   1      35.201  33.276  28.044  1.00  0.00     0.118 C 
BRANCH  22  23
ATOM     23  N   UNL A   1      34.335  32.147  27.744  1.00  0.00    -0.352 N 
ATOM     24  C   UNL A   1      34.601  30.803  27.680  1.00  0.00     0.251 C 
ATOM     25  H   UNL A   1      33.399  32.389  27.555  1.00  0.00     0.163 HD
ATOM     26  O   UNL A   1      33.750  30.057  27.199  1.00  0.00    -0.269 OA
BRANCH  24  27
ATOM     27  C   UNL A   1      35.881  30.243  28.171  1.00  0.00     0.039 A 
ATOM     28  C   UNL A   1      35.954  29.815  29.501  1.00  0.00     0.014 A 
ATOM     29  C   UNL A   1      37.022  30.203  27.368  1.00  0.00     0.014 A 
ATOM     30  C   UNL A   1      37.156  29.318  30.010  1.00  0.00     0.010 A 
ATOM     31  C   UNL A   1      38.199  29.633  27.854  1.00  0.00     0.010 A 
ATOM     32  C   UNL A   1      38.287  29.206  29.186  1.00  0.00    -0.014 A 
BRANCH  32  33
ATOM     33  C   UNL A   1      39.567  28.665  29.712  1.00  0.00     0.031 A 
ATOM     34  C   UNL A   1      40.215  29.279  30.927  1.00  0.00     0.074 A 
ATOM     35  C   UNL A   1      40.182  27.658  29.061  1.00  0.00     0.049 A 
ATOM     36  N   UNL A   1      41.335  28.949  31.519  1.00  0.00    -0.248 NA
ATOM     37  C   UNL A   1      39.533  30.430  31.538  1.00  0.00     0.031 C 
ATOM     38  C   UNL A   1      39.704  27.034  27.825  1.00  0.00     0.029 A 
ATOM     39  N   UNL A   1      41.352  26.995  29.335  1.00  0.00    -0.354 N 
ATOM     40  C   UNL A   1      41.509  29.871  32.545  1.00  0.00     0.074 A 
ATOM     41  C   UNL A   1      40.399  30.796  32.472  1.00  0.00     0.031 C 
ATOM     42  C   UNL A   1      40.567  26.075  27.455  1.00  0.00     0.029 A 
ATOM     43  C   UNL A   1      41.668  26.027  28.412  1.00  0.00     0.049 A 
ATOM     44  H   UNL A   1      41.912  27.195  30.120  1.00  0.00     0.167 HD
ATOM     45  C   UNL A   1      42.483  29.925  33.485  1.00  0.00     0.034 A 
ATOM     46  C   UNL A   1      42.723  25.190  28.346  1.00  0.00     0.034 A 
ATOM     47  C   UNL A   1      43.555  28.972  33.590  1.00  0.00     0.049 A 
ATOM     48  C   UNL A   1      43.750  25.223  29.445  1.00  0.00     0.074 A 
ATOM     49  C   UNL A   1      44.539  28.885  34.560  1.00  0.00     0.029 A 
ATOM     50  N   UNL A   1      43.784  27.939  32.695  1.00  0.00    -0.354 N 
ATOM     51  N   UNL A   1      43.805  25.996  30.502  1.00  0.00    -0.248 NA
ATOM     52  C   UNL A   1      44.838  24.237  29.365  1.00  0.00     0.031 C 
ATOM     53  C   UNL A   1      45.372  27.806  34.242  1.00  0.00     0.029 A 
ATOM     54  C   UNL A   1      44.895  27.210  33.086  1.00  0.00     0.049 A 
ATOM     55  H   UNL A   1      43.238  27.752  31.898  1.00  0.00     0.167 HD
ATOM     56  C   UNL A   1      44.910  25.569  31.230  1.00  0.00     0.074 A 
ATOM     57  C   UNL A   1      45.478  24.449  30.506  1.00  0.00     0.031 C 
ATOM     58  C   UNL A   1      45.419  26.066  32.384  1.00  0.00     0.034 A 
BRANCH  45  59
ATOM     59  C   UNL A   1      42.395  31.020  34.519  1.00  0.00     0.023 A 
ATOM     60  C   UNL A   1      41.781  30.753  35.761  1.00  0.00     0.012 A 
ATOM     61  C   UNL A   1      42.958  32.290  34.287  1.00  0.00     0.148 A 
ATOM     62  C   UNL A   1      41.696  31.742  36.740  1.00  0.00     0.002 A 
ATOM     63  C   UNL A   1      42.908  33.257  35.285  1.00  0.00     0.091 A 
ATOM     64  F   UNL A   1      43.517  32.534  33.094  1.00  0.00    -0.205 F 
ATOM     65  C   UNL A   1      42.267  32.989  36.506  1.00  0.00     0.022 A 
BRANCH  63  66
ATOM     66  S   UNL A   1      43.682  34.869  35.111  1.00  0.00     0.127 S 
ATOM     67  O   UNL A   1      43.182  35.297  33.804  1.00  0.00    -0.237 OA
ATOM     68  O   UNL A   1      43.124  35.604  36.246  1.00  0.00    -0.237 OA
ATOM     69  O   UNL A   1      45.116  34.634  35.187  1.00  0.00    -0.744 OA
ENDBRANCH  63  66
ENDBRANCH  45  59
BRANCH  46  70
ATOM     70  C   UNL A   1      42.809  24.189  27.245  1.00  0.00     0.023 A 
ATOM     71  C   UNL A   1      43.566  24.491  26.096  1.00  0.00     0.012 A 
ATOM     72  C   UNL A   1      42.178  22.934  27.343  1.00  0.00     0.148 A 
ATOM     73  C   UNL A   1      43.665  23.575  25.048  1.00  0.00     0.002 A 
ATOM     74  C   UNL A   1      42.326  22.005  26.319  1.00  0.00     0.091 A 
ATOM     75  F   UNL A   1      41.454  22.671  28.439  1.00  0.00    -0.205 F 
ATOM     76  C   UNL A   1      43.055  22.329  25.164  1.00  0.00     0.022 A 
BRANCH  74  77
ATOM     77  S   UNL A   1      41.688  20.330  26.447  1.00  0.00     0.127 S 
ATOM     78  O   UNL A   1      40.248  20.549  26.315  1.00  0.00    -0.237 OA
ATOM     79  O   UNL A   1      42.318  19.678  25.295  1.00  0.00    -0.237 OA
ATOM     80  O   UNL A   1      42.141  19.835  27.734  1.00  0.00    -0.744 OA
ENDBRANCH  74  77
ENDBRANCH  46  70
BRANCH  58  81
ATOM     81  C   UNL A   1      46.637  25.390  32.955  1.00  0.00     0.023 A 
ATOM     82  C   UNL A   1      47.922  25.835  32.586  1.00  0.00     0.012 A 
ATOM     83  C   UNL A   1      46.511  24.348  33.896  1.00  0.00     0.148 A 
ATOM     84  C   UNL A   1      49.062  25.228  33.113  1.00  0.00     0.002 A 
ATOM     85  C   UNL A   1      47.651  23.781  34.453  1.00  0.00     0.091 A 
ATOM     86  F   UNL A   1      45.282  23.921  34.220  1.00  0.00    -0.205 F 
ATOM     87  C   UNL A   1      48.927  24.210  34.053  1.00  0.00     0.022 A 
BRANCH  85  88
ATOM     88  S   UNL A   1      47.562  22.531  35.741  1.00  0.00     0.127 S 
ATOM     89  O   UNL A   1      48.975  22.292  36.024  1.00  0.00    -0.237 OA
ATOM     90  O   UNL A   1      46.835  23.226  36.805  1.00  0.00    -0.237 OA
ATOM     91  O   UNL A   1      46.837  21.412  35.153  1.00  0.00    -0.744 OA
ENDBRANCH  85  88
ENDBRANCH  58  81
ENDBRANCH  32  33
ENDBRANCH  24  27
ENDBRANCH  22  23
ENDBRANCH  21  22
ENDBRANCH   1  21
TORSDOF 18
ENDMDL
MODEL 3
REMARK VINA RESULT:      -9.7      4.001      6.550
REMARK SMILES Cc1ncccc1C(=O)NCCOCC(=O)NCCCNC(=O)c1ccc(-c2c3nc(c(-c4cccc(S(=O)(=O)[O-])c4F)c4ccc([nH]4)c(-c4cccc(S(=O)(=O)[O-])c4F)c4nc(c(-c5cccc(S(=O)(=O)[O-])c5F)c5ccc2[nH]5)C=C4)C=C3)cc1
REMARK SMILES IDX 18 1 17 2 15 3 16 4 14 6 13 7 12 8 11 9 10 10 8 11 9 12 7 14
REMARK SMILES IDX 1 15 2 16 3 17 4 18 6 19 5 20 19 21 20 22 21 23 22 24 23 26
REMARK SMILES IDX 24 27 25 28 86 29 26 30 85 31 27 32 28 33 29 34 79 35 30 36
REMARK SMILES IDX 84 37 78 38 80 39 31 40 83 41 77 42 76 43 32 45 64 46 44 47
REMARK SMILES IDX 63 48 45 49 48 50 62 51 81 52 46 53 47 54 61 56 82 57 49 58
REMARK SMILES IDX 33 59 34 60 42 61 35 62 37 63 43 64 36 65 38 66 39 67 40 68
REMARK SMILES IDX 41 69 65 70 66 71 74 72 67 73 69 74 75 75 68 76 70 77 71 78
REMARK SMILES IDX 72 79 73 80 50 81 51 82 59 83 52 84 54 85 60 86 53 87 55 88
REMARK SMILES IDX 56 89 57 90 58 91
REMARK H PARENT 17 5 10 13 21 25 80 44 48 55
REMARK Flexibility Score: inf
ROOT
ATOM      1  C   UNL A   1      31.352  29.157  24.883  1.00  0.00     0.117 C 
ENDROOT
BRANCH   1   2
ATOM      2  N   UNL A   1      30.609  29.451  23.672  1.00  0.00    -0.354 N 
ATOM      3  C   UNL A   1      30.454  28.670  22.563  1.00  0.00     0.245 C 
ATOM      4  O   UNL A   1      29.731  29.066  21.648  1.00  0.00    -0.272 OA
ATOM      5  H   UNL A   1      30.159  30.326  23.646  1.00  0.00     0.163 HD
BRANCH   3   6
ATOM      6  C   UNL A   1      31.201  27.332  22.479  1.00  0.00     0.260 C 
BRANCH   6   7
ATOM      7  O   UNL A   1      30.632  26.175  23.075  1.00  0.00    -0.370 OA
BRANCH   7   8
ATOM      8  C   UNL A   1      31.256  24.936  22.739  1.00  0.00     0.182 C 
BRANCH   8   9
ATOM      9  C   UNL A   1      30.806  23.746  23.586  1.00  0.00     0.144 C 
BRANCH   9  10
ATOM     10  N   UNL A   1      30.532  24.042  24.980  1.00  0.00    -0.350 N 
ATOM     11  C   UNL A   1      31.334  24.037  26.089  1.00  0.00     0.253 C 
ATOM     12  O   UNL A   1      30.846  24.399  27.160  1.00  0.00    -0.269 OA
ATOM     13  H   UNL A   1      29.598  24.292  25.161  1.00  0.00     0.163 HD
BRANCH  11  14
ATOM     14  C   UNL A   1      32.737  23.563  26.084  1.00  0.00     0.061 A 
ATOM     15  C   UNL A   1      33.849  25.792  25.484  1.00  0.00     0.067 C 
ATOM     16  C   UNL A   1      33.874  24.335  25.827  1.00  0.00     0.050 A 
ATOM     17  N   UNL A   1      35.134  23.815  25.902  1.00  0.00    -0.261 NA
ATOM     18  C   UNL A   1      35.277  22.534  26.305  1.00  0.00     0.111 A 
ATOM     19  C   UNL A   1      32.933  22.245  26.530  1.00  0.00     0.017 A 
ATOM     20  C   UNL A   1      34.217  21.721  26.646  1.00  0.00     0.021 A 
ENDBRANCH  11  14
ENDBRANCH   9  10
ENDBRANCH   8   9
ENDBRANCH   7   8
ENDBRANCH   6   7
ENDBRANCH   3   6
ENDBRANCH   1   2
BRANCH   1  21
ATOM     21  C   UNL A   1      32.864  29.244  24.698  1.00  0.00     0.042 C 
BRANCH  21  22
ATOM     22  C   UNL A   1      33.652  29.560  25.966  1.00  0.00     0.118 C 
BRANCH  22  23
ATOM     23  N   UNL A   1      33.441  30.920  26.436  1.00  0.00    -0.352 N 
ATOM     24  C   UNL A   1      34.031  31.620  27.457  1.00  0.00     0.251 C 
ATOM     25  H   UNL A   1      32.758  31.424  25.935  1.00  0.00     0.163 HD
ATOM     26  O   UNL A   1      33.536  32.693  27.799  1.00  0.00    -0.269 OA
BRANCH  24  27
ATOM     27  C   UNL A   1      35.237  31.111  28.148  1.00  0.00     0.039 A 
ATOM     28  C   UNL A   1      36.390  31.903  28.146  1.00  0.00     0.014 A 
ATOM     29  C   UNL A   1      35.271  29.842  28.730  1.00  0.00     0.014 A 
ATOM     30  C   UNL A   1      37.559  31.437  28.753  1.00  0.00     0.010 A 
ATOM     31  C   UNL A   1      36.413  29.412  29.405  1.00  0.00     0.010 A 
ATOM     32  C   UNL A   1      37.577  30.194  29.405  1.00  0.00    -0.014 A 
BRANCH  32  33
ATOM     33  C   UNL A   1      38.809  29.695  30.069  1.00  0.00     0.031 A 
ATOM     34  C   UNL A   1      39.207  30.210  31.428  1.00  0.00     0.074 A 
ATOM     35  C   UNL A   1      39.607  28.821  29.423  1.00  0.00     0.049 A 
ATOM     36  N   UNL A   1      40.251  29.900  32.154  1.00  0.00    -0.248 NA
ATOM     37  C   UNL A   1      38.336  31.227  32.039  1.00  0.00     0.031 C 
ATOM     38  C   UNL A   1      39.380  28.311  28.069  1.00  0.00     0.029 A 
ATOM     39  N   UNL A   1      40.779  28.222  29.810  1.00  0.00    -0.354 N 
ATOM     40  C   UNL A   1      40.183  30.707  33.285  1.00  0.00     0.074 A 
ATOM     41  C   UNL A   1      39.015  31.546  33.132  1.00  0.00     0.031 C 
ATOM     42  C   UNL A   1      40.375  27.471  27.744  1.00  0.00     0.029 A 
ATOM     43  C   UNL A   1      41.319  27.396  28.854  1.00  0.00     0.049 A 
ATOM     44  H   UNL A   1      41.194  28.371  30.691  1.00  0.00     0.167 HD
ATOM     45  C   UNL A   1      40.995  30.724  34.369  1.00  0.00     0.034 A 
ATOM     46  C   UNL A   1      42.446  26.656  28.870  1.00  0.00     0.034 A 
ATOM     47  C   UNL A   1      42.124  29.850  34.544  1.00  0.00     0.049 A 
ATOM     48  C   UNL A   1      43.289  26.638  30.117  1.00  0.00     0.074 A 
ATOM     49  C   UNL A   1      42.955  29.726  35.644  1.00  0.00     0.029 A 
ATOM     50  N   UNL A   1      42.581  28.950  33.594  1.00  0.00    -0.354 N 
ATOM     51  N   UNL A   1      43.112  27.284  31.243  1.00  0.00    -0.248 NA
ATOM     52  C   UNL A   1      44.464  25.754  30.109  1.00  0.00     0.031 C 
ATOM     53  C   UNL A   1      43.924  28.758  35.353  1.00  0.00     0.029 A 
ATOM     54  C   UNL A   1      43.684  28.267  34.080  1.00  0.00     0.049 A 
ATOM     55  H   UNL A   1      42.181  28.816  32.705  1.00  0.00     0.167 HD
ATOM     56  C   UNL A   1      44.131  26.860  32.090  1.00  0.00     0.074 A 
ATOM     57  C   UNL A   1      44.903  25.880  31.353  1.00  0.00     0.031 C 
ATOM     58  C   UNL A   1      44.412  27.257  33.355  1.00  0.00     0.034 A 
BRANCH  45  59
ATOM     59  C   UNL A   1      40.651  31.680  35.483  1.00  0.00     0.023 A 
ATOM     60  C   UNL A   1      41.485  32.791  35.728  1.00  0.00     0.012 A 
ATOM     61  C   UNL A   1      39.484  31.513  36.254  1.00  0.00     0.148 A 
ATOM     62  C   UNL A   1      41.186  33.697  36.743  1.00  0.00     0.002 A 
ATOM     63  C   UNL A   1      39.168  32.444  37.236  1.00  0.00     0.091 A 
ATOM     64  F   UNL A   1      38.713  30.440  36.025  1.00  0.00    -0.205 F 
ATOM     65  C   UNL A   1      40.023  33.530  37.491  1.00  0.00     0.022 A 
BRANCH  63  66
ATOM     66  S   UNL A   1      37.654  32.361  38.201  1.00  0.00     0.127 S 
ATOM     67  O   UNL A   1      37.422  30.918  38.261  1.00  0.00    -0.237 OA
ATOM     68  O   UNL A   1      38.062  32.965  39.469  1.00  0.00    -0.237 OA
ATOM     69  O   UNL A   1      36.664  33.125  37.457  1.00  0.00    -0.744 OA
ENDBRANCH  63  66
ENDBRANCH  45  59
BRANCH  46  70
ATOM     70  C   UNL A   1      42.790  25.799  27.700  1.00  0.00     0.023 A 
ATOM     71  C   UNL A   1      43.686  26.287  26.729  1.00  0.00     0.012 A 
ATOM     72  C   UNL A   1      42.263  24.501  27.560  1.00  0.00     0.148 A 
ATOM     73  C   UNL A   1      44.027  25.509  25.621  1.00  0.00     0.002 A 
ATOM     74  C   UNL A   1      42.649  23.712  26.482  1.00  0.00     0.091 A 
ATOM     75  F   UNL A   1      41.403  24.061  28.488  1.00  0.00    -0.205 F 
ATOM     76  C   UNL A   1      43.518  24.219  25.503  1.00  0.00     0.022 A 
BRANCH  74  77
ATOM     77  S   UNL A   1      42.148  21.993  26.326  1.00  0.00     0.127 S 
ATOM     78  O   UNL A   1      42.985  21.538  25.216  1.00  0.00    -0.237 OA
ATOM     79  O   UNL A   1      42.518  21.450  27.636  1.00  0.00    -0.237 OA
ATOM     80  O   UNL A   1      40.719  22.022  26.074  1.00  0.00    -0.744 OA
ENDBRANCH  74  77
ENDBRANCH  46  70
BRANCH  58  81
ATOM     81  C   UNL A   1      45.589  26.613  34.041  1.00  0.00     0.023 A 
ATOM     82  C   UNL A   1      46.868  27.194  33.927  1.00  0.00     0.012 A 
ATOM     83  C   UNL A   1      45.421  25.464  34.838  1.00  0.00     0.148 A 
ATOM     84  C   UNL A   1      47.967  26.619  34.563  1.00  0.00     0.002 A 
ATOM     85  C   UNL A   1      46.513  24.924  35.507  1.00  0.00     0.091 A 
ATOM     86  F   UNL A   1      44.202  24.910  34.917  1.00  0.00    -0.205 F 
ATOM     87  C   UNL A   1      47.789  25.492  35.361  1.00  0.00     0.022 A 
BRANCH  85  88
ATOM     88  S   UNL A   1      46.348  23.531  36.630  1.00  0.00     0.127 S 
ATOM     89  O   UNL A   1      45.411  24.054  37.622  1.00  0.00    -0.237 OA
ATOM     90  O   UNL A   1      45.798  22.489  35.761  1.00  0.00    -0.237 OA
ATOM     91  O   UNL A   1      47.694  23.256  37.116  1.00  0.00    -0.744 OA
ENDBRANCH  85  88
ENDBRANCH  58  81
ENDBRANCH  32  33
ENDBRANCH  24  27
ENDBRANCH  22  23
ENDBRANCH  21  22
ENDBRANCH   1  21
TORSDOF 18
ENDMDL
