MODEL 1
REMARK VINA RESULT:     -13.1      0.000      0.000
REMARK SMILES O=C(NCCCNC(=O)c1ccc(-c2c3nc(c(-c4cccc(S(=O)(=O)[O-])c4F)c4ccc([nH]4)c(-c4cccc(S(=O)(=O)[O-])c4F)c4nc(c(-c5cccc(S(=O)(=O)[O-])c5F)c5ccc2[nH]5)C=C4)C=C3)cc1)C1=Cc2cc(C(F)(F)F)ccc2O[C@@H]1C(F)(F)F
REMARK SMILES IDX 6 1 5 2 4 3 3 4 1 5 2 6 73 8 74 9 86 10 75 11 85 12 76 13
REMARK SMILES IDX 84 14 77 15 83 16 82 17 87 18 88 19 89 20 90 21 78 22 79 23
REMARK SMILES IDX 80 24 81 25 7 26 8 27 9 29 10 30 11 31 72 32 12 33 71 34
REMARK SMILES IDX 13 35 14 36 15 37 65 38 16 39 70 40 64 41 66 42 17 43 69 44
REMARK SMILES IDX 63 45 62 46 18 48 50 49 30 50 49 51 31 52 34 53 48 54 67 55
REMARK SMILES IDX 32 56 33 57 47 59 68 60 35 61 19 62 20 63 28 64 21 65 23 66
REMARK SMILES IDX 29 67 22 68 24 69 25 70 26 71 27 72 51 73 52 74 60 75 53 76
REMARK SMILES IDX 55 77 61 78 54 79 56 80 57 81 58 82 59 83 36 84 37 85 45 86
REMARK SMILES IDX 38 87 40 88 46 89 39 90 41 91 42 92 43 93 44 94
REMARK H PARENT 3 7 7 28 66 47 34 58
REMARK Flexibility Score: inf
ROOT
ATOM      1  C   UNL A   1      32.535  30.056  25.813  1.00  0.00     0.118 C 
ENDROOT
BRANCH   1   2
ATOM      2  C   UNL A   1      31.605  28.990  26.383  1.00  0.00     0.042 C 
BRANCH   2   3
ATOM      3  C   UNL A   1      32.219  27.595  26.343  1.00  0.00     0.118 C 
BRANCH   3   4
ATOM      4  N   UNL A   1      31.338  26.554  26.882  1.00  0.00    -0.352 N 
ATOM      5  O   UNL A   1      30.131  24.632  26.835  1.00  0.00    -0.270 OA
ATOM      6  C   UNL A   1      30.613  25.583  26.234  1.00  0.00     0.251 C 
ATOM      7  H   UNL A   1      31.253  26.551  27.863  1.00  0.00     0.163 HD
BRANCH   6   8
ATOM      8  C   UNL A   1      30.504  25.692  24.770  1.00  0.00     0.067 C 
ATOM      9  C   UNL A   1      29.412  26.300  24.291  1.00  0.00     0.025 C 
ATOM     10  C   UNL A   1      31.756  25.500  23.973  1.00  0.00     0.314 C 
ATOM     11  C   UNL A   1      29.728  27.336  23.304  1.00  0.00     0.018 A 
ATOM     12  O   UNL A   1      32.076  26.643  23.139  1.00  0.00    -0.475 OA
ATOM     13  C   UNL A   1      28.800  28.374  23.164  1.00  0.00     0.025 A 
ATOM     14  C   UNL A   1      31.059  27.531  22.890  1.00  0.00     0.128 A 
ATOM     15  C   UNL A   1      29.221  29.643  22.741  1.00  0.00     0.056 A 
ATOM     16  C   UNL A   1      31.460  28.765  22.384  1.00  0.00     0.048 A 
ATOM     17  C   UNL A   1      30.553  29.826  22.340  1.00  0.00     0.017 A 
BRANCH  10  18
ATOM     18  C   UNL A   1      31.687  24.224  23.123  1.00  0.00     0.429 C 
ATOM     19  F   UNL A   1      30.431  23.710  23.123  1.00  0.00    -0.167 F 
ATOM     20  F   UNL A   1      32.008  24.453  21.829  1.00  0.00    -0.167 F 
ATOM     21  F   UNL A   1      32.513  23.253  23.578  1.00  0.00    -0.167 F 
ENDBRANCH  10  18
BRANCH  15  22
ATOM     22  C   UNL A   1      28.258  30.807  22.805  1.00  0.00     0.416 C 
ATOM     23  F   UNL A   1      27.282  30.616  23.730  1.00  0.00    -0.166 F 
ATOM     24  F   UNL A   1      28.877  31.974  23.128  1.00  0.00    -0.166 F 
ATOM     25  F   UNL A   1      27.624  31.038  21.622  1.00  0.00    -0.166 F 
ENDBRANCH  15  22
ENDBRANCH   6   8
ENDBRANCH   3   4
ENDBRANCH   2   3
ENDBRANCH   1   2
BRANCH   1  26
ATOM     26  N   UNL A   1      32.357  31.383  26.396  1.00  0.00    -0.352 N 
ATOM     27  C   UNL A   1      33.157  32.093  27.273  1.00  0.00     0.251 C 
ATOM     28  H   UNL A   1      31.535  31.849  26.119  1.00  0.00     0.163 HD
ATOM     29  O   UNL A   1      32.781  33.179  27.685  1.00  0.00    -0.269 OA
BRANCH  27  30
ATOM     30  C   UNL A   1      34.441  31.518  27.748  1.00  0.00     0.039 A 
ATOM     31  C   UNL A   1      35.522  32.370  27.999  1.00  0.00     0.014 A 
ATOM     32  C   UNL A   1      34.571  30.152  27.986  1.00  0.00     0.014 A 
ATOM     33  C   UNL A   1      36.683  31.865  28.594  1.00  0.00     0.010 A 
ATOM     34  C   UNL A   1      35.667  29.678  28.695  1.00  0.00     0.010 A 
ATOM     35  C   UNL A   1      36.742  30.525  29.009  1.00  0.00    -0.014 A 
BRANCH  35  36
ATOM     36  C   UNL A   1      37.892  29.971  29.777  1.00  0.00     0.031 A 
ATOM     37  C   UNL A   1      38.141  30.431  31.193  1.00  0.00     0.074 A 
ATOM     38  C   UNL A   1      38.793  29.175  29.163  1.00  0.00     0.049 A 
ATOM     39  N   UNL A   1      39.174  30.215  31.964  1.00  0.00    -0.248 NA
ATOM     40  C   UNL A   1      37.114  31.295  31.803  1.00  0.00     0.031 C 
ATOM     41  C   UNL A   1      38.732  28.737  27.766  1.00  0.00     0.029 A 
ATOM     42  N   UNL A   1      39.960  28.619  29.629  1.00  0.00    -0.354 N 
ATOM     43  C   UNL A   1      38.956  30.971  33.110  1.00  0.00     0.074 A 
ATOM     44  C   UNL A   1      37.714  31.685  32.917  1.00  0.00     0.031 C 
ATOM     45  C   UNL A   1      39.801  27.970  27.494  1.00  0.00     0.029 A 
ATOM     46  C   UNL A   1      40.644  27.891  28.681  1.00  0.00     0.049 A 
ATOM     47  H   UNL A   1      40.278  28.730  30.554  1.00  0.00     0.167 HD
ATOM     48  C   UNL A   1      39.700  31.039  34.242  1.00  0.00     0.034 A 
ATOM     49  C   UNL A   1      41.821  27.239  28.757  1.00  0.00     0.034 A 
ATOM     50  C   UNL A   1      40.877  30.248  34.471  1.00  0.00     0.049 A 
ATOM     51  C   UNL A   1      42.572  27.239  30.061  1.00  0.00     0.074 A 
ATOM     52  C   UNL A   1      41.632  30.144  35.625  1.00  0.00     0.029 A 
ATOM     53  N   UNL A   1      41.461  29.413  33.532  1.00  0.00    -0.354 N 
ATOM     54  N   UNL A   1      42.268  27.838  31.187  1.00  0.00    -0.248 NA
ATOM     55  C   UNL A   1      43.809  26.447  30.119  1.00  0.00     0.031 C 
ATOM     56  C   UNL A   1      42.677  29.246  35.382  1.00  0.00     0.029 A 
ATOM     57  C   UNL A   1      42.563  28.783  34.080  1.00  0.00     0.049 A 
ATOM     58  H   UNL A   1      41.138  29.285  32.610  1.00  0.00     0.167 HD
ATOM     59  C   UNL A   1      43.252  27.468  32.095  1.00  0.00     0.074 A 
ATOM     60  C   UNL A   1      44.152  26.576  31.394  1.00  0.00     0.031 C 
ATOM     61  C   UNL A   1      43.409  27.846  33.387  1.00  0.00     0.034 A 
BRANCH  48  62
ATOM     62  C   UNL A   1      39.211  31.938  35.348  1.00  0.00     0.023 A 
ATOM     63  C   UNL A   1      38.227  31.467  36.242  1.00  0.00     0.012 A 
ATOM     64  C   UNL A   1      39.753  33.225  35.535  1.00  0.00     0.148 A 
ATOM     65  C   UNL A   1      37.755  32.277  37.273  1.00  0.00     0.002 A 
ATOM     66  C   UNL A   1      39.312  34.008  36.596  1.00  0.00     0.091 A 
ATOM     67  F   UNL A   1      40.674  33.665  34.667  1.00  0.00    -0.205 F 
ATOM     68  C   UNL A   1      38.304  33.542  37.457  1.00  0.00     0.022 A 
BRANCH  66  69
ATOM     69  S   UNL A   1      40.014  35.620  36.968  1.00  0.00     0.127 S 
ATOM     70  O   UNL A   1      39.388  35.925  38.254  1.00  0.00    -0.237 OA
ATOM     71  O   UNL A   1      41.445  35.325  37.042  1.00  0.00    -0.237 OA
ATOM     72  O   UNL A   1      39.630  36.489  35.863  1.00  0.00    -0.744 OA
ENDBRANCH  66  69
ENDBRANCH  48  62
BRANCH  49  73
ATOM     73  C   UNL A   1      42.315  26.454  27.589  1.00  0.00     0.023 A 
ATOM     74  C   UNL A   1      43.149  27.085  26.645  1.00  0.00     0.012 A 
ATOM     75  C   UNL A   1      42.001  25.091  27.422  1.00  0.00     0.148 A 
ATOM     76  C   UNL A   1      43.635  26.385  25.540  1.00  0.00     0.002 A 
ATOM     77  C   UNL A   1      42.531  24.385  26.346  1.00  0.00     0.091 A 
ATOM     78  F   UNL A   1      41.198  24.509  28.323  1.00  0.00    -0.205 F 
ATOM     79  C   UNL A   1      43.335  25.033  25.396  1.00  0.00     0.022 A 
BRANCH  77  80
ATOM     80  S   UNL A   1      42.302  22.613  26.153  1.00  0.00     0.127 S 
ATOM     81  O   UNL A   1      43.014  22.354  24.904  1.00  0.00    -0.237 OA
ATOM     82  O   UNL A   1      42.954  22.088  27.353  1.00  0.00    -0.237 OA
ATOM     83  O   UNL A   1      40.860  22.407  26.118  1.00  0.00    -0.744 OA
ENDBRANCH  77  80
ENDBRANCH  49  73
BRANCH  61  84
ATOM     84  C   UNL A   1      44.573  27.273  34.148  1.00  0.00     0.023 A 
ATOM     85  C   UNL A   1      45.831  27.903  34.079  1.00  0.00     0.012 A 
ATOM     86  C   UNL A   1      44.397  26.167  35.003  1.00  0.00     0.148 A 
ATOM     87  C   UNL A   1      46.904  27.424  34.830  1.00  0.00     0.002 A 
ATOM     88  C   UNL A   1      45.458  25.724  35.784  1.00  0.00     0.091 A 
ATOM     89  F   UNL A   1      43.196  25.571  35.039  1.00  0.00    -0.205 F 
ATOM     90  C   UNL A   1      46.714  26.346  35.691  1.00  0.00     0.022 A 
BRANCH  88  91
ATOM     91  S   UNL A   1      45.278  24.406  36.990  1.00  0.00     0.127 S 
ATOM     92  O   UNL A   1      46.620  24.343  37.565  1.00  0.00    -0.237 OA
ATOM     93  O   UNL A   1      44.253  24.941  37.887  1.00  0.00    -0.237 OA
ATOM     94  O   UNL A   1      44.863  23.230  36.237  1.00  0.00    -0.744 OA
ENDBRANCH  88  91
ENDBRANCH  61  84
ENDBRANCH  35  36
ENDBRANCH  27  30
ENDBRANCH   1  26
TORSDOF 15
ENDMDL
MODEL 2
REMARK VINA RESULT:     -12.9      1.483      7.604
REMARK SMILES O=C(NCCCNC(=O)c1ccc(-c2c3nc(c(-c4cccc(S(=O)(=O)[O-])c4F)c4ccc([nH]4)c(-c4cccc(S(=O)(=O)[O-])c4F)c4nc(c(-c5cccc(S(=O)(=O)[O-])c5F)c5ccc2[nH]5)C=C4)C=C3)cc1)C1=Cc2cc(C(F)(F)F)ccc2O[C@@H]1C(F)(F)F
REMARK SMILES IDX 6 1 5 2 4 3 3 4 1 5 2 6 73 8 74 9 86 10 75 11 85 12 76 13
REMARK SMILES IDX 84 14 77 15 83 16 82 17 87 18 88 19 89 20 90 21 78 22 79 23
REMARK SMILES IDX 80 24 81 25 7 26 8 27 9 29 10 30 11 31 72 32 12 33 71 34
REMARK SMILES IDX 13 35 14 36 15 37 65 38 16 39 70 40 64 41 66 42 17 43 69 44
REMARK SMILES IDX 63 45 62 46 18 48 50 49 30 50 49 51 31 52 34 53 48 54 67 55
REMARK SMILES IDX 32 56 33 57 47 59 68 60 35 61 19 62 20 63 28 64 21 65 23 66
REMARK SMILES IDX 29 67 22 68 24 69 25 70 26 71 27 72 51 73 52 74 60 75 53 76
REMARK SMILES IDX 55 77 61 78 54 79 56 80 57 81 58 82 59 83 36 84 37 85 45 86
REMARK SMILES IDX 38 87 40 88 46 89 39 90 41 91 42 92 43 93 44 94
REMARK H PARENT 3 7 7 28 66 47 34 58
REMARK Flexibility Score: inf
ROOT
ATOM      1  C   UNL A   1      32.402  29.960  25.828  1.00  0.00     0.118 C 
ENDROOT
BRANCH   1   2
ATOM      2  C   UNL A   1      31.502  28.823  26.301  1.00  0.00     0.042 C 
BRANCH   2   3
ATOM      3  C   UNL A   1      32.243  27.496  26.411  1.00  0.00     0.118 C 
BRANCH   3   4
ATOM      4  N   UNL A   1      31.413  26.405  26.931  1.00  0.00    -0.352 N 
ATOM      5  O   UNL A   1      30.310  24.422  26.855  1.00  0.00    -0.270 OA
ATOM      6  C   UNL A   1      30.747  25.403  26.268  1.00  0.00     0.251 C 
ATOM      7  H   UNL A   1      31.318  26.388  27.912  1.00  0.00     0.163 HD
BRANCH   6   8
ATOM      8  C   UNL A   1      30.648  25.519  24.803  1.00  0.00     0.067 C 
ATOM      9  C   UNL A   1      29.570  26.149  24.321  1.00  0.00     0.025 C 
ATOM     10  C   UNL A   1      31.900  25.307  24.012  1.00  0.00     0.314 C 
ATOM     11  C   UNL A   1      29.911  27.183  23.340  1.00  0.00     0.018 A 
ATOM     12  O   UNL A   1      32.246  26.447  23.184  1.00  0.00    -0.475 OA
ATOM     13  C   UNL A   1      29.004  28.239  23.199  1.00  0.00     0.025 A 
ATOM     14  C   UNL A   1      31.247  27.354  22.933  1.00  0.00     0.128 A 
ATOM     15  C   UNL A   1      29.450  29.501  22.782  1.00  0.00     0.056 A 
ATOM     16  C   UNL A   1      31.674  28.582  22.434  1.00  0.00     0.048 A 
ATOM     17  C   UNL A   1      30.788  29.661  22.390  1.00  0.00     0.017 A 
BRANCH  10  18
ATOM     18  C   UNL A   1      31.812  24.035  23.157  1.00  0.00     0.429 C 
ATOM     19  F   UNL A   1      31.955  24.327  21.839  1.00  0.00    -0.167 F 
ATOM     20  F   UNL A   1      32.785  23.146  23.461  1.00  0.00    -0.167 F 
ATOM     21  F   UNL A   1      30.626  23.398  23.295  1.00  0.00    -0.167 F 
ENDBRANCH  10  18
BRANCH  15  22
ATOM     22  C   UNL A   1      28.509  30.682  22.846  1.00  0.00     0.416 C 
ATOM     23  F   UNL A   1      27.212  30.315  22.685  1.00  0.00    -0.166 F 
ATOM     24  F   UNL A   1      28.583  31.339  24.035  1.00  0.00    -0.166 F 
ATOM     25  F   UNL A   1      28.764  31.617  21.889  1.00  0.00    -0.166 F 
ENDBRANCH  15  22
ENDBRANCH   6   8
ENDBRANCH   3   4
ENDBRANCH   2   3
ENDBRANCH   1   2
BRANCH   1  26
ATOM     26  N   UNL A   1      32.048  31.271  26.365  1.00  0.00    -0.352 N 
ATOM     27  C   UNL A   1      32.750  32.118  27.202  1.00  0.00     0.251 C 
ATOM     28  H   UNL A   1      31.166  31.607  26.085  1.00  0.00     0.163 HD
ATOM     29  O   UNL A   1      32.232  33.157  27.580  1.00  0.00    -0.269 OA
BRANCH  27  30
ATOM     30  C   UNL A   1      34.108  31.746  27.675  1.00  0.00     0.039 A 
ATOM     31  C   UNL A   1      35.063  32.749  27.871  1.00  0.00     0.014 A 
ATOM     32  C   UNL A   1      34.429  30.423  27.967  1.00  0.00     0.014 A 
ATOM     33  C   UNL A   1      36.291  32.435  28.466  1.00  0.00     0.010 A 
ATOM     34  C   UNL A   1      35.589  30.135  28.674  1.00  0.00     0.010 A 
ATOM     35  C   UNL A   1      36.540  31.134  28.933  1.00  0.00    -0.014 A 
BRANCH  35  36
ATOM     36  C   UNL A   1      37.765  30.777  29.702  1.00  0.00     0.031 A 
ATOM     37  C   UNL A   1      38.786  29.844  29.097  1.00  0.00     0.074 A 
ATOM     38  C   UNL A   1      37.893  31.167  30.988  1.00  0.00     0.049 A 
ATOM     39  N   UNL A   1      39.817  29.270  29.658  1.00  0.00    -0.248 NA
ATOM     40  C   UNL A   1      38.587  29.462  27.687  1.00  0.00     0.031 C 
ATOM     41  C   UNL A   1      36.930  31.984  31.731  1.00  0.00     0.029 A 
ATOM     42  N   UNL A   1      38.874  30.897  31.911  1.00  0.00    -0.354 N 
ATOM     43  C   UNL A   1      40.341  28.410  28.699  1.00  0.00     0.074 A 
ATOM     44  C   UNL A   1      39.489  28.505  27.535  1.00  0.00     0.031 C 
ATOM     45  C   UNL A   1      37.374  32.162  32.986  1.00  0.00     0.029 A 
ATOM     46  C   UNL A   1      38.631  31.443  33.153  1.00  0.00     0.049 A 
ATOM     47  H   UNL A   1      39.676  30.364  31.706  1.00  0.00     0.167 HD
ATOM     48  C   UNL A   1      41.453  27.638  28.761  1.00  0.00     0.034 A 
ATOM     49  C   UNL A   1      39.339  31.366  34.297  1.00  0.00     0.034 A 
ATOM     50  C   UNL A   1      42.354  27.626  29.880  1.00  0.00     0.049 A 
ATOM     51  C   UNL A   1      40.629  30.592  34.307  1.00  0.00     0.074 A 
ATOM     52  C   UNL A   1      43.572  26.981  29.997  1.00  0.00     0.029 A 
ATOM     53  N   UNL A   1      42.143  28.306  31.069  1.00  0.00    -0.354 N 
ATOM     54  N   UNL A   1      41.187  29.909  33.337  1.00  0.00    -0.248 NA
ATOM     55  C   UNL A   1      41.406  30.605  35.555  1.00  0.00     0.031 C 
ATOM     56  C   UNL A   1      44.097  27.268  31.261  1.00  0.00     0.029 A 
ATOM     57  C   UNL A   1      43.210  28.102  31.925  1.00  0.00     0.049 A 
ATOM     58  H   UNL A   1      41.351  28.854  31.274  1.00  0.00     0.167 HD
ATOM     59  C   UNL A   1      42.394  29.442  33.845  1.00  0.00     0.074 A 
ATOM     60  C   UNL A   1      42.495  29.937  35.202  1.00  0.00     0.031 C 
ATOM     61  C   UNL A   1      43.326  28.658  33.248  1.00  0.00     0.034 A 
BRANCH  48  62
ATOM     62  C   UNL A   1      41.799  26.808  27.551  1.00  0.00     0.023 A 
ATOM     63  C   UNL A   1      42.394  27.427  26.432  1.00  0.00     0.012 A 
ATOM     64  C   UNL A   1      41.580  25.417  27.534  1.00  0.00     0.148 A 
ATOM     65  C   UNL A   1      42.722  26.685  25.299  1.00  0.00     0.002 A 
ATOM     66  C   UNL A   1      41.956  24.676  26.419  1.00  0.00     0.091 A 
ATOM     67  F   UNL A   1      40.996  24.847  28.598  1.00  0.00    -0.205 F 
ATOM     68  C   UNL A   1      42.513  25.309  25.297  1.00  0.00     0.022 A 
BRANCH  66  69
ATOM     69  S   UNL A   1      41.804  22.887  26.348  1.00  0.00     0.127 S 
ATOM     70  O   UNL A   1      42.482  22.484  27.580  1.00  0.00    -0.237 OA
ATOM     71  O   UNL A   1      40.352  22.699  26.362  1.00  0.00    -0.237 OA
ATOM     72  O   UNL A   1      42.456  22.478  25.111  1.00  0.00    -0.744 OA
ENDBRANCH  66  69
ENDBRANCH  48  62
BRANCH  49  73
ATOM     73  C   UNL A   1      38.889  32.119  35.504  1.00  0.00     0.023 A 
ATOM     74  C   UNL A   1      39.050  33.519  35.536  1.00  0.00     0.012 A 
ATOM     75  C   UNL A   1      38.276  31.476  36.596  1.00  0.00     0.148 A 
ATOM     76  C   UNL A   1      38.640  34.260  36.644  1.00  0.00     0.002 A 
ATOM     77  C   UNL A   1      37.821  32.227  37.676  1.00  0.00     0.091 A 
ATOM     78  F   UNL A   1      38.140  30.144  36.554  1.00  0.00    -0.205 F 
ATOM     79  C   UNL A   1      38.017  33.616  37.710  1.00  0.00     0.022 A 
BRANCH  77  80
ATOM     80  S   UNL A   1      36.894  31.498  39.032  1.00  0.00     0.127 S 
ATOM     81  O   UNL A   1      36.688  30.134  38.555  1.00  0.00    -0.237 OA
ATOM     82  O   UNL A   1      37.834  31.624  40.147  1.00  0.00    -0.237 OA
ATOM     83  O   UNL A   1      35.695  32.314  39.167  1.00  0.00    -0.744 OA
ENDBRANCH  77  80
ENDBRANCH  49  73
BRANCH  61  84
ATOM     84  C   UNL A   1      44.558  28.312  34.037  1.00  0.00     0.023 A 
ATOM     85  C   UNL A   1      45.661  29.188  34.031  1.00  0.00     0.012 A 
ATOM     86  C   UNL A   1      44.587  27.167  34.857  1.00  0.00     0.148 A 
ATOM     87  C   UNL A   1      46.785  28.916  34.810  1.00  0.00     0.002 A 
ATOM     88  C   UNL A   1      45.691  26.926  35.666  1.00  0.00     0.091 A 
ATOM     89  F   UNL A   1      43.534  26.336  34.834  1.00  0.00    -0.205 F 
ATOM     90  C   UNL A   1      46.794  27.795  35.636  1.00  0.00     0.022 A 
BRANCH  88  91
ATOM     91  S   UNL A   1      45.749  25.561  36.832  1.00  0.00     0.127 S 
ATOM     92  O   UNL A   1      46.970  25.859  37.578  1.00  0.00    -0.237 OA
ATOM     93  O   UNL A   1      44.510  25.744  37.588  1.00  0.00    -0.237 OA
ATOM     94  O   UNL A   1      45.787  24.349  36.025  1.00  0.00    -0.744 OA
ENDBRANCH  88  91
ENDBRANCH  61  84
ENDBRANCH  35  36
ENDBRANCH  27  30
ENDBRANCH   1  26
TORSDOF 15
ENDMDL
MODEL 3
REMARK VINA RESULT:     -12.8      5.587      8.441
REMARK SMILES O=C(NCCCNC(=O)c1ccc(-c2c3nc(c(-c4cccc(S(=O)(=O)[O-])c4F)c4ccc([nH]4)c(-c4cccc(S(=O)(=O)[O-])c4F)c4nc(c(-c5cccc(S(=O)(=O)[O-])c5F)c5ccc2[nH]5)C=C4)C=C3)cc1)C1=Cc2cc(C(F)(F)F)ccc2O[C@@H]1C(F)(F)F
REMARK SMILES IDX 6 1 5 2 4 3 3 4 1 5 2 6 73 8 74 9 86 10 75 11 85 12 76 13
REMARK SMILES IDX 84 14 77 15 83 16 82 17 87 18 88 19 89 20 90 21 78 22 79 23
REMARK SMILES IDX 80 24 81 25 7 26 8 27 9 29 10 30 11 31 72 32 12 33 71 34
REMARK SMILES IDX 13 35 14 36 15 37 65 38 16 39 70 40 64 41 66 42 17 43 69 44
REMARK SMILES IDX 63 45 62 46 18 48 50 49 30 50 49 51 31 52 34 53 48 54 67 55
REMARK SMILES IDX 32 56 33 57 47 59 68 60 35 61 19 62 20 63 28 64 21 65 23 66
REMARK SMILES IDX 29 67 22 68 24 69 25 70 26 71 27 72 51 73 52 74 60 75 53 76
REMARK SMILES IDX 55 77 61 78 54 79 56 80 57 81 58 82 59 83 36 84 37 85 45 86
REMARK SMILES IDX 38 87 40 88 46 89 39 90 41 91 42 92 43 93 44 94
REMARK H PARENT 3 7 7 28 66 47 34 58
REMARK Flexibility Score: inf
ROOT
ATOM      1  C   UNL A   1      36.528  21.698  25.615  1.00  0.00     0.118 C 
ENDROOT
BRANCH   1   2
ATOM      2  C   UNL A   1      35.992  22.188  24.274  1.00  0.00     0.042 C 
BRANCH   2   3
ATOM      3  C   UNL A   1      35.360  23.572  24.365  1.00  0.00     0.118 C 
BRANCH   3   4
ATOM      4  N   UNL A   1      34.888  24.084  23.075  1.00  0.00    -0.352 N 
ATOM      5  O   UNL A   1      33.350  24.813  21.572  1.00  0.00    -0.270 OA
ATOM      6  C   UNL A   1      33.619  24.125  22.547  1.00  0.00     0.251 C 
ATOM      7  H   UNL A   1      35.591  24.458  22.495  1.00  0.00     0.163 HD
BRANCH   6   8
ATOM      8  C   UNL A   1      32.574  23.365  23.253  1.00  0.00     0.067 C 
ATOM      9  C   UNL A   1      32.250  22.170  22.743  1.00  0.00     0.025 C 
ATOM     10  C   UNL A   1      32.260  23.773  24.659  1.00  0.00     0.314 C 
ATOM     11  C   UNL A   1      32.248  21.107  23.752  1.00  0.00     0.018 A 
ATOM     12  O   UNL A   1      32.436  22.694  25.613  1.00  0.00    -0.475 OA
ATOM     13  C   UNL A   1      32.483  19.806  23.293  1.00  0.00     0.025 A 
ATOM     14  C   UNL A   1      32.472  21.419  25.106  1.00  0.00     0.128 A 
ATOM     15  C   UNL A   1      33.067  18.854  24.142  1.00  0.00     0.056 A 
ATOM     16  C   UNL A   1      32.968  20.450  25.973  1.00  0.00     0.048 A 
ATOM     17  C   UNL A   1      33.296  19.183  25.487  1.00  0.00     0.017 A 
BRANCH  10  18
ATOM     18  C   UNL A   1      30.845  24.356  24.768  1.00  0.00     0.429 C 
ATOM     19  F   UNL A   1      30.154  23.762  25.775  1.00  0.00    -0.167 F 
ATOM     20  F   UNL A   1      30.857  25.681  25.041  1.00  0.00    -0.167 F 
ATOM     21  F   UNL A   1      30.124  24.183  23.636  1.00  0.00    -0.167 F 
ENDBRANCH  10  18
BRANCH  15  22
ATOM     22  C   UNL A   1      33.517  17.528  23.574  1.00  0.00     0.416 C 
ATOM     23  F   UNL A   1      33.326  17.451  22.232  1.00  0.00    -0.166 F 
ATOM     24  F   UNL A   1      34.839  17.293  23.793  1.00  0.00    -0.166 F 
ATOM     25  F   UNL A   1      32.857  16.467  24.117  1.00  0.00    -0.166 F 
ENDBRANCH  15  22
ENDBRANCH   6   8
ENDBRANCH   3   4
ENDBRANCH   2   3
ENDBRANCH   1   2
BRANCH   1  26
ATOM     26  N   UNL A   1      37.603  20.716  25.511  1.00  0.00    -0.352 N 
ATOM     27  C   UNL A   1      38.937  20.802  25.867  1.00  0.00     0.251 C 
ATOM     28  H   UNL A   1      37.335  19.850  25.126  1.00  0.00     0.163 HD
ATOM     29  O   UNL A   1      39.684  19.866  25.633  1.00  0.00    -0.269 OA
BRANCH  27  30
ATOM     30  C   UNL A   1      39.466  22.043  26.488  1.00  0.00     0.039 A 
ATOM     31  C   UNL A   1      40.496  21.952  27.430  1.00  0.00     0.014 A 
ATOM     32  C   UNL A   1      38.982  23.295  26.116  1.00  0.00     0.014 A 
ATOM     33  C   UNL A   1      41.112  23.116  27.904  1.00  0.00     0.010 A 
ATOM     34  C   UNL A   1      39.678  24.439  26.484  1.00  0.00     0.010 A 
ATOM     35  C   UNL A   1      40.751  24.370  27.384  1.00  0.00    -0.014 A 
BRANCH  35  36
ATOM     36  C   UNL A   1      41.470  25.625  27.743  1.00  0.00     0.031 A 
ATOM     37  C   UNL A   1      40.756  26.704  28.521  1.00  0.00     0.074 A 
ATOM     38  C   UNL A   1      42.705  25.860  27.251  1.00  0.00     0.049 A 
ATOM     39  N   UNL A   1      41.134  27.928  28.775  1.00  0.00    -0.248 NA
ATOM     40  C   UNL A   1      39.412  26.378  29.033  1.00  0.00     0.031 C 
ATOM     41  C   UNL A   1      43.470  24.947  26.398  1.00  0.00     0.029 A 
ATOM     42  N   UNL A   1      43.521  26.959  27.369  1.00  0.00    -0.354 N 
ATOM     43  C   UNL A   1      40.053  28.536  29.406  1.00  0.00     0.074 A 
ATOM     44  C   UNL A   1      38.990  27.558  29.458  1.00  0.00     0.031 C 
ATOM     45  C   UNL A   1      44.647  25.515  26.085  1.00  0.00     0.029 A 
ATOM     46  C   UNL A   1      44.708  26.845  26.679  1.00  0.00     0.049 A 
ATOM     47  H   UNL A   1      43.281  27.754  27.898  1.00  0.00     0.167 HD
ATOM     48  C   UNL A   1      39.963  29.781  29.932  1.00  0.00     0.034 A 
ATOM     49  C   UNL A   1      45.726  27.715  26.536  1.00  0.00     0.034 A 
ATOM     50  C   UNL A   1      41.056  30.712  29.972  1.00  0.00     0.049 A 
ATOM     51  C   UNL A   1      45.646  29.051  27.224  1.00  0.00     0.074 A 
ATOM     52  C   UNL A   1      41.112  31.948  30.591  1.00  0.00     0.029 A 
ATOM     53  N   UNL A   1      42.292  30.502  29.382  1.00  0.00    -0.354 N 
ATOM     54  N   UNL A   1      44.672  29.547  27.949  1.00  0.00    -0.248 NA
ATOM     55  C   UNL A   1      46.815  29.935  27.107  1.00  0.00     0.031 C 
ATOM     56  C   UNL A   1      42.384  32.487  30.371  1.00  0.00     0.029 A 
ATOM     57  C   UNL A   1      43.122  31.581  29.626  1.00  0.00     0.049 A 
ATOM     58  H   UNL A   1      42.543  29.702  28.865  1.00  0.00     0.167 HD
ATOM     59  C   UNL A   1      45.124  30.781  28.403  1.00  0.00     0.074 A 
ATOM     60  C   UNL A   1      46.467  30.949  27.887  1.00  0.00     0.031 C 
ATOM     61  C   UNL A   1      44.479  31.701  29.161  1.00  0.00     0.034 A 
BRANCH  48  62
ATOM     62  C   UNL A   1      38.660  30.174  30.582  1.00  0.00     0.023 A 
ATOM     63  C   UNL A   1      38.428  29.836  31.931  1.00  0.00     0.012 A 
ATOM     64  C   UNL A   1      37.688  30.912  29.879  1.00  0.00     0.148 A 
ATOM     65  C   UNL A   1      37.234  30.185  32.558  1.00  0.00     0.002 A 
ATOM     66  C   UNL A   1      36.519  31.299  30.526  1.00  0.00     0.091 A 
ATOM     67  F   UNL A   1      37.915  31.209  28.592  1.00  0.00    -0.205 F 
ATOM     68  C   UNL A   1      36.284  30.924  31.859  1.00  0.00     0.022 A 
BRANCH  66  69
ATOM     69  S   UNL A   1      35.270  32.323  29.739  1.00  0.00     0.127 S 
ATOM     70  O   UNL A   1      34.337  32.550  30.842  1.00  0.00    -0.237 OA
ATOM     71  O   UNL A   1      36.041  33.501  29.341  1.00  0.00    -0.237 OA
ATOM     72  O   UNL A   1      34.748  31.537  28.629  1.00  0.00    -0.744 OA
ENDBRANCH  66  69
ENDBRANCH  48  62
BRANCH  49  73
ATOM     73  C   UNL A   1      46.950  27.315  25.784  1.00  0.00     0.023 A 
ATOM     74  C   UNL A   1      47.915  26.513  26.425  1.00  0.00     0.012 A 
ATOM     75  C   UNL A   1      47.152  27.686  24.440  1.00  0.00     0.148 A 
ATOM     76  C   UNL A   1      49.072  26.114  25.754  1.00  0.00     0.002 A 
ATOM     77  C   UNL A   1      48.283  27.242  23.761  1.00  0.00     0.091 A 
ATOM     78  F   UNL A   1      46.230  28.458  23.849  1.00  0.00    -0.205 F 
ATOM     79  C   UNL A   1      49.251  26.470  24.421  1.00  0.00     0.022 A 
BRANCH  77  80
ATOM     80  S   UNL A   1      48.532  27.544  22.007  1.00  0.00     0.127 S 
ATOM     81  O   UNL A   1      49.681  28.445  22.019  1.00  0.00    -0.237 OA
ATOM     82  O   UNL A   1      48.810  26.198  21.503  1.00  0.00    -0.237 OA
ATOM     83  O   UNL A   1      47.280  28.114  21.528  1.00  0.00    -0.744 OA
ENDBRANCH  77  80
ENDBRANCH  49  73
BRANCH  61  84
ATOM     84  C   UNL A   1      45.222  32.959  29.517  1.00  0.00     0.023 A 
ATOM     85  C   UNL A   1      46.031  32.991  30.670  1.00  0.00     0.012 A 
ATOM     86  C   UNL A   1      45.191  34.078  28.661  1.00  0.00     0.148 A 
ATOM     87  C   UNL A   1      46.779  34.127  30.978  1.00  0.00     0.002 A 
ATOM     88  C   UNL A   1      45.975  35.188  28.949  1.00  0.00     0.091 A 
ATOM     89  F   UNL A   1      44.399  34.034  27.579  1.00  0.00    -0.205 F 
ATOM     90  C   UNL A   1      46.761  35.218  30.112  1.00  0.00     0.022 A 
BRANCH  88  91
ATOM     91  S   UNL A   1      46.089  36.598  27.841  1.00  0.00     0.127 S 
ATOM     92  O   UNL A   1      46.463  35.956  26.582  1.00  0.00    -0.237 OA
ATOM     93  O   UNL A   1      44.727  37.131  27.874  1.00  0.00    -0.237 OA
ATOM     94  O   UNL A   1      47.095  37.479  28.419  1.00  0.00    -0.744 OA
ENDBRANCH  88  91
ENDBRANCH  61  84
ENDBRANCH  35  36
ENDBRANCH  27  30
ENDBRANCH   1  26
TORSDOF 15
ENDMDL
