MODEL 1
REMARK VINA RESULT:     -12.7      0.000      0.000
REMARK SMILES C[C@H]1C[N@H+]2CCC[C@@H]2CN1c1cc(Cl)ccc1C(=O)NCCCNC(=O)c1ccc(-c2c3nc(c(-c4cccc(S(=O)(=O)[O-])c4F)c4ccc([nH]4)c(-c4cccc(S(=O)(=O)[O-])c4F)c4nc(c(-c5cccc(S(=O)(=O)[O-])c5F)c5ccc2[nH]5)C=C4)C=C3)cc1
REMARK SMILES IDX 23 1 22 2 21 3 20 4 18 5 19 6 17 8 11 9 12 10 13 11 16 12
REMARK SMILES IDX 14 13 15 14 10 15 1 16 2 17 3 18 4 19 9 20 5 21 8 22 6 24
REMARK SMILES IDX 7 25 24 26 25 27 26 29 27 30 28 31 89 32 29 33 88 34 30 35
REMARK SMILES IDX 31 36 32 37 82 38 33 39 87 40 81 41 83 42 34 43 86 44 80 45
REMARK SMILES IDX 79 46 35 48 67 49 47 50 66 51 48 52 51 53 65 54 84 55 49 56
REMARK SMILES IDX 50 57 64 59 85 60 52 61 36 62 37 63 45 64 38 65 40 66 46 67
REMARK SMILES IDX 39 68 41 69 42 70 43 71 44 72 68 73 69 74 77 75 70 76 72 77
REMARK SMILES IDX 78 78 71 79 73 80 74 81 75 82 76 83 53 84 54 85 62 86 55 87
REMARK SMILES IDX 57 88 63 89 56 90 58 91 59 92 60 93 61 94
REMARK H PARENT 20 7 4 23 24 28 83 47 51 58
REMARK Flexibility Score: inf
ROOT
ATOM      1  C   UNL A   1      33.357  31.363  27.223  1.00  0.00     0.118 C 
ENDROOT
BRANCH   1   2
ATOM      2  C   UNL A   1      32.303  30.310  26.934  1.00  0.00     0.042 C 
BRANCH   2   3
ATOM      3  C   UNL A   1      32.858  28.922  26.702  1.00  0.00     0.118 C 
BRANCH   3   4
ATOM      4  N   UNL A   1      33.360  28.586  25.405  1.00  0.00    -0.352 N 
ATOM      5  C   UNL A   1      32.724  28.878  24.213  1.00  0.00     0.253 C 
ATOM      6  O   UNL A   1      33.462  29.252  23.292  1.00  0.00    -0.269 OA
ATOM      7  H   UNL A   1      34.220  28.111  25.359  1.00  0.00     0.163 HD
BRANCH   5   8
ATOM      8  C   UNL A   1      31.274  28.593  23.887  1.00  0.00     0.063 A 
ATOM      9  C   UNL A   1      30.536  27.378  23.797  1.00  0.00     0.052 A 
ATOM     10  C   UNL A   1      29.152  27.470  23.494  1.00  0.00     0.047 A 
ATOM     11  C   UNL A   1      28.512  28.685  23.261  1.00  0.00     0.043 A 
ATOM     12  C   UNL A   1      30.581  29.813  23.653  1.00  0.00     0.017 A 
ATOM     13  Cl  UNL A   1      26.836  28.719  22.878  1.00  0.00    -0.084 Cl
ATOM     14  C   UNL A   1      29.224  29.865  23.337  1.00  0.00     0.021 A 
BRANCH   9  15
ATOM     15  N   UNL A   1      31.048  26.093  23.996  1.00  0.00    -0.357 N 
ATOM     16  C   UNL A   1      32.048  25.913  21.687  1.00  0.00     0.037 C 
ATOM     17  C   UNL A   1      31.319  25.178  22.826  1.00  0.00     0.134 C 
ATOM     18  C   UNL A   1      32.213  23.947  23.234  1.00  0.00     0.287 C 
ATOM     19  N   UNL A   1      31.837  23.312  24.509  1.00  0.00    -0.329 N 
ATOM     20  C   UNL A   1      30.667  25.405  25.252  1.00  0.00     0.182 C 
ATOM     21  C   UNL A   1      32.859  22.395  25.032  1.00  0.00     0.262 C 
ATOM     22  C   UNL A   1      31.728  24.341  25.554  1.00  0.00     0.203 C 
ATOM     23  H   UNL A   1      30.971  22.811  24.310  1.00  0.00     0.348 HD
ATOM     24  C   UNL A   1      32.634  22.417  26.552  1.00  0.00     0.068 C 
ATOM     25  C   UNL A   1      31.577  23.496  26.797  1.00  0.00     0.073 C 
ENDBRANCH   9  15
ENDBRANCH   5   8
ENDBRANCH   3   4
ENDBRANCH   2   3
ENDBRANCH   1   2
BRANCH   1  26
ATOM     26  N   UNL A   1      32.835  32.683  27.581  1.00  0.00    -0.352 N 
ATOM     27  C   UNL A   1      33.258  33.684  28.422  1.00  0.00     0.251 C 
ATOM     28  H   UNL A   1      31.994  32.902  27.119  1.00  0.00     0.163 HD
ATOM     29  O   UNL A   1      32.606  34.728  28.462  1.00  0.00    -0.269 OA
BRANCH  27  30
ATOM     30  C   UNL A   1      34.449  33.566  29.291  1.00  0.00     0.039 A 
ATOM     31  C   UNL A   1      35.640  34.214  28.912  1.00  0.00     0.014 A 
ATOM     32  C   UNL A   1      34.456  32.729  30.400  1.00  0.00     0.014 A 
ATOM     33  C   UNL A   1      36.818  34.014  29.639  1.00  0.00     0.010 A 
ATOM     34  C   UNL A   1      35.586  32.625  31.193  1.00  0.00     0.010 A 
ATOM     35  C   UNL A   1      36.794  33.201  30.777  1.00  0.00    -0.014 A 
BRANCH  35  36
ATOM     36  C   UNL A   1      38.018  32.727  31.463  1.00  0.00     0.031 A 
ATOM     37  C   UNL A   1      38.770  31.586  30.826  1.00  0.00     0.074 A 
ATOM     38  C   UNL A   1      38.341  33.186  32.683  1.00  0.00     0.049 A 
ATOM     39  N   UNL A   1      39.665  30.788  31.340  1.00  0.00    -0.248 NA
ATOM     40  C   UNL A   1      38.405  31.255  29.434  1.00  0.00     0.031 C 
ATOM     41  C   UNL A   1      37.648  34.257  33.399  1.00  0.00     0.029 A 
ATOM     42  N   UNL A   1      39.304  32.761  33.561  1.00  0.00    -0.354 N 
ATOM     43  C   UNL A   1      39.905  29.819  30.370  1.00  0.00     0.074 A 
ATOM     44  C   UNL A   1      39.038  30.107  29.252  1.00  0.00     0.031 C 
ATOM     45  C   UNL A   1      38.192  34.389  34.620  1.00  0.00     0.029 A 
ATOM     46  C   UNL A   1      39.238  33.385  34.784  1.00  0.00     0.049 A 
ATOM     47  H   UNL A   1      39.975  32.077  33.337  1.00  0.00     0.167 HD
ATOM     48  C   UNL A   1      40.788  28.793  30.404  1.00  0.00     0.034 A 
ATOM     49  C   UNL A   1      39.931  33.144  35.914  1.00  0.00     0.034 A 
ATOM     50  C   UNL A   1      41.688  28.576  31.501  1.00  0.00     0.049 A 
ATOM     51  C   UNL A   1      40.963  32.047  35.900  1.00  0.00     0.074 A 
ATOM     52  C   UNL A   1      42.698  27.639  31.618  1.00  0.00     0.029 A 
ATOM     53  N   UNL A   1      41.690  29.322  32.671  1.00  0.00    -0.354 N 
ATOM     54  N   UNL A   1      41.258  31.203  34.940  1.00  0.00    -0.248 NA
ATOM     55  C   UNL A   1      41.783  31.894  37.109  1.00  0.00     0.031 C 
ATOM     56  C   UNL A   1      43.295  27.805  32.872  1.00  0.00     0.029 A 
ATOM     57  C   UNL A   1      42.685  28.870  33.517  1.00  0.00     0.049 A 
ATOM     58  H   UNL A   1      41.073  30.063  32.868  1.00  0.00     0.167 HD
ATOM     59  C   UNL A   1      42.327  30.448  35.409  1.00  0.00     0.074 A 
ATOM     60  C   UNL A   1      42.635  30.948  36.735  1.00  0.00     0.031 C 
ATOM     61  C   UNL A   1      42.994  29.430  34.808  1.00  0.00     0.034 A 
BRANCH  48  62
ATOM     62  C   UNL A   1      40.847  27.868  29.212  1.00  0.00     0.023 A 
ATOM     63  C   UNL A   1      40.022  26.724  29.166  1.00  0.00     0.012 A 
ATOM     64  C   UNL A   1      41.694  28.146  28.122  1.00  0.00     0.148 A 
ATOM     65  C   UNL A   1      40.073  25.849  28.080  1.00  0.00     0.002 A 
ATOM     66  C   UNL A   1      41.700  27.300  27.018  1.00  0.00     0.091 A 
ATOM     67  F   UNL A   1      42.488  29.224  28.186  1.00  0.00    -0.205 F 
ATOM     68  C   UNL A   1      40.903  26.143  27.003  1.00  0.00     0.022 A 
BRANCH  66  69
ATOM     69  S   UNL A   1      42.668  27.629  25.541  1.00  0.00     0.127 S 
ATOM     70  O   UNL A   1      44.028  27.640  26.074  1.00  0.00    -0.237 OA
ATOM     71  O   UNL A   1      42.348  26.475  24.702  1.00  0.00    -0.237 OA
ATOM     72  O   UNL A   1      42.193  28.909  25.024  1.00  0.00    -0.744 OA
ENDBRANCH  66  69
ENDBRANCH  48  62
BRANCH  49  73
ATOM     73  C   UNL A   1      39.716  33.996  37.117  1.00  0.00     0.023 A 
ATOM     74  C   UNL A   1      40.151  35.336  37.098  1.00  0.00     0.012 A 
ATOM     75  C   UNL A   1      39.045  33.511  38.257  1.00  0.00     0.148 A 
ATOM     76  C   UNL A   1      39.953  36.166  38.201  1.00  0.00     0.002 A 
ATOM     77  C   UNL A   1      38.801  34.360  39.331  1.00  0.00     0.091 A 
ATOM     78  F   UNL A   1      38.643  32.232  38.260  1.00  0.00    -0.205 F 
ATOM     79  C   UNL A   1      39.269  35.683  39.312  1.00  0.00     0.022 A 
BRANCH  77  80
ATOM     80  S   UNL A   1      37.812  33.866  40.748  1.00  0.00     0.127 S 
ATOM     81  O   UNL A   1      38.709  32.940  41.433  1.00  0.00    -0.237 OA
ATOM     82  O   UNL A   1      37.605  35.144  41.431  1.00  0.00    -0.237 OA
ATOM     83  O   UNL A   1      36.598  33.280  40.194  1.00  0.00    -0.744 OA
ENDBRANCH  77  80
ENDBRANCH  49  73
BRANCH  61  84
ATOM     84  C   UNL A   1      44.156  28.831  35.551  1.00  0.00     0.023 A 
ATOM     85  C   UNL A   1      45.443  29.387  35.420  1.00  0.00     0.012 A 
ATOM     86  C   UNL A   1      43.948  27.760  36.442  1.00  0.00     0.148 A 
ATOM     87  C   UNL A   1      46.515  28.858  36.137  1.00  0.00     0.002 A 
ATOM     88  C   UNL A   1      45.009  27.276  37.195  1.00  0.00     0.091 A 
ATOM     89  F   UNL A   1      42.717  27.237  36.540  1.00  0.00    -0.205 F 
ATOM     90  C   UNL A   1      46.296  27.813  37.032  1.00  0.00     0.022 A 
BRANCH  88  91
ATOM     91  S   UNL A   1      44.796  26.008  38.448  1.00  0.00     0.127 S 
ATOM     92  O   UNL A   1      43.752  26.593  39.288  1.00  0.00    -0.237 OA
ATOM     93  O   UNL A   1      44.367  24.857  37.653  1.00  0.00    -0.237 OA
ATOM     94  O   UNL A   1      46.096  25.849  39.085  1.00  0.00    -0.744 OA
ENDBRANCH  88  91
ENDBRANCH  61  84
ENDBRANCH  35  36
ENDBRANCH  27  30
ENDBRANCH   1  26
TORSDOF 14
ENDMDL
MODEL 2
REMARK VINA RESULT:     -12.7      2.590      8.350
REMARK SMILES C[C@H]1C[N@H+]2CCC[C@@H]2CN1c1cc(Cl)ccc1C(=O)NCCCNC(=O)c1ccc(-c2c3nc(c(-c4cccc(S(=O)(=O)[O-])c4F)c4ccc([nH]4)c(-c4cccc(S(=O)(=O)[O-])c4F)c4nc(c(-c5cccc(S(=O)(=O)[O-])c5F)c5ccc2[nH]5)C=C4)C=C3)cc1
REMARK SMILES IDX 23 1 22 2 21 3 20 4 18 5 19 6 17 8 11 9 12 10 13 11 16 12
REMARK SMILES IDX 14 13 15 14 10 15 1 16 2 17 3 18 4 19 9 20 5 21 8 22 6 24
REMARK SMILES IDX 7 25 24 26 25 27 26 29 27 30 28 31 89 32 29 33 88 34 30 35
REMARK SMILES IDX 31 36 32 37 82 38 33 39 87 40 81 41 83 42 34 43 86 44 80 45
REMARK SMILES IDX 79 46 35 48 67 49 47 50 66 51 48 52 51 53 65 54 84 55 49 56
REMARK SMILES IDX 50 57 64 59 85 60 52 61 36 62 37 63 45 64 38 65 40 66 46 67
REMARK SMILES IDX 39 68 41 69 42 70 43 71 44 72 68 73 69 74 77 75 70 76 72 77
REMARK SMILES IDX 78 78 71 79 73 80 74 81 75 82 76 83 53 84 54 85 62 86 55 87
REMARK SMILES IDX 57 88 63 89 56 90 58 91 59 92 60 93 61 94
REMARK H PARENT 20 7 4 23 24 28 83 47 51 58
REMARK Flexibility Score: inf
ROOT
ATOM      1  C   UNL A   1      32.072  32.413  27.635  1.00  0.00     0.118 C 
ENDROOT
BRANCH   1   2
ATOM      2  C   UNL A   1      31.721  31.851  26.268  1.00  0.00     0.042 C 
BRANCH   2   3
ATOM      3  C   UNL A   1      32.142  30.413  26.061  1.00  0.00     0.118 C 
BRANCH   3   4
ATOM      4  N   UNL A   1      31.506  29.389  26.831  1.00  0.00    -0.352 N 
ATOM      5  C   UNL A   1      31.988  28.104  26.985  1.00  0.00     0.253 C 
ATOM      6  O   UNL A   1      31.872  27.622  28.120  1.00  0.00    -0.269 OA
ATOM      7  H   UNL A   1      30.662  29.617  27.282  1.00  0.00     0.163 HD
BRANCH   5   8
ATOM      8  C   UNL A   1      32.443  27.186  25.871  1.00  0.00     0.063 A 
ATOM      9  C   UNL A   1      31.896  26.894  24.589  1.00  0.00     0.052 A 
ATOM     10  C   UNL A   1      32.610  25.990  23.759  1.00  0.00     0.047 A 
ATOM     11  C   UNL A   1      33.790  25.370  24.163  1.00  0.00     0.043 A 
ATOM     12  C   UNL A   1      33.657  26.541  26.241  1.00  0.00     0.017 A 
ATOM     13  Cl  UNL A   1      34.590  24.268  23.112  1.00  0.00    -0.084 Cl
ATOM     14  C   UNL A   1      34.321  25.641  25.408  1.00  0.00     0.021 A 
BRANCH   9  15
ATOM     15  N   UNL A   1      30.720  27.433  24.060  1.00  0.00    -0.357 N 
ATOM     16  C   UNL A   1      29.212  25.715  25.129  1.00  0.00     0.037 C 
ATOM     17  C   UNL A   1      29.488  26.578  23.884  1.00  0.00     0.134 C 
ATOM     18  C   UNL A   1      28.200  27.445  23.622  1.00  0.00     0.287 C 
ATOM     19  N   UNL A   1      28.389  28.552  22.669  1.00  0.00    -0.329 N 
ATOM     20  C   UNL A   1      30.867  28.527  23.072  1.00  0.00     0.182 C 
ATOM     21  C   UNL A   1      27.296  29.534  22.685  1.00  0.00     0.262 C 
ATOM     22  C   UNL A   1      29.567  29.340  23.063  1.00  0.00     0.203 C 
ATOM     23  H   UNL A   1      28.460  28.105  21.755  1.00  0.00     0.348 HD
ATOM     24  C   UNL A   1      27.964  30.840  22.228  1.00  0.00     0.068 C 
ATOM     25  C   UNL A   1      29.459  30.529  22.139  1.00  0.00     0.073 C 
ENDBRANCH   9  15
ENDBRANCH   5   8
ENDBRANCH   3   4
ENDBRANCH   2   3
ENDBRANCH   1   2
BRANCH   1  26
ATOM     26  N   UNL A   1      32.799  33.683  27.616  1.00  0.00    -0.352 N 
ATOM     27  C   UNL A   1      34.112  34.038  27.812  1.00  0.00     0.251 C 
ATOM     28  H   UNL A   1      32.219  34.455  27.420  1.00  0.00     0.163 HD
ATOM     29  O   UNL A   1      34.425  35.221  27.669  1.00  0.00    -0.269 OA
BRANCH  27  30
ATOM     30  C   UNL A   1      35.164  33.075  28.200  1.00  0.00     0.039 A 
ATOM     31  C   UNL A   1      34.805  31.739  28.466  1.00  0.00     0.014 A 
ATOM     32  C   UNL A   1      36.471  33.484  28.434  1.00  0.00     0.014 A 
ATOM     33  C   UNL A   1      35.751  30.836  28.963  1.00  0.00     0.010 A 
ATOM     34  C   UNL A   1      37.438  32.565  28.807  1.00  0.00     0.010 A 
ATOM     35  C   UNL A   1      37.072  31.257  29.150  1.00  0.00    -0.014 A 
BRANCH  35  36
ATOM     36  C   UNL A   1      38.078  30.468  29.897  1.00  0.00     0.031 A 
ATOM     37  C   UNL A   1      38.319  30.841  31.339  1.00  0.00     0.074 A 
ATOM     38  C   UNL A   1      38.856  29.576  29.264  1.00  0.00     0.049 A 
ATOM     39  N   UNL A   1      39.320  30.543  32.119  1.00  0.00    -0.248 NA
ATOM     40  C   UNL A   1      37.323  31.736  31.960  1.00  0.00     0.031 C 
ATOM     41  C   UNL A   1      38.727  29.180  27.862  1.00  0.00     0.029 A 
ATOM     42  N   UNL A   1      39.951  28.883  29.711  1.00  0.00    -0.354 N 
ATOM     43  C   UNL A   1      39.118  31.276  33.286  1.00  0.00     0.074 A 
ATOM     44  C   UNL A   1      37.919  32.058  33.097  1.00  0.00     0.031 C 
ATOM     45  C   UNL A   1      39.724  28.334  27.553  1.00  0.00     0.029 A 
ATOM     46  C   UNL A   1      40.581  28.164  28.722  1.00  0.00     0.049 A 
ATOM     47  H   UNL A   1      40.257  28.900  30.646  1.00  0.00     0.167 HD
ATOM     48  C   UNL A   1      39.857  31.277  34.420  1.00  0.00     0.034 A 
ATOM     49  C   UNL A   1      41.736  27.472  28.760  1.00  0.00     0.034 A 
ATOM     50  C   UNL A   1      41.003  30.432  34.603  1.00  0.00     0.049 A 
ATOM     51  C   UNL A   1      42.499  27.426  30.058  1.00  0.00     0.074 A 
ATOM     52  C   UNL A   1      41.779  30.261  35.734  1.00  0.00     0.029 A 
ATOM     53  N   UNL A   1      41.530  29.604  33.622  1.00  0.00    -0.354 N 
ATOM     54  N   UNL A   1      42.242  28.038  31.190  1.00  0.00    -0.248 NA
ATOM     55  C   UNL A   1      43.687  26.564  30.098  1.00  0.00     0.031 C 
ATOM     56  C   UNL A   1      42.790  29.345  35.428  1.00  0.00     0.029 A 
ATOM     57  C   UNL A   1      42.620  28.916  34.120  1.00  0.00     0.049 A 
ATOM     58  H   UNL A   1      41.179  29.520  32.706  1.00  0.00     0.167 HD
ATOM     59  C   UNL A   1      43.208  27.603  32.090  1.00  0.00     0.074 A 
ATOM     60  C   UNL A   1      44.046  26.662  31.371  1.00  0.00     0.031 C 
ATOM     61  C   UNL A   1      43.396  27.948  33.388  1.00  0.00     0.034 A 
BRANCH  48  62
ATOM     62  C   UNL A   1      39.422  32.180  35.549  1.00  0.00     0.023 A 
ATOM     63  C   UNL A   1      38.531  31.701  36.532  1.00  0.00     0.012 A 
ATOM     64  C   UNL A   1      39.921  33.493  35.658  1.00  0.00     0.148 A 
ATOM     65  C   UNL A   1      38.106  32.525  37.574  1.00  0.00     0.002 A 
ATOM     66  C   UNL A   1      39.536  34.291  36.730  1.00  0.00     0.091 A 
ATOM     67  F   UNL A   1      40.751  33.944  34.706  1.00  0.00    -0.205 F 
ATOM     68  C   UNL A   1      38.617  33.815  37.679  1.00  0.00     0.022 A 
BRANCH  66  69
ATOM     69  S   UNL A   1      40.198  35.938  37.007  1.00  0.00     0.127 S 
ATOM     70  O   UNL A   1      39.711  36.655  35.832  1.00  0.00    -0.237 OA
ATOM     71  O   UNL A   1      39.558  36.317  38.265  1.00  0.00    -0.237 OA
ATOM     72  O   UNL A   1      41.647  35.782  37.083  1.00  0.00    -0.744 OA
ENDBRANCH  66  69
ENDBRANCH  48  62
BRANCH  49  73
ATOM     73  C   UNL A   1      42.198  26.723  27.558  1.00  0.00     0.023 A 
ATOM     74  C   UNL A   1      42.948  27.396  26.574  1.00  0.00     0.012 A 
ATOM     75  C   UNL A   1      41.943  25.347  27.402  1.00  0.00     0.148 A 
ATOM     76  C   UNL A   1      43.408  26.723  25.442  1.00  0.00     0.002 A 
ATOM     77  C   UNL A   1      42.452  24.669  26.300  1.00  0.00     0.091 A 
ATOM     78  F   UNL A   1      41.223  24.723  28.345  1.00  0.00    -0.205 F 
ATOM     79  C   UNL A   1      43.171  25.359  25.310  1.00  0.00     0.022 A 
BRANCH  77  80
ATOM     80  S   UNL A   1      42.313  22.887  26.112  1.00  0.00     0.127 S 
ATOM     81  O   UNL A   1      42.878  22.680  24.782  1.00  0.00    -0.237 OA
ATOM     82  O   UNL A   1      43.141  22.402  27.217  1.00  0.00    -0.237 OA
ATOM     83  O   UNL A   1      40.894  22.587  26.251  1.00  0.00    -0.744 OA
ENDBRANCH  77  80
ENDBRANCH  49  73
BRANCH  61  84
ATOM     84  C   UNL A   1      44.510  27.264  34.131  1.00  0.00     0.023 A 
ATOM     85  C   UNL A   1      45.796  27.836  34.165  1.00  0.00     0.012 A 
ATOM     86  C   UNL A   1      44.253  26.086  34.860  1.00  0.00     0.148 A 
ATOM     87  C   UNL A   1      46.821  27.223  34.884  1.00  0.00     0.002 A 
ATOM     88  C   UNL A   1      45.264  25.513  35.619  1.00  0.00     0.091 A 
ATOM     89  F   UNL A   1      43.024  25.551  34.801  1.00  0.00    -0.205 F 
ATOM     90  C   UNL A   1      46.553  26.071  35.620  1.00  0.00     0.022 A 
BRANCH  88  91
ATOM     91  S   UNL A   1      44.979  24.094  36.681  1.00  0.00     0.127 S 
ATOM     92  O   UNL A   1      44.152  23.244  35.825  1.00  0.00    -0.237 OA
ATOM     93  O   UNL A   1      46.337  23.598  36.906  1.00  0.00    -0.237 OA
ATOM     94  O   UNL A   1      44.319  24.609  37.873  1.00  0.00    -0.744 OA
ENDBRANCH  88  91
ENDBRANCH  61  84
ENDBRANCH  35  36
ENDBRANCH  27  30
ENDBRANCH   1  26
TORSDOF 14
ENDMDL
MODEL 3
REMARK VINA RESULT:     -12.6      5.778     10.834
REMARK SMILES C[C@H]1C[N@H+]2CCC[C@@H]2CN1c1cc(Cl)ccc1C(=O)NCCCNC(=O)c1ccc(-c2c3nc(c(-c4cccc(S(=O)(=O)[O-])c4F)c4ccc([nH]4)c(-c4cccc(S(=O)(=O)[O-])c4F)c4nc(c(-c5cccc(S(=O)(=O)[O-])c5F)c5ccc2[nH]5)C=C4)C=C3)cc1
REMARK SMILES IDX 23 1 22 2 21 3 20 4 18 5 19 6 17 8 11 9 12 10 13 11 16 12
REMARK SMILES IDX 14 13 15 14 10 15 1 16 2 17 3 18 4 19 9 20 5 21 8 22 6 24
REMARK SMILES IDX 7 25 24 26 25 27 26 29 27 30 28 31 89 32 29 33 88 34 30 35
REMARK SMILES IDX 31 36 32 37 82 38 33 39 87 40 81 41 83 42 34 43 86 44 80 45
REMARK SMILES IDX 79 46 35 48 67 49 47 50 66 51 48 52 51 53 65 54 84 55 49 56
REMARK SMILES IDX 50 57 64 59 85 60 52 61 36 62 37 63 45 64 38 65 40 66 46 67
REMARK SMILES IDX 39 68 41 69 42 70 43 71 44 72 68 73 69 74 77 75 70 76 72 77
REMARK SMILES IDX 78 78 71 79 73 80 74 81 75 82 76 83 53 84 54 85 62 86 55 87
REMARK SMILES IDX 57 88 63 89 56 90 58 91 59 92 60 93 61 94
REMARK H PARENT 20 7 4 23 24 28 83 47 51 58
REMARK Flexibility Score: inf
ROOT
ATOM      1  C   UNL A   1      36.491  21.999  25.363  1.00  0.00     0.118 C 
ENDROOT
BRANCH   1   2
ATOM      2  C   UNL A   1      36.127  22.578  24.008  1.00  0.00     0.042 C 
BRANCH   2   3
ATOM      3  C   UNL A   1      35.193  23.767  24.072  1.00  0.00     0.118 C 
BRANCH   3   4
ATOM      4  N   UNL A   1      34.185  23.909  23.067  1.00  0.00    -0.352 N 
ATOM      5  C   UNL A   1      32.969  24.536  23.252  1.00  0.00     0.253 C 
ATOM      6  O   UNL A   1      32.580  25.238  22.309  1.00  0.00    -0.269 OA
ATOM      7  H   UNL A   1      34.372  23.530  22.178  1.00  0.00     0.163 HD
BRANCH   5   8
ATOM      8  C   UNL A   1      32.004  24.284  24.391  1.00  0.00     0.063 A 
ATOM      9  C   UNL A   1      31.280  25.167  25.243  1.00  0.00     0.052 A 
ATOM     10  C   UNL A   1      30.416  24.586  26.210  1.00  0.00     0.047 A 
ATOM     11  C   UNL A   1      30.278  23.209  26.365  1.00  0.00     0.043 A 
ATOM     12  C   UNL A   1      31.826  22.885  24.574  1.00  0.00     0.017 A 
ATOM     13  Cl  UNL A   1      29.229  22.577  27.572  1.00  0.00    -0.084 Cl
ATOM     14  C   UNL A   1      30.984  22.349  25.548  1.00  0.00     0.021 A 
BRANCH   9  15
ATOM     15  N   UNL A   1      31.329  26.563  25.206  1.00  0.00    -0.357 N 
ATOM     16  C   UNL A   1      29.472  26.786  23.513  1.00  0.00     0.037 C 
ATOM     17  C   UNL A   1      30.829  27.323  24.001  1.00  0.00     0.134 C 
ATOM     18  C   UNL A   1      30.642  28.857  24.307  1.00  0.00     0.287 C 
ATOM     19  N   UNL A   1      31.739  29.467  25.077  1.00  0.00    -0.329 N 
ATOM     20  C   UNL A   1      32.437  27.216  25.942  1.00  0.00     0.182 C 
ATOM     21  C   UNL A   1      31.405  30.787  25.630  1.00  0.00     0.262 C 
ATOM     22  C   UNL A   1      32.011  28.652  26.271  1.00  0.00     0.203 C 
ATOM     23  H   UNL A   1      32.516  29.537  24.421  1.00  0.00     0.348 HD
ATOM     24  C   UNL A   1      32.295  30.903  26.877  1.00  0.00     0.068 C 
ATOM     25  C   UNL A   1      32.968  29.538  27.032  1.00  0.00     0.073 C 
ENDBRANCH   9  15
ENDBRANCH   5   8
ENDBRANCH   3   4
ENDBRANCH   2   3
ENDBRANCH   1   2
BRANCH   1  26
ATOM     26  N   UNL A   1      37.648  21.102  25.364  1.00  0.00    -0.352 N 
ATOM     27  C   UNL A   1      38.926  21.187  25.863  1.00  0.00     0.251 C 
ATOM     28  H   UNL A   1      37.473  20.248  24.906  1.00  0.00     0.163 HD
ATOM     29  O   UNL A   1      39.666  20.210  25.744  1.00  0.00    -0.269 OA
BRANCH  27  30
ATOM     30  C   UNL A   1      39.461  22.398  26.521  1.00  0.00     0.039 A 
ATOM     31  C   UNL A   1      38.967  23.660  26.139  1.00  0.00     0.014 A 
ATOM     32  C   UNL A   1      40.527  22.329  27.410  1.00  0.00     0.014 A 
ATOM     33  C   UNL A   1      39.544  24.830  26.644  1.00  0.00     0.010 A 
ATOM     34  C   UNL A   1      41.019  23.478  28.006  1.00  0.00     0.010 A 
ATOM     35  C   UNL A   1      40.587  24.738  27.571  1.00  0.00    -0.014 A 
BRANCH  35  36
ATOM     36  C   UNL A   1      41.423  25.892  27.971  1.00  0.00     0.031 A 
ATOM     37  C   UNL A   1      40.753  26.997  28.749  1.00  0.00     0.074 A 
ATOM     38  C   UNL A   1      42.678  26.021  27.511  1.00  0.00     0.049 A 
ATOM     39  N   UNL A   1      41.141  28.224  28.956  1.00  0.00    -0.248 NA
ATOM     40  C   UNL A   1      39.421  26.690  29.309  1.00  0.00     0.031 C 
ATOM     41  C   UNL A   1      43.398  25.027  26.716  1.00  0.00     0.029 A 
ATOM     42  N   UNL A   1      43.549  27.076  27.601  1.00  0.00    -0.354 N 
ATOM     43  C   UNL A   1      40.075  28.854  29.593  1.00  0.00     0.074 A 
ATOM     44  C   UNL A   1      39.011  27.884  29.705  1.00  0.00     0.031 C 
ATOM     45  C   UNL A   1      44.593  25.529  26.365  1.00  0.00     0.029 A 
ATOM     46  C   UNL A   1      44.702  26.892  26.875  1.00  0.00     0.049 A 
ATOM     47  H   UNL A   1      43.366  27.884  28.131  1.00  0.00     0.167 HD
ATOM     48  C   UNL A   1      40.001  30.122  30.059  1.00  0.00     0.034 A 
ATOM     49  C   UNL A   1      45.715  27.748  26.632  1.00  0.00     0.034 A 
ATOM     50  C   UNL A   1      41.103  31.040  29.997  1.00  0.00     0.049 A 
ATOM     51  C   UNL A   1      45.643  29.128  27.229  1.00  0.00     0.074 A 
ATOM     52  C   UNL A   1      41.196  32.316  30.520  1.00  0.00     0.029 A 
ATOM     53  N   UNL A   1      42.314  30.768  29.377  1.00  0.00    -0.354 N 
ATOM     54  N   UNL A   1      44.674  29.680  27.921  1.00  0.00    -0.248 NA
ATOM     55  C   UNL A   1      46.818  29.991  27.046  1.00  0.00     0.031 C 
ATOM     56  C   UNL A   1      42.458  32.824  30.196  1.00  0.00     0.029 A 
ATOM     57  C   UNL A   1      43.164  31.850  29.506  1.00  0.00     0.049 A 
ATOM     58  H   UNL A   1      42.535  29.928  28.914  1.00  0.00     0.167 HD
ATOM     59  C   UNL A   1      45.138  30.936  28.296  1.00  0.00     0.074 A 
ATOM     60  C   UNL A   1      46.482  31.054  27.764  1.00  0.00     0.031 C 
ATOM     61  C   UNL A   1      44.514  31.909  29.007  1.00  0.00     0.034 A 
BRANCH  48  62
ATOM     62  C   UNL A   1      38.712  30.565  30.709  1.00  0.00     0.023 A 
ATOM     63  C   UNL A   1      38.470  30.273  32.068  1.00  0.00     0.012 A 
ATOM     64  C   UNL A   1      37.753  31.300  29.985  1.00  0.00     0.148 A 
ATOM     65  C   UNL A   1      37.279  30.660  32.681  1.00  0.00     0.002 A 
ATOM     66  C   UNL A   1      36.592  31.732  30.617  1.00  0.00     0.091 A 
ATOM     67  F   UNL A   1      37.985  31.554  28.689  1.00  0.00    -0.205 F 
ATOM     68  C   UNL A   1      36.346  31.399  31.960  1.00  0.00     0.022 A 
BRANCH  66  69
ATOM     69  S   UNL A   1      35.363  32.760  29.806  1.00  0.00     0.127 S 
ATOM     70  O   UNL A   1      34.940  31.901  28.702  1.00  0.00    -0.237 OA
ATOM     71  O   UNL A   1      34.366  32.937  30.860  1.00  0.00    -0.237 OA
ATOM     72  O   UNL A   1      36.056  33.982  29.411  1.00  0.00    -0.744 OA
ENDBRANCH  66  69
ENDBRANCH  48  62
BRANCH  49  73
ATOM     73  C   UNL A   1      46.898  27.299  25.846  1.00  0.00     0.023 A 
ATOM     74  C   UNL A   1      47.814  26.404  26.432  1.00  0.00     0.012 A 
ATOM     75  C   UNL A   1      47.099  27.709  24.514  1.00  0.00     0.148 A 
ATOM     76  C   UNL A   1      48.926  25.952  25.721  1.00  0.00     0.002 A 
ATOM     77  C   UNL A   1      48.178  27.210  23.791  1.00  0.00     0.091 A 
ATOM     78  F   UNL A   1      46.221  28.564  23.972  1.00  0.00    -0.205 F 
ATOM     79  C   UNL A   1      49.102  26.345  24.398  1.00  0.00     0.022 A 
BRANCH  77  80
ATOM     80  S   UNL A   1      48.412  27.553  22.043  1.00  0.00     0.127 S 
ATOM     81  O   UNL A   1      47.153  28.205  21.694  1.00  0.00    -0.237 OA
ATOM     82  O   UNL A   1      49.579  28.436  22.062  1.00  0.00    -0.237 OA
ATOM     83  O   UNL A   1      48.650  26.259  21.416  1.00  0.00    -0.744 OA
ENDBRANCH  77  80
ENDBRANCH  49  73
BRANCH  61  84
ATOM     84  C   UNL A   1      45.298  33.158  29.303  1.00  0.00     0.023 A 
ATOM     85  C   UNL A   1      46.110  33.230  30.451  1.00  0.00     0.012 A 
ATOM     86  C   UNL A   1      45.282  34.232  28.392  1.00  0.00     0.148 A 
ATOM     87  C   UNL A   1      46.867  34.373  30.707  1.00  0.00     0.002 A 
ATOM     88  C   UNL A   1      46.082  35.343  28.626  1.00  0.00     0.091 A 
ATOM     89  F   UNL A   1      44.489  34.148  27.314  1.00  0.00    -0.205 F 
ATOM     90  C   UNL A   1      46.863  35.422  29.790  1.00  0.00     0.022 A 
BRANCH  88  91
ATOM     91  S   UNL A   1      46.220  36.690  27.447  1.00  0.00     0.127 S 
ATOM     92  O   UNL A   1      44.893  37.297  27.533  1.00  0.00    -0.237 OA
ATOM     93  O   UNL A   1      47.299  37.495  28.022  1.00  0.00    -0.237 OA
ATOM     94  O   UNL A   1      46.544  36.074  26.168  1.00  0.00    -0.744 OA
ENDBRANCH  88  91
ENDBRANCH  61  84
ENDBRANCH  35  36
ENDBRANCH  27  30
ENDBRANCH   1  26
TORSDOF 14
ENDMDL
