MODEL 1
REMARK VINA RESULT:     -12.9      0.000      0.000
REMARK SMILES Cc1cc(Cl)cc2c1O[C@H](C(F)(F)F)C(C(=O)NCCCNC(=O)c1ccc(-c3c4nc(c(-c5cccc(S(=O)(=O)[O-])c5F)c5ccc([nH]5)c(-c5cccc(S(=O)(=O)[O-])c5F)c5nc(c(-c6cccc(S(=O)(=O)[O-])c6F)c6ccc3[nH]6)C=C5)C=C4)cc1)=C2
REMARK SMILES IDX 21 1 20 2 19 3 18 4 16 5 17 6 15 8 1 9 2 10 3 11 8 12 4 13
REMARK SMILES IDX 7 14 9 15 5 16 6 17 88 18 10 19 11 20 12 21 13 22 14 23
REMARK SMILES IDX 22 24 23 25 24 27 25 28 26 29 87 30 27 31 86 32 28 33 29 34
REMARK SMILES IDX 30 35 80 36 31 37 85 38 79 39 81 40 32 41 84 42 78 43 77 44
REMARK SMILES IDX 33 46 65 47 45 48 64 49 46 50 49 51 63 52 82 53 47 54 48 55
REMARK SMILES IDX 62 57 83 58 50 59 34 60 35 61 43 62 36 63 38 64 44 65 37 66
REMARK SMILES IDX 39 67 40 68 41 69 42 70 66 71 67 72 75 73 68 74 70 75 76 76
REMARK SMILES IDX 69 77 71 78 72 79 73 80 74 81 51 82 52 83 60 84 53 85 55 86
REMARK SMILES IDX 61 87 54 88 56 89 57 90 58 91 59 92
REMARK H PARENT 18 7 22 26 81 45 49 56
REMARK Flexibility Score: inf
ROOT
ATOM      1  C   UNL A   1      33.245  29.025  25.071  1.00  0.00     0.118 C 
ENDROOT
BRANCH   1   2
ATOM      2  C   UNL A   1      33.183  28.950  23.551  1.00  0.00     0.042 C 
BRANCH   2   3
ATOM      3  C   UNL A   1      32.063  28.042  23.071  1.00  0.00     0.118 C 
BRANCH   3   4
ATOM      4  N   UNL A   1      32.496  27.156  22.000  1.00  0.00    -0.352 N 
ATOM      5  C   UNL A   1      32.988  25.901  21.889  1.00  0.00     0.251 C 
ATOM      6  O   UNL A   1      33.208  25.519  20.735  1.00  0.00    -0.270 OA
ATOM      7  H   UNL A   1      32.408  27.587  21.119  1.00  0.00     0.163 HD
BRANCH   5   8
ATOM      8  C   UNL A   1      33.254  24.983  23.033  1.00  0.00     0.067 C 
ATOM      9  C   UNL A   1      33.313  22.419  27.495  1.00  0.00     0.048 C 
ATOM     10  C   UNL A   1      34.186  22.473  26.273  1.00  0.00    -0.007 A 
ATOM     11  C   UNL A   1      35.321  21.655  26.195  1.00  0.00     0.027 A 
ATOM     12  C   UNL A   1      33.921  23.355  25.217  1.00  0.00     0.131 A 
ATOM     13  C   UNL A   1      36.155  21.715  25.078  1.00  0.00     0.042 A 
ATOM     14  C   UNL A   1      34.754  23.415  24.094  1.00  0.00     0.019 A 
ATOM     15  O   UNL A   1      32.846  24.186  25.355  1.00  0.00    -0.475 OA
ATOM     16  Cl  UNL A   1      37.544  20.701  24.999  1.00  0.00    -0.084 Cl
ATOM     17  C   UNL A   1      35.878  22.589  24.027  1.00  0.00     0.032 A 
ATOM     18  C   UNL A   1      34.448  24.360  23.025  1.00  0.00     0.025 C 
ATOM     19  C   UNL A   1      32.271  24.706  24.131  1.00  0.00     0.314 C 
BRANCH  19  20
ATOM     20  C   UNL A   1      31.123  23.780  23.680  1.00  0.00     0.429 C 
ATOM     21  F   UNL A   1      30.627  23.085  24.734  1.00  0.00    -0.167 F 
ATOM     22  F   UNL A   1      30.081  24.460  23.144  1.00  0.00    -0.167 F 
ATOM     23  F   UNL A   1      31.514  22.878  22.751  1.00  0.00    -0.167 F 
ENDBRANCH  19  20
ENDBRANCH   5   8
ENDBRANCH   3   4
ENDBRANCH   2   3
ENDBRANCH   1   2
BRANCH   1  24
ATOM     24  N   UNL A   1      32.670  30.272  25.574  1.00  0.00    -0.352 N 
ATOM     25  C   UNL A   1      32.968  30.989  26.705  1.00  0.00     0.251 C 
ATOM     26  H   UNL A   1      31.960  30.658  25.013  1.00  0.00     0.163 HD
ATOM     27  O   UNL A   1      32.183  31.848  27.106  1.00  0.00    -0.269 OA
BRANCH  25  28
ATOM     28  C   UNL A   1      34.225  30.731  27.433  1.00  0.00     0.039 A 
ATOM     29  C   UNL A   1      35.137  31.772  27.627  1.00  0.00     0.014 A 
ATOM     30  C   UNL A   1      34.511  29.447  27.902  1.00  0.00     0.014 A 
ATOM     31  C   UNL A   1      36.310  31.531  28.343  1.00  0.00     0.010 A 
ATOM     32  C   UNL A   1      35.621  29.237  28.706  1.00  0.00     0.010 A 
ATOM     33  C   UNL A   1      36.546  30.269  28.913  1.00  0.00    -0.014 A 
BRANCH  33  34
ATOM     34  C   UNL A   1      37.769  29.988  29.701  1.00  0.00     0.031 A 
ATOM     35  C   UNL A   1      38.835  29.090  29.132  1.00  0.00     0.074 A 
ATOM     36  C   UNL A   1      37.884  30.477  30.950  1.00  0.00     0.049 A 
ATOM     37  N   UNL A   1      39.950  28.687  29.681  1.00  0.00    -0.248 NA
ATOM     38  C   UNL A   1      38.604  28.546  27.782  1.00  0.00     0.031 C 
ATOM     39  C   UNL A   1      36.877  31.294  31.632  1.00  0.00     0.029 A 
ATOM     40  N   UNL A   1      38.887  30.346  31.875  1.00  0.00    -0.354 N 
ATOM     41  C   UNL A   1      40.534  27.825  28.762  1.00  0.00     0.074 A 
ATOM     42  C   UNL A   1      39.627  27.716  27.644  1.00  0.00     0.031 C 
ATOM     43  C   UNL A   1      37.325  31.611  32.857  1.00  0.00     0.029 A 
ATOM     44  C   UNL A   1      38.633  30.995  33.061  1.00  0.00     0.049 A 
ATOM     45  H   UNL A   1      39.712  29.835  31.707  1.00  0.00     0.167 HD
ATOM     46  C   UNL A   1      41.740  27.215  28.822  1.00  0.00     0.034 A 
ATOM     47  C   UNL A   1      39.374  31.086  34.182  1.00  0.00     0.034 A 
ATOM     48  C   UNL A   1      42.658  27.373  29.915  1.00  0.00     0.049 A 
ATOM     49  C   UNL A   1      40.725  30.422  34.215  1.00  0.00     0.074 A 
ATOM     50  C   UNL A   1      43.939  26.869  30.039  1.00  0.00     0.029 A 
ATOM     51  N   UNL A   1      42.393  28.089  31.073  1.00  0.00    -0.354 N 
ATOM     52  N   UNL A   1      41.328  29.736  33.275  1.00  0.00    -0.248 NA
ATOM     53  C   UNL A   1      41.509  30.567  35.450  1.00  0.00     0.031 C 
ATOM     54  C   UNL A   1      44.440  27.259  31.283  1.00  0.00     0.029 A 
ATOM     55  C   UNL A   1      43.482  28.028  31.924  1.00  0.00     0.049 A 
ATOM     56  H   UNL A   1      41.555  28.569  31.261  1.00  0.00     0.167 HD
ATOM     57  C   UNL A   1      42.570  29.387  33.792  1.00  0.00     0.074 A 
ATOM     58  C   UNL A   1      42.643  29.961  35.120  1.00  0.00     0.031 C 
ATOM     59  C   UNL A   1      43.553  28.642  33.226  1.00  0.00     0.034 A 
BRANCH  46  60
ATOM     60  C   UNL A   1      42.166  26.381  27.642  1.00  0.00     0.023 A 
ATOM     61  C   UNL A   1      42.983  26.956  26.646  1.00  0.00     0.012 A 
ATOM     62  C   UNL A   1      41.821  25.019  27.549  1.00  0.00     0.148 A 
ATOM     63  C   UNL A   1      43.423  26.201  25.561  1.00  0.00     0.002 A 
ATOM     64  C   UNL A   1      42.305  24.258  26.490  1.00  0.00     0.091 A 
ATOM     65  F   UNL A   1      41.026  24.494  28.492  1.00  0.00    -0.205 F 
ATOM     66  C   UNL A   1      43.094  24.851  25.489  1.00  0.00     0.022 A 
BRANCH  64  67
ATOM     67  S   UNL A   1      42.014  22.492  26.349  1.00  0.00     0.127 S 
ATOM     68  O   UNL A   1      40.553  22.434  26.327  1.00  0.00    -0.237 OA
ATOM     69  O   UNL A   1      42.655  22.178  25.071  1.00  0.00    -0.237 OA
ATOM     70  O   UNL A   1      42.644  21.885  27.512  1.00  0.00    -0.744 OA
ENDBRANCH  64  67
ENDBRANCH  46  60
BRANCH  47  71
ATOM     71  C   UNL A   1      38.886  31.916  35.321  1.00  0.00     0.023 A 
ATOM     72  C   UNL A   1      38.902  33.320  35.204  1.00  0.00     0.012 A 
ATOM     73  C   UNL A   1      38.339  31.331  36.480  1.00  0.00     0.148 A 
ATOM     74  C   UNL A   1      38.400  34.126  36.225  1.00  0.00     0.002 A 
ATOM     75  C   UNL A   1      37.788  32.138  37.469  1.00  0.00     0.091 A 
ATOM     76  F   UNL A   1      38.339  29.994  36.576  1.00  0.00    -0.205 F 
ATOM     77  C   UNL A   1      37.832  33.536  37.351  1.00  0.00     0.022 A 
BRANCH  75  78
ATOM     78  S   UNL A   1      36.904  31.470  38.884  1.00  0.00     0.127 S 
ATOM     79  O   UNL A   1      35.722  32.327  38.932  1.00  0.00    -0.237 OA
ATOM     80  O   UNL A   1      36.651  30.093  38.454  1.00  0.00    -0.237 OA
ATOM     81  O   UNL A   1      37.816  31.590  40.012  1.00  0.00    -0.744 OA
ENDBRANCH  75  78
ENDBRANCH  47  71
BRANCH  59  82
ATOM     82  C   UNL A   1      44.803  28.394  34.030  1.00  0.00     0.023 A 
ATOM     83  C   UNL A   1      45.851  29.333  33.987  1.00  0.00     0.012 A 
ATOM     84  C   UNL A   1      44.881  27.307  34.924  1.00  0.00     0.148 A 
ATOM     85  C   UNL A   1      46.967  29.186  34.809  1.00  0.00     0.002 A 
ATOM     86  C   UNL A   1      45.971  27.197  35.778  1.00  0.00     0.091 A 
ATOM     87  F   UNL A   1      43.877  26.418  34.939  1.00  0.00    -0.205 F 
ATOM     88  C   UNL A   1      47.020  28.128  35.715  1.00  0.00     0.022 A 
BRANCH  86  89
ATOM     89  S   UNL A   1      46.078  25.936  37.054  1.00  0.00     0.127 S 
ATOM     90  O   UNL A   1      47.382  26.224  37.649  1.00  0.00    -0.237 OA
ATOM     91  O   UNL A   1      44.934  26.260  37.905  1.00  0.00    -0.237 OA
ATOM     92  O   UNL A   1      45.980  24.655  36.366  1.00  0.00    -0.744 OA
ENDBRANCH  86  89
ENDBRANCH  59  82
ENDBRANCH  33  34
ENDBRANCH  25  28
ENDBRANCH   1  24
TORSDOF 14
ENDMDL
MODEL 2
REMARK VINA RESULT:     -12.8      1.364      1.652
REMARK SMILES Cc1cc(Cl)cc2c1O[C@H](C(F)(F)F)C(C(=O)NCCCNC(=O)c1ccc(-c3c4nc(c(-c5cccc(S(=O)(=O)[O-])c5F)c5ccc([nH]5)c(-c5cccc(S(=O)(=O)[O-])c5F)c5nc(c(-c6cccc(S(=O)(=O)[O-])c6F)c6ccc3[nH]6)C=C5)C=C4)cc1)=C2
REMARK SMILES IDX 21 1 20 2 19 3 18 4 16 5 17 6 15 8 1 9 2 10 3 11 8 12 4 13
REMARK SMILES IDX 7 14 9 15 5 16 6 17 88 18 10 19 11 20 12 21 13 22 14 23
REMARK SMILES IDX 22 24 23 25 24 27 25 28 26 29 87 30 27 31 86 32 28 33 29 34
REMARK SMILES IDX 30 35 80 36 31 37 85 38 79 39 81 40 32 41 84 42 78 43 77 44
REMARK SMILES IDX 33 46 65 47 45 48 64 49 46 50 49 51 63 52 82 53 47 54 48 55
REMARK SMILES IDX 62 57 83 58 50 59 34 60 35 61 43 62 36 63 38 64 44 65 37 66
REMARK SMILES IDX 39 67 40 68 41 69 42 70 66 71 67 72 75 73 68 74 70 75 76 76
REMARK SMILES IDX 69 77 71 78 72 79 73 80 74 81 51 82 52 83 60 84 53 85 55 86
REMARK SMILES IDX 61 87 54 88 56 89 57 90 58 91 59 92
REMARK H PARENT 18 7 22 26 81 45 49 56
REMARK Flexibility Score: inf
ROOT
ATOM      1  C   UNL A   1      33.237  29.026  25.154  1.00  0.00     0.118 C 
ENDROOT
BRANCH   1   2
ATOM      2  C   UNL A   1      33.225  28.954  23.633  1.00  0.00     0.042 C 
BRANCH   2   3
ATOM      3  C   UNL A   1      32.073  28.111  23.110  1.00  0.00     0.118 C 
BRANCH   3   4
ATOM      4  N   UNL A   1      32.487  27.223  22.034  1.00  0.00    -0.352 N 
ATOM      5  C   UNL A   1      32.962  25.963  21.916  1.00  0.00     0.251 C 
ATOM      6  O   UNL A   1      33.169  25.581  20.759  1.00  0.00    -0.270 OA
ATOM      7  H   UNL A   1      32.397  27.657  21.154  1.00  0.00     0.163 HD
BRANCH   5   8
ATOM      8  C   UNL A   1      33.227  25.039  23.056  1.00  0.00     0.067 C 
ATOM      9  C   UNL A   1      33.330  22.498  27.530  1.00  0.00     0.048 C 
ATOM     10  C   UNL A   1      34.158  22.503  26.276  1.00  0.00    -0.007 A 
ATOM     11  C   UNL A   1      35.249  21.631  26.161  1.00  0.00     0.027 A 
ATOM     12  C   UNL A   1      33.897  23.391  25.225  1.00  0.00     0.131 A 
ATOM     13  C   UNL A   1      36.042  21.645  25.013  1.00  0.00     0.042 A 
ATOM     14  C   UNL A   1      34.689  23.405  24.071  1.00  0.00     0.019 A 
ATOM     15  O   UNL A   1      32.869  24.274  25.397  1.00  0.00    -0.475 OA
ATOM     16  Cl  UNL A   1      37.377  20.565  24.889  1.00  0.00    -0.084 Cl
ATOM     17  C   UNL A   1      35.768  22.526  23.968  1.00  0.00     0.032 A 
ATOM     18  C   UNL A   1      34.389  24.359  23.007  1.00  0.00     0.025 C 
ATOM     19  C   UNL A   1      32.273  24.816  24.191  1.00  0.00     0.314 C 
BRANCH  19  20
ATOM     20  C   UNL A   1      31.066  23.943  23.789  1.00  0.00     0.429 C 
ATOM     21  F   UNL A   1      30.074  24.711  23.273  1.00  0.00    -0.167 F 
ATOM     22  F   UNL A   1      31.375  23.026  22.842  1.00  0.00    -0.167 F 
ATOM     23  F   UNL A   1      30.545  23.260  24.834  1.00  0.00    -0.167 F 
ENDBRANCH  19  20
ENDBRANCH   5   8
ENDBRANCH   3   4
ENDBRANCH   2   3
ENDBRANCH   1   2
BRANCH   1  24
ATOM     24  N   UNL A   1      32.700  30.297  25.638  1.00  0.00    -0.352 N 
ATOM     25  C   UNL A   1      33.039  31.036  26.743  1.00  0.00     0.251 C 
ATOM     26  H   UNL A   1      31.984  30.684  25.084  1.00  0.00     0.163 HD
ATOM     27  O   UNL A   1      32.283  31.922  27.140  1.00  0.00    -0.269 OA
BRANCH  25  28
ATOM     28  C   UNL A   1      34.308  30.770  27.447  1.00  0.00     0.039 A 
ATOM     29  C   UNL A   1      35.233  31.803  27.619  1.00  0.00     0.014 A 
ATOM     30  C   UNL A   1      34.591  29.485  27.917  1.00  0.00     0.014 A 
ATOM     31  C   UNL A   1      36.417  31.555  28.313  1.00  0.00     0.010 A 
ATOM     32  C   UNL A   1      35.715  29.269  28.700  1.00  0.00     0.010 A 
ATOM     33  C   UNL A   1      36.653  30.293  28.884  1.00  0.00    -0.014 A 
BRANCH  33  34
ATOM     34  C   UNL A   1      37.889  30.005  29.649  1.00  0.00     0.031 A 
ATOM     35  C   UNL A   1      38.927  29.081  29.071  1.00  0.00     0.074 A 
ATOM     36  C   UNL A   1      38.039  30.511  30.887  1.00  0.00     0.049 A 
ATOM     37  N   UNL A   1      40.047  28.668  29.602  1.00  0.00    -0.248 NA
ATOM     38  C   UNL A   1      38.658  28.520  27.735  1.00  0.00     0.031 C 
ATOM     39  C   UNL A   1      37.061  31.355  31.578  1.00  0.00     0.029 A 
ATOM     40  N   UNL A   1      39.060  30.377  31.792  1.00  0.00    -0.354 N 
ATOM     41  C   UNL A   1      40.598  27.783  28.684  1.00  0.00     0.074 A 
ATOM     42  C   UNL A   1      39.664  27.671  27.587  1.00  0.00     0.031 C 
ATOM     43  C   UNL A   1      37.541  31.683  32.788  1.00  0.00     0.029 A 
ATOM     44  C   UNL A   1      38.844  31.049  32.973  1.00  0.00     0.049 A 
ATOM     45  H   UNL A   1      39.873  29.851  31.614  1.00  0.00     0.167 HD
ATOM     46  C   UNL A   1      41.795  27.154  28.727  1.00  0.00     0.034 A 
ATOM     47  C   UNL A   1      39.611  31.146  34.076  1.00  0.00     0.034 A 
ATOM     48  C   UNL A   1      42.739  27.314  29.797  1.00  0.00     0.049 A 
ATOM     49  C   UNL A   1      40.951  30.460  34.090  1.00  0.00     0.074 A 
ATOM     50  C   UNL A   1      44.014  26.791  29.900  1.00  0.00     0.029 A 
ATOM     51  N   UNL A   1      42.511  28.052  30.949  1.00  0.00    -0.354 N 
ATOM     52  N   UNL A   1      41.522  29.750  33.147  1.00  0.00    -0.248 NA
ATOM     53  C   UNL A   1      41.765  30.611  35.304  1.00  0.00     0.031 C 
ATOM     54  C   UNL A   1      44.549  27.192  31.127  1.00  0.00     0.029 A 
ATOM     55  C   UNL A   1      43.617  27.986  31.777  1.00  0.00     0.049 A 
ATOM     56  H   UNL A   1      41.685  28.549  31.148  1.00  0.00     0.167 HD
ATOM     57  C   UNL A   1      42.769  29.388  33.642  1.00  0.00     0.074 A 
ATOM     58  C   UNL A   1      42.881  29.982  34.959  1.00  0.00     0.031 C 
ATOM     59  C   UNL A   1      43.728  28.620  33.067  1.00  0.00     0.034 A 
BRANCH  46  60
ATOM     60  C   UNL A   1      42.181  26.295  27.551  1.00  0.00     0.023 A 
ATOM     61  C   UNL A   1      42.960  26.850  26.515  1.00  0.00     0.012 A 
ATOM     62  C   UNL A   1      41.837  24.930  27.500  1.00  0.00     0.148 A 
ATOM     63  C   UNL A   1      43.363  26.072  25.431  1.00  0.00     0.002 A 
ATOM     64  C   UNL A   1      42.285  24.147  26.442  1.00  0.00     0.091 A 
ATOM     65  F   UNL A   1      41.078  24.425  28.482  1.00  0.00    -0.205 F 
ATOM     66  C   UNL A   1      43.036  24.719  25.401  1.00  0.00     0.022 A 
BRANCH  64  67
ATOM     67  S   UNL A   1      41.994  22.378  26.350  1.00  0.00     0.127 S 
ATOM     68  O   UNL A   1      42.788  22.009  25.179  1.00  0.00    -0.237 OA
ATOM     69  O   UNL A   1      42.537  21.911  27.627  1.00  0.00    -0.237 OA
ATOM     70  O   UNL A   1      40.555  22.214  26.203  1.00  0.00    -0.744 OA
ENDBRANCH  64  67
ENDBRANCH  46  60
BRANCH  47  71
ATOM     71  C   UNL A   1      39.161  32.001  35.212  1.00  0.00     0.023 A 
ATOM     72  C   UNL A   1      38.314  31.451  36.192  1.00  0.00     0.012 A 
ATOM     73  C   UNL A   1      39.625  33.323  35.369  1.00  0.00     0.148 A 
ATOM     74  C   UNL A   1      37.921  32.204  37.299  1.00  0.00     0.002 A 
ATOM     75  C   UNL A   1      39.276  34.048  36.503  1.00  0.00     0.091 A 
ATOM     76  F   UNL A   1      40.425  33.832  34.422  1.00  0.00    -0.205 F 
ATOM     77  C   UNL A   1      38.411  33.497  37.461  1.00  0.00     0.022 A 
BRANCH  75  78
ATOM     78  S   UNL A   1      39.973  35.663  36.872  1.00  0.00     0.127 S 
ATOM     79  O   UNL A   1      39.333  35.982  38.145  1.00  0.00    -0.237 OA
ATOM     80  O   UNL A   1      41.402  35.358  36.959  1.00  0.00    -0.237 OA
ATOM     81  O   UNL A   1      39.607  36.517  35.751  1.00  0.00    -0.744 OA
ENDBRANCH  75  78
ENDBRANCH  47  71
BRANCH  59  82
ATOM     82  C   UNL A   1      44.991  28.363  33.847  1.00  0.00     0.023 A 
ATOM     83  C   UNL A   1      46.042  29.298  33.787  1.00  0.00     0.012 A 
ATOM     84  C   UNL A   1      45.080  27.273  34.737  1.00  0.00     0.148 A 
ATOM     85  C   UNL A   1      47.173  29.143  34.589  1.00  0.00     0.002 A 
ATOM     86  C   UNL A   1      46.186  27.156  35.570  1.00  0.00     0.091 A 
ATOM     87  F   UNL A   1      44.073  26.389  34.767  1.00  0.00    -0.205 F 
ATOM     88  C   UNL A   1      47.237  28.083  35.490  1.00  0.00     0.022 A 
BRANCH  86  89
ATOM     89  S   UNL A   1      46.311  25.890  36.840  1.00  0.00     0.127 S 
ATOM     90  O   UNL A   1      47.671  26.097  37.333  1.00  0.00    -0.237 OA
ATOM     91  O   UNL A   1      45.256  26.286  37.773  1.00  0.00    -0.237 OA
ATOM     92  O   UNL A   1      46.081  24.618  36.167  1.00  0.00    -0.744 OA
ENDBRANCH  86  89
ENDBRANCH  59  82
ENDBRANCH  33  34
ENDBRANCH  25  28
ENDBRANCH   1  24
TORSDOF 14
ENDMDL
MODEL 3
REMARK VINA RESULT:     -12.8      1.443      7.713
REMARK SMILES Cc1cc(Cl)cc2c1O[C@H](C(F)(F)F)C(C(=O)NCCCNC(=O)c1ccc(-c3c4nc(c(-c5cccc(S(=O)(=O)[O-])c5F)c5ccc([nH]5)c(-c5cccc(S(=O)(=O)[O-])c5F)c5nc(c(-c6cccc(S(=O)(=O)[O-])c6F)c6ccc3[nH]6)C=C5)C=C4)cc1)=C2
REMARK SMILES IDX 21 1 20 2 19 3 18 4 16 5 17 6 15 8 1 9 2 10 3 11 8 12 4 13
REMARK SMILES IDX 7 14 9 15 5 16 6 17 88 18 10 19 11 20 12 21 13 22 14 23
REMARK SMILES IDX 22 24 23 25 24 27 25 28 26 29 87 30 27 31 86 32 28 33 29 34
REMARK SMILES IDX 30 35 80 36 31 37 85 38 79 39 81 40 32 41 84 42 78 43 77 44
REMARK SMILES IDX 33 46 65 47 45 48 64 49 46 50 49 51 63 52 82 53 47 54 48 55
REMARK SMILES IDX 62 57 83 58 50 59 34 60 35 61 43 62 36 63 38 64 44 65 37 66
REMARK SMILES IDX 39 67 40 68 41 69 42 70 66 71 67 72 75 73 68 74 70 75 76 76
REMARK SMILES IDX 69 77 71 78 72 79 73 80 74 81 51 82 52 83 60 84 53 85 55 86
REMARK SMILES IDX 61 87 54 88 56 89 57 90 58 91 59 92
REMARK H PARENT 18 7 22 26 81 45 49 56
REMARK Flexibility Score: inf
ROOT
ATOM      1  C   UNL A   1      33.202  29.088  25.433  1.00  0.00     0.118 C 
ENDROOT
BRANCH   1   2
ATOM      2  C   UNL A   1      33.326  28.964  23.920  1.00  0.00     0.042 C 
BRANCH   2   3
ATOM      3  C   UNL A   1      32.165  28.194  23.313  1.00  0.00     0.118 C 
BRANCH   3   4
ATOM      4  N   UNL A   1      32.588  27.341  22.212  1.00  0.00    -0.352 N 
ATOM      5  C   UNL A   1      33.058  26.082  22.058  1.00  0.00     0.251 C 
ATOM      6  O   UNL A   1      33.278  25.739  20.892  1.00  0.00    -0.270 OA
ATOM      7  H   UNL A   1      32.511  27.805  21.348  1.00  0.00     0.163 HD
BRANCH   5   8
ATOM      8  C   UNL A   1      33.304  25.118  23.169  1.00  0.00     0.067 C 
ATOM      9  C   UNL A   1      33.325  22.416  27.549  1.00  0.00     0.048 C 
ATOM     10  C   UNL A   1      34.180  22.472  26.314  1.00  0.00    -0.007 A 
ATOM     11  C   UNL A   1      35.278  21.611  26.191  1.00  0.00     0.027 A 
ATOM     12  C   UNL A   1      33.936  23.397  25.291  1.00  0.00     0.131 A 
ATOM     13  C   UNL A   1      36.096  21.671  25.063  1.00  0.00     0.042 A 
ATOM     14  C   UNL A   1      34.753  23.457  24.156  1.00  0.00     0.019 A 
ATOM     15  O   UNL A   1      32.899  24.267  25.472  1.00  0.00    -0.475 OA
ATOM     16  Cl  UNL A   1      37.440  20.603  24.929  1.00  0.00    -0.084 Cl
ATOM     17  C   UNL A   1      35.840  22.588  24.044  1.00  0.00     0.032 A 
ATOM     18  C   UNL A   1      34.470  24.447  23.122  1.00  0.00     0.025 C 
ATOM     19  C   UNL A   1      32.327  24.849  24.275  1.00  0.00     0.314 C 
BRANCH  19  20
ATOM     20  C   UNL A   1      31.134  23.986  23.815  1.00  0.00     0.429 C 
ATOM     21  F   UNL A   1      30.117  24.771  23.379  1.00  0.00    -0.167 F 
ATOM     22  F   UNL A   1      31.449  23.162  22.788  1.00  0.00    -0.167 F 
ATOM     23  F   UNL A   1      30.645  23.203  24.803  1.00  0.00    -0.167 F 
ENDBRANCH  19  20
ENDBRANCH   5   8
ENDBRANCH   3   4
ENDBRANCH   2   3
ENDBRANCH   1   2
BRANCH   1  24
ATOM     24  N   UNL A   1      32.844  30.447  25.836  1.00  0.00    -0.352 N 
ATOM     25  C   UNL A   1      33.305  31.208  26.880  1.00  0.00     0.251 C 
ATOM     26  H   UNL A   1      32.169  30.884  25.270  1.00  0.00     0.163 HD
ATOM     27  O   UNL A   1      32.678  32.208  27.228  1.00  0.00    -0.269 OA
BRANCH  25  28
ATOM     28  C   UNL A   1      34.548  30.829  27.579  1.00  0.00     0.039 A 
ATOM     29  C   UNL A   1      35.541  31.788  27.791  1.00  0.00     0.014 A 
ATOM     30  C   UNL A   1      34.739  29.512  28.002  1.00  0.00     0.014 A 
ATOM     31  C   UNL A   1      36.702  31.433  28.479  1.00  0.00     0.010 A 
ATOM     32  C   UNL A   1      35.840  29.189  28.780  1.00  0.00     0.010 A 
ATOM     33  C   UNL A   1      36.846  30.138  29.004  1.00  0.00    -0.014 A 
BRANCH  33  34
ATOM     34  C   UNL A   1      38.055  29.737  29.762  1.00  0.00     0.031 A 
ATOM     35  C   UNL A   1      38.297  30.301  31.136  1.00  0.00     0.074 A 
ATOM     36  C   UNL A   1      38.965  28.930  29.184  1.00  0.00     0.049 A 
ATOM     37  N   UNL A   1      39.314  30.112  31.934  1.00  0.00    -0.248 NA
ATOM     38  C   UNL A   1      37.283  31.226  31.670  1.00  0.00     0.031 C 
ATOM     39  C   UNL A   1      38.871  28.386  27.827  1.00  0.00     0.029 A 
ATOM     40  N   UNL A   1      40.155  28.439  29.656  1.00  0.00    -0.354 N 
ATOM     41  C   UNL A   1      39.076  30.911  33.045  1.00  0.00     0.074 A 
ATOM     42  C   UNL A   1      37.850  31.633  32.797  1.00  0.00     0.031 C 
ATOM     43  C   UNL A   1      39.945  27.618  27.586  1.00  0.00     0.029 A 
ATOM     44  C   UNL A   1      40.819  27.640  28.756  1.00  0.00     0.049 A 
ATOM     45  H   UNL A   1      40.502  28.640  30.556  1.00  0.00     0.167 HD
ATOM     46  C   UNL A   1      39.790  31.002  34.191  1.00  0.00     0.034 A 
ATOM     47  C   UNL A   1      41.996  26.994  28.863  1.00  0.00     0.034 A 
ATOM     48  C   UNL A   1      40.979  30.240  34.450  1.00  0.00     0.049 A 
ATOM     49  C   UNL A   1      42.759  27.088  30.158  1.00  0.00     0.074 A 
ATOM     50  C   UNL A   1      41.732  30.192  35.609  1.00  0.00     0.029 A 
ATOM     51  N   UNL A   1      41.589  29.392  33.537  1.00  0.00    -0.354 N 
ATOM     52  N   UNL A   1      42.440  27.728  31.256  1.00  0.00    -0.248 NA
ATOM     53  C   UNL A   1      44.027  26.349  30.240  1.00  0.00     0.031 C 
ATOM     54  C   UNL A   1      42.812  29.334  35.388  1.00  0.00     0.029 A 
ATOM     55  C   UNL A   1      42.719  28.827  34.102  1.00  0.00     0.049 A 
ATOM     56  H   UNL A   1      41.267  29.218  32.624  1.00  0.00     0.167 HD
ATOM     57  C   UNL A   1      43.453  27.453  32.168  1.00  0.00     0.074 A 
ATOM     58  C   UNL A   1      44.382  26.564  31.500  1.00  0.00     0.031 C 
ATOM     59  C   UNL A   1      43.609  27.909  33.436  1.00  0.00     0.034 A 
BRANCH  46  60
ATOM     60  C   UNL A   1      39.264  31.903  35.278  1.00  0.00     0.023 A 
ATOM     61  C   UNL A   1      38.304  31.406  36.185  1.00  0.00     0.012 A 
ATOM     62  C   UNL A   1      39.762  33.209  35.448  1.00  0.00     0.148 A 
ATOM     63  C   UNL A   1      37.824  32.202  37.222  1.00  0.00     0.002 A 
ATOM     64  C   UNL A   1      39.317  33.981  36.515  1.00  0.00     0.091 A 
ATOM     65  F   UNL A   1      40.656  33.672  34.564  1.00  0.00    -0.205 F 
ATOM     66  C   UNL A   1      38.339  33.484  37.395  1.00  0.00     0.022 A 
BRANCH  64  67
ATOM     67  S   UNL A   1      39.976  35.611  36.879  1.00  0.00     0.127 S 
ATOM     68  O   UNL A   1      39.274  35.944  38.117  1.00  0.00    -0.237 OA
ATOM     69  O   UNL A   1      41.404  35.333  37.044  1.00  0.00    -0.237 OA
ATOM     70  O   UNL A   1      39.645  36.444  35.733  1.00  0.00    -0.744 OA
ENDBRANCH  64  67
ENDBRANCH  46  60
BRANCH  47  71
ATOM     71  C   UNL A   1      42.467  26.130  27.743  1.00  0.00     0.023 A 
ATOM     72  C   UNL A   1      43.481  26.605  26.889  1.00  0.00     0.012 A 
ATOM     73  C   UNL A   1      41.976  24.821  27.563  1.00  0.00     0.148 A 
ATOM     74  C   UNL A   1      43.986  25.802  25.867  1.00  0.00     0.002 A 
ATOM     75  C   UNL A   1      42.524  24.006  26.579  1.00  0.00     0.091 A 
ATOM     76  F   UNL A   1      41.006  24.389  28.380  1.00  0.00    -0.205 F 
ATOM     77  C   UNL A   1      43.518  24.500  25.719  1.00  0.00     0.022 A 
BRANCH  75  78
ATOM     78  S   UNL A   1      42.090  22.270  26.407  1.00  0.00     0.127 S 
ATOM     79  O   UNL A   1      40.650  22.343  26.177  1.00  0.00    -0.237 OA
ATOM     80  O   UNL A   1      42.883  21.879  25.240  1.00  0.00    -0.237 OA
ATOM     81  O   UNL A   1      42.498  21.635  27.652  1.00  0.00    -0.744 OA
ENDBRANCH  75  78
ENDBRANCH  47  71
BRANCH  59  82
ATOM     82  C   UNL A   1      44.828  27.466  34.202  1.00  0.00     0.023 A 
ATOM     83  C   UNL A   1      45.969  28.292  34.225  1.00  0.00     0.012 A 
ATOM     84  C   UNL A   1      44.795  26.306  35.002  1.00  0.00     0.148 A 
ATOM     85  C   UNL A   1      47.066  27.961  35.020  1.00  0.00     0.002 A 
ATOM     86  C   UNL A   1      45.871  26.012  35.831  1.00  0.00     0.091 A 
ATOM     87  F   UNL A   1      43.704  25.528  34.955  1.00  0.00    -0.205 F 
ATOM     88  C   UNL A   1      47.010  26.832  35.834  1.00  0.00     0.022 A 
BRANCH  86  89
ATOM     89  S   UNL A   1      45.849  24.644  36.997  1.00  0.00     0.127 S 
ATOM     90  O   UNL A   1      45.809  23.491  36.101  1.00  0.00    -0.237 OA
ATOM     91  O   UNL A   1      47.115  24.824  37.707  1.00  0.00    -0.237 OA
ATOM     92  O   UNL A   1      44.660  24.833  37.819  1.00  0.00    -0.744 OA
ENDBRANCH  86  89
ENDBRANCH  59  82
ENDBRANCH  33  34
ENDBRANCH  25  28
ENDBRANCH   1  24
TORSDOF 14
ENDMDL
