MODEL 1
REMARK VINA RESULT:     -12.9      0.000      0.000
REMARK SMILES O=C(NCCCNC(=O)c1c(F)cccc1NC(=O)C1CCCCC1)c1ccc(-c2c3nc(c(-c4cccc(S(=O)(=O)[O-])c4F)c4ccc([nH]4)c(-c4cccc(S(=O)(=O)[O-])c4F)c4nc(c(-c5cccc(S(=O)(=O)[O-])c5F)c5ccc2[nH]5)C=C4)C=C3)cc1
REMARK SMILES IDX 4 1 3 2 1 3 2 4 26 6 27 7 88 8 28 9 87 10 29 11 30 12 31 13
REMARK SMILES IDX 81 14 32 15 86 16 80 17 82 18 33 19 85 20 79 21 78 22 34 24
REMARK SMILES IDX 66 25 46 26 65 27 47 28 50 29 64 30 83 31 48 32 49 33 63 35
REMARK SMILES IDX 84 36 51 37 35 38 36 39 44 40 37 41 39 42 45 43 38 44 40 45
REMARK SMILES IDX 41 46 42 47 43 48 67 49 68 50 76 51 69 52 71 53 77 54 70 55
REMARK SMILES IDX 72 56 73 57 74 58 75 59 52 60 53 61 61 62 54 63 56 64 62 65
REMARK SMILES IDX 55 66 57 67 58 68 59 69 60 70 5 71 6 72 7 73 8 74 9 76 10 77
REMARK SMILES IDX 11 78 16 79 12 80 13 81 15 82 14 83 17 84 18 85 19 87 20 88
REMARK SMILES IDX 21 89 25 90 22 91 24 92 23 93
REMARK H PARENT 3 5 82 23 50 34 7 75 17 86
REMARK Flexibility Score: inf
ROOT
ATOM      1  C   UNL A   1      32.479  30.352  26.306  1.00  0.00     0.118 C 
ENDROOT
BRANCH   1   2
ATOM      2  N   UNL A   1      32.279  31.765  26.608  1.00  0.00    -0.352 N 
ATOM      3  O   UNL A   1      32.548  33.729  27.670  1.00  0.00    -0.269 OA
ATOM      4  C   UNL A   1      33.000  32.615  27.416  1.00  0.00     0.251 C 
ATOM      5  H   UNL A   1      31.503  32.176  26.163  1.00  0.00     0.163 HD
BRANCH   4   6
ATOM      6  C   UNL A   1      34.289  32.180  27.999  1.00  0.00     0.039 A 
ATOM      7  C   UNL A   1      34.431  30.901  28.532  1.00  0.00     0.014 A 
ATOM      8  C   UNL A   1      35.378  33.058  28.007  1.00  0.00     0.014 A 
ATOM      9  C   UNL A   1      35.569  30.578  29.256  1.00  0.00     0.010 A 
ATOM     10  C   UNL A   1      36.578  32.678  28.622  1.00  0.00     0.010 A 
ATOM     11  C   UNL A   1      36.669  31.451  29.293  1.00  0.00    -0.014 A 
BRANCH  11  12
ATOM     12  C   UNL A   1      37.911  30.989  29.967  1.00  0.00     0.031 A 
ATOM     13  C   UNL A   1      38.223  31.343  31.395  1.00  0.00     0.074 A 
ATOM     14  C   UNL A   1      38.740  30.178  29.279  1.00  0.00     0.049 A 
ATOM     15  N   UNL A   1      39.193  30.898  32.151  1.00  0.00    -0.248 NA
ATOM     16  C   UNL A   1      37.353  32.325  32.059  1.00  0.00     0.031 C 
ATOM     17  C   UNL A   1      38.569  29.818  27.869  1.00  0.00     0.029 A 
ATOM     18  N   UNL A   1      39.856  29.482  29.665  1.00  0.00    -0.354 N 
ATOM     19  C   UNL A   1      39.082  31.573  33.359  1.00  0.00     0.074 A 
ATOM     20  C   UNL A   1      37.950  32.466  33.236  1.00  0.00     0.031 C 
ATOM     21  C   UNL A   1      39.489  28.905  27.533  1.00  0.00     0.029 A 
ATOM     22  C   UNL A   1      40.359  28.664  28.679  1.00  0.00     0.049 A 
ATOM     23  H   UNL A   1      40.259  29.559  30.560  1.00  0.00     0.167 HD
ATOM     24  C   UNL A   1      39.844  31.446  34.472  1.00  0.00     0.034 A 
ATOM     25  C   UNL A   1      41.396  27.806  28.688  1.00  0.00     0.034 A 
ATOM     26  C   UNL A   1      40.934  30.515  34.600  1.00  0.00     0.049 A 
ATOM     27  C   UNL A   1      42.182  27.635  29.953  1.00  0.00     0.074 A 
ATOM     28  C   UNL A   1      41.712  30.257  35.715  1.00  0.00     0.029 A 
ATOM     29  N   UNL A   1      41.400  29.691  33.587  1.00  0.00    -0.354 N 
ATOM     30  N   UNL A   1      41.980  28.189  31.124  1.00  0.00    -0.248 NA
ATOM     31  C   UNL A   1      43.325  26.714  29.912  1.00  0.00     0.031 C 
ATOM     32  C   UNL A   1      42.662  29.292  35.371  1.00  0.00     0.029 A 
ATOM     33  C   UNL A   1      42.464  28.933  34.046  1.00  0.00     0.049 A 
ATOM     34  H   UNL A   1      41.030  29.651  32.676  1.00  0.00     0.167 HD
ATOM     35  C   UNL A   1      42.963  27.683  31.961  1.00  0.00     0.074 A 
ATOM     36  C   UNL A   1      43.746  26.753  31.170  1.00  0.00     0.031 C 
ATOM     37  C   UNL A   1      43.208  27.981  33.260  1.00  0.00     0.034 A 
BRANCH  24  38
ATOM     38  C   UNL A   1      39.504  32.297  35.667  1.00  0.00     0.023 A 
ATOM     39  C   UNL A   1      39.964  33.628  35.726  1.00  0.00     0.012 A 
ATOM     40  C   UNL A   1      38.650  31.817  36.681  1.00  0.00     0.148 A 
ATOM     41  C   UNL A   1      39.598  34.461  36.784  1.00  0.00     0.002 A 
ATOM     42  C   UNL A   1      38.258  32.664  37.712  1.00  0.00     0.091 A 
ATOM     43  F   UNL A   1      38.240  30.541  36.622  1.00  0.00    -0.205 F 
ATOM     44  C   UNL A   1      38.737  33.983  37.768  1.00  0.00     0.022 A 
BRANCH  42  45
ATOM     45  S   UNL A   1      37.088  32.160  38.980  1.00  0.00     0.127 S 
ATOM     46  O   UNL A   1      37.635  32.818  40.165  1.00  0.00    -0.237 OA
ATOM     47  O   UNL A   1      35.833  32.733  38.491  1.00  0.00    -0.237 OA
ATOM     48  O   UNL A   1      37.121  30.705  38.994  1.00  0.00    -0.744 OA
ENDBRANCH  42  45
ENDBRANCH  24  38
BRANCH  25  49
ATOM     49  C   UNL A   1      41.673  27.001  27.465  1.00  0.00     0.023 A 
ATOM     50  C   UNL A   1      42.337  27.600  26.380  1.00  0.00     0.012 A 
ATOM     51  C   UNL A   1      41.412  25.616  27.435  1.00  0.00     0.148 A 
ATOM     52  C   UNL A   1      42.745  26.832  25.287  1.00  0.00     0.002 A 
ATOM     53  C   UNL A   1      41.880  24.847  26.376  1.00  0.00     0.091 A 
ATOM     54  F   UNL A   1      40.763  25.070  28.473  1.00  0.00    -0.205 F 
ATOM     55  C   UNL A   1      42.535  25.454  25.295  1.00  0.00     0.022 A 
BRANCH  53  56
ATOM     56  S   UNL A   1      41.816  23.051  26.394  1.00  0.00     0.127 S 
ATOM     57  O   UNL A   1      42.553  22.738  27.615  1.00  0.00    -0.237 OA
ATOM     58  O   UNL A   1      40.374  22.802  26.461  1.00  0.00    -0.237 OA
ATOM     59  O   UNL A   1      42.439  22.623  25.148  1.00  0.00    -0.744 OA
ENDBRANCH  53  56
ENDBRANCH  25  49
BRANCH  37  60
ATOM     60  C   UNL A   1      44.376  27.307  33.928  1.00  0.00     0.023 A 
ATOM     61  C   UNL A   1      45.643  27.921  33.883  1.00  0.00     0.012 A 
ATOM     62  C   UNL A   1      44.193  26.145  34.702  1.00  0.00     0.148 A 
ATOM     63  C   UNL A   1      46.714  27.381  34.591  1.00  0.00     0.002 A 
ATOM     64  C   UNL A   1      45.255  25.636  35.439  1.00  0.00     0.091 A 
ATOM     65  F   UNL A   1      42.981  25.572  34.716  1.00  0.00    -0.205 F 
ATOM     66  C   UNL A   1      46.518  26.249  35.380  1.00  0.00     0.022 A 
BRANCH  64  67
ATOM     67  S   UNL A   1      45.074  24.241  36.556  1.00  0.00     0.127 S 
ATOM     68  O   UNL A   1      46.444  24.065  37.035  1.00  0.00    -0.237 OA
ATOM     69  O   UNL A   1      44.140  24.763  37.556  1.00  0.00    -0.237 OA
ATOM     70  O   UNL A   1      44.551  23.146  35.751  1.00  0.00    -0.744 OA
ENDBRANCH  64  67
ENDBRANCH  37  60
ENDBRANCH  11  12
ENDBRANCH   4   6
ENDBRANCH   1   2
BRANCH   1  71
ATOM     71  C   UNL A   1      31.423  29.456  26.934  1.00  0.00     0.042 C 
BRANCH  71  72
ATOM     72  C   UNL A   1      31.984  28.175  27.525  1.00  0.00     0.118 C 
BRANCH  72  73
ATOM     73  N   UNL A   1      31.322  26.987  26.998  1.00  0.00    -0.352 N 
ATOM     74  C   UNL A   1      31.180  26.569  25.699  1.00  0.00     0.256 C 
ATOM     75  H   UNL A   1      30.918  26.397  27.674  1.00  0.00     0.163 HD
ATOM     76  O   UNL A   1      30.448  25.618  25.434  1.00  0.00    -0.269 OA
BRANCH  74  77
ATOM     77  C   UNL A   1      31.844  27.288  24.597  1.00  0.00     0.099 A 
ATOM     78  C   UNL A   1      33.244  27.282  24.548  1.00  0.00     0.138 A 
ATOM     79  C   UNL A   1      31.089  27.964  23.612  1.00  0.00     0.057 A 
ATOM     80  F   UNL A   1      33.963  26.581  25.437  1.00  0.00    -0.206 F 
ATOM     81  C   UNL A   1      33.931  28.023  23.600  1.00  0.00     0.040 A 
ATOM     82  C   UNL A   1      31.809  28.683  22.649  1.00  0.00     0.027 A 
ATOM     83  C   UNL A   1      33.210  28.735  22.655  1.00  0.00     0.005 A 
BRANCH  79  84
ATOM     84  N   UNL A   1      29.671  27.851  23.639  1.00  0.00    -0.325 N 
ATOM     85  C   UNL A   1      28.612  28.602  23.202  1.00  0.00     0.227 C 
ATOM     86  H   UNL A   1      29.376  27.024  24.084  1.00  0.00     0.169 HD
ATOM     87  O   UNL A   1      27.482  28.114  23.306  1.00  0.00    -0.274 OA
BRANCH  85  88
ATOM     88  C   UNL A   1      28.801  29.997  22.634  1.00  0.00     0.079 C 
ATOM     89  C   UNL A   1      28.021  30.252  21.335  1.00  0.00     0.013 C 
ATOM     90  C   UNL A   1      28.398  31.067  23.657  1.00  0.00     0.013 C 
ATOM     91  C   UNL A   1      28.390  31.630  20.774  1.00  0.00     0.001 C 
ATOM     92  C   UNL A   1      28.790  32.452  23.152  1.00  0.00     0.001 C 
ATOM     93  C   UNL A   1      28.166  32.751  21.791  1.00  0.00     0.000 C 
ENDBRANCH  85  88
ENDBRANCH  79  84
ENDBRANCH  74  77
ENDBRANCH  72  73
ENDBRANCH  71  72
ENDBRANCH   1  71
TORSDOF 15
ENDMDL
MODEL 2
REMARK VINA RESULT:     -12.9      2.483      4.072
REMARK SMILES O=C(NCCCNC(=O)c1c(F)cccc1NC(=O)C1CCCCC1)c1ccc(-c2c3nc(c(-c4cccc(S(=O)(=O)[O-])c4F)c4ccc([nH]4)c(-c4cccc(S(=O)(=O)[O-])c4F)c4nc(c(-c5cccc(S(=O)(=O)[O-])c5F)c5ccc2[nH]5)C=C4)C=C3)cc1
REMARK SMILES IDX 4 1 3 2 1 3 2 4 26 6 27 7 88 8 28 9 87 10 29 11 30 12 31 13
REMARK SMILES IDX 81 14 32 15 86 16 80 17 82 18 33 19 85 20 79 21 78 22 34 24
REMARK SMILES IDX 66 25 46 26 65 27 47 28 50 29 64 30 83 31 48 32 49 33 63 35
REMARK SMILES IDX 84 36 51 37 35 38 36 39 44 40 37 41 39 42 45 43 38 44 40 45
REMARK SMILES IDX 41 46 42 47 43 48 67 49 68 50 76 51 69 52 71 53 77 54 70 55
REMARK SMILES IDX 72 56 73 57 74 58 75 59 52 60 53 61 61 62 54 63 56 64 62 65
REMARK SMILES IDX 55 66 57 67 58 68 59 69 60 70 5 71 6 72 7 73 8 74 9 76 10 77
REMARK SMILES IDX 11 78 16 79 12 80 13 81 15 82 14 83 17 84 18 85 19 87 20 88
REMARK SMILES IDX 21 89 25 90 22 91 24 92 23 93
REMARK H PARENT 3 5 82 23 50 34 7 75 17 86
REMARK Flexibility Score: inf
ROOT
ATOM      1  C   UNL A   1      33.030  28.951  25.500  1.00  0.00     0.118 C 
ENDROOT
BRANCH   1   2
ATOM      2  N   UNL A   1      32.542  30.265  25.904  1.00  0.00    -0.352 N 
ATOM      3  O   UNL A   1      32.352  32.126  27.154  1.00  0.00    -0.269 OA
ATOM      4  C   UNL A   1      33.026  31.145  26.847  1.00  0.00     0.251 C 
ATOM      5  H   UNL A   1      31.737  30.572  25.427  1.00  0.00     0.163 HD
BRANCH   4   6
ATOM      6  C   UNL A   1      34.326  30.895  27.507  1.00  0.00     0.039 A 
ATOM      7  C   UNL A   1      34.649  29.625  27.980  1.00  0.00     0.014 A 
ATOM      8  C   UNL A   1      35.244  31.940  27.650  1.00  0.00     0.014 A 
ATOM      9  C   UNL A   1      35.772  29.449  28.774  1.00  0.00     0.010 A 
ATOM     10  C   UNL A   1      36.445  31.727  28.339  1.00  0.00     0.010 A 
ATOM     11  C   UNL A   1      36.700  30.490  28.946  1.00  0.00    -0.014 A 
BRANCH  11  12
ATOM     12  C   UNL A   1      37.953  30.199  29.693  1.00  0.00     0.031 A 
ATOM     13  C   UNL A   1      38.164  30.661  31.108  1.00  0.00     0.074 A 
ATOM     14  C   UNL A   1      38.890  29.444  29.084  1.00  0.00     0.049 A 
ATOM     15  N   UNL A   1      39.142  30.362  31.924  1.00  0.00    -0.248 NA
ATOM     16  C   UNL A   1      37.170  31.581  31.681  1.00  0.00     0.031 C 
ATOM     17  C   UNL A   1      38.818  28.991  27.692  1.00  0.00     0.029 A 
ATOM     18  N   UNL A   1      40.053  28.891  29.552  1.00  0.00    -0.354 N 
ATOM     19  C   UNL A   1      38.910  31.087  33.085  1.00  0.00     0.074 A 
ATOM     20  C   UNL A   1      37.698  31.848  32.869  1.00  0.00     0.031 C 
ATOM     21  C   UNL A   1      39.841  28.164  27.445  1.00  0.00     0.029 A 
ATOM     22  C   UNL A   1      40.680  28.079  28.635  1.00  0.00     0.049 A 
ATOM     23  H   UNL A   1      40.408  29.059  30.456  1.00  0.00     0.167 HD
ATOM     24  C   UNL A   1      39.632  31.102  34.231  1.00  0.00     0.034 A 
ATOM     25  C   UNL A   1      41.799  27.337  28.733  1.00  0.00     0.034 A 
ATOM     26  C   UNL A   1      40.805  30.299  34.454  1.00  0.00     0.049 A 
ATOM     27  C   UNL A   1      42.544  27.318  30.034  1.00  0.00     0.074 A 
ATOM     28  C   UNL A   1      41.558  30.186  35.611  1.00  0.00     0.029 A 
ATOM     29  N   UNL A   1      41.398  29.475  33.510  1.00  0.00    -0.354 N 
ATOM     30  N   UNL A   1      42.235  27.911  31.162  1.00  0.00    -0.248 NA
ATOM     31  C   UNL A   1      43.776  26.523  30.089  1.00  0.00     0.031 C 
ATOM     32  C   UNL A   1      42.616  29.308  35.359  1.00  0.00     0.029 A 
ATOM     33  C   UNL A   1      42.513  28.859  34.052  1.00  0.00     0.049 A 
ATOM     34  H   UNL A   1      41.073  29.347  32.589  1.00  0.00     0.167 HD
ATOM     35  C   UNL A   1      43.228  27.558  32.064  1.00  0.00     0.074 A 
ATOM     36  C   UNL A   1      44.136  26.673  31.358  1.00  0.00     0.031 C 
ATOM     37  C   UNL A   1      43.385  27.950  33.351  1.00  0.00     0.034 A 
BRANCH  24  38
ATOM     38  C   UNL A   1      39.155  31.976  35.362  1.00  0.00     0.023 A 
ATOM     39  C   UNL A   1      38.263  31.450  36.317  1.00  0.00     0.012 A 
ATOM     40  C   UNL A   1      39.663  33.279  35.536  1.00  0.00     0.148 A 
ATOM     41  C   UNL A   1      37.867  32.213  37.416  1.00  0.00     0.002 A 
ATOM     42  C   UNL A   1      39.294  34.020  36.654  1.00  0.00     0.091 A 
ATOM     43  F   UNL A   1      40.493  33.773  34.604  1.00  0.00    -0.205 F 
ATOM     44  C   UNL A   1      38.392  33.491  37.590  1.00  0.00     0.022 A 
BRANCH  42  45
ATOM     45  S   UNL A   1      39.983  35.644  37.002  1.00  0.00     0.127 S 
ATOM     46  O   UNL A   1      39.314  35.984  38.256  1.00  0.00    -0.237 OA
ATOM     47  O   UNL A   1      41.412  35.356  37.133  1.00  0.00    -0.237 OA
ATOM     48  O   UNL A   1      39.638  36.474  35.857  1.00  0.00    -0.744 OA
ENDBRANCH  42  45
ENDBRANCH  24  38
BRANCH  25  49
ATOM     49  C   UNL A   1      42.210  26.500  27.570  1.00  0.00     0.023 A 
ATOM     50  C   UNL A   1      43.166  26.997  26.666  1.00  0.00     0.012 A 
ATOM     51  C   UNL A   1      41.768  25.167  27.444  1.00  0.00     0.148 A 
ATOM     52  C   UNL A   1      43.681  26.178  25.659  1.00  0.00     0.002 A 
ATOM     53  C   UNL A   1      42.334  24.339  26.483  1.00  0.00     0.091 A 
ATOM     54  F   UNL A   1      40.845  24.722  28.307  1.00  0.00    -0.205 F 
ATOM     55  C   UNL A   1      43.281  24.845  25.581  1.00  0.00     0.022 A 
BRANCH  53  56
ATOM     56  S   UNL A   1      42.014  22.571  26.432  1.00  0.00     0.127 S 
ATOM     57  O   UNL A   1      40.564  22.535  26.262  1.00  0.00    -0.237 OA
ATOM     58  O   UNL A   1      42.784  22.159  25.256  1.00  0.00    -0.237 OA
ATOM     59  O   UNL A   1      42.519  22.043  27.693  1.00  0.00    -0.744 OA
ENDBRANCH  53  56
ENDBRANCH  25  49
BRANCH  37  60
ATOM     60  C   UNL A   1      44.586  27.440  34.100  1.00  0.00     0.023 A 
ATOM     61  C   UNL A   1      45.776  28.192  34.085  1.00  0.00     0.012 A 
ATOM     62  C   UNL A   1      44.495  26.296  34.916  1.00  0.00     0.148 A 
ATOM     63  C   UNL A   1      46.865  27.806  34.864  1.00  0.00     0.002 A 
ATOM     64  C   UNL A   1      45.570  25.941  35.722  1.00  0.00     0.091 A 
ATOM     65  F   UNL A   1      43.356  25.589  34.900  1.00  0.00    -0.205 F 
ATOM     66  C   UNL A   1      46.758  26.690  35.693  1.00  0.00     0.022 A 
BRANCH  64  67
ATOM     67  S   UNL A   1      45.491  24.578  36.891  1.00  0.00     0.127 S 
ATOM     68  O   UNL A   1      45.252  23.440  36.005  1.00  0.00    -0.237 OA
ATOM     69  O   UNL A   1      46.824  24.611  37.496  1.00  0.00    -0.237 OA
ATOM     70  O   UNL A   1      44.403  24.895  37.805  1.00  0.00    -0.744 OA
ENDBRANCH  64  67
ENDBRANCH  37  60
ENDBRANCH  11  12
ENDBRANCH   4   6
ENDBRANCH   1   2
BRANCH   1  71
ATOM     71  C   UNL A   1      33.972  29.009  24.309  1.00  0.00     0.042 C 
BRANCH  71  72
ATOM     72  C   UNL A   1      33.258  29.059  22.969  1.00  0.00     0.118 C 
BRANCH  72  73
ATOM     73  N   UNL A   1      33.559  27.898  22.139  1.00  0.00    -0.352 N 
ATOM     74  C   UNL A   1      33.129  26.601  22.261  1.00  0.00     0.256 C 
ATOM     75  H   UNL A   1      34.160  28.071  21.379  1.00  0.00     0.163 HD
ATOM     76  O   UNL A   1      33.619  25.721  21.556  1.00  0.00    -0.269 OA
BRANCH  74  77
ATOM     77  C   UNL A   1      32.128  26.229  23.276  1.00  0.00     0.099 A 
ATOM     78  C   UNL A   1      30.802  26.638  23.083  1.00  0.00     0.138 A 
ATOM     79  C   UNL A   1      32.494  25.475  24.415  1.00  0.00     0.057 A 
ATOM     80  F   UNL A   1      30.435  27.289  21.970  1.00  0.00    -0.206 F 
ATOM     81  C   UNL A   1      29.835  26.411  24.050  1.00  0.00     0.040 A 
ATOM     82  C   UNL A   1      31.491  25.236  25.362  1.00  0.00     0.027 A 
ATOM     83  C   UNL A   1      30.184  25.718  25.197  1.00  0.00     0.005 A 
BRANCH  79  84
ATOM     84  N   UNL A   1      33.827  24.987  24.513  1.00  0.00    -0.325 N 
ATOM     85  C   UNL A   1      34.436  23.762  24.461  1.00  0.00     0.227 C 
ATOM     86  H   UNL A   1      34.475  25.715  24.655  1.00  0.00     0.169 HD
ATOM     87  O   UNL A   1      35.671  23.735  24.474  1.00  0.00    -0.274 OA
BRANCH  85  88
ATOM     88  C   UNL A   1      33.638  22.472  24.418  1.00  0.00     0.079 C 
ATOM     89  C   UNL A   1      33.020  22.166  23.044  1.00  0.00     0.013 C 
ATOM     90  C   UNL A   1      34.502  21.275  24.836  1.00  0.00     0.013 C 
ATOM     91  C   UNL A   1      32.125  20.926  23.146  1.00  0.00     0.001 C 
ATOM     92  C   UNL A   1      33.636  20.029  24.990  1.00  0.00     0.001 C 
ATOM     93  C   UNL A   1      32.871  19.714  23.706  1.00  0.00     0.000 C 
ENDBRANCH  85  88
ENDBRANCH  79  84
ENDBRANCH  74  77
ENDBRANCH  72  73
ENDBRANCH  71  72
ENDBRANCH   1  71
TORSDOF 15
ENDMDL
MODEL 3
REMARK VINA RESULT:     -12.8      5.466     10.288
REMARK SMILES O=C(NCCCNC(=O)c1c(F)cccc1NC(=O)C1CCCCC1)c1ccc(-c2c3nc(c(-c4cccc(S(=O)(=O)[O-])c4F)c4ccc([nH]4)c(-c4cccc(S(=O)(=O)[O-])c4F)c4nc(c(-c5cccc(S(=O)(=O)[O-])c5F)c5ccc2[nH]5)C=C4)C=C3)cc1
REMARK SMILES IDX 4 1 3 2 1 3 2 4 26 6 27 7 88 8 28 9 87 10 29 11 30 12 31 13
REMARK SMILES IDX 81 14 32 15 86 16 80 17 82 18 33 19 85 20 79 21 78 22 34 24
REMARK SMILES IDX 66 25 46 26 65 27 47 28 50 29 64 30 83 31 48 32 49 33 63 35
REMARK SMILES IDX 84 36 51 37 35 38 36 39 44 40 37 41 39 42 45 43 38 44 40 45
REMARK SMILES IDX 41 46 42 47 43 48 67 49 68 50 76 51 69 52 71 53 77 54 70 55
REMARK SMILES IDX 72 56 73 57 74 58 75 59 52 60 53 61 61 62 54 63 56 64 62 65
REMARK SMILES IDX 55 66 57 67 58 68 59 69 60 70 5 71 6 72 7 73 8 74 9 76 10 77
REMARK SMILES IDX 11 78 16 79 12 80 13 81 15 82 14 83 17 84 18 85 19 87 20 88
REMARK SMILES IDX 21 89 25 90 22 91 24 92 23 93
REMARK H PARENT 3 5 82 23 50 34 7 75 17 86
REMARK Flexibility Score: inf
ROOT
ATOM      1  C   UNL A   1      35.895  22.420  25.858  1.00  0.00     0.118 C 
ENDROOT
BRANCH   1   2
ATOM      2  N   UNL A   1      36.843  21.329  25.660  1.00  0.00    -0.352 N 
ATOM      3  O   UNL A   1      38.835  20.323  25.377  1.00  0.00    -0.269 OA
ATOM      4  C   UNL A   1      38.216  21.311  25.764  1.00  0.00     0.251 C 
ATOM      5  H   UNL A   1      36.436  20.468  25.411  1.00  0.00     0.163 HD
BRANCH   4   6
ATOM      6  C   UNL A   1      38.942  22.483  26.305  1.00  0.00     0.039 A 
ATOM      7  C   UNL A   1      38.557  23.776  25.960  1.00  0.00     0.014 A 
ATOM      8  C   UNL A   1      40.017  22.290  27.178  1.00  0.00     0.014 A 
ATOM      9  C   UNL A   1      39.364  24.851  26.304  1.00  0.00     0.010 A 
ATOM     10  C   UNL A   1      40.753  23.391  27.635  1.00  0.00     0.010 A 
ATOM     11  C   UNL A   1      40.461  24.679  27.166  1.00  0.00    -0.014 A 
BRANCH  11  12
ATOM     12  C   UNL A   1      41.203  25.888  27.609  1.00  0.00     0.031 A 
ATOM     13  C   UNL A   1      42.596  26.189  27.131  1.00  0.00     0.074 A 
ATOM     14  C   UNL A   1      40.566  26.760  28.417  1.00  0.00     0.049 A 
ATOM     15  N   UNL A   1      43.307  27.271  27.323  1.00  0.00    -0.248 NA
ATOM     16  C   UNL A   1      43.290  25.151  26.354  1.00  0.00     0.031 C 
ATOM     17  C   UNL A   1      39.235  26.542  28.991  1.00  0.00     0.029 A 
ATOM     18  N   UNL A   1      40.917  28.008  28.862  1.00  0.00    -0.354 N 
ATOM     19  C   UNL A   1      44.542  27.030  26.734  1.00  0.00     0.074 A 
ATOM     20  C   UNL A   1      44.488  25.695  26.180  1.00  0.00     0.031 C 
ATOM     21  C   UNL A   1      38.849  27.648  29.639  1.00  0.00     0.029 A 
ATOM     22  C   UNL A   1      39.926  28.630  29.586  1.00  0.00     0.049 A 
ATOM     23  H   UNL A   1      41.794  28.420  28.682  1.00  0.00     0.167 HD
ATOM     24  C   UNL A   1      45.613  27.855  26.649  1.00  0.00     0.034 A 
ATOM     25  C   UNL A   1      39.876  29.855  30.142  1.00  0.00     0.034 A 
ATOM     26  C   UNL A   1      45.635  29.202  27.157  1.00  0.00     0.049 A 
ATOM     27  C   UNL A   1      41.049  30.773  29.977  1.00  0.00     0.074 A 
ATOM     28  C   UNL A   1      46.646  30.141  27.048  1.00  0.00     0.029 A 
ATOM     29  N   UNL A   1      44.606  29.802  27.867  1.00  0.00    -0.354 N 
ATOM     30  N   UNL A   1      42.157  30.573  29.305  1.00  0.00    -0.248 NA
ATOM     31  C   UNL A   1      40.968  32.088  30.625  1.00  0.00     0.031 C 
ATOM     32  C   UNL A   1      46.236  31.302  27.708  1.00  0.00     0.029 A 
ATOM     33  C   UNL A   1      44.962  31.094  28.213  1.00  0.00     0.049 A 
ATOM     34  H   UNL A   1      43.749  29.372  28.092  1.00  0.00     0.167 HD
ATOM     35  C   UNL A   1      42.904  31.734  29.443  1.00  0.00     0.074 A 
ATOM     36  C   UNL A   1      42.108  32.648  30.240  1.00  0.00     0.031 C 
ATOM     37  C   UNL A   1      44.144  32.007  28.972  1.00  0.00     0.034 A 
BRANCH  24  38
ATOM     38  C   UNL A   1      46.843  27.352  25.940  1.00  0.00     0.023 A 
ATOM     39  C   UNL A   1      47.692  26.433  26.589  1.00  0.00     0.012 A 
ATOM     40  C   UNL A   1      47.106  27.709  24.602  1.00  0.00     0.148 A 
ATOM     41  C   UNL A   1      48.794  25.893  25.925  1.00  0.00     0.002 A 
ATOM     42  C   UNL A   1      48.184  27.137  23.935  1.00  0.00     0.091 A 
ATOM     43  F   UNL A   1      46.302  28.603  24.007  1.00  0.00    -0.205 F 
ATOM     44  C   UNL A   1      49.032  26.236  24.597  1.00  0.00     0.022 A 
BRANCH  42  45
ATOM     45  S   UNL A   1      48.521  27.457  22.198  1.00  0.00     0.127 S 
ATOM     46  O   UNL A   1      49.771  28.210  22.274  1.00  0.00    -0.237 OA
ATOM     47  O   UNL A   1      48.656  26.106  21.652  1.00  0.00    -0.237 OA
ATOM     48  O   UNL A   1      47.369  28.196  21.701  1.00  0.00    -0.744 OA
ENDBRANCH  42  45
ENDBRANCH  24  38
BRANCH  25  49
ATOM     49  C   UNL A   1      38.625  30.280  30.831  1.00  0.00     0.023 A 
ATOM     50  C   UNL A   1      38.525  30.142  32.227  1.00  0.00     0.012 A 
ATOM     51  C   UNL A   1      37.602  30.950  30.129  1.00  0.00     0.148 A 
ATOM     52  C   UNL A   1      37.431  30.672  32.915  1.00  0.00     0.002 A 
ATOM     53  C   UNL A   1      36.551  31.532  30.826  1.00  0.00     0.091 A 
ATOM     54  F   UNL A   1      37.712  31.054  28.797  1.00  0.00    -0.205 F 
ATOM     55  C   UNL A   1      36.456  31.383  32.217  1.00  0.00     0.022 A 
BRANCH  53  56
ATOM     56  S   UNL A   1      35.358  32.617  30.033  1.00  0.00     0.127 S 
ATOM     57  O   UNL A   1      36.214  33.694  29.541  1.00  0.00    -0.237 OA
ATOM     58  O   UNL A   1      34.802  31.747  28.995  1.00  0.00    -0.237 OA
ATOM     59  O   UNL A   1      34.409  32.987  31.075  1.00  0.00    -0.744 OA
ENDBRANCH  53  56
ENDBRANCH  25  49
BRANCH  37  60
ATOM     60  C   UNL A   1      44.742  33.348  29.303  1.00  0.00     0.023 A 
ATOM     61  C   UNL A   1      45.524  33.484  30.466  1.00  0.00     0.012 A 
ATOM     62  C   UNL A   1      44.639  34.426  28.403  1.00  0.00     0.148 A 
ATOM     63  C   UNL A   1      46.186  34.681  30.735  1.00  0.00     0.002 A 
ATOM     64  C   UNL A   1      45.336  35.601  28.656  1.00  0.00     0.091 A 
ATOM     65  F   UNL A   1      43.876  34.275  27.310  1.00  0.00    -0.205 F 
ATOM     66  C   UNL A   1      46.105  35.732  29.825  1.00  0.00     0.022 A 
BRANCH  64  67
ATOM     67  S   UNL A   1      45.369  36.973  27.497  1.00  0.00     0.127 S 
ATOM     68  O   UNL A   1      43.955  37.336  27.426  1.00  0.00    -0.237 OA
ATOM     69  O   UNL A   1      46.215  37.945  28.191  1.00  0.00    -0.237 OA
ATOM     70  O   UNL A   1      45.938  36.445  26.265  1.00  0.00    -0.744 OA
ENDBRANCH  64  67
ENDBRANCH  37  60
ENDBRANCH  11  12
ENDBRANCH   4   6
ENDBRANCH   1   2
BRANCH   1  71
ATOM     71  C   UNL A   1      35.239  22.393  27.229  1.00  0.00     0.042 C 
BRANCH  71  72
ATOM     72  C   UNL A   1      34.025  21.484  27.307  1.00  0.00     0.118 C 
BRANCH  72  73
ATOM     73  N   UNL A   1      32.801  22.221  27.599  1.00  0.00    -0.352 N 
ATOM     74  C   UNL A   1      32.041  23.013  26.778  1.00  0.00     0.256 C 
ATOM     75  H   UNL A   1      32.472  22.137  28.523  1.00  0.00     0.163 HD
ATOM     76  O   UNL A   1      31.124  23.685  27.246  1.00  0.00    -0.269 OA
BRANCH  74  77
ATOM     77  C   UNL A   1      32.346  23.125  25.341  1.00  0.00     0.099 A 
ATOM     78  C   UNL A   1      32.139  22.003  24.528  1.00  0.00     0.138 A 
ATOM     79  C   UNL A   1      32.831  24.335  24.793  1.00  0.00     0.057 A 
ATOM     80  F   UNL A   1      31.610  20.876  25.028  1.00  0.00    -0.206 F 
ATOM     81  C   UNL A   1      32.505  22.009  23.191  1.00  0.00     0.040 A 
ATOM     82  C   UNL A   1      33.166  24.321  23.434  1.00  0.00     0.027 A 
ATOM     83  C   UNL A   1      33.030  23.169  22.646  1.00  0.00     0.005 A 
BRANCH  79  84
ATOM     84  N   UNL A   1      32.920  25.479  25.633  1.00  0.00    -0.325 N 
ATOM     85  C   UNL A   1      32.315  26.706  25.697  1.00  0.00     0.227 C 
ATOM     86  H   UNL A   1      33.584  25.359  26.350  1.00  0.00     0.169 HD
ATOM     87  O   UNL A   1      32.576  27.423  26.669  1.00  0.00    -0.274 OA
BRANCH  85  88
ATOM     88  C   UNL A   1      31.377  27.194  24.608  1.00  0.00     0.079 C 
ATOM     89  C   UNL A   1      29.949  26.640  24.719  1.00  0.00     0.013 C 
ATOM     90  C   UNL A   1      31.300  28.727  24.593  1.00  0.00     0.013 C 
ATOM     91  C   UNL A   1      29.129  27.078  23.501  1.00  0.00     0.001 C 
ATOM     92  C   UNL A   1      30.527  29.203  23.368  1.00  0.00     0.001 C 
ATOM     93  C   UNL A   1      29.127  28.597  23.317  1.00  0.00     0.000 C 
ENDBRANCH  85  88
ENDBRANCH  79  84
ENDBRANCH  74  77
ENDBRANCH  72  73
ENDBRANCH  71  72
ENDBRANCH   1  71
TORSDOF 15
ENDMDL
