MODEL 1
REMARK VINA RESULT:     -10.7      0.000      0.000
REMARK SMILES CN(CC(=O)NCCCNC(=O)c1ccc(-c2c3nc(c(-c4cccc(S(=O)(=O)[O-])c4F)c4ccc([nH]4)c(-c4cccc(S(=O)(=O)[O-])c4F)c4nc(c(-c5cccc(S(=O)(=O)[O-])c5F)c5ccc2[nH]5)C=C4)C=C3)cc1)C(=O)c1ccccn1
REMARK SMILES IDX 8 1 7 2 6 3 4 4 5 5 3 7 2 8 1 9 76 10 77 11 78 12 79 13
REMARK SMILES IDX 83 14 80 15 82 16 81 17 9 18 10 19 11 20 12 22 13 23 14 24
REMARK SMILES IDX 75 25 15 26 74 27 16 28 17 29 18 30 68 31 19 32 73 33 67 34
REMARK SMILES IDX 69 35 20 36 72 37 66 38 65 39 21 41 53 42 33 43 52 44 34 45
REMARK SMILES IDX 37 46 51 47 70 48 35 49 36 50 50 52 71 53 38 54 22 55 23 56
REMARK SMILES IDX 31 57 24 58 26 59 32 60 25 61 27 62 28 63 29 64 30 65 54 66
REMARK SMILES IDX 55 67 63 68 56 69 58 70 64 71 57 72 59 73 60 74 61 75 62 76
REMARK SMILES IDX 39 77 40 78 48 79 41 80 43 81 49 82 42 83 44 84 45 85 46 86
REMARK SMILES IDX 47 87
REMARK H PARENT 6 6 10 21 69 40 37 51
REMARK Flexibility Score: inf
ROOT
ATOM      1  C   UNL A   1      35.085  33.946  28.906  1.00  0.00     0.042 C 
ENDROOT
BRANCH   1   2
ATOM      2  C   UNL A   1      34.113  34.606  27.934  1.00  0.00     0.117 C 
BRANCH   2   3
ATOM      3  N   UNL A   1      33.832  35.996  28.232  1.00  0.00    -0.354 N 
ATOM      4  C   UNL A   1      33.256  36.555  29.333  1.00  0.00     0.239 C 
ATOM      5  O   UNL A   1      33.406  37.772  29.485  1.00  0.00    -0.273 OA
ATOM      6  H   UNL A   1      34.099  36.635  27.532  1.00  0.00     0.163 HD
BRANCH   4   7
ATOM      7  C   UNL A   1      32.572  35.713  30.425  1.00  0.00     0.219 C 
BRANCH   7   8
ATOM      8  N   UNL A   1      32.705  36.193  31.804  1.00  0.00    -0.331 N 
ATOM      9  C   UNL A   1      31.531  36.165  32.662  1.00  0.00     0.147 C 
BRANCH   8  10
ATOM     10  C   UNL A   1      33.933  36.359  32.467  1.00  0.00     0.272 C 
ATOM     11  O   UNL A   1      34.376  37.474  32.741  1.00  0.00    -0.267 OA
BRANCH  10  12
ATOM     12  C   UNL A   1      34.727  35.169  32.889  1.00  0.00     0.128 A 
ATOM     13  C   UNL A   1      34.143  33.911  32.943  1.00  0.00     0.034 A 
ATOM     14  N   UNL A   1      36.042  35.402  33.143  1.00  0.00    -0.251 NA
ATOM     15  C   UNL A   1      34.943  32.833  33.313  1.00  0.00     0.004 A 
ATOM     16  C   UNL A   1      36.798  34.327  33.448  1.00  0.00     0.112 A 
ATOM     17  C   UNL A   1      36.296  33.039  33.559  1.00  0.00     0.020 A 
ENDBRANCH  10  12
ENDBRANCH   8  10
ENDBRANCH   7   8
ENDBRANCH   4   7
ENDBRANCH   2   3
ENDBRANCH   1   2
BRANCH   1  18
ATOM     18  C   UNL A   1      34.580  32.661  29.558  1.00  0.00     0.118 C 
BRANCH  18  19
ATOM     19  N   UNL A   1      34.086  31.687  28.595  1.00  0.00    -0.352 N 
ATOM     20  C   UNL A   1      34.702  30.627  27.979  1.00  0.00     0.251 C 
ATOM     21  H   UNL A   1      33.142  31.810  28.341  1.00  0.00     0.163 HD
ATOM     22  O   UNL A   1      34.104  30.053  27.069  1.00  0.00    -0.269 OA
BRANCH  20  23
ATOM     23  C   UNL A   1      36.055  30.165  28.372  1.00  0.00     0.039 A 
ATOM     24  C   UNL A   1      36.197  29.484  29.587  1.00  0.00     0.014 A 
ATOM     25  C   UNL A   1      37.191  30.454  27.610  1.00  0.00     0.014 A 
ATOM     26  C   UNL A   1      37.460  29.057  30.010  1.00  0.00     0.010 A 
ATOM     27  C   UNL A   1      38.439  29.961  27.997  1.00  0.00     0.010 A 
ATOM     28  C   UNL A   1      38.591  29.270  29.208  1.00  0.00    -0.014 A 
BRANCH  28  29
ATOM     29  C   UNL A   1      39.930  28.776  29.624  1.00  0.00     0.031 A 
ATOM     30  C   UNL A   1      40.699  29.463  30.724  1.00  0.00     0.074 A 
ATOM     31  C   UNL A   1      40.489  27.738  28.968  1.00  0.00     0.049 A 
ATOM     32  N   UNL A   1      41.882  29.180  31.206  1.00  0.00    -0.248 NA
ATOM     33  C   UNL A   1      40.066  30.638  31.347  1.00  0.00     0.031 C 
ATOM     34  C   UNL A   1      39.886  27.033  27.835  1.00  0.00     0.029 A 
ATOM     35  N   UNL A   1      41.696  27.107  29.145  1.00  0.00    -0.354 N 
ATOM     36  C   UNL A   1      42.150  30.155  32.160  1.00  0.00     0.074 A 
ATOM     37  C   UNL A   1      41.021  31.059  32.165  1.00  0.00     0.031 C 
ATOM     38  C   UNL A   1      40.719  26.062  27.427  1.00  0.00     0.029 A 
ATOM     39  C   UNL A   1      41.924  26.090  28.248  1.00  0.00     0.049 A 
ATOM     40  H   UNL A   1      42.337  27.360  29.849  1.00  0.00     0.167 HD
ATOM     41  C   UNL A   1      43.222  30.272  32.982  1.00  0.00     0.034 A 
ATOM     42  C   UNL A   1      42.984  25.269  28.104  1.00  0.00     0.034 A 
ATOM     43  C   UNL A   1      44.323  29.347  33.006  1.00  0.00     0.049 A 
ATOM     44  C   UNL A   1      44.140  25.390  29.060  1.00  0.00     0.074 A 
ATOM     45  C   UNL A   1      45.416  29.331  33.856  1.00  0.00     0.029 A 
ATOM     46  N   UNL A   1      44.477  28.276  32.140  1.00  0.00    -0.354 N 
ATOM     47  N   UNL A   1      44.299  26.221  30.061  1.00  0.00    -0.248 NA
ATOM     48  C   UNL A   1      45.242  24.431  28.894  1.00  0.00     0.031 C 
ATOM     49  C   UNL A   1      46.239  28.261  33.491  1.00  0.00     0.029 A 
ATOM     50  C   UNL A   1      45.647  27.594  32.432  1.00  0.00     0.049 A 
ATOM     51  H   UNL A   1      43.848  28.035  31.422  1.00  0.00     0.167 HD
ATOM     52  C   UNL A   1      45.497  25.860  30.668  1.00  0.00     0.074 A 
ATOM     53  C   UNL A   1      46.012  24.723  29.933  1.00  0.00     0.031 C 
ATOM     54  C   UNL A   1      46.120  26.427  31.732  1.00  0.00     0.034 A 
BRANCH  41  55
ATOM     55  C   UNL A   1      43.227  31.413  33.968  1.00  0.00     0.023 A 
ATOM     56  C   UNL A   1      43.851  32.628  33.619  1.00  0.00     0.012 A 
ATOM     57  C   UNL A   1      42.567  31.309  35.208  1.00  0.00     0.148 A 
ATOM     58  C   UNL A   1      43.854  33.707  34.501  1.00  0.00     0.002 A 
ATOM     59  C   UNL A   1      42.536  32.404  36.065  1.00  0.00     0.091 A 
ATOM     60  F   UNL A   1      41.995  30.141  35.534  1.00  0.00    -0.205 F 
ATOM     61  C   UNL A   1      43.189  33.598  35.719  1.00  0.00     0.022 A 
BRANCH  59  62
ATOM     62  S   UNL A   1      41.638  32.392  37.622  1.00  0.00     0.127 S 
ATOM     63  O   UNL A   1      40.323  31.911  37.200  1.00  0.00    -0.237 OA
ATOM     64  O   UNL A   1      42.410  31.436  38.417  1.00  0.00    -0.237 OA
ATOM     65  O   UNL A   1      41.676  33.761  38.116  1.00  0.00    -0.744 OA
ENDBRANCH  59  62
ENDBRANCH  41  55
BRANCH  42  66
ATOM     66  C   UNL A   1      42.960  24.203  27.063  1.00  0.00     0.023 A 
ATOM     67  C   UNL A   1      43.663  24.400  25.858  1.00  0.00     0.012 A 
ATOM     68  C   UNL A   1      42.276  22.989  27.269  1.00  0.00     0.148 A 
ATOM     69  C   UNL A   1      43.659  23.423  24.863  1.00  0.00     0.002 A 
ATOM     70  C   UNL A   1      42.321  21.997  26.296  1.00  0.00     0.091 A 
ATOM     71  F   UNL A   1      41.603  22.825  28.416  1.00  0.00    -0.205 F 
ATOM     72  C   UNL A   1      42.997  22.218  25.086  1.00  0.00     0.022 A 
BRANCH  70  73
ATOM     73  S   UNL A   1      41.609  20.367  26.548  1.00  0.00     0.127 S 
ATOM     74  O   UNL A   1      40.178  20.665  26.558  1.00  0.00    -0.237 OA
ATOM     75  O   UNL A   1      42.080  19.646  25.363  1.00  0.00    -0.237 OA
ATOM     76  O   UNL A   1      42.166  19.886  27.802  1.00  0.00    -0.744 OA
ENDBRANCH  70  73
ENDBRANCH  42  66
BRANCH  54  77
ATOM     77  C   UNL A   1      47.408  25.804  32.201  1.00  0.00     0.023 A 
ATOM     78  C   UNL A   1      48.623  26.143  31.575  1.00  0.00     0.012 A 
ATOM     79  C   UNL A   1      47.421  24.935  33.311  1.00  0.00     0.148 A 
ATOM     80  C   UNL A   1      49.827  25.600  32.024  1.00  0.00     0.002 A 
ATOM     81  C   UNL A   1      48.630  24.437  33.784  1.00  0.00     0.091 A 
ATOM     82  F   UNL A   1      46.253  24.608  33.882  1.00  0.00    -0.205 F 
ATOM     83  C   UNL A   1      49.832  24.758  33.134  1.00  0.00     0.022 A 
BRANCH  81  84
ATOM     84  S   UNL A   1      48.739  23.425  35.263  1.00  0.00     0.127 S 
ATOM     85  O   UNL A   1      48.056  22.204  34.842  1.00  0.00    -0.237 OA
ATOM     86  O   UNL A   1      50.185  23.286  35.440  1.00  0.00    -0.237 OA
ATOM     87  O   UNL A   1      48.075  24.184  36.316  1.00  0.00    -0.744 OA
ENDBRANCH  81  84
ENDBRANCH  54  77
ENDBRANCH  28  29
ENDBRANCH  20  23
ENDBRANCH  18  19
ENDBRANCH   1  18
TORSDOF 16
ENDMDL
MODEL 2
REMARK VINA RESULT:     -10.5      4.692     12.389
REMARK SMILES CN(CC(=O)NCCCNC(=O)c1ccc(-c2c3nc(c(-c4cccc(S(=O)(=O)[O-])c4F)c4ccc([nH]4)c(-c4cccc(S(=O)(=O)[O-])c4F)c4nc(c(-c5cccc(S(=O)(=O)[O-])c5F)c5ccc2[nH]5)C=C4)C=C3)cc1)C(=O)c1ccccn1
REMARK SMILES IDX 8 1 7 2 6 3 4 4 5 5 3 7 2 8 1 9 76 10 77 11 78 12 79 13
REMARK SMILES IDX 83 14 80 15 82 16 81 17 9 18 10 19 11 20 12 22 13 23 14 24
REMARK SMILES IDX 75 25 15 26 74 27 16 28 17 29 18 30 68 31 19 32 73 33 67 34
REMARK SMILES IDX 69 35 20 36 72 37 66 38 65 39 21 41 53 42 33 43 52 44 34 45
REMARK SMILES IDX 37 46 51 47 70 48 35 49 36 50 50 52 71 53 38 54 22 55 23 56
REMARK SMILES IDX 31 57 24 58 26 59 32 60 25 61 27 62 28 63 29 64 30 65 54 66
REMARK SMILES IDX 55 67 63 68 56 69 58 70 64 71 57 72 59 73 60 74 61 75 62 76
REMARK SMILES IDX 39 77 40 78 48 79 41 80 43 81 49 82 42 83 44 84 45 85 46 86
REMARK SMILES IDX 47 87
REMARK H PARENT 6 6 10 21 69 40 37 51
REMARK Flexibility Score: inf
ROOT
ATOM      1  C   UNL A   1      41.938  21.540  26.141  1.00  0.00     0.042 C 
ENDROOT
BRANCH   1   2
ATOM      2  C   UNL A   1      43.073  20.550  26.382  1.00  0.00     0.117 C 
BRANCH   2   3
ATOM      3  N   UNL A   1      43.509  19.852  25.190  1.00  0.00    -0.354 N 
ATOM      4  C   UNL A   1      44.708  19.893  24.542  1.00  0.00     0.239 C 
ATOM      5  O   UNL A   1      44.939  18.984  23.737  1.00  0.00    -0.273 OA
ATOM      6  H   UNL A   1      42.838  19.256  24.786  1.00  0.00     0.163 HD
BRANCH   4   7
ATOM      7  C   UNL A   1      45.796  20.925  24.883  1.00  0.00     0.219 C 
BRANCH   7   8
ATOM      8  N   UNL A   1      45.619  22.272  24.331  1.00  0.00    -0.331 N 
ATOM      9  C   UNL A   1      44.408  22.557  23.578  1.00  0.00     0.147 C 
BRANCH   8  10
ATOM     10  C   UNL A   1      46.349  23.399  24.749  1.00  0.00     0.272 C 
ATOM     11  O   UNL A   1      47.012  24.071  23.959  1.00  0.00    -0.267 OA
BRANCH  10  12
ATOM     12  C   UNL A   1      46.313  23.833  26.175  1.00  0.00     0.128 A 
ATOM     13  C   UNL A   1      47.184  24.808  26.641  1.00  0.00     0.034 A 
ATOM     14  N   UNL A   1      45.343  23.261  26.937  1.00  0.00    -0.251 NA
ATOM     15  C   UNL A   1      47.081  25.195  27.974  1.00  0.00     0.004 A 
ATOM     16  C   UNL A   1      45.239  23.697  28.209  1.00  0.00     0.112 A 
ATOM     17  C   UNL A   1      46.085  24.640  28.771  1.00  0.00     0.020 A 
ENDBRANCH  10  12
ENDBRANCH   8  10
ENDBRANCH   7   8
ENDBRANCH   4   7
ENDBRANCH   2   3
ENDBRANCH   1   2
BRANCH   1  18
ATOM     18  C   UNL A   1      40.665  21.277  26.942  1.00  0.00     0.118 C 
BRANCH  18  19
ATOM     19  N   UNL A   1      39.450  21.589  26.204  1.00  0.00    -0.352 N 
ATOM     20  C   UNL A   1      38.720  22.747  26.106  1.00  0.00     0.251 C 
ATOM     21  H   UNL A   1      39.088  20.836  25.682  1.00  0.00     0.163 HD
ATOM     22  O   UNL A   1      37.626  22.701  25.543  1.00  0.00    -0.269 OA
BRANCH  20  23
ATOM     23  C   UNL A   1      39.205  24.034  26.660  1.00  0.00     0.039 A 
ATOM     24  C   UNL A   1      39.949  24.877  25.825  1.00  0.00     0.014 A 
ATOM     25  C   UNL A   1      39.008  24.391  27.996  1.00  0.00     0.014 A 
ATOM     26  C   UNL A   1      40.452  26.086  26.314  1.00  0.00     0.010 A 
ATOM     27  C   UNL A   1      39.446  25.633  28.462  1.00  0.00     0.010 A 
ATOM     28  C   UNL A   1      40.185  26.488  27.632  1.00  0.00    -0.014 A 
BRANCH  28  29
ATOM     29  C   UNL A   1      40.671  27.796  28.148  1.00  0.00     0.031 A 
ATOM     30  C   UNL A   1      42.143  28.116  28.170  1.00  0.00     0.074 A 
ATOM     31  C   UNL A   1      39.788  28.679  28.658  1.00  0.00     0.049 A 
ATOM     32  N   UNL A   1      42.747  29.197  28.597  1.00  0.00    -0.248 NA
ATOM     33  C   UNL A   1      43.061  27.079  27.671  1.00  0.00     0.031 C 
ATOM     34  C   UNL A   1      38.343  28.460  28.767  1.00  0.00     0.029 A 
ATOM     35  N   UNL A   1      39.975  29.928  29.197  1.00  0.00    -0.354 N 
ATOM     36  C   UNL A   1      44.108  28.958  28.451  1.00  0.00     0.074 A 
ATOM     37  C   UNL A   1      44.245  27.617  27.927  1.00  0.00     0.031 C 
ATOM     38  C   UNL A   1      37.776  29.541  29.327  1.00  0.00     0.029 A 
ATOM     39  C   UNL A   1      38.814  30.518  29.640  1.00  0.00     0.049 A 
ATOM     40  H   UNL A   1      40.858  30.360  29.259  1.00  0.00     0.167 HD
ATOM     41  C   UNL A   1      45.151  29.789  28.697  1.00  0.00     0.034 A 
ATOM     42  C   UNL A   1      38.607  31.712  30.230  1.00  0.00     0.034 A 
ATOM     43  C   UNL A   1      45.010  31.139  29.175  1.00  0.00     0.049 A 
ATOM     44  C   UNL A   1      39.776  32.634  30.447  1.00  0.00     0.074 A 
ATOM     45  C   UNL A   1      45.998  32.087  29.377  1.00  0.00     0.029 A 
ATOM     46  N   UNL A   1      43.810  31.732  29.529  1.00  0.00    -0.354 N 
ATOM     47  N   UNL A   1      41.039  32.449  30.153  1.00  0.00    -0.248 NA
ATOM     48  C   UNL A   1      39.483  33.948  31.040  1.00  0.00     0.031 C 
ATOM     49  C   UNL A   1      45.396  33.248  29.872  1.00  0.00     0.029 A 
ATOM     50  C   UNL A   1      44.030  33.032  29.952  1.00  0.00     0.049 A 
ATOM     51  H   UNL A   1      42.929  31.294  29.487  1.00  0.00     0.167 HD
ATOM     52  C   UNL A   1      41.686  33.635  30.484  1.00  0.00     0.074 A 
ATOM     53  C   UNL A   1      40.670  34.538  30.985  1.00  0.00     0.031 C 
ATOM     54  C   UNL A   1      43.003  33.943  30.393  1.00  0.00     0.034 A 
BRANCH  41  55
ATOM     55  C   UNL A   1      46.538  29.280  28.395  1.00  0.00     0.023 A 
ATOM     56  C   UNL A   1      47.075  29.456  27.104  1.00  0.00     0.012 A 
ATOM     57  C   UNL A   1      47.332  28.687  29.396  1.00  0.00     0.148 A 
ATOM     58  C   UNL A   1      48.363  29.014  26.800  1.00  0.00     0.002 A 
ATOM     59  C   UNL A   1      48.631  28.289  29.099  1.00  0.00     0.091 A 
ATOM     60  F   UNL A   1      46.800  28.510  30.614  1.00  0.00    -0.205 F 
ATOM     61  C   UNL A   1      49.143  28.441  27.800  1.00  0.00     0.022 A 
BRANCH  59  62
ATOM     62  S   UNL A   1      49.746  27.613  30.336  1.00  0.00     0.127 S 
ATOM     63  O   UNL A   1      50.955  27.379  29.547  1.00  0.00    -0.237 OA
ATOM     64  O   UNL A   1      49.848  28.714  31.295  1.00  0.00    -0.237 OA
ATOM     65  O   UNL A   1      49.093  26.418  30.852  1.00  0.00    -0.744 OA
ENDBRANCH  59  62
ENDBRANCH  41  55
BRANCH  42  66
ATOM     66  C   UNL A   1      37.221  32.138  30.576  1.00  0.00     0.023 A 
ATOM     67  C   UNL A   1      36.752  31.953  31.891  1.00  0.00     0.012 A 
ATOM     68  C   UNL A   1      36.380  32.749  29.625  1.00  0.00     0.148 A 
ATOM     69  C   UNL A   1      35.459  32.339  32.247  1.00  0.00     0.002 A 
ATOM     70  C   UNL A   1      35.113  33.181  30.001  1.00  0.00     0.091 A 
ATOM     71  F   UNL A   1      36.840  32.905  28.377  1.00  0.00    -0.205 F 
ATOM     72  C   UNL A   1      34.644  32.962  31.305  1.00  0.00     0.022 A 
BRANCH  70  73
ATOM     73  S   UNL A   1      34.044  34.107  28.893  1.00  0.00     0.127 S 
ATOM     74  O   UNL A   1      33.615  33.071  27.957  1.00  0.00    -0.237 OA
ATOM     75  O   UNL A   1      33.002  34.581  29.807  1.00  0.00    -0.237 OA
ATOM     76  O   UNL A   1      34.876  35.161  28.336  1.00  0.00    -0.744 OA
ENDBRANCH  70  73
ENDBRANCH  42  66
BRANCH  54  77
ATOM     77  C   UNL A   1      43.427  35.330  30.800  1.00  0.00     0.023 A 
ATOM     78  C   UNL A   1      43.869  35.573  32.115  1.00  0.00     0.012 A 
ATOM     79  C   UNL A   1      43.453  36.377  29.858  1.00  0.00     0.148 A 
ATOM     80  C   UNL A   1      44.298  36.845  32.495  1.00  0.00     0.002 A 
ATOM     81  C   UNL A   1      43.928  37.629  30.230  1.00  0.00     0.091 A 
ATOM     82  F   UNL A   1      43.009  36.132  28.616  1.00  0.00    -0.205 F 
ATOM     83  C   UNL A   1      44.338  37.869  31.551  1.00  0.00     0.022 A 
BRANCH  81  84
ATOM     84  S   UNL A   1      44.105  38.977  29.056  1.00  0.00     0.127 S 
ATOM     85  O   UNL A   1      42.769  39.038  28.467  1.00  0.00    -0.237 OA
ATOM     86  O   UNL A   1      44.441  40.105  29.925  1.00  0.00    -0.237 OA
ATOM     87  O   UNL A   1      45.173  38.578  28.149  1.00  0.00    -0.744 OA
ENDBRANCH  81  84
ENDBRANCH  54  77
ENDBRANCH  28  29
ENDBRANCH  20  23
ENDBRANCH  18  19
ENDBRANCH   1  18
TORSDOF 16
ENDMDL
MODEL 3
REMARK VINA RESULT:     -10.4      1.132      2.065
REMARK SMILES CN(CC(=O)NCCCNC(=O)c1ccc(-c2c3nc(c(-c4cccc(S(=O)(=O)[O-])c4F)c4ccc([nH]4)c(-c4cccc(S(=O)(=O)[O-])c4F)c4nc(c(-c5cccc(S(=O)(=O)[O-])c5F)c5ccc2[nH]5)C=C4)C=C3)cc1)C(=O)c1ccccn1
REMARK SMILES IDX 8 1 7 2 6 3 4 4 5 5 3 7 2 8 1 9 76 10 77 11 78 12 79 13
REMARK SMILES IDX 83 14 80 15 82 16 81 17 9 18 10 19 11 20 12 22 13 23 14 24
REMARK SMILES IDX 75 25 15 26 74 27 16 28 17 29 18 30 68 31 19 32 73 33 67 34
REMARK SMILES IDX 69 35 20 36 72 37 66 38 65 39 21 41 53 42 33 43 52 44 34 45
REMARK SMILES IDX 37 46 51 47 70 48 35 49 36 50 50 52 71 53 38 54 22 55 23 56
REMARK SMILES IDX 31 57 24 58 26 59 32 60 25 61 27 62 28 63 29 64 30 65 54 66
REMARK SMILES IDX 55 67 63 68 56 69 58 70 64 71 57 72 59 73 60 74 61 75 62 76
REMARK SMILES IDX 39 77 40 78 48 79 41 80 43 81 49 82 42 83 44 84 45 85 46 86
REMARK SMILES IDX 47 87
REMARK H PARENT 6 6 10 21 69 40 37 51
REMARK Flexibility Score: inf
ROOT
ATOM      1  C   UNL A   1      34.479  34.348  28.721  1.00  0.00     0.042 C 
ENDROOT
BRANCH   1   2
ATOM      2  C   UNL A   1      34.387  33.983  30.199  1.00  0.00     0.117 C 
BRANCH   2   3
ATOM      3  N   UNL A   1      34.286  35.125  31.084  1.00  0.00    -0.354 N 
ATOM      4  C   UNL A   1      34.521  35.217  32.423  1.00  0.00     0.239 C 
ATOM      5  O   UNL A   1      34.664  36.353  32.888  1.00  0.00    -0.273 OA
ATOM      6  H   UNL A   1      34.003  35.963  30.652  1.00  0.00     0.163 HD
BRANCH   4   7
ATOM      7  C   UNL A   1      34.748  33.980  33.309  1.00  0.00     0.219 C 
BRANCH   7   8
ATOM      8  N   UNL A   1      36.111  33.442  33.350  1.00  0.00    -0.331 N 
ATOM      9  C   UNL A   1      36.300  32.017  33.129  1.00  0.00     0.147 C 
BRANCH   8  10
ATOM     10  C   UNL A   1      37.273  34.228  33.247  1.00  0.00     0.272 C 
ATOM     11  O   UNL A   1      37.668  34.926  34.180  1.00  0.00    -0.267 OA
BRANCH  10  12
ATOM     12  C   UNL A   1      38.085  34.209  31.996  1.00  0.00     0.128 A 
ATOM     13  C   UNL A   1      39.423  34.578  32.015  1.00  0.00     0.034 A 
ATOM     14  N   UNL A   1      37.444  33.752  30.888  1.00  0.00    -0.251 NA
ATOM     15  C   UNL A   1      40.138  34.509  30.823  1.00  0.00     0.004 A 
ATOM     16  C   UNL A   1      38.182  33.650  29.763  1.00  0.00     0.112 A 
ATOM     17  C   UNL A   1      39.513  34.027  29.678  1.00  0.00     0.020 A 
ENDBRANCH  10  12
ENDBRANCH   8  10
ENDBRANCH   7   8
ENDBRANCH   4   7
ENDBRANCH   2   3
ENDBRANCH   1   2
BRANCH   1  18
ATOM     18  C   UNL A   1      35.065  33.264  27.819  1.00  0.00     0.118 C 
BRANCH  18  19
ATOM     19  N   UNL A   1      34.220  32.083  27.721  1.00  0.00    -0.352 N 
ATOM     20  C   UNL A   1      34.516  30.746  27.810  1.00  0.00     0.251 C 
ATOM     21  H   UNL A   1      33.267  32.277  27.563  1.00  0.00     0.163 HD
ATOM     22  O   UNL A   1      33.637  29.933  27.523  1.00  0.00    -0.269 OA
BRANCH  20  23
ATOM     23  C   UNL A   1      35.851  30.261  28.233  1.00  0.00     0.039 A 
ATOM     24  C   UNL A   1      36.003  29.795  29.545  1.00  0.00     0.014 A 
ATOM     25  C   UNL A   1      36.967  30.325  27.395  1.00  0.00     0.014 A 
ATOM     26  C   UNL A   1      37.252  29.356  29.996  1.00  0.00     0.010 A 
ATOM     27  C   UNL A   1      38.196  29.817  27.821  1.00  0.00     0.010 A 
ATOM     28  C   UNL A   1      38.357  29.340  29.131  1.00  0.00    -0.014 A 
BRANCH  28  29
ATOM     29  C   UNL A   1      39.678  28.828  29.583  1.00  0.00     0.031 A 
ATOM     30  C   UNL A   1      40.429  29.512  30.696  1.00  0.00     0.074 A 
ATOM     31  C   UNL A   1      40.235  27.776  28.949  1.00  0.00     0.049 A 
ATOM     32  N   UNL A   1      41.596  29.214  31.209  1.00  0.00    -0.248 NA
ATOM     33  C   UNL A   1      39.801  30.701  31.295  1.00  0.00     0.031 C 
ATOM     34  C   UNL A   1      39.649  27.072  27.807  1.00  0.00     0.029 A 
ATOM     35  N   UNL A   1      41.428  27.128  29.161  1.00  0.00    -0.354 N 
ATOM     36  C   UNL A   1      41.856  30.192  32.162  1.00  0.00     0.074 A 
ATOM     37  C   UNL A   1      40.742  31.114  32.133  1.00  0.00     0.031 C 
ATOM     38  C   UNL A   1      40.476  26.085  27.426  1.00  0.00     0.029 A 
ATOM     39  C   UNL A   1      41.662  26.100  28.277  1.00  0.00     0.049 A 
ATOM     40  H   UNL A   1      42.055  27.376  29.878  1.00  0.00     0.167 HD
ATOM     41  C   UNL A   1      42.909  30.299  33.009  1.00  0.00     0.034 A 
ATOM     42  C   UNL A   1      42.711  25.262  28.165  1.00  0.00     0.034 A 
ATOM     43  C   UNL A   1      43.995  29.356  33.067  1.00  0.00     0.049 A 
ATOM     44  C   UNL A   1      43.845  25.372  29.148  1.00  0.00     0.074 A 
ATOM     45  C   UNL A   1      45.066  29.331  33.944  1.00  0.00     0.029 A 
ATOM     46  N   UNL A   1      44.153  28.276  32.214  1.00  0.00    -0.354 N 
ATOM     47  N   UNL A   1      43.993  26.209  30.146  1.00  0.00    -0.248 NA
ATOM     48  C   UNL A   1      44.936  24.395  29.016  1.00  0.00     0.031 C 
ATOM     49  C   UNL A   1      45.881  28.245  33.608  1.00  0.00     0.029 A 
ATOM     50  C   UNL A   1      45.305  27.579  32.539  1.00  0.00     0.049 A 
ATOM     51  H   UNL A   1      43.538  28.040  31.482  1.00  0.00     0.167 HD
ATOM     52  C   UNL A   1      45.170  25.834  30.785  1.00  0.00     0.074 A 
ATOM     53  C   UNL A   1      45.684  24.682  30.072  1.00  0.00     0.031 C 
ATOM     54  C   UNL A   1      45.775  26.399  31.860  1.00  0.00     0.034 A 
BRANCH  41  55
ATOM     55  C   UNL A   1      42.909  31.447  33.987  1.00  0.00     0.023 A 
ATOM     56  C   UNL A   1      43.420  32.698  33.586  1.00  0.00     0.012 A 
ATOM     57  C   UNL A   1      42.351  31.311  35.273  1.00  0.00     0.148 A 
ATOM     58  C   UNL A   1      43.414  33.784  34.461  1.00  0.00     0.002 A 
ATOM     59  C   UNL A   1      42.307  32.410  36.124  1.00  0.00     0.091 A 
ATOM     60  F   UNL A   1      41.885  30.110  35.646  1.00  0.00    -0.205 F 
ATOM     61  C   UNL A   1      42.849  33.642  35.725  1.00  0.00     0.022 A 
BRANCH  59  62
ATOM     62  S   UNL A   1      41.529  32.352  37.743  1.00  0.00     0.127 S 
ATOM     63  O   UNL A   1      41.669  33.739  38.187  1.00  0.00    -0.237 OA
ATOM     64  O   UNL A   1      40.160  31.953  37.414  1.00  0.00    -0.237 OA
ATOM     65  O   UNL A   1      42.278  31.369  38.513  1.00  0.00    -0.744 OA
ENDBRANCH  59  62
ENDBRANCH  41  55
BRANCH  42  66
ATOM     66  C   UNL A   1      42.696  24.188  27.132  1.00  0.00     0.023 A 
ATOM     67  C   UNL A   1      43.380  24.390  25.917  1.00  0.00     0.012 A 
ATOM     68  C   UNL A   1      42.038  22.963  27.354  1.00  0.00     0.148 A 
ATOM     69  C   UNL A   1      43.384  23.406  24.929  1.00  0.00     0.002 A 
ATOM     70  C   UNL A   1      42.091  21.965  26.387  1.00  0.00     0.091 A 
ATOM     71  F   UNL A   1      41.382  22.794  28.510  1.00  0.00    -0.205 F 
ATOM     72  C   UNL A   1      42.748  22.190  25.168  1.00  0.00     0.022 A 
BRANCH  70  73
ATOM     73  S   UNL A   1      41.414  20.323  26.659  1.00  0.00     0.127 S 
ATOM     74  O   UNL A   1      42.144  19.893  27.850  1.00  0.00    -0.237 OA
ATOM     75  O   UNL A   1      39.996  20.615  26.878  1.00  0.00    -0.237 OA
ATOM     76  O   UNL A   1      41.691  19.578  25.441  1.00  0.00    -0.744 OA
ENDBRANCH  70  73
ENDBRANCH  42  66
BRANCH  54  77
ATOM     77  C   UNL A   1      47.042  25.760  32.365  1.00  0.00     0.023 A 
ATOM     78  C   UNL A   1      48.286  26.136  31.823  1.00  0.00     0.012 A 
ATOM     79  C   UNL A   1      47.003  24.835  33.428  1.00  0.00     0.148 A 
ATOM     80  C   UNL A   1      49.469  25.578  32.307  1.00  0.00     0.002 A 
ATOM     81  C   UNL A   1      48.189  24.320  33.939  1.00  0.00     0.091 A 
ATOM     82  F   UNL A   1      45.808  24.473  33.919  1.00  0.00    -0.205 F 
ATOM     83  C   UNL A   1      49.422  24.680  33.372  1.00  0.00     0.022 A 
BRANCH  81  84
ATOM     84  S   UNL A   1      48.227  23.234  35.369  1.00  0.00     0.127 S 
ATOM     85  O   UNL A   1      49.650  22.911  35.462  1.00  0.00    -0.237 OA
ATOM     86  O   UNL A   1      47.729  24.104  36.435  1.00  0.00    -0.237 OA
ATOM     87  O   UNL A   1      47.350  22.116  35.045  1.00  0.00    -0.744 OA
ENDBRANCH  81  84
ENDBRANCH  54  77
ENDBRANCH  28  29
ENDBRANCH  20  23
ENDBRANCH  18  19
ENDBRANCH   1  18
TORSDOF 16
ENDMDL
