MODEL 1
REMARK VINA RESULT:     -12.8      0.000      0.000
REMARK SMILES O=C(CO/N=C\c1ccccc1)Nc1ccccc1C(=O)NCCCNC(=O)c1ccc(-c2c3nc(c(-c4cccc(S(=O)(=O)[O-])c4F)c4ccc([nH]4)c(-c4cccc(S(=O)(=O)[O-])c4F)c4nc(c(-c5cccc(S(=O)(=O)[O-])c5F)c5ccc2[nH]5)C=C4)C=C3)cc1
REMARK SMILES IDX 23 1 22 2 20 3 21 4 19 6 14 7 15 8 16 9 18 10 17 11 13 12
REMARK SMILES IDX 1 13 2 14 3 16 4 17 5 18 6 19 7 20 8 21 12 22 9 23 11 24
REMARK SMILES IDX 10 25 24 26 25 27 26 28 27 29 28 31 29 32 30 33 91 34 31 35
REMARK SMILES IDX 90 36 32 37 33 38 34 39 84 40 35 41 89 42 83 43 85 44 36 45
REMARK SMILES IDX 88 46 82 47 81 48 37 50 69 51 49 52 68 53 50 54 53 55 67 56
REMARK SMILES IDX 86 57 51 58 52 59 66 61 87 62 54 63 38 64 39 65 47 66 40 67
REMARK SMILES IDX 42 68 48 69 41 70 43 71 44 72 45 73 46 74 70 75 71 76 79 77
REMARK SMILES IDX 72 78 74 79 80 80 73 81 75 82 76 83 77 84 78 85 55 86 56 87
REMARK SMILES IDX 64 88 57 89 59 90 65 91 58 92 60 93 61 94 62 95 63 96
REMARK H PARENT 22 5 13 15 26 30 85 49 53 60
REMARK Flexibility Score: inf
ROOT
ATOM      1  C   UNL A   1      32.364  27.666  26.884  1.00  0.00     0.118 C 
ENDROOT
BRANCH   1   2
ATOM      2  N   UNL A   1      31.509  26.511  26.888  1.00  0.00    -0.352 N 
ATOM      3  C   UNL A   1      31.829  25.232  26.469  1.00  0.00     0.253 C 
ATOM      4  O   UNL A   1      31.056  24.324  26.791  1.00  0.00    -0.269 OA
ATOM      5  H   UNL A   1      30.595  26.644  27.227  1.00  0.00     0.163 HD
BRANCH   3   6
ATOM      6  C   UNL A   1      32.921  24.936  25.480  1.00  0.00     0.063 A 
ATOM      7  C   UNL A   1      32.947  25.086  24.075  1.00  0.00     0.054 A 
ATOM      8  C   UNL A   1      34.000  24.484  23.351  1.00  0.00     0.027 A 
ATOM      9  C   UNL A   1      35.069  23.851  23.991  1.00  0.00     0.002 A 
ATOM     10  C   UNL A   1      34.032  24.314  26.103  1.00  0.00     0.016 A 
ATOM     11  C   UNL A   1      35.099  23.790  25.374  1.00  0.00     0.001 A 
BRANCH   7  12
ATOM     12  N   UNL A   1      32.031  25.783  23.250  1.00  0.00    -0.322 N 
ATOM     13  O   UNL A   1      32.834  27.949  23.383  1.00  0.00    -0.271 OA
ATOM     14  C   UNL A   1      31.978  27.146  23.024  1.00  0.00     0.265 C 
ATOM     15  H   UNL A   1      31.356  25.237  22.786  1.00  0.00     0.170 HD
BRANCH  14  16
ATOM     16  C   UNL A   1      30.640  27.591  22.415  1.00  0.00     0.363 C 
BRANCH  16  17
ATOM     17  O   UNL A   1      29.823  28.336  23.300  1.00  0.00    -0.386 OA
BRANCH  17  18
ATOM     18  N   UNL A   1      28.544  27.772  23.320  1.00  0.00    -0.094 NA
ATOM     19  C   UNL A   1      27.632  28.647  23.021  1.00  0.00     0.162 C 
BRANCH  19  20
ATOM     20  C   UNL A   1      27.831  30.047  22.618  1.00  0.00    -0.004 A 
ATOM     21  C   UNL A   1      27.986  30.321  21.259  1.00  0.00     0.010 A 
ATOM     22  C   UNL A   1      27.930  31.062  23.573  1.00  0.00     0.010 A 
ATOM     23  C   UNL A   1      28.220  31.632  20.847  1.00  0.00     0.001 A 
ATOM     24  C   UNL A   1      28.179  32.371  23.154  1.00  0.00     0.001 A 
ATOM     25  C   UNL A   1      28.319  32.654  21.793  1.00  0.00     0.000 A 
ENDBRANCH  19  20
ENDBRANCH  17  18
ENDBRANCH  16  17
ENDBRANCH  14  16
ENDBRANCH   7  12
ENDBRANCH   3   6
ENDBRANCH   1   2
BRANCH   1  26
ATOM     26  C   UNL A   1      31.724  29.035  26.949  1.00  0.00     0.042 C 
BRANCH  26  27
ATOM     27  C   UNL A   1      32.390  30.126  26.110  1.00  0.00     0.118 C 
BRANCH  27  28
ATOM     28  N   UNL A   1      32.255  31.497  26.617  1.00  0.00    -0.352 N 
ATOM     29  C   UNL A   1      33.057  32.309  27.389  1.00  0.00     0.251 C 
ATOM     30  H   UNL A   1      31.411  31.929  26.347  1.00  0.00     0.163 HD
ATOM     31  O   UNL A   1      32.616  33.405  27.741  1.00  0.00    -0.269 OA
BRANCH  29  32
ATOM     32  C   UNL A   1      34.405  31.893  27.845  1.00  0.00     0.039 A 
ATOM     33  C   UNL A   1      35.416  32.856  27.982  1.00  0.00     0.014 A 
ATOM     34  C   UNL A   1      34.698  30.567  28.137  1.00  0.00     0.014 A 
ATOM     35  C   UNL A   1      36.658  32.501  28.526  1.00  0.00     0.010 A 
ATOM     36  C   UNL A   1      35.868  30.244  28.812  1.00  0.00     0.010 A 
ATOM     37  C   UNL A   1      36.869  31.203  29.014  1.00  0.00    -0.014 A 
BRANCH  37  38
ATOM     38  C   UNL A   1      38.103  30.807  29.748  1.00  0.00     0.031 A 
ATOM     39  C   UNL A   1      39.070  29.827  29.130  1.00  0.00     0.074 A 
ATOM     40  C   UNL A   1      38.279  31.207  31.025  1.00  0.00     0.049 A 
ATOM     41  N   UNL A   1      40.097  29.224  29.672  1.00  0.00    -0.248 NA
ATOM     42  C   UNL A   1      38.816  29.427  27.734  1.00  0.00     0.031 C 
ATOM     43  C   UNL A   1      37.365  32.070  31.780  1.00  0.00     0.029 A 
ATOM     44  N   UNL A   1      39.267  30.909  31.931  1.00  0.00    -0.354 N 
ATOM     45  C   UNL A   1      40.565  28.334  28.712  1.00  0.00     0.074 A 
ATOM     46  C   UNL A   1      39.684  28.441  27.570  1.00  0.00     0.031 C 
ATOM     47  C   UNL A   1      37.841  32.242  33.023  1.00  0.00     0.029 A 
ATOM     48  C   UNL A   1      39.070  31.470  33.172  1.00  0.00     0.049 A 
ATOM     49  H   UNL A   1      40.045  30.345  31.712  1.00  0.00     0.167 HD
ATOM     50  C   UNL A   1      41.652  27.525  28.756  1.00  0.00     0.034 A 
ATOM     51  C   UNL A   1      39.791  31.369  34.306  1.00  0.00     0.034 A 
ATOM     52  C   UNL A   1      42.574  27.487  29.857  1.00  0.00     0.049 A 
ATOM     53  C   UNL A   1      41.045  30.538  34.299  1.00  0.00     0.074 A 
ATOM     54  C   UNL A   1      43.770  26.797  29.955  1.00  0.00     0.029 A 
ATOM     55  N   UNL A   1      42.409  28.174  31.049  1.00  0.00    -0.354 N 
ATOM     56  N   UNL A   1      41.557  29.827  33.325  1.00  0.00    -0.248 NA
ATOM     57  C   UNL A   1      41.840  30.524  35.535  1.00  0.00     0.031 C 
ATOM     58  C   UNL A   1      44.321  27.059  31.214  1.00  0.00     0.029 A 
ATOM     59  C   UNL A   1      43.479  27.927  31.891  1.00  0.00     0.049 A 
ATOM     60  H   UNL A   1      41.642  28.754  31.266  1.00  0.00     0.167 HD
ATOM     61  C   UNL A   1      42.749  29.308  33.816  1.00  0.00     0.074 A 
ATOM     62  C   UNL A   1      42.894  29.809  35.168  1.00  0.00     0.031 C 
ATOM     63  C   UNL A   1      43.634  28.477  33.212  1.00  0.00     0.034 A 
BRANCH  50  64
ATOM     64  C   UNL A   1      41.943  26.673  27.546  1.00  0.00     0.023 A 
ATOM     65  C   UNL A   1      42.570  27.251  26.423  1.00  0.00     0.012 A 
ATOM     66  C   UNL A   1      41.645  25.296  27.534  1.00  0.00     0.148 A 
ATOM     67  C   UNL A   1      42.855  26.487  25.292  1.00  0.00     0.002 A 
ATOM     68  C   UNL A   1      41.977  24.529  26.423  1.00  0.00     0.091 A 
ATOM     69  F   UNL A   1      41.033  24.764  28.601  1.00  0.00    -0.205 F 
ATOM     70  C   UNL A   1      42.568  25.125  25.296  1.00  0.00     0.022 A 
BRANCH  68  71
ATOM     71  S   UNL A   1      41.727  22.751  26.360  1.00  0.00     0.127 S 
ATOM     72  O   UNL A   1      42.411  22.401  25.116  1.00  0.00    -0.237 OA
ATOM     73  O   UNL A   1      42.405  22.302  27.576  1.00  0.00    -0.237 OA
ATOM     74  O   UNL A   1      40.285  22.549  26.360  1.00  0.00    -0.744 OA
ENDBRANCH  68  71
ENDBRANCH  50  64
BRANCH  51  75
ATOM     75  C   UNL A   1      39.389  32.144  35.516  1.00  0.00     0.023 A 
ATOM     76  C   UNL A   1      39.778  33.494  35.624  1.00  0.00     0.012 A 
ATOM     77  C   UNL A   1      38.602  31.574  36.534  1.00  0.00     0.148 A 
ATOM     78  C   UNL A   1      39.418  34.252  36.738  1.00  0.00     0.002 A 
ATOM     79  C   UNL A   1      38.198  32.352  37.615  1.00  0.00     0.091 A 
ATOM     80  F   UNL A   1      38.248  30.286  36.419  1.00  0.00    -0.205 F 
ATOM     81  C   UNL A   1      38.621  33.686  37.728  1.00  0.00     0.022 A 
BRANCH  79  82
ATOM     82  S   UNL A   1      37.052  31.750  38.861  1.00  0.00     0.127 S 
ATOM     83  O   UNL A   1      37.776  32.037  40.096  1.00  0.00    -0.237 OA
ATOM     84  O   UNL A   1      35.878  32.590  38.624  1.00  0.00    -0.237 OA
ATOM     85  O   UNL A   1      36.848  30.341  38.556  1.00  0.00    -0.744 OA
ENDBRANCH  79  82
ENDBRANCH  51  75
BRANCH  63  86
ATOM     86  C   UNL A   1      44.860  28.082  33.991  1.00  0.00     0.023 A 
ATOM     87  C   UNL A   1      46.006  28.901  33.954  1.00  0.00     0.012 A 
ATOM     88  C   UNL A   1      44.849  26.941  34.816  1.00  0.00     0.148 A 
ATOM     89  C   UNL A   1      47.136  28.571  34.702  1.00  0.00     0.002 A 
ATOM     90  C   UNL A   1      45.960  26.645  35.596  1.00  0.00     0.091 A 
ATOM     91  F   UNL A   1      43.756  26.165  34.821  1.00  0.00    -0.205 F 
ATOM     92  C   UNL A   1      47.109  27.452  35.531  1.00  0.00     0.022 A 
BRANCH  90  93
ATOM     93  S   UNL A   1      45.978  25.279  36.763  1.00  0.00     0.127 S 
ATOM     94  O   UNL A   1      45.920  24.124  35.871  1.00  0.00    -0.237 OA
ATOM     95  O   UNL A   1      47.262  25.465  37.439  1.00  0.00    -0.237 OA
ATOM     96  O   UNL A   1      44.814  25.471  37.618  1.00  0.00    -0.744 OA
ENDBRANCH  90  93
ENDBRANCH  63  86
ENDBRANCH  37  38
ENDBRANCH  29  32
ENDBRANCH  27  28
ENDBRANCH  26  27
ENDBRANCH   1  26
TORSDOF 18
ENDMDL
MODEL 2
REMARK VINA RESULT:     -12.7      5.430     10.495
REMARK SMILES O=C(CO/N=C\c1ccccc1)Nc1ccccc1C(=O)NCCCNC(=O)c1ccc(-c2c3nc(c(-c4cccc(S(=O)(=O)[O-])c4F)c4ccc([nH]4)c(-c4cccc(S(=O)(=O)[O-])c4F)c4nc(c(-c5cccc(S(=O)(=O)[O-])c5F)c5ccc2[nH]5)C=C4)C=C3)cc1
REMARK SMILES IDX 23 1 22 2 20 3 21 4 19 6 14 7 15 8 16 9 18 10 17 11 13 12
REMARK SMILES IDX 1 13 2 14 3 16 4 17 5 18 6 19 7 20 8 21 12 22 9 23 11 24
REMARK SMILES IDX 10 25 24 26 25 27 26 28 27 29 28 31 29 32 30 33 91 34 31 35
REMARK SMILES IDX 90 36 32 37 33 38 34 39 84 40 35 41 89 42 83 43 85 44 36 45
REMARK SMILES IDX 88 46 82 47 81 48 37 50 69 51 49 52 68 53 50 54 53 55 67 56
REMARK SMILES IDX 86 57 51 58 52 59 66 61 87 62 54 63 38 64 39 65 47 66 40 67
REMARK SMILES IDX 42 68 48 69 41 70 43 71 44 72 45 73 46 74 70 75 71 76 79 77
REMARK SMILES IDX 72 78 74 79 80 80 73 81 75 82 76 83 77 84 78 85 55 86 56 87
REMARK SMILES IDX 64 88 57 89 59 90 65 91 58 92 60 93 61 94 62 95 63 96
REMARK H PARENT 22 5 13 15 26 30 85 49 53 60
REMARK Flexibility Score: inf
ROOT
ATOM      1  C   UNL A   1      35.035  23.802  25.814  1.00  0.00     0.118 C 
ENDROOT
BRANCH   1   2
ATOM      2  N   UNL A   1      34.553  24.353  24.579  1.00  0.00    -0.352 N 
ATOM      3  C   UNL A   1      33.931  25.575  24.394  1.00  0.00     0.253 C 
ATOM      4  O   UNL A   1      33.826  25.984  23.234  1.00  0.00    -0.269 OA
ATOM      5  H   UNL A   1      34.679  23.801  23.774  1.00  0.00     0.163 HD
BRANCH   3   6
ATOM      6  C   UNL A   1      33.198  26.301  25.486  1.00  0.00     0.063 A 
ATOM      7  C   UNL A   1      31.953  26.024  26.093  1.00  0.00     0.054 A 
ATOM      8  C   UNL A   1      31.364  27.014  26.911  1.00  0.00     0.027 A 
ATOM      9  C   UNL A   1      32.029  28.201  27.227  1.00  0.00     0.002 A 
ATOM     10  C   UNL A   1      33.861  27.502  25.848  1.00  0.00     0.016 A 
ATOM     11  C   UNL A   1      33.295  28.434  26.716  1.00  0.00     0.001 A 
BRANCH   7  12
ATOM     12  N   UNL A   1      31.174  24.845  25.997  1.00  0.00    -0.322 N 
ATOM     13  O   UNL A   1      32.099  23.534  27.665  1.00  0.00    -0.271 OA
ATOM     14  C   UNL A   1      31.339  23.672  26.710  1.00  0.00     0.265 C 
ATOM     15  H   UNL A   1      30.431  24.862  25.351  1.00  0.00     0.170 HD
BRANCH  14  16
ATOM     16  C   UNL A   1      30.593  22.487  26.078  1.00  0.00     0.363 C 
BRANCH  16  17
ATOM     17  O   UNL A   1      31.411  21.647  25.284  1.00  0.00    -0.386 OA
BRANCH  17  18
ATOM     18  N   UNL A   1      32.020  22.416  24.289  1.00  0.00    -0.094 NA
ATOM     19  C   UNL A   1      32.762  21.687  23.510  1.00  0.00     0.162 C 
BRANCH  19  20
ATOM     20  C   UNL A   1      32.932  20.227  23.543  1.00  0.00    -0.004 A 
ATOM     21  C   UNL A   1      32.212  19.464  22.623  1.00  0.00     0.010 A 
ATOM     22  C   UNL A   1      33.736  19.619  24.509  1.00  0.00     0.010 A 
ATOM     23  C   UNL A   1      32.316  18.074  22.655  1.00  0.00     0.001 A 
ATOM     24  C   UNL A   1      33.824  18.226  24.545  1.00  0.00     0.001 A 
ATOM     25  C   UNL A   1      33.119  17.456  23.617  1.00  0.00     0.000 A 
ENDBRANCH  19  20
ENDBRANCH  17  18
ENDBRANCH  16  17
ENDBRANCH  14  16
ENDBRANCH   7  12
ENDBRANCH   3   6
ENDBRANCH   1   2
BRANCH   1  26
ATOM     26  C   UNL A   1      35.561  22.384  25.812  1.00  0.00     0.042 C 
BRANCH  26  27
ATOM     27  C   UNL A   1      36.588  22.051  24.729  1.00  0.00     0.118 C 
BRANCH  27  28
ATOM     28  N   UNL A   1      37.541  20.983  25.054  1.00  0.00    -0.352 N 
ATOM     29  C   UNL A   1      38.744  20.955  25.726  1.00  0.00     0.251 C 
ATOM     30  H   UNL A   1      37.261  20.099  24.722  1.00  0.00     0.163 HD
ATOM     31  O   UNL A   1      39.376  19.897  25.753  1.00  0.00    -0.269 OA
BRANCH  29  32
ATOM     32  C   UNL A   1      39.321  22.157  26.375  1.00  0.00     0.039 A 
ATOM     33  C   UNL A   1      40.398  22.013  27.261  1.00  0.00     0.014 A 
ATOM     34  C   UNL A   1      38.817  23.428  26.133  1.00  0.00     0.014 A 
ATOM     35  C   UNL A   1      41.032  23.146  27.789  1.00  0.00     0.010 A 
ATOM     36  C   UNL A   1      39.532  24.549  26.532  1.00  0.00     0.010 A 
ATOM     37  C   UNL A   1      40.649  24.429  27.370  1.00  0.00    -0.014 A 
BRANCH  37  38
ATOM     38  C   UNL A   1      41.385  25.662  27.765  1.00  0.00     0.031 A 
ATOM     39  C   UNL A   1      40.681  26.746  28.544  1.00  0.00     0.074 A 
ATOM     40  C   UNL A   1      42.633  25.875  27.297  1.00  0.00     0.049 A 
ATOM     41  N   UNL A   1      41.087  27.958  28.826  1.00  0.00    -0.248 NA
ATOM     42  C   UNL A   1      39.318  26.450  29.020  1.00  0.00     0.031 C 
ATOM     43  C   UNL A   1      43.390  24.954  26.443  1.00  0.00     0.029 A 
ATOM     44  N   UNL A   1      43.472  26.952  27.438  1.00  0.00    -0.354 N 
ATOM     45  C   UNL A   1      40.012  28.583  29.449  1.00  0.00     0.074 A 
ATOM     46  C   UNL A   1      38.921  27.633  29.463  1.00  0.00     0.031 C 
ATOM     47  C   UNL A   1      44.582  25.498  26.151  1.00  0.00     0.029 A 
ATOM     48  C   UNL A   1      44.661  26.822  26.757  1.00  0.00     0.049 A 
ATOM     49  H   UNL A   1      43.244  27.745  27.976  1.00  0.00     0.167 HD
ATOM     50  C   UNL A   1      39.944  29.821  29.996  1.00  0.00     0.034 A 
ATOM     51  C   UNL A   1      45.697  27.674  26.628  1.00  0.00     0.034 A 
ATOM     52  C   UNL A   1      41.057  30.727  30.057  1.00  0.00     0.049 A 
ATOM     53  C   UNL A   1      45.634  29.007  27.323  1.00  0.00     0.074 A 
ATOM     54  C   UNL A   1      41.135  31.954  30.693  1.00  0.00     0.029 A 
ATOM     55  N   UNL A   1      42.292  30.503  29.469  1.00  0.00    -0.354 N 
ATOM     56  N   UNL A   1      44.664  29.515  28.044  1.00  0.00    -0.248 NA
ATOM     57  C   UNL A   1      46.820  29.868  27.219  1.00  0.00     0.031 C 
ATOM     58  C   UNL A   1      42.414  32.476  30.478  1.00  0.00     0.029 A 
ATOM     59  C   UNL A   1      43.139  31.566  29.725  1.00  0.00     0.049 A 
ATOM     60  H   UNL A   1      42.531  29.704  28.945  1.00  0.00     0.167 HD
ATOM     61  C   UNL A   1      45.134  30.738  28.507  1.00  0.00     0.074 A 
ATOM     62  C   UNL A   1      46.485  30.883  28.005  1.00  0.00     0.031 C 
ATOM     63  C   UNL A   1      44.499  31.668  29.263  1.00  0.00     0.034 A 
BRANCH  50  64
ATOM     64  C   UNL A   1      38.645  30.235  30.639  1.00  0.00     0.023 A 
ATOM     65  C   UNL A   1      38.417  29.942  32.000  1.00  0.00     0.012 A 
ATOM     66  C   UNL A   1      37.671  30.954  29.918  1.00  0.00     0.148 A 
ATOM     67  C   UNL A   1      37.227  30.317  32.621  1.00  0.00     0.002 A 
ATOM     68  C   UNL A   1      36.508  31.369  30.557  1.00  0.00     0.091 A 
ATOM     69  F   UNL A   1      37.893  31.209  28.621  1.00  0.00    -0.205 F 
ATOM     70  C   UNL A   1      36.277  31.038  31.903  1.00  0.00     0.022 A 
BRANCH  68  71
ATOM     71  S   UNL A   1      35.259  32.375  29.747  1.00  0.00     0.127 S 
ATOM     72  O   UNL A   1      34.338  32.647  30.849  1.00  0.00    -0.237 OA
ATOM     73  O   UNL A   1      36.037  33.532  29.302  1.00  0.00    -0.237 OA
ATOM     74  O   UNL A   1      34.722  31.555  28.669  1.00  0.00    -0.744 OA
ENDBRANCH  68  71
ENDBRANCH  50  64
BRANCH  51  75
ATOM     75  C   UNL A   1      46.916  27.257  25.877  1.00  0.00     0.023 A 
ATOM     76  C   UNL A   1      47.849  26.406  26.504  1.00  0.00     0.012 A 
ATOM     77  C   UNL A   1      47.143  27.660  24.547  1.00  0.00     0.148 A 
ATOM     78  C   UNL A   1      48.999  25.991  25.833  1.00  0.00     0.002 A 
ATOM     79  C   UNL A   1      48.263  27.194  23.864  1.00  0.00     0.091 A 
ATOM     80  F   UNL A   1      46.250  28.476  23.969  1.00  0.00    -0.205 F 
ATOM     81  C   UNL A   1      49.201  26.376  24.511  1.00  0.00     0.022 A 
BRANCH  79  82
ATOM     82  S   UNL A   1      48.530  27.521  22.117  1.00  0.00     0.127 S 
ATOM     83  O   UNL A   1      47.318  28.254  21.761  1.00  0.00    -0.237 OA
ATOM     84  O   UNL A   1      49.753  28.325  22.143  1.00  0.00    -0.237 OA
ATOM     85  O   UNL A   1      48.689  26.214  21.495  1.00  0.00    -0.744 OA
ENDBRANCH  79  82
ENDBRANCH  51  75
BRANCH  63  86
ATOM     86  C   UNL A   1      45.267  32.911  29.627  1.00  0.00     0.023 A 
ATOM     87  C   UNL A   1      46.071  32.923  30.784  1.00  0.00     0.012 A 
ATOM     88  C   UNL A   1      45.249  34.038  28.783  1.00  0.00     0.148 A 
ATOM     89  C   UNL A   1      46.820  34.051  31.113  1.00  0.00     0.002 A 
ATOM     90  C   UNL A   1      46.036  35.141  29.091  1.00  0.00     0.091 A 
ATOM     91  F   UNL A   1      44.462  34.013  27.697  1.00  0.00    -0.205 F 
ATOM     92  C   UNL A   1      46.812  35.154  30.262  1.00  0.00     0.022 A 
BRANCH  90  93
ATOM     93  S   UNL A   1      46.162  36.565  28.003  1.00  0.00     0.127 S 
ATOM     94  O   UNL A   1      44.779  37.036  27.969  1.00  0.00    -0.237 OA
ATOM     95  O   UNL A   1      47.085  37.433  28.734  1.00  0.00    -0.237 OA
ATOM     96  O   UNL A   1      46.683  36.057  26.741  1.00  0.00    -0.744 OA
ENDBRANCH  90  93
ENDBRANCH  63  86
ENDBRANCH  37  38
ENDBRANCH  29  32
ENDBRANCH  27  28
ENDBRANCH  26  27
ENDBRANCH   1  26
TORSDOF 18
ENDMDL
MODEL 3
REMARK VINA RESULT:     -12.6      0.563      7.442
REMARK SMILES O=C(CO/N=C\c1ccccc1)Nc1ccccc1C(=O)NCCCNC(=O)c1ccc(-c2c3nc(c(-c4cccc(S(=O)(=O)[O-])c4F)c4ccc([nH]4)c(-c4cccc(S(=O)(=O)[O-])c4F)c4nc(c(-c5cccc(S(=O)(=O)[O-])c5F)c5ccc2[nH]5)C=C4)C=C3)cc1
REMARK SMILES IDX 23 1 22 2 20 3 21 4 19 6 14 7 15 8 16 9 18 10 17 11 13 12
REMARK SMILES IDX 1 13 2 14 3 16 4 17 5 18 6 19 7 20 8 21 12 22 9 23 11 24
REMARK SMILES IDX 10 25 24 26 25 27 26 28 27 29 28 31 29 32 30 33 91 34 31 35
REMARK SMILES IDX 90 36 32 37 33 38 34 39 84 40 35 41 89 42 83 43 85 44 36 45
REMARK SMILES IDX 88 46 82 47 81 48 37 50 69 51 49 52 68 53 50 54 53 55 67 56
REMARK SMILES IDX 86 57 51 58 52 59 66 61 87 62 54 63 38 64 39 65 47 66 40 67
REMARK SMILES IDX 42 68 48 69 41 70 43 71 44 72 45 73 46 74 70 75 71 76 79 77
REMARK SMILES IDX 72 78 74 79 80 80 73 81 75 82 76 83 77 84 78 85 55 86 56 87
REMARK SMILES IDX 64 88 57 89 59 90 65 91 58 92 60 93 61 94 62 95 63 96
REMARK H PARENT 22 5 13 15 26 30 85 49 53 60
REMARK Flexibility Score: inf
ROOT
ATOM      1  C   UNL A   1      32.148  27.593  26.632  1.00  0.00     0.118 C 
ENDROOT
BRANCH   1   2
ATOM      2  N   UNL A   1      31.208  26.510  26.727  1.00  0.00    -0.352 N 
ATOM      3  C   UNL A   1      31.426  25.182  26.409  1.00  0.00     0.253 C 
ATOM      4  O   UNL A   1      30.589  24.363  26.801  1.00  0.00    -0.269 OA
ATOM      5  H   UNL A   1      30.309  26.738  27.057  1.00  0.00     0.163 HD
BRANCH   3   6
ATOM      6  C   UNL A   1      32.485  24.728  25.445  1.00  0.00     0.063 A 
ATOM      7  C   UNL A   1      32.615  24.955  24.056  1.00  0.00     0.054 A 
ATOM      8  C   UNL A   1      33.560  24.194  23.333  1.00  0.00     0.027 A 
ATOM      9  C   UNL A   1      34.442  23.315  23.967  1.00  0.00     0.002 A 
ATOM     10  C   UNL A   1      33.412  23.851  26.064  1.00  0.00     0.016 A 
ATOM     11  C   UNL A   1      34.386  23.164  25.342  1.00  0.00     0.001 A 
BRANCH   7  12
ATOM     12  N   UNL A   1      31.905  25.877  23.248  1.00  0.00    -0.322 N 
ATOM     13  O   UNL A   1      33.326  27.703  23.260  1.00  0.00    -0.271 OA
ATOM     14  C   UNL A   1      32.251  27.187  22.972  1.00  0.00     0.265 C 
ATOM     15  H   UNL A   1      31.074  25.548  22.836  1.00  0.00     0.170 HD
BRANCH  14  16
ATOM     16  C   UNL A   1      31.076  28.000  22.409  1.00  0.00     0.363 C 
BRANCH  16  17
ATOM     17  O   UNL A   1      30.182  28.483  23.396  1.00  0.00    -0.386 OA
BRANCH  17  18
ATOM     18  N   UNL A   1      28.998  27.742  23.338  1.00  0.00    -0.094 NA
ATOM     19  C   UNL A   1      27.989  28.482  22.990  1.00  0.00     0.162 C 
BRANCH  19  20
ATOM     20  C   UNL A   1      28.009  29.901  22.606  1.00  0.00    -0.004 A 
ATOM     21  C   UNL A   1      28.149  30.211  21.253  1.00  0.00     0.010 A 
ATOM     22  C   UNL A   1      27.957  30.908  23.573  1.00  0.00     0.010 A 
ATOM     23  C   UNL A   1      28.215  31.547  20.859  1.00  0.00     0.001 A 
ATOM     24  C   UNL A   1      28.038  32.243  23.173  1.00  0.00     0.001 A 
ATOM     25  C   UNL A   1      28.163  32.561  21.818  1.00  0.00     0.000 A 
ENDBRANCH  19  20
ENDBRANCH  17  18
ENDBRANCH  16  17
ENDBRANCH  14  16
ENDBRANCH   7  12
ENDBRANCH   3   6
ENDBRANCH   1   2
BRANCH   1  26
ATOM     26  C   UNL A   1      31.644  29.003  26.841  1.00  0.00     0.042 C 
BRANCH  26  27
ATOM     27  C   UNL A   1      32.268  30.077  25.948  1.00  0.00     0.118 C 
BRANCH  27  28
ATOM     28  N   UNL A   1      32.257  31.443  26.484  1.00  0.00    -0.352 N 
ATOM     29  C   UNL A   1      33.111  32.150  27.302  1.00  0.00     0.251 C 
ATOM     30  H   UNL A   1      31.473  31.966  26.198  1.00  0.00     0.163 HD
ATOM     31  O   UNL A   1      32.775  33.278  27.667  1.00  0.00    -0.269 OA
BRANCH  29  32
ATOM     32  C   UNL A   1      34.392  31.586  27.792  1.00  0.00     0.039 A 
ATOM     33  C   UNL A   1      35.467  32.445  28.063  1.00  0.00     0.014 A 
ATOM     34  C   UNL A   1      34.560  30.220  27.984  1.00  0.00     0.014 A 
ATOM     35  C   UNL A   1      36.642  31.944  28.639  1.00  0.00     0.010 A 
ATOM     36  C   UNL A   1      35.658  29.746  28.690  1.00  0.00     0.010 A 
ATOM     37  C   UNL A   1      36.719  30.598  29.026  1.00  0.00    -0.014 A 
BRANCH  37  38
ATOM     38  C   UNL A   1      37.871  30.040  29.787  1.00  0.00     0.031 A 
ATOM     39  C   UNL A   1      38.134  30.494  31.203  1.00  0.00     0.074 A 
ATOM     40  C   UNL A   1      38.766  29.247  29.161  1.00  0.00     0.049 A 
ATOM     41  N   UNL A   1      39.173  30.267  31.965  1.00  0.00    -0.248 NA
ATOM     42  C   UNL A   1      37.121  31.364  31.825  1.00  0.00     0.031 C 
ATOM     43  C   UNL A   1      38.688  28.818  27.761  1.00  0.00     0.029 A 
ATOM     44  N   UNL A   1      39.939  28.690  29.608  1.00  0.00    -0.354 N 
ATOM     45  C   UNL A   1      38.968  31.015  33.119  1.00  0.00     0.074 A 
ATOM     46  C   UNL A   1      37.729  31.738  32.940  1.00  0.00     0.031 C 
ATOM     47  C   UNL A   1      39.755  28.057  27.470  1.00  0.00     0.029 A 
ATOM     48  C   UNL A   1      40.616  27.976  28.645  1.00  0.00     0.049 A 
ATOM     49  H   UNL A   1      40.266  28.792  30.532  1.00  0.00     0.167 HD
ATOM     50  C   UNL A   1      39.721  31.070  34.245  1.00  0.00     0.034 A 
ATOM     51  C   UNL A   1      41.800  27.334  28.698  1.00  0.00     0.034 A 
ATOM     52  C   UNL A   1      40.904  30.283  34.453  1.00  0.00     0.049 A 
ATOM     53  C   UNL A   1      42.570  27.334  29.990  1.00  0.00     0.074 A 
ATOM     54  C   UNL A   1      41.673  30.169  35.598  1.00  0.00     0.029 A 
ATOM     55  N   UNL A   1      41.488  29.466  33.496  1.00  0.00    -0.354 N 
ATOM     56  N   UNL A   1      42.276  27.921  31.125  1.00  0.00    -0.248 NA
ATOM     57  C   UNL A   1      43.815  26.554  30.022  1.00  0.00     0.031 C 
ATOM     58  C   UNL A   1      42.729  29.291  35.329  1.00  0.00     0.029 A 
ATOM     59  C   UNL A   1      42.606  28.844  34.022  1.00  0.00     0.049 A 
ATOM     60  H   UNL A   1      41.155  29.346  32.577  1.00  0.00     0.167 HD
ATOM     61  C   UNL A   1      43.280  27.556  32.014  1.00  0.00     0.074 A 
ATOM     62  C   UNL A   1      44.176  26.675  31.292  1.00  0.00     0.031 C 
ATOM     63  C   UNL A   1      43.455  27.929  33.306  1.00  0.00     0.034 A 
BRANCH  50  64
ATOM     64  C   UNL A   1      39.242  31.955  35.368  1.00  0.00     0.023 A 
ATOM     65  C   UNL A   1      39.428  33.351  35.281  1.00  0.00     0.012 A 
ATOM     66  C   UNL A   1      38.566  31.419  36.482  1.00  0.00     0.148 A 
ATOM     67  C   UNL A   1      38.992  34.194  36.302  1.00  0.00     0.002 A 
ATOM     68  C   UNL A   1      38.089  32.271  37.472  1.00  0.00     0.091 A 
ATOM     69  F   UNL A   1      38.412  30.090  36.559  1.00  0.00    -0.205 F 
ATOM     70  C   UNL A   1      38.314  33.655  37.392  1.00  0.00     0.022 A 
BRANCH  68  71
ATOM     71  S   UNL A   1      37.130  31.688  38.876  1.00  0.00     0.127 S 
ATOM     72  O   UNL A   1      38.096  31.812  39.965  1.00  0.00    -0.237 OA
ATOM     73  O   UNL A   1      36.032  32.655  38.921  1.00  0.00    -0.237 OA
ATOM     74  O   UNL A   1      36.726  30.327  38.548  1.00  0.00    -0.744 OA
ENDBRANCH  68  71
ENDBRANCH  50  64
BRANCH  51  75
ATOM     75  C   UNL A   1      42.286  26.568  27.514  1.00  0.00     0.023 A 
ATOM     76  C   UNL A   1      43.042  27.236  26.530  1.00  0.00     0.012 A 
ATOM     77  C   UNL A   1      42.040  25.189  27.370  1.00  0.00     0.148 A 
ATOM     78  C   UNL A   1      43.517  26.553  25.410  1.00  0.00     0.002 A 
ATOM     79  C   UNL A   1      42.566  24.502  26.280  1.00  0.00     0.091 A 
ATOM     80  F   UNL A   1      41.312  24.572  28.311  1.00  0.00    -0.205 F 
ATOM     81  C   UNL A   1      43.288  25.186  25.290  1.00  0.00     0.022 A 
BRANCH  79  82
ATOM     82  S   UNL A   1      42.446  22.717  26.118  1.00  0.00     0.127 S 
ATOM     83  O   UNL A   1      43.140  22.260  27.318  1.00  0.00    -0.237 OA
ATOM     84  O   UNL A   1      40.997  22.509  26.126  1.00  0.00    -0.237 OA
ATOM     85  O   UNL A   1      43.087  22.395  24.851  1.00  0.00    -0.744 OA
ENDBRANCH  79  82
ENDBRANCH  51  75
BRANCH  63  86
ATOM     86  C   UNL A   1      44.642  27.361  34.039  1.00  0.00     0.023 A 
ATOM     87  C   UNL A   1      45.874  28.043  34.008  1.00  0.00     0.012 A 
ATOM     88  C   UNL A   1      44.514  26.193  34.816  1.00  0.00     0.148 A 
ATOM     89  C   UNL A   1      46.972  27.552  34.714  1.00  0.00     0.002 A 
ATOM     90  C   UNL A   1      45.598  25.738  35.555  1.00  0.00     0.091 A 
ATOM     91  F   UNL A   1      43.338  25.549  34.816  1.00  0.00    -0.205 F 
ATOM     92  C   UNL A   1      46.831  26.409  35.496  1.00  0.00     0.022 A 
BRANCH  90  93
ATOM     93  S   UNL A   1      45.479  24.329  36.665  1.00  0.00     0.127 S 
ATOM     94  O   UNL A   1      45.062  23.266  35.753  1.00  0.00    -0.237 OA
ATOM     95  O   UNL A   1      46.851  24.207  37.159  1.00  0.00    -0.237 OA
ATOM     96  O   UNL A   1      44.505  24.703  37.680  1.00  0.00    -0.744 OA
ENDBRANCH  90  93
ENDBRANCH  63  86
ENDBRANCH  37  38
ENDBRANCH  29  32
ENDBRANCH  27  28
ENDBRANCH  26  27
ENDBRANCH   1  26
TORSDOF 18
ENDMDL
