MODEL 1
REMARK VINA RESULT:     -12.5      0.000      0.000
REMARK SMILES CS(=O)(=O)[C@@H]1CCC[C@@H](Sc2ccc(C(=O)NCCCNC(=O)c3ccc(-c4c5nc(c(-c6cccc(S(=O)(=O)[O-])c6F)c6ccc([nH]6)c(-c6cccc(S(=O)(=O)[O-])c6F)c6nc(c(-c7cccc(S(=O)(=O)[O-])c7F)c7ccc4[nH]7)C=C6)C=C5)cc3)cn2)C1
REMARK SMILES IDX 19 1 18 2 17 3 15 4 16 5 14 7 11 8 12 9 88 10 13 11 87 12
REMARK SMILES IDX 10 13 9 14 5 15 6 16 89 17 7 18 8 19 2 20 1 21 3 22 4 23
REMARK SMILES IDX 20 24 21 25 22 26 23 28 24 29 25 30 86 31 26 32 85 33 27 34
REMARK SMILES IDX 28 35 29 36 79 37 30 38 84 39 78 40 80 41 31 42 83 43 77 44
REMARK SMILES IDX 76 45 32 47 64 48 44 49 63 50 45 51 48 52 62 53 81 54 46 55
REMARK SMILES IDX 47 56 61 58 82 59 49 60 33 61 34 62 42 63 35 64 37 65 43 66
REMARK SMILES IDX 36 67 38 68 39 69 40 70 41 71 65 72 66 73 74 74 67 75 69 76
REMARK SMILES IDX 75 77 68 78 70 79 71 80 72 81 73 82 50 83 51 84 59 85 52 86
REMARK SMILES IDX 54 87 60 88 53 89 55 90 56 91 57 92 58 93
REMARK H PARENT 17 6 21 27 80 46 48 57
REMARK Flexibility Score: inf
ROOT
ATOM      1  C   UNL A   1      35.466  21.550  25.781  1.00  0.00     0.042 C 
ENDROOT
BRANCH   1   2
ATOM      2  C   UNL A   1      35.448  20.227  25.001  1.00  0.00     0.118 C 
BRANCH   2   3
ATOM      3  N   UNL A   1      34.266  19.416  25.296  1.00  0.00    -0.352 N 
ATOM      4  C   UNL A   1      32.910  19.597  25.098  1.00  0.00     0.252 C 
ATOM      5  O   UNL A   1      32.156  18.651  25.313  1.00  0.00    -0.269 OA
ATOM      6  H   UNL A   1      34.483  18.559  25.729  1.00  0.00     0.163 HD
BRANCH   4   7
ATOM      7  C   UNL A   1      32.328  20.866  24.608  1.00  0.00     0.058 A 
ATOM      8  C   UNL A   1      31.385  23.323  23.661  1.00  0.00     0.096 A 
ATOM      9  C   UNL A   1      31.454  23.030  24.987  1.00  0.00     0.036 A 
ATOM     10  N   UNL A   1      31.810  22.410  22.764  1.00  0.00    -0.249 NA
ATOM     11  C   UNL A   1      31.790  21.786  25.465  1.00  0.00     0.018 A 
ATOM     12  C   UNL A   1      32.300  21.216  23.258  1.00  0.00     0.126 A 
BRANCH   8  13
ATOM     13  S   UNL A   1      30.680  24.877  23.146  1.00  0.00    -0.103 SA
BRANCH  13  14
ATOM     14  C   UNL A   1      31.945  26.284  23.426  1.00  0.00     0.054 C 
ATOM     15  C   UNL A   1      32.445  26.991  25.885  1.00  0.00     0.109 C 
ATOM     16  C   UNL A   1      33.918  26.579  25.698  1.00  0.00     0.020 C 
ATOM     17  C   UNL A   1      31.732  27.306  24.566  1.00  0.00     0.034 C 
ATOM     18  C   UNL A   1      34.251  25.673  24.501  1.00  0.00     0.002 C 
ATOM     19  C   UNL A   1      33.426  25.912  23.238  1.00  0.00     0.015 C 
BRANCH  15  20
ATOM     20  S   UNL A   1      32.272  28.293  27.114  1.00  0.00     0.150 S 
ATOM     21  C   UNL A   1      31.774  29.699  26.125  1.00  0.00     0.158 C 
ATOM     22  O   UNL A   1      33.602  28.578  27.623  1.00  0.00    -0.229 OA
ATOM     23  O   UNL A   1      31.188  27.940  28.001  1.00  0.00    -0.229 OA
ENDBRANCH  15  20
ENDBRANCH  13  14
ENDBRANCH   8  13
ENDBRANCH   4   7
ENDBRANCH   2   3
ENDBRANCH   1   2
BRANCH   1  24
ATOM     24  C   UNL A   1      36.825  22.241  25.752  1.00  0.00     0.118 C 
BRANCH  24  25
ATOM     25  N   UNL A   1      37.912  21.288  25.916  1.00  0.00    -0.352 N 
ATOM     26  C   UNL A   1      39.229  21.481  26.240  1.00  0.00     0.251 C 
ATOM     27  H   UNL A   1      37.660  20.348  25.769  1.00  0.00     0.163 HD
ATOM     28  O   UNL A   1      40.006  20.536  26.119  1.00  0.00    -0.269 OA
BRANCH  26  29
ATOM     29  C   UNL A   1      39.725  22.790  26.723  1.00  0.00     0.039 A 
ATOM     30  C   UNL A   1      39.218  23.952  26.130  1.00  0.00     0.014 A 
ATOM     31  C   UNL A   1      40.730  22.887  27.688  1.00  0.00     0.014 A 
ATOM     32  C   UNL A   1      39.711  25.201  26.508  1.00  0.00     0.010 A 
ATOM     33  C   UNL A   1      41.158  24.137  28.127  1.00  0.00     0.010 A 
ATOM     34  C   UNL A   1      40.681  25.306  27.517  1.00  0.00    -0.014 A 
BRANCH  34  35
ATOM     35  C   UNL A   1      41.248  26.624  27.902  1.00  0.00     0.031 A 
ATOM     36  C   UNL A   1      42.696  26.932  27.624  1.00  0.00     0.074 A 
ATOM     37  C   UNL A   1      40.475  27.523  28.543  1.00  0.00     0.049 A 
ATOM     38  N   UNL A   1      43.381  28.009  27.911  1.00  0.00    -0.248 NA
ATOM     39  C   UNL A   1      43.490  25.883  26.961  1.00  0.00     0.031 C 
ATOM     40  C   UNL A   1      39.077  27.316  28.928  1.00  0.00     0.029 A 
ATOM     41  N   UNL A   1      40.762  28.783  29.002  1.00  0.00    -0.354 N 
ATOM     42  C   UNL A   1      44.684  27.755  27.499  1.00  0.00     0.074 A 
ATOM     43  C   UNL A   1      44.707  26.405  26.983  1.00  0.00     0.031 C 
ATOM     44  C   UNL A   1      38.625  28.416  29.552  1.00  0.00     0.029 A 
ATOM     45  C   UNL A   1      39.708  29.391  29.641  1.00  0.00     0.049 A 
ATOM     46  H   UNL A   1      41.641  29.212  28.885  1.00  0.00     0.167 HD
ATOM     47  C   UNL A   1      45.760  28.578  27.517  1.00  0.00     0.034 A 
ATOM     48  C   UNL A   1      39.624  30.597  30.236  1.00  0.00     0.034 A 
ATOM     49  C   UNL A   1      45.722  29.933  27.995  1.00  0.00     0.049 A 
ATOM     50  C   UNL A   1      40.825  31.504  30.213  1.00  0.00     0.074 A 
ATOM     51  C   UNL A   1      46.735  30.875  27.992  1.00  0.00     0.029 A 
ATOM     52  N   UNL A   1      44.613  30.539  28.565  1.00  0.00    -0.354 N 
ATOM     53  N   UNL A   1      42.011  31.293  29.699  1.00  0.00    -0.248 NA
ATOM     54  C   UNL A   1      40.660  32.835  30.816  1.00  0.00     0.031 C 
ATOM     55  C   UNL A   1      46.247  32.042  28.591  1.00  0.00     0.029 A 
ATOM     56  C   UNL A   1      44.917  31.842  28.922  1.00  0.00     0.049 A 
ATOM     57  H   UNL A   1      43.739  30.106  28.698  1.00  0.00     0.167 HD
ATOM     58  C   UNL A   1      42.717  32.480  29.867  1.00  0.00     0.074 A 
ATOM     59  C   UNL A   1      41.818  33.409  30.521  1.00  0.00     0.031 C 
ATOM     60  C   UNL A   1      43.993  32.772  29.517  1.00  0.00     0.034 A 
BRANCH  47  61
ATOM     61  C   UNL A   1      47.058  28.049  26.963  1.00  0.00     0.023 A 
ATOM     62  C   UNL A   1      48.073  27.619  27.844  1.00  0.00     0.012 A 
ATOM     63  C   UNL A   1      47.256  27.928  25.574  1.00  0.00     0.148 A 
ATOM     64  C   UNL A   1      49.277  27.118  27.353  1.00  0.00     0.002 A 
ATOM     65  C   UNL A   1      48.439  27.379  25.091  1.00  0.00     0.091 A 
ATOM     66  F   UNL A   1      46.289  28.358  24.749  1.00  0.00    -0.205 F 
ATOM     67  C   UNL A   1      49.456  26.988  25.977  1.00  0.00     0.022 A 
BRANCH  65  68
ATOM     68  S   UNL A   1      48.734  27.090  23.343  1.00  0.00     0.127 S 
ATOM     69  O   UNL A   1      50.196  27.073  23.291  1.00  0.00    -0.237 OA
ATOM     70  O   UNL A   1      48.101  25.788  23.138  1.00  0.00    -0.237 OA
ATOM     71  O   UNL A   1      48.099  28.195  22.640  1.00  0.00    -0.744 OA
ENDBRANCH  65  68
ENDBRANCH  47  61
BRANCH  48  72
ATOM     72  C   UNL A   1      38.341  31.044  30.847  1.00  0.00     0.023 A 
ATOM     73  C   UNL A   1      38.108  30.817  32.218  1.00  0.00     0.012 A 
ATOM     74  C   UNL A   1      37.355  31.694  30.082  1.00  0.00     0.148 A 
ATOM     75  C   UNL A   1      36.899  31.192  32.807  1.00  0.00     0.002 A 
ATOM     76  C   UNL A   1      36.177  32.117  30.686  1.00  0.00     0.091 A 
ATOM     77  F   UNL A   1      37.594  31.895  28.779  1.00  0.00    -0.205 F 
ATOM     78  C   UNL A   1      35.938  31.849  32.043  1.00  0.00     0.022 A 
BRANCH  76  79
ATOM     79  S   UNL A   1      34.941  33.083  29.815  1.00  0.00     0.127 S 
ATOM     80  O   UNL A   1      34.413  32.106  28.866  1.00  0.00    -0.237 OA
ATOM     81  O   UNL A   1      34.028  33.449  30.897  1.00  0.00    -0.237 OA
ATOM     82  O   UNL A   1      35.661  34.207  29.231  1.00  0.00    -0.744 OA
ENDBRANCH  76  79
ENDBRANCH  48  72
BRANCH  60  83
ATOM     83  C   UNL A   1      44.481  34.177  29.761  1.00  0.00     0.023 A 
ATOM     84  C   UNL A   1      45.078  34.522  30.990  1.00  0.00     0.012 A 
ATOM     85  C   UNL A   1      44.401  35.139  28.736  1.00  0.00     0.148 A 
ATOM     86  C   UNL A   1      45.547  35.818  31.208  1.00  0.00     0.002 A 
ATOM     87  C   UNL A   1      44.923  36.410  28.940  1.00  0.00     0.091 A 
ATOM     88  F   UNL A   1      43.814  34.796  27.580  1.00  0.00    -0.205 F 
ATOM     89  C   UNL A   1      45.482  36.757  30.180  1.00  0.00     0.022 A 
BRANCH  87  90
ATOM     90  S   UNL A   1      44.975  37.647  27.638  1.00  0.00     0.127 S 
ATOM     91  O   UNL A   1      43.555  37.853  27.367  1.00  0.00    -0.237 OA
ATOM     92  O   UNL A   1      45.640  38.769  28.305  1.00  0.00    -0.237 OA
ATOM     93  O   UNL A   1      45.741  37.053  26.550  1.00  0.00    -0.744 OA
ENDBRANCH  87  90
ENDBRANCH  60  83
ENDBRANCH  34  35
ENDBRANCH  26  29
ENDBRANCH  24  25
ENDBRANCH   1  24
TORSDOF 16
ENDMDL
MODEL 2
REMARK VINA RESULT:     -12.3      5.193     10.273
REMARK SMILES CS(=O)(=O)[C@@H]1CCC[C@@H](Sc2ccc(C(=O)NCCCNC(=O)c3ccc(-c4c5nc(c(-c6cccc(S(=O)(=O)[O-])c6F)c6ccc([nH]6)c(-c6cccc(S(=O)(=O)[O-])c6F)c6nc(c(-c7cccc(S(=O)(=O)[O-])c7F)c7ccc4[nH]7)C=C6)C=C5)cc3)cn2)C1
REMARK SMILES IDX 19 1 18 2 17 3 15 4 16 5 14 7 11 8 12 9 88 10 13 11 87 12
REMARK SMILES IDX 10 13 9 14 5 15 6 16 89 17 7 18 8 19 2 20 1 21 3 22 4 23
REMARK SMILES IDX 20 24 21 25 22 26 23 28 24 29 25 30 86 31 26 32 85 33 27 34
REMARK SMILES IDX 28 35 29 36 79 37 30 38 84 39 78 40 80 41 31 42 83 43 77 44
REMARK SMILES IDX 76 45 32 47 64 48 44 49 63 50 45 51 48 52 62 53 81 54 46 55
REMARK SMILES IDX 47 56 61 58 82 59 49 60 33 61 34 62 42 63 35 64 37 65 43 66
REMARK SMILES IDX 36 67 38 68 39 69 40 70 41 71 65 72 66 73 74 74 67 75 69 76
REMARK SMILES IDX 75 77 68 78 70 79 71 80 72 81 73 82 50 83 51 84 59 85 52 86
REMARK SMILES IDX 54 87 60 88 53 89 55 90 56 91 57 92 58 93
REMARK H PARENT 17 6 21 27 80 46 48 57
REMARK Flexibility Score: inf
ROOT
ATOM      1  C   UNL A   1      32.488  29.572  24.914  1.00  0.00     0.042 C 
ENDROOT
BRANCH   1   2
ATOM      2  C   UNL A   1      31.053  30.113  24.818  1.00  0.00     0.118 C 
BRANCH   2   3
ATOM      3  N   UNL A   1      30.561  30.162  23.441  1.00  0.00    -0.352 N 
ATOM      4  C   UNL A   1      30.181  29.197  22.527  1.00  0.00     0.252 C 
ATOM      5  O   UNL A   1      29.653  29.559  21.479  1.00  0.00    -0.269 OA
ATOM      6  H   UNL A   1      30.485  31.079  23.090  1.00  0.00     0.163 HD
BRANCH   4   7
ATOM      7  C   UNL A   1      30.354  27.747  22.767  1.00  0.00     0.058 A 
ATOM      8  C   UNL A   1      30.739  25.043  23.372  1.00  0.00     0.096 A 
ATOM      9  C   UNL A   1      31.622  25.757  22.623  1.00  0.00     0.036 A 
ATOM     10  N   UNL A   1      29.649  25.663  23.866  1.00  0.00    -0.249 NA
ATOM     11  C   UNL A   1      31.386  27.045  22.207  1.00  0.00     0.018 A 
ATOM     12  C   UNL A   1      29.496  27.006  23.580  1.00  0.00     0.126 A 
BRANCH   8  13
ATOM     13  S   UNL A   1      31.018  23.302  23.626  1.00  0.00    -0.103 SA
BRANCH  13  14
ATOM     14  C   UNL A   1      32.319  23.050  25.005  1.00  0.00     0.054 C 
ATOM     15  C   UNL A   1      34.830  23.344  24.369  1.00  0.00     0.109 C 
ATOM     16  C   UNL A   1      34.940  24.512  25.370  1.00  0.00     0.020 C 
ATOM     17  C   UNL A   1      33.677  22.386  24.681  1.00  0.00     0.034 C 
ATOM     18  C   UNL A   1      33.629  25.148  25.860  1.00  0.00     0.002 C 
ATOM     19  C   UNL A   1      32.451  24.190  26.029  1.00  0.00     0.015 C 
BRANCH  15  20
ATOM     20  S   UNL A   1      36.407  22.510  24.148  1.00  0.00     0.150 S 
ATOM     21  C   UNL A   1      37.477  23.393  25.277  1.00  0.00     0.158 C 
ATOM     22  O   UNL A   1      36.864  22.811  22.802  1.00  0.00    -0.229 OA
ATOM     23  O   UNL A   1      36.269  21.147  24.607  1.00  0.00    -0.229 OA
ENDBRANCH  15  20
ENDBRANCH  13  14
ENDBRANCH   8  13
ENDBRANCH   4   7
ENDBRANCH   2   3
ENDBRANCH   1   2
BRANCH   1  24
ATOM     24  C   UNL A   1      33.109  29.771  26.292  1.00  0.00     0.118 C 
BRANCH  24  25
ATOM     25  N   UNL A   1      33.039  31.162  26.714  1.00  0.00    -0.352 N 
ATOM     26  C   UNL A   1      33.821  31.872  27.586  1.00  0.00     0.251 C 
ATOM     27  H   UNL A   1      32.308  31.678  26.305  1.00  0.00     0.163 HD
ATOM     28  O   UNL A   1      33.441  32.987  27.938  1.00  0.00    -0.269 OA
BRANCH  26  29
ATOM     29  C   UNL A   1      35.096  31.326  28.104  1.00  0.00     0.039 A 
ATOM     30  C   UNL A   1      35.099  30.027  28.624  1.00  0.00     0.014 A 
ATOM     31  C   UNL A   1      36.260  32.097  28.158  1.00  0.00     0.014 A 
ATOM     32  C   UNL A   1      36.264  29.503  29.187  1.00  0.00     0.010 A 
ATOM     33  C   UNL A   1      37.444  31.541  28.638  1.00  0.00     0.010 A 
ATOM     34  C   UNL A   1      37.450  30.253  29.192  1.00  0.00    -0.014 A 
BRANCH  34  35
ATOM     35  C   UNL A   1      38.688  29.728  29.824  1.00  0.00     0.031 A 
ATOM     36  C   UNL A   1      39.124  30.244  31.170  1.00  0.00     0.074 A 
ATOM     37  C   UNL A   1      39.443  28.825  29.167  1.00  0.00     0.049 A 
ATOM     38  N   UNL A   1      40.186  29.934  31.869  1.00  0.00    -0.248 NA
ATOM     39  C   UNL A   1      38.272  31.264  31.806  1.00  0.00     0.031 C 
ATOM     40  C   UNL A   1      39.161  28.298  27.830  1.00  0.00     0.029 A 
ATOM     41  N   UNL A   1      40.612  28.206  29.528  1.00  0.00    -0.354 N 
ATOM     42  C   UNL A   1      40.147  30.741  33.001  1.00  0.00     0.074 A 
ATOM     43  C   UNL A   1      38.983  31.587  32.876  1.00  0.00     0.031 C 
ATOM     44  C   UNL A   1      40.124  27.425  27.490  1.00  0.00     0.029 A 
ATOM     45  C   UNL A   1      41.105  27.355  28.568  1.00  0.00     0.049 A 
ATOM     46  H   UNL A   1      41.056  28.355  30.395  1.00  0.00     0.167 HD
ATOM     47  C   UNL A   1      40.985  30.755  34.065  1.00  0.00     0.034 A 
ATOM     48  C   UNL A   1      42.226  26.606  28.555  1.00  0.00     0.034 A 
ATOM     49  C   UNL A   1      42.120  29.884  34.202  1.00  0.00     0.049 A 
ATOM     50  C   UNL A   1      43.122  26.618  29.763  1.00  0.00     0.074 A 
ATOM     51  C   UNL A   1      42.992  29.767  35.270  1.00  0.00     0.029 A 
ATOM     52  N   UNL A   1      42.544  28.980  33.240  1.00  0.00    -0.354 N 
ATOM     53  N   UNL A   1      42.995  27.291  30.881  1.00  0.00    -0.248 NA
ATOM     54  C   UNL A   1      44.295  25.732  29.726  1.00  0.00     0.031 C 
ATOM     55  C   UNL A   1      43.962  28.815  34.939  1.00  0.00     0.029 A 
ATOM     56  C   UNL A   1      43.666  28.305  33.686  1.00  0.00     0.049 A 
ATOM     57  H   UNL A   1      42.110  28.841  32.366  1.00  0.00     0.167 HD
ATOM     58  C   UNL A   1      44.038  26.871  31.700  1.00  0.00     0.074 A 
ATOM     59  C   UNL A   1      44.780  25.877  30.952  1.00  0.00     0.031 C 
ATOM     60  C   UNL A   1      44.356  27.276  32.953  1.00  0.00     0.034 A 
BRANCH  47  61
ATOM     61  C   UNL A   1      40.680  31.717  35.186  1.00  0.00     0.023 A 
ATOM     62  C   UNL A   1      41.428  32.905  35.314  1.00  0.00     0.012 A 
ATOM     63  C   UNL A   1      39.620  31.471  36.081  1.00  0.00     0.148 A 
ATOM     64  C   UNL A   1      41.156  33.812  36.337  1.00  0.00     0.002 A 
ATOM     65  C   UNL A   1      39.320  32.404  37.067  1.00  0.00     0.091 A 
ATOM     66  F   UNL A   1      38.929  30.328  35.957  1.00  0.00    -0.205 F 
ATOM     67  C   UNL A   1      40.095  33.567  37.206  1.00  0.00     0.022 A 
BRANCH  65  68
ATOM     68  S   UNL A   1      37.924  32.224  38.183  1.00  0.00     0.127 S 
ATOM     69  O   UNL A   1      38.574  32.337  39.488  1.00  0.00    -0.237 OA
ATOM     70  O   UNL A   1      37.090  33.369  37.815  1.00  0.00    -0.237 OA
ATOM     71  O   UNL A   1      37.338  30.924  37.889  1.00  0.00    -0.744 OA
ENDBRANCH  65  68
ENDBRANCH  47  61
BRANCH  48  72
ATOM     72  C   UNL A   1      42.531  25.735  27.386  1.00  0.00     0.023 A 
ATOM     73  C   UNL A   1      43.278  26.252  26.309  1.00  0.00     0.012 A 
ATOM     74  C   UNL A   1      42.092  24.399  27.336  1.00  0.00     0.148 A 
ATOM     75  C   UNL A   1      43.545  25.468  25.186  1.00  0.00     0.002 A 
ATOM     76  C   UNL A   1      42.410  23.605  26.241  1.00  0.00     0.091 A 
ATOM     77  F   UNL A   1      41.378  23.927  28.368  1.00  0.00    -0.205 F 
ATOM     78  C   UNL A   1      43.120  24.143  25.156  1.00  0.00     0.022 A 
BRANCH  76  79
ATOM     79  S   UNL A   1      42.017  21.856  26.173  1.00  0.00     0.127 S 
ATOM     80  O   UNL A   1      40.578  21.883  25.923  1.00  0.00    -0.237 OA
ATOM     81  O   UNL A   1      42.832  21.409  25.043  1.00  0.00    -0.237 OA
ATOM     82  O   UNL A   1      42.425  21.311  27.461  1.00  0.00    -0.744 OA
ENDBRANCH  76  79
ENDBRANCH  48  72
BRANCH  60  83
ATOM     83  C   UNL A   1      45.513  26.593  33.635  1.00  0.00     0.023 A 
ATOM     84  C   UNL A   1      46.818  27.114  33.522  1.00  0.00     0.012 A 
ATOM     85  C   UNL A   1      45.287  25.464  34.447  1.00  0.00     0.148 A 
ATOM     86  C   UNL A   1      47.886  26.493  34.170  1.00  0.00     0.002 A 
ATOM     87  C   UNL A   1      46.346  24.886  35.135  1.00  0.00     0.091 A 
ATOM     88  F   UNL A   1      44.042  24.973  34.528  1.00  0.00    -0.205 F 
ATOM     89  C   UNL A   1      47.649  25.388  34.986  1.00  0.00     0.022 A 
BRANCH  87  90
ATOM     90  S   UNL A   1      46.114  23.528  36.288  1.00  0.00     0.127 S 
ATOM     91  O   UNL A   1      45.508  22.511  35.432  1.00  0.00    -0.237 OA
ATOM     92  O   UNL A   1      47.488  23.237  36.703  1.00  0.00    -0.237 OA
ATOM     93  O   UNL A   1      45.259  24.043  37.349  1.00  0.00    -0.744 OA
ENDBRANCH  87  90
ENDBRANCH  60  83
ENDBRANCH  34  35
ENDBRANCH  26  29
ENDBRANCH  24  25
ENDBRANCH   1  24
TORSDOF 16
ENDMDL
MODEL 3
REMARK VINA RESULT:     -12.3      2.063      2.505
REMARK SMILES CS(=O)(=O)[C@@H]1CCC[C@@H](Sc2ccc(C(=O)NCCCNC(=O)c3ccc(-c4c5nc(c(-c6cccc(S(=O)(=O)[O-])c6F)c6ccc([nH]6)c(-c6cccc(S(=O)(=O)[O-])c6F)c6nc(c(-c7cccc(S(=O)(=O)[O-])c7F)c7ccc4[nH]7)C=C6)C=C5)cc3)cn2)C1
REMARK SMILES IDX 19 1 18 2 17 3 15 4 16 5 14 7 11 8 12 9 88 10 13 11 87 12
REMARK SMILES IDX 10 13 9 14 5 15 6 16 89 17 7 18 8 19 2 20 1 21 3 22 4 23
REMARK SMILES IDX 20 24 21 25 22 26 23 28 24 29 25 30 86 31 26 32 85 33 27 34
REMARK SMILES IDX 28 35 29 36 79 37 30 38 84 39 78 40 80 41 31 42 83 43 77 44
REMARK SMILES IDX 76 45 32 47 64 48 44 49 63 50 45 51 48 52 62 53 81 54 46 55
REMARK SMILES IDX 47 56 61 58 82 59 49 60 33 61 34 62 42 63 35 64 37 65 43 66
REMARK SMILES IDX 36 67 38 68 39 69 40 70 41 71 65 72 66 73 74 74 67 75 69 76
REMARK SMILES IDX 75 77 68 78 70 79 71 80 72 81 73 82 50 83 51 84 59 85 52 86
REMARK SMILES IDX 54 87 60 88 53 89 55 90 56 91 57 92 58 93
REMARK H PARENT 17 6 21 27 80 46 48 57
REMARK Flexibility Score: inf
ROOT
ATOM      1  C   UNL A   1      35.832  21.820  24.594  1.00  0.00     0.042 C 
ENDROOT
BRANCH   1   2
ATOM      2  C   UNL A   1      35.363  21.171  25.904  1.00  0.00     0.118 C 
BRANCH   2   3
ATOM      3  N   UNL A   1      34.191  20.314  25.719  1.00  0.00    -0.352 N 
ATOM      4  C   UNL A   1      32.855  20.565  25.467  1.00  0.00     0.252 C 
ATOM      5  O   UNL A   1      32.122  19.615  25.200  1.00  0.00    -0.269 OA
ATOM      6  H   UNL A   1      34.398  19.354  25.790  1.00  0.00     0.163 HD
BRANCH   4   7
ATOM      7  C   UNL A   1      32.275  21.925  25.473  1.00  0.00     0.058 A 
ATOM      8  C   UNL A   1      31.039  24.434  25.551  1.00  0.00     0.096 A 
ATOM      9  C   UNL A   1      31.097  23.683  24.419  1.00  0.00     0.036 A 
ATOM     10  N   UNL A   1      31.572  23.945  26.689  1.00  0.00    -0.249 NA
ATOM     11  C   UNL A   1      31.810  22.513  24.328  1.00  0.00     0.018 A 
ATOM     12  C   UNL A   1      32.149  22.691  26.632  1.00  0.00     0.126 A 
BRANCH   8  13
ATOM     13  S   UNL A   1      30.317  26.061  25.484  1.00  0.00    -0.103 SA
BRANCH  13  14
ATOM     14  C   UNL A   1      30.141  26.615  23.662  1.00  0.00     0.054 C 
ATOM     15  C   UNL A   1      29.335  29.053  23.210  1.00  0.00     0.109 C 
ATOM     16  C   UNL A   1      30.669  29.355  22.498  1.00  0.00     0.020 C 
ATOM     17  C   UNL A   1      28.992  27.561  23.244  1.00  0.00     0.034 C 
ATOM     18  C   UNL A   1      31.836  28.385  22.743  1.00  0.00     0.002 C 
ATOM     19  C   UNL A   1      31.452  26.916  22.915  1.00  0.00     0.015 C 
BRANCH  15  20
ATOM     20  S   UNL A   1      27.999  30.075  22.576  1.00  0.00     0.150 S 
ATOM     21  C   UNL A   1      28.468  31.713  23.122  1.00  0.00     0.158 C 
ATOM     22  O   UNL A   1      26.798  29.709  23.306  1.00  0.00    -0.229 OA
ATOM     23  O   UNL A   1      28.042  30.035  21.133  1.00  0.00    -0.229 OA
ENDBRANCH  15  20
ENDBRANCH  13  14
ENDBRANCH   8  13
ENDBRANCH   4   7
ENDBRANCH   2   3
ENDBRANCH   1   2
BRANCH   1  24
ATOM     24  C   UNL A   1      37.349  21.942  24.498  1.00  0.00     0.118 C 
BRANCH  24  25
ATOM     25  N   UNL A   1      38.018  20.894  25.255  1.00  0.00    -0.352 N 
ATOM     26  C   UNL A   1      39.097  20.950  26.097  1.00  0.00     0.251 C 
ATOM     27  H   UNL A   1      37.630  19.996  25.143  1.00  0.00     0.163 HD
ATOM     28  O   UNL A   1      39.607  19.893  26.463  1.00  0.00    -0.269 OA
BRANCH  26  29
ATOM     29  C   UNL A   1      39.650  22.241  26.564  1.00  0.00     0.039 A 
ATOM     30  C   UNL A   1      39.019  23.421  26.153  1.00  0.00     0.014 A 
ATOM     31  C   UNL A   1      40.818  22.310  27.328  1.00  0.00     0.014 A 
ATOM     32  C   UNL A   1      39.553  24.659  26.513  1.00  0.00     0.010 A 
ATOM     33  C   UNL A   1      41.297  23.544  27.761  1.00  0.00     0.010 A 
ATOM     34  C   UNL A   1      40.693  24.732  27.327  1.00  0.00    -0.014 A 
BRANCH  34  35
ATOM     35  C   UNL A   1      41.298  26.041  27.685  1.00  0.00     0.031 A 
ATOM     36  C   UNL A   1      42.717  26.350  27.284  1.00  0.00     0.074 A 
ATOM     37  C   UNL A   1      40.590  26.930  28.410  1.00  0.00     0.049 A 
ATOM     38  N   UNL A   1      43.430  27.420  27.529  1.00  0.00    -0.248 NA
ATOM     39  C   UNL A   1      43.444  25.312  26.533  1.00  0.00     0.031 C 
ATOM     40  C   UNL A   1      39.231  26.719  28.914  1.00  0.00     0.029 A 
ATOM     41  N   UNL A   1      40.923  28.179  28.866  1.00  0.00    -0.354 N 
ATOM     42  C   UNL A   1      44.690  27.169  26.997  1.00  0.00     0.074 A 
ATOM     43  C   UNL A   1      44.660  25.830  26.456  1.00  0.00     0.031 C 
ATOM     44  C   UNL A   1      38.842  27.808  29.598  1.00  0.00     0.029 A 
ATOM     45  C   UNL A   1      39.932  28.778  29.608  1.00  0.00     0.049 A 
ATOM     46  H   UNL A   1      41.789  28.608  28.678  1.00  0.00     0.167 HD
ATOM     47  C   UNL A   1      45.766  27.989  26.934  1.00  0.00     0.034 A 
ATOM     48  C   UNL A   1      39.908  29.973  30.230  1.00  0.00     0.034 A 
ATOM     49  C   UNL A   1      45.777  29.335  27.440  1.00  0.00     0.049 A 
ATOM     50  C   UNL A   1      41.106  30.877  30.117  1.00  0.00     0.074 A 
ATOM     51  C   UNL A   1      46.790  30.274  27.364  1.00  0.00     0.029 A 
ATOM     52  N   UNL A   1      44.727  29.933  28.118  1.00  0.00    -0.354 N 
ATOM     53  N   UNL A   1      42.241  30.672  29.495  1.00  0.00    -0.248 NA
ATOM     54  C   UNL A   1      41.002  32.196  30.757  1.00  0.00     0.031 C 
ATOM     55  C   UNL A   1      46.363  31.430  28.025  1.00  0.00     0.029 A 
ATOM     56  C   UNL A   1      45.068  31.227  28.471  1.00  0.00     0.049 A 
ATOM     57  H   UNL A   1      43.866  29.500  28.321  1.00  0.00     0.167 HD
ATOM     58  C   UNL A   1      42.964  31.853  29.621  1.00  0.00     0.074 A 
ATOM     59  C   UNL A   1      42.132  32.772  30.371  1.00  0.00     0.031 C 
ATOM     60  C   UNL A   1      44.205  32.148  29.164  1.00  0.00     0.034 A 
BRANCH  47  61
ATOM     61  C   UNL A   1      47.007  27.467  26.256  1.00  0.00     0.023 A 
ATOM     62  C   UNL A   1      47.222  27.732  24.887  1.00  0.00     0.012 A 
ATOM     63  C   UNL A   1      47.985  26.760  26.983  1.00  0.00     0.148 A 
ATOM     64  C   UNL A   1      48.368  27.267  24.243  1.00  0.00     0.002 A 
ATOM     65  C   UNL A   1      49.150  26.344  26.347  1.00  0.00     0.091 A 
ATOM     66  F   UNL A   1      47.757  26.501  28.279  1.00  0.00    -0.205 F 
ATOM     67  C   UNL A   1      49.336  26.583  24.975  1.00  0.00     0.022 A 
BRANCH  65  68
ATOM     68  S   UNL A   1      50.494  25.531  27.216  1.00  0.00     0.127 S 
ATOM     69  O   UNL A   1      49.846  24.303  27.677  1.00  0.00    -0.237 OA
ATOM     70  O   UNL A   1      51.476  25.339  26.149  1.00  0.00    -0.237 OA
ATOM     71  O   UNL A   1      50.908  26.448  28.267  1.00  0.00    -0.744 OA
ENDBRANCH  65  68
ENDBRANCH  47  61
BRANCH  48  72
ATOM     72  C   UNL A   1      38.686  30.411  30.963  1.00  0.00     0.023 A 
ATOM     73  C   UNL A   1      38.562  30.129  32.338  1.00  0.00     0.012 A 
ATOM     74  C   UNL A   1      37.654  31.108  30.309  1.00  0.00     0.148 A 
ATOM     75  C   UNL A   1      37.411  30.495  33.038  1.00  0.00     0.002 A 
ATOM     76  C   UNL A   1      36.537  31.521  31.024  1.00  0.00     0.091 A 
ATOM     77  F   UNL A   1      37.790  31.362  29.000  1.00  0.00    -0.205 F 
ATOM     78  C   UNL A   1      36.404  31.199  32.384  1.00  0.00     0.022 A 
BRANCH  76  79
ATOM     79  S   UNL A   1      35.252  32.543  30.298  1.00  0.00     0.127 S 
ATOM     80  O   UNL A   1      34.309  32.668  31.406  1.00  0.00    -0.237 OA
ATOM     81  O   UNL A   1      35.988  33.764  29.972  1.00  0.00    -0.237 OA
ATOM     82  O   UNL A   1      34.771  31.803  29.139  1.00  0.00    -0.744 OA
ENDBRANCH  76  79
ENDBRANCH  48  72
BRANCH  60  83
ATOM     83  C   UNL A   1      44.719  33.547  29.390  1.00  0.00     0.023 A 
ATOM     84  C   UNL A   1      45.495  33.848  30.527  1.00  0.00     0.012 A 
ATOM     85  C   UNL A   1      44.480  34.550  28.430  1.00  0.00     0.148 A 
ATOM     86  C   UNL A   1      45.987  35.138  30.725  1.00  0.00     0.002 A 
ATOM     87  C   UNL A   1      45.022  35.816  28.606  1.00  0.00     0.091 A 
ATOM     88  F   UNL A   1      43.724  34.249  27.364  1.00  0.00    -0.205 F 
ATOM     89  C   UNL A   1      45.762  36.118  29.760  1.00  0.00     0.022 A 
BRANCH  87  90
ATOM     90  S   UNL A   1      44.870  37.106  27.365  1.00  0.00     0.127 S 
ATOM     91  O   UNL A   1      45.961  36.770  26.453  1.00  0.00    -0.237 OA
ATOM     92  O   UNL A   1      43.529  36.864  26.829  1.00  0.00    -0.237 OA
ATOM     93  O   UNL A   1      45.016  38.368  28.077  1.00  0.00    -0.744 OA
ENDBRANCH  87  90
ENDBRANCH  60  83
ENDBRANCH  34  35
ENDBRANCH  26  29
ENDBRANCH  24  25
ENDBRANCH   1  24
TORSDOF 16
ENDMDL
