MODEL 1
REMARK VINA RESULT:     -10.6      0.000      0.000
REMARK SMILES O=C(CC(=O)c1ccco1)C(=O)NCCCNC(=O)c1ccc(-c2c3nc(c(-c4cccc(S(=O)(=O)[O-])c4F)c4ccc([nH]4)c(-c4cccc(S(=O)(=O)[O-])c4F)c4nc(c(-c5cccc(S(=O)(=O)[O-])c5F)c5ccc2[nH]5)C=C4)C=C3)cc1
REMARK SMILES IDX 15 1 14 2 13 3 11 4 12 5 2 7 1 8 3 9 4 10 5 11 6 12 7 13
REMARK SMILES IDX 10 14 8 15 9 16 16 17 17 18 18 19 19 21 20 22 21 23 82 24
REMARK SMILES IDX 22 25 81 26 23 27 24 28 25 29 75 30 26 31 80 32 74 33 76 34
REMARK SMILES IDX 27 35 79 36 73 37 72 38 28 40 60 41 40 42 59 43 41 44 44 45
REMARK SMILES IDX 58 46 77 47 42 48 43 49 57 51 78 52 45 53 29 54 30 55 38 56
REMARK SMILES IDX 31 57 33 58 39 59 32 60 34 61 35 62 36 63 37 64 61 65 62 66
REMARK SMILES IDX 70 67 63 68 65 69 71 70 64 71 66 72 67 73 68 74 69 75 46 76
REMARK SMILES IDX 47 77 55 78 48 79 50 80 56 81 49 82 51 83 52 84 53 85 54 86
REMARK H PARENT 13 6 17 20 76 39 44 50
REMARK Flexibility Score: inf
ROOT
ATOM      1  C   UNL A   1      41.352  19.955  27.066  1.00  0.00     0.042 C 
ENDROOT
BRANCH   1   2
ATOM      2  C   UNL A   1      42.161  19.821  25.773  1.00  0.00     0.118 C 
BRANCH   2   3
ATOM      3  N   UNL A   1      43.338  18.999  25.995  1.00  0.00    -0.349 N 
ATOM      4  C   UNL A   1      44.514  18.837  25.316  1.00  0.00     0.287 C 
ATOM      5  O   UNL A   1      45.257  17.914  25.645  1.00  0.00    -0.266 OA
ATOM      6  H   UNL A   1      43.275  18.441  26.803  1.00  0.00     0.163 HD
BRANCH   4   7
ATOM      7  C   UNL A   1      45.022  19.793  24.240  1.00  0.00     0.227 C 
ATOM      8  O   UNL A   1      44.598  19.627  23.094  1.00  0.00    -0.288 OA
BRANCH   7   9
ATOM      9  C   UNL A   1      46.012  20.867  24.517  1.00  0.00     0.171 C 
BRANCH   9  10
ATOM     10  C   UNL A   1      45.553  22.281  24.673  1.00  0.00     0.205 C 
ATOM     11  O   UNL A   1      45.342  22.926  23.643  1.00  0.00    -0.290 OA
BRANCH  10  12
ATOM     12  C   UNL A   1      45.274  22.801  25.995  1.00  0.00     0.169 A 
ATOM     13  C   UNL A   1      44.149  22.857  26.798  1.00  0.00     0.054 A 
ATOM     14  O   UNL A   1      46.319  23.389  26.656  1.00  0.00    -0.461 OA
ATOM     15  C   UNL A   1      44.537  23.503  28.001  1.00  0.00     0.043 A 
ATOM     16  C   UNL A   1      45.865  23.819  27.857  1.00  0.00     0.196 A 
ENDBRANCH  10  12
ENDBRANCH   9  10
ENDBRANCH   7   9
ENDBRANCH   4   7
ENDBRANCH   2   3
ENDBRANCH   1   2
BRANCH   1  17
ATOM     17  C   UNL A   1      40.779  21.351  27.312  1.00  0.00     0.118 C 
BRANCH  17  18
ATOM     18  N   UNL A   1      39.650  21.644  26.445  1.00  0.00    -0.352 N 
ATOM     19  C   UNL A   1      38.931  22.801  26.281  1.00  0.00     0.251 C 
ATOM     20  H   UNL A   1      39.353  20.891  25.886  1.00  0.00     0.163 HD
ATOM     21  O   UNL A   1      37.871  22.749  25.661  1.00  0.00    -0.269 OA
BRANCH  19  22
ATOM     22  C   UNL A   1      39.401  24.097  26.828  1.00  0.00     0.039 A 
ATOM     23  C   UNL A   1      39.081  24.412  28.153  1.00  0.00     0.014 A 
ATOM     24  C   UNL A   1      40.077  25.035  26.042  1.00  0.00     0.014 A 
ATOM     25  C   UNL A   1      39.468  25.640  28.695  1.00  0.00     0.010 A 
ATOM     26  C   UNL A   1      40.528  26.231  26.606  1.00  0.00     0.010 A 
ATOM     27  C   UNL A   1      40.217  26.554  27.934  1.00  0.00    -0.014 A 
BRANCH  27  28
ATOM     28  C   UNL A   1      40.681  27.834  28.533  1.00  0.00     0.031 A 
ATOM     29  C   UNL A   1      42.149  28.112  28.731  1.00  0.00     0.074 A 
ATOM     30  C   UNL A   1      39.768  28.739  28.941  1.00  0.00     0.049 A 
ATOM     31  N   UNL A   1      42.727  29.179  29.221  1.00  0.00    -0.248 NA
ATOM     32  C   UNL A   1      43.092  27.047  28.351  1.00  0.00     0.031 C 
ATOM     33  C   UNL A   1      38.315  28.555  28.890  1.00  0.00     0.029 A 
ATOM     34  N   UNL A   1      39.924  29.988  29.492  1.00  0.00    -0.354 N 
ATOM     35  C   UNL A   1      44.092  28.912  29.224  1.00  0.00     0.074 A 
ATOM     36  C   UNL A   1      44.254  27.563  28.726  1.00  0.00     0.031 C 
ATOM     37  C   UNL A   1      37.715  29.651  29.381  1.00  0.00     0.029 A 
ATOM     38  C   UNL A   1      38.734  30.608  29.797  1.00  0.00     0.049 A 
ATOM     39  H   UNL A   1      40.803  30.399  29.653  1.00  0.00     0.167 HD
ATOM     40  C   UNL A   1      45.118  29.724  29.573  1.00  0.00     0.034 A 
ATOM     41  C   UNL A   1      38.491  31.814  30.346  1.00  0.00     0.034 A 
ATOM     42  C   UNL A   1      44.958  31.079  30.031  1.00  0.00     0.049 A 
ATOM     43  C   UNL A   1      39.652  32.717  30.668  1.00  0.00     0.074 A 
ATOM     44  C   UNL A   1      45.939  32.003  30.349  1.00  0.00     0.029 A 
ATOM     45  N   UNL A   1      43.740  31.708  30.233  1.00  0.00    -0.354 N 
ATOM     46  N   UNL A   1      40.934  32.500  30.512  1.00  0.00    -0.248 NA
ATOM     47  C   UNL A   1      39.328  34.049  31.198  1.00  0.00     0.031 C 
ATOM     48  C   UNL A   1      45.313  33.187  30.752  1.00  0.00     0.029 A 
ATOM     49  C   UNL A   1      43.942  33.007  30.668  1.00  0.00     0.049 A 
ATOM     50  H   UNL A   1      42.859  31.292  30.089  1.00  0.00     0.167 HD
ATOM     51  C   UNL A   1      41.569  33.675  30.897  1.00  0.00     0.074 A 
ATOM     52  C   UNL A   1      40.526  34.613  31.257  1.00  0.00     0.031 C 
ATOM     53  C   UNL A   1      42.895  33.947  30.973  1.00  0.00     0.034 A 
BRANCH  40  54
ATOM     54  C   UNL A   1      46.522  29.201  29.396  1.00  0.00     0.023 A 
ATOM     55  C   UNL A   1      47.124  28.485  30.451  1.00  0.00     0.012 A 
ATOM     56  C   UNL A   1      47.209  29.337  28.174  1.00  0.00     0.148 A 
ATOM     57  C   UNL A   1      48.396  27.934  30.303  1.00  0.00     0.002 A 
ATOM     58  C   UNL A   1      48.460  28.750  28.019  1.00  0.00     0.091 A 
ATOM     59  F   UNL A   1      46.627  30.033  27.187  1.00  0.00    -0.205 F 
ATOM     60  C   UNL A   1      49.058  28.057  29.086  1.00  0.00     0.022 A 
BRANCH  58  61
ATOM     61  S   UNL A   1      49.371  28.783  26.470  1.00  0.00     0.127 S 
ATOM     62  O   UNL A   1      48.333  28.408  25.511  1.00  0.00    -0.237 OA
ATOM     63  O   UNL A   1      49.793  30.182  26.394  1.00  0.00    -0.237 OA
ATOM     64  O   UNL A   1      50.456  27.824  26.619  1.00  0.00    -0.744 OA
ENDBRANCH  58  61
ENDBRANCH  40  54
BRANCH  41  65
ATOM     65  C   UNL A   1      37.088  32.268  30.565  1.00  0.00     0.023 A 
ATOM     66  C   UNL A   1      36.505  32.131  31.841  1.00  0.00     0.012 A 
ATOM     67  C   UNL A   1      36.332  32.839  29.524  1.00  0.00     0.148 A 
ATOM     68  C   UNL A   1      35.182  32.515  32.063  1.00  0.00     0.002 A 
ATOM     69  C   UNL A   1      35.033  33.271  29.768  1.00  0.00     0.091 A 
ATOM     70  F   UNL A   1      36.894  32.946  28.312  1.00  0.00    -0.205 F 
ATOM     71  C   UNL A   1      34.449  33.093  31.030  1.00  0.00     0.022 A 
BRANCH  69  72
ATOM     72  S   UNL A   1      34.080  34.150  28.524  1.00  0.00     0.127 S 
ATOM     73  O   UNL A   1      32.848  34.455  29.250  1.00  0.00    -0.237 OA
ATOM     74  O   UNL A   1      34.931  35.309  28.245  1.00  0.00    -0.237 OA
ATOM     75  O   UNL A   1      33.954  33.224  27.410  1.00  0.00    -0.744 OA
ENDBRANCH  69  72
ENDBRANCH  41  65
BRANCH  53  76
ATOM     76  C   UNL A   1      43.292  35.322  31.443  1.00  0.00     0.023 A 
ATOM     77  C   UNL A   1      43.612  36.317  30.497  1.00  0.00     0.012 A 
ATOM     78  C   UNL A   1      43.309  35.642  32.815  1.00  0.00     0.148 A 
ATOM     79  C   UNL A   1      43.986  37.594  30.910  1.00  0.00     0.002 A 
ATOM     80  C   UNL A   1      43.636  36.933  33.217  1.00  0.00     0.091 A 
ATOM     81  F   UNL A   1      43.021  34.679  33.702  1.00  0.00    -0.205 F 
ATOM     82  C   UNL A   1      43.988  37.905  32.267  1.00  0.00     0.022 A 
BRANCH  80  83
ATOM     83  S   UNL A   1      43.576  37.442  34.938  1.00  0.00     0.127 S 
ATOM     84  O   UNL A   1      44.661  36.656  35.520  1.00  0.00    -0.237 OA
ATOM     85  O   UNL A   1      43.844  38.878  34.849  1.00  0.00    -0.237 OA
ATOM     86  O   UNL A   1      42.236  37.109  35.403  1.00  0.00    -0.744 OA
ENDBRANCH  80  83
ENDBRANCH  53  76
ENDBRANCH  27  28
ENDBRANCH  19  22
ENDBRANCH  17  18
ENDBRANCH   1  17
TORSDOF 16
ENDMDL
MODEL 2
REMARK VINA RESULT:     -10.6      2.047      2.433
REMARK SMILES O=C(CC(=O)c1ccco1)C(=O)NCCCNC(=O)c1ccc(-c2c3nc(c(-c4cccc(S(=O)(=O)[O-])c4F)c4ccc([nH]4)c(-c4cccc(S(=O)(=O)[O-])c4F)c4nc(c(-c5cccc(S(=O)(=O)[O-])c5F)c5ccc2[nH]5)C=C4)C=C3)cc1
REMARK SMILES IDX 15 1 14 2 13 3 11 4 12 5 2 7 1 8 3 9 4 10 5 11 6 12 7 13
REMARK SMILES IDX 10 14 8 15 9 16 16 17 17 18 18 19 19 21 20 22 21 23 82 24
REMARK SMILES IDX 22 25 81 26 23 27 24 28 25 29 75 30 26 31 80 32 74 33 76 34
REMARK SMILES IDX 27 35 79 36 73 37 72 38 28 40 60 41 40 42 59 43 41 44 44 45
REMARK SMILES IDX 58 46 77 47 42 48 43 49 57 51 78 52 45 53 29 54 30 55 38 56
REMARK SMILES IDX 31 57 33 58 39 59 32 60 34 61 35 62 36 63 37 64 61 65 62 66
REMARK SMILES IDX 70 67 63 68 65 69 71 70 64 71 66 72 67 73 68 74 69 75 46 76
REMARK SMILES IDX 47 77 55 78 48 79 50 80 56 81 49 82 51 83 52 84 53 85 54 86
REMARK H PARENT 13 6 17 20 76 39 44 50
REMARK Flexibility Score: inf
ROOT
ATOM      1  C   UNL A   1      42.154  21.008  26.619  1.00  0.00     0.042 C 
ENDROOT
BRANCH   1   2
ATOM      2  C   UNL A   1      42.079  19.657  25.902  1.00  0.00     0.118 C 
BRANCH   2   3
ATOM      3  N   UNL A   1      43.325  18.929  26.060  1.00  0.00    -0.349 N 
ATOM      4  C   UNL A   1      44.483  18.876  25.334  1.00  0.00     0.287 C 
ATOM      5  O   UNL A   1      45.310  18.011  25.614  1.00  0.00    -0.266 OA
ATOM      6  H   UNL A   1      43.340  18.353  26.857  1.00  0.00     0.163 HD
BRANCH   4   7
ATOM      7  C   UNL A   1      44.870  19.890  24.261  1.00  0.00     0.227 C 
ATOM      8  O   UNL A   1      44.556  19.627  23.098  1.00  0.00    -0.288 OA
BRANCH   7   9
ATOM      9  C   UNL A   1      45.623  21.135  24.562  1.00  0.00     0.171 C 
BRANCH   9  10
ATOM     10  C   UNL A   1      44.934  22.460  24.489  1.00  0.00     0.205 C 
ATOM     11  O   UNL A   1      43.810  22.487  23.979  1.00  0.00    -0.290 OA
BRANCH  10  12
ATOM     12  C   UNL A   1      45.545  23.620  25.102  1.00  0.00     0.169 A 
ATOM     13  C   UNL A   1      45.265  24.975  25.110  1.00  0.00     0.054 A 
ATOM     14  O   UNL A   1      46.666  23.396  25.856  1.00  0.00    -0.461 OA
ATOM     15  C   UNL A   1      46.259  25.593  25.913  1.00  0.00     0.043 A 
ATOM     16  C   UNL A   1      47.096  24.589  26.331  1.00  0.00     0.196 A 
ENDBRANCH  10  12
ENDBRANCH   9  10
ENDBRANCH   7   9
ENDBRANCH   4   7
ENDBRANCH   2   3
ENDBRANCH   1   2
BRANCH   1  17
ATOM     17  C   UNL A   1      40.905  21.367  27.424  1.00  0.00     0.118 C 
BRANCH  17  18
ATOM     18  N   UNL A   1      39.755  21.622  26.574  1.00  0.00    -0.352 N 
ATOM     19  C   UNL A   1      39.004  22.760  26.411  1.00  0.00     0.251 C 
ATOM     20  H   UNL A   1      39.469  20.857  26.027  1.00  0.00     0.163 HD
ATOM     21  O   UNL A   1      37.935  22.673  25.810  1.00  0.00    -0.269 OA
BRANCH  19  22
ATOM     22  C   UNL A   1      39.449  24.072  26.937  1.00  0.00     0.039 A 
ATOM     23  C   UNL A   1      40.113  24.944  26.068  1.00  0.00     0.014 A 
ATOM     24  C   UNL A   1      39.297  24.425  28.282  1.00  0.00     0.014 A 
ATOM     25  C   UNL A   1      40.586  26.173  26.534  1.00  0.00     0.010 A 
ATOM     26  C   UNL A   1      39.705  25.684  28.730  1.00  0.00     0.010 A 
ATOM     27  C   UNL A   1      40.366  26.567  27.865  1.00  0.00    -0.014 A 
BRANCH  27  28
ATOM     28  C   UNL A   1      40.817  27.903  28.342  1.00  0.00     0.031 A 
ATOM     29  C   UNL A   1      42.279  28.263  28.373  1.00  0.00     0.074 A 
ATOM     30  C   UNL A   1      39.900  28.784  28.791  1.00  0.00     0.049 A 
ATOM     31  N   UNL A   1      42.844  29.386  28.741  1.00  0.00    -0.248 NA
ATOM     32  C   UNL A   1      43.237  27.225  27.958  1.00  0.00     0.031 C 
ATOM     33  C   UNL A   1      38.462  28.526  28.900  1.00  0.00     0.029 A 
ATOM     34  N   UNL A   1      40.041  30.070  29.253  1.00  0.00    -0.354 N 
ATOM     35  C   UNL A   1      44.214  29.187  28.619  1.00  0.00     0.074 A 
ATOM     36  C   UNL A   1      44.401  27.820  28.182  1.00  0.00     0.031 C 
ATOM     37  C   UNL A   1      37.853  29.619  29.388  1.00  0.00     0.029 A 
ATOM     38  C   UNL A   1      38.855  30.649  29.644  1.00  0.00     0.049 A 
ATOM     39  H   UNL A   1      40.907  30.533  29.300  1.00  0.00     0.167 HD
ATOM     40  C   UNL A   1      45.224  30.068  28.815  1.00  0.00     0.034 A 
ATOM     41  C   UNL A   1      38.602  31.872  30.148  1.00  0.00     0.034 A 
ATOM     42  C   UNL A   1      45.036  31.439  29.212  1.00  0.00     0.049 A 
ATOM     43  C   UNL A   1      39.737  32.848  30.299  1.00  0.00     0.074 A 
ATOM     44  C   UNL A   1      45.991  32.427  29.376  1.00  0.00     0.029 A 
ATOM     45  N   UNL A   1      43.811  32.018  29.503  1.00  0.00    -0.354 N 
ATOM     46  N   UNL A   1      41.008  32.686  30.024  1.00  0.00    -0.248 NA
ATOM     47  C   UNL A   1      39.395  34.193  30.785  1.00  0.00     0.031 C 
ATOM     48  C   UNL A   1      45.344  33.601  29.776  1.00  0.00     0.029 A 
ATOM     49  C   UNL A   1      43.983  33.349  29.843  1.00  0.00     0.049 A 
ATOM     50  H   UNL A   1      42.944  31.551  29.473  1.00  0.00     0.167 HD
ATOM     51  C   UNL A   1      41.612  33.912  30.277  1.00  0.00     0.074 A 
ATOM     52  C   UNL A   1      40.560  34.818  30.690  1.00  0.00     0.031 C 
ATOM     53  C   UNL A   1      42.922  34.253  30.201  1.00  0.00     0.034 A 
BRANCH  40  54
ATOM     54  C   UNL A   1      46.630  29.605  28.525  1.00  0.00     0.023 A 
ATOM     55  C   UNL A   1      47.155  29.783  27.228  1.00  0.00     0.012 A 
ATOM     56  C   UNL A   1      47.456  29.081  29.538  1.00  0.00     0.148 A 
ATOM     57  C   UNL A   1      48.470  29.423  26.937  1.00  0.00     0.002 A 
ATOM     58  C   UNL A   1      48.779  28.763  29.250  1.00  0.00     0.091 A 
ATOM     59  F   UNL A   1      46.936  28.907  30.761  1.00  0.00    -0.205 F 
ATOM     60  C   UNL A   1      49.284  28.925  27.949  1.00  0.00     0.022 A 
BRANCH  58  61
ATOM     61  S   UNL A   1      49.937  28.183  30.496  1.00  0.00     0.127 S 
ATOM     62  O   UNL A   1      51.222  28.496  29.872  1.00  0.00    -0.237 OA
ATOM     63  O   UNL A   1      49.598  29.024  31.645  1.00  0.00    -0.237 OA
ATOM     64  O   UNL A   1      49.661  26.765  30.675  1.00  0.00    -0.744 OA
ENDBRANCH  58  61
ENDBRANCH  40  54
BRANCH  41  65
ATOM     65  C   UNL A   1      37.205  32.269  30.485  1.00  0.00     0.023 A 
ATOM     66  C   UNL A   1      36.722  32.071  31.794  1.00  0.00     0.012 A 
ATOM     67  C   UNL A   1      36.355  32.845  29.521  1.00  0.00     0.148 A 
ATOM     68  C   UNL A   1      35.408  32.401  32.125  1.00  0.00     0.002 A 
ATOM     69  C   UNL A   1      35.063  33.223  29.874  1.00  0.00     0.091 A 
ATOM     70  F   UNL A   1      36.821  33.009  28.276  1.00  0.00    -0.205 F 
ATOM     71  C   UNL A   1      34.581  32.985  31.169  1.00  0.00     0.022 A 
BRANCH  69  72
ATOM     72  S   UNL A   1      33.992  34.105  28.734  1.00  0.00     0.127 S 
ATOM     73  O   UNL A   1      33.616  33.048  27.796  1.00  0.00    -0.237 OA
ATOM     74  O   UNL A   1      32.912  34.557  29.613  1.00  0.00    -0.237 OA
ATOM     75  O   UNL A   1      34.808  35.181  28.193  1.00  0.00    -0.744 OA
ENDBRANCH  69  72
ENDBRANCH  41  65
BRANCH  53  76
ATOM     76  C   UNL A   1      43.287  35.671  30.552  1.00  0.00     0.023 A 
ATOM     77  C   UNL A   1      43.675  35.986  31.870  1.00  0.00     0.012 A 
ATOM     78  C   UNL A   1      43.288  36.684  29.572  1.00  0.00     0.148 A 
ATOM     79  C   UNL A   1      44.013  37.292  32.219  1.00  0.00     0.002 A 
ATOM     80  C   UNL A   1      43.674  37.975  29.917  1.00  0.00     0.091 A 
ATOM     81  F   UNL A   1      42.899  36.372  28.327  1.00  0.00    -0.205 F 
ATOM     82  C   UNL A   1      44.023  38.283  31.241  1.00  0.00     0.022 A 
BRANCH  80  83
ATOM     83  S   UNL A   1      43.801  39.290  28.700  1.00  0.00     0.127 S 
ATOM     84  O   UNL A   1      44.787  38.744  27.771  1.00  0.00    -0.237 OA
ATOM     85  O   UNL A   1      42.438  39.359  28.170  1.00  0.00    -0.237 OA
ATOM     86  O   UNL A   1      44.218  40.475  29.439  1.00  0.00    -0.744 OA
ENDBRANCH  80  83
ENDBRANCH  53  76
ENDBRANCH  27  28
ENDBRANCH  19  22
ENDBRANCH  17  18
ENDBRANCH   1  17
TORSDOF 16
ENDMDL
MODEL 3
REMARK VINA RESULT:     -10.5      4.456     12.093
REMARK SMILES O=C(CC(=O)c1ccco1)C(=O)NCCCNC(=O)c1ccc(-c2c3nc(c(-c4cccc(S(=O)(=O)[O-])c4F)c4ccc([nH]4)c(-c4cccc(S(=O)(=O)[O-])c4F)c4nc(c(-c5cccc(S(=O)(=O)[O-])c5F)c5ccc2[nH]5)C=C4)C=C3)cc1
REMARK SMILES IDX 15 1 14 2 13 3 11 4 12 5 2 7 1 8 3 9 4 10 5 11 6 12 7 13
REMARK SMILES IDX 10 14 8 15 9 16 16 17 17 18 18 19 19 21 20 22 21 23 82 24
REMARK SMILES IDX 22 25 81 26 23 27 24 28 25 29 75 30 26 31 80 32 74 33 76 34
REMARK SMILES IDX 27 35 79 36 73 37 72 38 28 40 60 41 40 42 59 43 41 44 44 45
REMARK SMILES IDX 58 46 77 47 42 48 43 49 57 51 78 52 45 53 29 54 30 55 38 56
REMARK SMILES IDX 31 57 33 58 39 59 32 60 34 61 35 62 36 63 37 64 61 65 62 66
REMARK SMILES IDX 70 67 63 68 65 69 71 70 64 71 66 72 67 73 68 74 69 75 46 76
REMARK SMILES IDX 47 77 55 78 48 79 50 80 56 81 49 82 51 83 52 84 53 85 54 86
REMARK H PARENT 13 6 17 20 76 39 44 50
REMARK Flexibility Score: inf
ROOT
ATOM      1  C   UNL A   1      33.494  34.007  28.536  1.00  0.00     0.042 C 
ENDROOT
BRANCH   1   2
ATOM      2  C   UNL A   1      34.097  35.160  29.343  1.00  0.00     0.118 C 
BRANCH   2   3
ATOM      3  N   UNL A   1      33.091  35.758  30.202  1.00  0.00    -0.349 N 
ATOM      4  C   UNL A   1      33.023  35.997  31.547  1.00  0.00     0.287 C 
ATOM      5  O   UNL A   1      31.947  36.352  32.025  1.00  0.00    -0.266 OA
ATOM      6  H   UNL A   1      32.290  36.055  29.714  1.00  0.00     0.163 HD
BRANCH   4   7
ATOM      7  C   UNL A   1      34.223  35.953  32.488  1.00  0.00     0.227 C 
ATOM      8  O   UNL A   1      34.607  37.025  32.962  1.00  0.00    -0.288 OA
BRANCH   7   9
ATOM      9  C   UNL A   1      34.946  34.696  32.816  1.00  0.00     0.171 C 
BRANCH   9  10
ATOM     10  C   UNL A   1      36.440  34.657  32.755  1.00  0.00     0.205 C 
ATOM     11  O   UNL A   1      37.057  34.933  33.787  1.00  0.00    -0.290 OA
BRANCH  10  12
ATOM     12  C   UNL A   1      37.095  34.203  31.546  1.00  0.00     0.169 A 
ATOM     13  C   UNL A   1      36.836  33.214  30.615  1.00  0.00     0.054 A 
ATOM     14  O   UNL A   1      38.242  34.859  31.188  1.00  0.00    -0.461 OA
ATOM     15  C   UNL A   1      37.873  33.282  29.647  1.00  0.00     0.043 A 
ATOM     16  C   UNL A   1      38.710  34.291  30.051  1.00  0.00     0.196 A 
ENDBRANCH  10  12
ENDBRANCH   9  10
ENDBRANCH   7   9
ENDBRANCH   4   7
ENDBRANCH   2   3
ENDBRANCH   1   2
BRANCH   1  17
ATOM     17  C   UNL A   1      34.466  32.864  28.242  1.00  0.00     0.118 C 
BRANCH  17  18
ATOM     18  N   UNL A   1      33.782  31.655  27.817  1.00  0.00    -0.352 N 
ATOM     19  C   UNL A   1      34.266  30.389  27.598  1.00  0.00     0.251 C 
ATOM     20  H   UNL A   1      32.817  31.760  27.661  1.00  0.00     0.163 HD
ATOM     21  O   UNL A   1      33.545  29.579  27.018  1.00  0.00    -0.269 OA
BRANCH  19  22
ATOM     22  C   UNL A   1      35.621  29.983  28.042  1.00  0.00     0.039 A 
ATOM     23  C   UNL A   1      35.773  29.493  29.343  1.00  0.00     0.014 A 
ATOM     24  C   UNL A   1      36.749  30.150  27.233  1.00  0.00     0.014 A 
ATOM     25  C   UNL A   1      37.039  29.138  29.815  1.00  0.00     0.010 A 
ATOM     26  C   UNL A   1      38.004  29.727  27.680  1.00  0.00     0.010 A 
ATOM     27  C   UNL A   1      38.166  29.229  28.981  1.00  0.00    -0.014 A 
BRANCH  27  28
ATOM     28  C   UNL A   1      39.503  28.793  29.466  1.00  0.00     0.031 A 
ATOM     29  C   UNL A   1      40.205  29.531  30.577  1.00  0.00     0.074 A 
ATOM     30  C   UNL A   1      40.109  27.745  28.871  1.00  0.00     0.049 A 
ATOM     31  N   UNL A   1      41.362  29.276  31.132  1.00  0.00    -0.248 NA
ATOM     32  C   UNL A   1      39.533  30.722  31.122  1.00  0.00     0.031 C 
ATOM     33  C   UNL A   1      39.579  27.001  27.725  1.00  0.00     0.029 A 
ATOM     34  N   UNL A   1      41.309  27.132  29.136  1.00  0.00    -0.354 N 
ATOM     35  C   UNL A   1      41.566  30.276  32.076  1.00  0.00     0.074 A 
ATOM     36  C   UNL A   1      40.431  31.170  31.989  1.00  0.00     0.031 C 
ATOM     37  C   UNL A   1      40.443  26.030  27.392  1.00  0.00     0.029 A 
ATOM     38  C   UNL A   1      41.596  26.089  28.284  1.00  0.00     0.049 A 
ATOM     39  H   UNL A   1      41.907  27.411  29.865  1.00  0.00     0.167 HD
ATOM     40  C   UNL A   1      42.583  30.421  32.959  1.00  0.00     0.034 A 
ATOM     41  C   UNL A   1      42.665  25.271  28.231  1.00  0.00     0.034 A 
ATOM     42  C   UNL A   1      43.693  29.511  33.071  1.00  0.00     0.049 A 
ATOM     43  C   UNL A   1      43.750  25.419  29.263  1.00  0.00     0.074 A 
ATOM     44  C   UNL A   1      44.740  29.537  33.975  1.00  0.00     0.029 A 
ATOM     45  N   UNL A   1      43.898  28.409  32.256  1.00  0.00    -0.354 N 
ATOM     46  N   UNL A   1      43.841  26.278  30.248  1.00  0.00    -0.248 NA
ATOM     47  C   UNL A   1      44.857  24.454  29.203  1.00  0.00     0.031 C 
ATOM     48  C   UNL A   1      45.584  28.455  33.701  1.00  0.00     0.029 A 
ATOM     49  C   UNL A   1      45.052  27.745  32.637  1.00  0.00     0.049 A 
ATOM     50  H   UNL A   1      43.310  28.137  31.515  1.00  0.00     0.167 HD
ATOM     51  C   UNL A   1      44.997  25.941  30.942  1.00  0.00     0.074 A 
ATOM     52  C   UNL A   1      45.552  24.776  30.285  1.00  0.00     0.031 C 
ATOM     53  C   UNL A   1      45.565  26.556  32.008  1.00  0.00     0.034 A 
BRANCH  40  54
ATOM     54  C   UNL A   1      42.509  31.565  33.939  1.00  0.00     0.023 A 
ATOM     55  C   UNL A   1      43.068  32.810  33.582  1.00  0.00     0.012 A 
ATOM     56  C   UNL A   1      41.819  31.443  35.161  1.00  0.00     0.148 A 
ATOM     57  C   UNL A   1      42.965  33.907  34.435  1.00  0.00     0.002 A 
ATOM     58  C   UNL A   1      41.685  32.553  35.989  1.00  0.00     0.091 A 
ATOM     59  F   UNL A   1      41.306  30.249  35.490  1.00  0.00    -0.205 F 
ATOM     60  C   UNL A   1      42.266  33.782  35.632  1.00  0.00     0.022 A 
BRANCH  58  61
ATOM     61  S   UNL A   1      40.742  32.523  37.518  1.00  0.00     0.127 S 
ATOM     62  O   UNL A   1      41.630  31.762  38.397  1.00  0.00    -0.237 OA
ATOM     63  O   UNL A   1      40.639  33.946  37.841  1.00  0.00    -0.237 OA
ATOM     64  O   UNL A   1      39.478  31.876  37.200  1.00  0.00    -0.744 OA
ENDBRANCH  58  61
ENDBRANCH  40  54
BRANCH  41  65
ATOM     65  C   UNL A   1      42.731  24.192  27.204  1.00  0.00     0.023 A 
ATOM     66  C   UNL A   1      43.459  24.406  26.017  1.00  0.00     0.012 A 
ATOM     67  C   UNL A   1      42.084  22.956  27.398  1.00  0.00     0.148 A 
ATOM     68  C   UNL A   1      43.507  23.426  25.025  1.00  0.00     0.002 A 
ATOM     69  C   UNL A   1      42.183  21.963  26.429  1.00  0.00     0.091 A 
ATOM     70  F   UNL A   1      41.380  22.774  28.523  1.00  0.00    -0.205 F 
ATOM     71  C   UNL A   1      42.877  22.202  25.234  1.00  0.00     0.022 A 
BRANCH  69  72
ATOM     72  S   UNL A   1      41.516  20.316  26.691  1.00  0.00     0.127 S 
ATOM     73  O   UNL A   1      42.331  19.836  27.805  1.00  0.00    -0.237 OA
ATOM     74  O   UNL A   1      40.119  20.599  27.029  1.00  0.00    -0.237 OA
ATOM     75  O   UNL A   1      41.692  19.623  25.424  1.00  0.00    -0.744 OA
ENDBRANCH  69  72
ENDBRANCH  41  65
BRANCH  53  76
ATOM     76  C   UNL A   1      46.842  25.965  32.545  1.00  0.00     0.023 A 
ATOM     77  C   UNL A   1      48.082  26.418  32.050  1.00  0.00     0.012 A 
ATOM     78  C   UNL A   1      46.820  24.995  33.566  1.00  0.00     0.148 A 
ATOM     79  C   UNL A   1      49.276  25.883  32.530  1.00  0.00     0.002 A 
ATOM     80  C   UNL A   1      48.017  24.501  34.074  1.00  0.00     0.091 A 
ATOM     81  F   UNL A   1      45.632  24.561  34.013  1.00  0.00    -0.205 F 
ATOM     82  C   UNL A   1      49.244  24.934  33.547  1.00  0.00     0.022 A 
BRANCH  80  83
ATOM     83  S   UNL A   1      48.068  23.343  35.445  1.00  0.00     0.127 S 
ATOM     84  O   UNL A   1      47.290  24.049  36.461  1.00  0.00    -0.237 OA
ATOM     85  O   UNL A   1      47.407  22.163  34.884  1.00  0.00    -0.237 OA
ATOM     86  O   UNL A   1      49.479  23.152  35.751  1.00  0.00    -0.744 OA
ENDBRANCH  80  83
ENDBRANCH  53  76
ENDBRANCH  27  28
ENDBRANCH  19  22
ENDBRANCH  17  18
ENDBRANCH   1  17
TORSDOF 16
ENDMDL
