MODEL 1
REMARK VINA RESULT:     -11.8      0.000      0.000
REMARK SMILES COc1ccc(S(=O)(=O)N[C@H]2C=C[C@@H](C(=O)NCCCNC(=O)c3ccc(-c4c5nc(c(-c6cccc(S(=O)(=O)[O-])c6F)c6ccc([nH]6)c(-c6cccc(S(=O)(=O)[O-])c6F)c6nc(c(-c7cccc(S(=O)(=O)[O-])c7F)c7ccc4[nH]7)C=C6)C=C5)cc3)C2)cc1
REMARK SMILES IDX 18 1 17 2 15 3 16 4 14 6 11 7 12 8 87 9 13 10 10 11 7 13
REMARK SMILES IDX 8 14 9 15 6 16 3 17 4 18 89 19 5 20 88 21 2 22 1 23 19 24
REMARK SMILES IDX 20 25 21 26 22 27 23 29 24 30 25 31 86 32 26 33 85 34 27 35
REMARK SMILES IDX 28 36 29 37 79 38 30 39 84 40 78 41 80 42 31 43 83 44 77 45
REMARK SMILES IDX 76 46 32 48 64 49 44 50 63 51 45 52 48 53 62 54 81 55 46 56
REMARK SMILES IDX 47 57 61 59 82 60 49 61 33 62 34 63 42 64 35 65 37 66 43 67
REMARK SMILES IDX 36 68 38 69 39 70 40 71 41 72 65 73 66 74 74 75 67 76 69 77
REMARK SMILES IDX 75 78 68 79 70 80 71 81 72 82 73 83 50 84 51 85 59 86 52 87
REMARK SMILES IDX 54 88 60 89 53 90 55 91 56 92 57 93 58 94
REMARK H PARENT 17 5 10 12 21 28 80 47 48 58
REMARK Flexibility Score: inf
ROOT
ATOM      1  C   UNL A   1      31.778  28.977  24.973  1.00  0.00     0.117 C 
ENDROOT
BRANCH   1   2
ATOM      2  N   UNL A   1      31.271  29.527  23.731  1.00  0.00    -0.356 N 
ATOM      3  C   UNL A   1      30.655  28.926  22.682  1.00  0.00     0.226 C 
ATOM      4  O   UNL A   1      30.273  29.667  21.768  1.00  0.00    -0.274 OA
ATOM      5  H   UNL A   1      31.396  30.498  23.633  1.00  0.00     0.163 HD
BRANCH   3   6
ATOM      6  C   UNL A   1      30.342  27.428  22.621  1.00  0.00     0.103 C 
ATOM      7  C   UNL A   1      31.124  25.156  22.950  1.00  0.00     0.093 C 
ATOM      8  C   UNL A   1      30.291  25.614  24.098  1.00  0.00    -0.011 C 
ATOM      9  C   UNL A   1      31.436  26.442  22.180  1.00  0.00     0.042 C 
ATOM     10  C   UNL A   1      29.874  26.874  23.935  1.00  0.00    -0.016 C 
BRANCH   7  11
ATOM     11  N   UNL A   1      32.223  24.310  23.380  1.00  0.00    -0.204 NA
ATOM     12  H   UNL A   1      32.964  24.966  23.627  1.00  0.00     0.142 HD
BRANCH  11  13
ATOM     13  S   UNL A   1      33.009  23.093  22.553  1.00  0.00     0.241 S 
ATOM     14  O   UNL A   1      33.465  23.618  21.293  1.00  0.00    -0.207 OA
ATOM     15  O   UNL A   1      32.126  21.948  22.619  1.00  0.00    -0.207 OA
BRANCH  13  16
ATOM     16  C   UNL A   1      34.421  22.668  23.539  1.00  0.00     0.082 A 
ATOM     17  C   UNL A   1      36.614  22.079  25.163  1.00  0.00     0.118 A 
ATOM     18  C   UNL A   1      36.771  22.898  24.042  1.00  0.00     0.048 A 
ATOM     19  C   UNL A   1      35.356  21.551  25.465  1.00  0.00     0.048 A 
ATOM     20  C   UNL A   1      35.680  23.182  23.217  1.00  0.00     0.025 A 
ATOM     21  C   UNL A   1      34.263  21.828  24.642  1.00  0.00     0.025 A 
BRANCH  17  22
ATOM     22  O   UNL A   1      37.744  21.881  25.908  1.00  0.00    -0.497 OA
ATOM     23  C   UNL A   1      38.504  23.056  26.173  1.00  0.00     0.278 C 
ENDBRANCH  17  22
ENDBRANCH  13  16
ENDBRANCH  11  13
ENDBRANCH   7  11
ENDBRANCH   3   6
ENDBRANCH   1   2
BRANCH   1  24
ATOM     24  C   UNL A   1      33.207  28.466  24.822  1.00  0.00     0.042 C 
BRANCH  24  25
ATOM     25  C   UNL A   1      34.083  28.748  26.032  1.00  0.00     0.118 C 
BRANCH  25  26
ATOM     26  N   UNL A   1      33.940  30.128  26.490  1.00  0.00    -0.352 N 
ATOM     27  C   UNL A   1      34.597  30.814  27.487  1.00  0.00     0.251 C 
ATOM     28  H   UNL A   1      33.263  30.654  26.007  1.00  0.00     0.163 HD
ATOM     29  O   UNL A   1      34.120  31.874  27.889  1.00  0.00    -0.269 OA
BRANCH  27  30
ATOM     30  C   UNL A   1      35.855  30.299  28.084  1.00  0.00     0.039 A 
ATOM     31  C   UNL A   1      35.824  29.718  29.358  1.00  0.00     0.014 A 
ATOM     32  C   UNL A   1      37.078  30.435  27.429  1.00  0.00     0.014 A 
ATOM     33  C   UNL A   1      37.000  29.216  29.933  1.00  0.00     0.010 A 
ATOM     34  C   UNL A   1      38.223  29.839  27.950  1.00  0.00     0.010 A 
ATOM     35  C   UNL A   1      38.205  29.235  29.216  1.00  0.00    -0.014 A 
BRANCH  35  36
ATOM     36  C   UNL A   1      39.467  28.649  29.748  1.00  0.00     0.031 A 
ATOM     37  C   UNL A   1      40.211  29.347  30.859  1.00  0.00     0.074 A 
ATOM     38  C   UNL A   1      40.020  27.576  29.145  1.00  0.00     0.049 A 
ATOM     39  N   UNL A   1      41.406  29.109  31.334  1.00  0.00    -0.248 NA
ATOM     40  C   UNL A   1      39.538  30.495  31.492  1.00  0.00     0.031 C 
ATOM     41  C   UNL A   1      39.444  26.852  28.010  1.00  0.00     0.029 A 
ATOM     42  N   UNL A   1      41.215  26.938  29.372  1.00  0.00    -0.354 N 
ATOM     43  C   UNL A   1      41.654  30.111  32.267  1.00  0.00     0.074 A 
ATOM     44  C   UNL A   1      40.493  30.973  32.275  1.00  0.00     0.031 C 
ATOM     45  C   UNL A   1      40.289  25.879  27.634  1.00  0.00     0.029 A 
ATOM     46  C   UNL A   1      41.485  25.935  28.469  1.00  0.00     0.049 A 
ATOM     47  H   UNL A   1      41.821  27.175  30.111  1.00  0.00     0.167 HD
ATOM     48  C   UNL A   1      42.736  30.285  33.061  1.00  0.00     0.034 A 
ATOM     49  C   UNL A   1      42.579  25.164  28.311  1.00  0.00     0.034 A 
ATOM     50  C   UNL A   1      43.857  29.385  33.102  1.00  0.00     0.049 A 
ATOM     51  C   UNL A   1      43.741  25.335  29.250  1.00  0.00     0.074 A 
ATOM     52  C   UNL A   1      44.947  29.408  33.954  1.00  0.00     0.029 A 
ATOM     53  N   UNL A   1      44.035  28.305  32.252  1.00  0.00    -0.354 N 
ATOM     54  N   UNL A   1      43.888  26.191  30.232  1.00  0.00    -0.248 NA
ATOM     55  C   UNL A   1      44.874  24.412  29.085  1.00  0.00     0.031 C 
ATOM     56  C   UNL A   1      45.797  28.355  33.602  1.00  0.00     0.029 A 
ATOM     57  C   UNL A   1      45.222  27.658  32.551  1.00  0.00     0.049 A 
ATOM     58  H   UNL A   1      43.410  28.038  31.540  1.00  0.00     0.167 HD
ATOM     59  C   UNL A   1      45.110  25.888  30.823  1.00  0.00     0.074 A 
ATOM     60  C   UNL A   1      45.656  24.759  30.099  1.00  0.00     0.031 C 
ATOM     61  C   UNL A   1      45.727  26.498  31.864  1.00  0.00     0.034 A 
BRANCH  48  62
ATOM     62  C   UNL A   1      42.743  31.469  33.994  1.00  0.00     0.023 A 
ATOM     63  C   UNL A   1      43.294  32.695  33.566  1.00  0.00     0.012 A 
ATOM     64  C   UNL A   1      42.151  31.388  35.271  1.00  0.00     0.148 A 
ATOM     65  C   UNL A   1      43.294  33.807  34.406  1.00  0.00     0.002 A 
ATOM     66  C   UNL A   1      42.113  32.515  36.085  1.00  0.00     0.091 A 
ATOM     67  F   UNL A   1      41.649  30.212  35.670  1.00  0.00    -0.205 F 
ATOM     68  C   UNL A   1      42.695  33.721  35.660  1.00  0.00     0.022 A 
BRANCH  66  69
ATOM     69  S   UNL A   1      41.287  32.529  37.681  1.00  0.00     0.127 S 
ATOM     70  O   UNL A   1      39.958  32.030  37.330  1.00  0.00    -0.237 OA
ATOM     71  O   UNL A   1      42.102  31.595  38.458  1.00  0.00    -0.237 OA
ATOM     72  O   UNL A   1      41.336  33.908  38.145  1.00  0.00    -0.744 OA
ENDBRANCH  66  69
ENDBRANCH  48  62
BRANCH  49  73
ATOM     73  C   UNL A   1      42.599  24.118  27.247  1.00  0.00     0.023 A 
ATOM     74  C   UNL A   1      43.187  24.413  26.002  1.00  0.00     0.012 A 
ATOM     75  C   UNL A   1      42.079  22.828  27.474  1.00  0.00     0.148 A 
ATOM     76  C   UNL A   1      43.232  23.453  24.991  1.00  0.00     0.002 A 
ATOM     77  C   UNL A   1      42.176  21.859  26.480  1.00  0.00     0.091 A 
ATOM     78  F   UNL A   1      41.514  22.570  28.662  1.00  0.00    -0.205 F 
ATOM     79  C   UNL A   1      42.737  22.174  25.233  1.00  0.00     0.022 A 
BRANCH  77  80
ATOM     80  S   UNL A   1      41.677  20.153  26.743  1.00  0.00     0.127 S 
ATOM     81  O   UNL A   1      42.614  19.724  27.778  1.00  0.00    -0.237 OA
ATOM     82  O   UNL A   1      40.293  20.307  27.192  1.00  0.00    -0.237 OA
ATOM     83  O   UNL A   1      41.821  19.496  25.451  1.00  0.00    -0.744 OA
ENDBRANCH  77  80
ENDBRANCH  49  73
BRANCH  61  84
ATOM     84  C   UNL A   1      47.045  25.939  32.332  1.00  0.00     0.023 A 
ATOM     85  C   UNL A   1      48.247  26.415  31.774  1.00  0.00     0.012 A 
ATOM     86  C   UNL A   1      47.091  25.020  33.399  1.00  0.00     0.148 A 
ATOM     87  C   UNL A   1      49.477  25.965  32.256  1.00  0.00     0.002 A 
ATOM     88  C   UNL A   1      48.319  24.614  33.907  1.00  0.00     0.091 A 
ATOM     89  F   UNL A   1      45.934  24.568  33.904  1.00  0.00    -0.205 F 
ATOM     90  C   UNL A   1      49.513  25.078  33.330  1.00  0.00     0.022 A 
BRANCH  88  91
ATOM     91  S   UNL A   1      48.464  23.554  35.351  1.00  0.00     0.127 S 
ATOM     92  O   UNL A   1      47.873  22.309  34.866  1.00  0.00    -0.237 OA
ATOM     93  O   UNL A   1      49.912  23.504  35.554  1.00  0.00    -0.237 OA
ATOM     94  O   UNL A   1      47.727  24.221  36.416  1.00  0.00    -0.744 OA
ENDBRANCH  88  91
ENDBRANCH  61  84
ENDBRANCH  35  36
ENDBRANCH  27  30
ENDBRANCH  25  26
ENDBRANCH  24  25
ENDBRANCH   1  24
TORSDOF 17
ENDMDL
MODEL 2
REMARK VINA RESULT:     -11.6      1.606      2.186
REMARK SMILES COc1ccc(S(=O)(=O)N[C@H]2C=C[C@@H](C(=O)NCCCNC(=O)c3ccc(-c4c5nc(c(-c6cccc(S(=O)(=O)[O-])c6F)c6ccc([nH]6)c(-c6cccc(S(=O)(=O)[O-])c6F)c6nc(c(-c7cccc(S(=O)(=O)[O-])c7F)c7ccc4[nH]7)C=C6)C=C5)cc3)C2)cc1
REMARK SMILES IDX 18 1 17 2 15 3 16 4 14 6 11 7 12 8 87 9 13 10 10 11 7 13
REMARK SMILES IDX 8 14 9 15 6 16 3 17 4 18 89 19 5 20 88 21 2 22 1 23 19 24
REMARK SMILES IDX 20 25 21 26 22 27 23 29 24 30 25 31 86 32 26 33 85 34 27 35
REMARK SMILES IDX 28 36 29 37 79 38 30 39 84 40 78 41 80 42 31 43 83 44 77 45
REMARK SMILES IDX 76 46 32 48 64 49 44 50 63 51 45 52 48 53 62 54 81 55 46 56
REMARK SMILES IDX 47 57 61 59 82 60 49 61 33 62 34 63 42 64 35 65 37 66 43 67
REMARK SMILES IDX 36 68 38 69 39 70 40 71 41 72 65 73 66 74 74 75 67 76 69 77
REMARK SMILES IDX 75 78 68 79 70 80 71 81 72 82 73 83 50 84 51 85 59 86 52 87
REMARK SMILES IDX 54 88 60 89 53 90 55 91 56 92 57 93 58 94
REMARK H PARENT 17 5 10 12 21 28 80 47 48 58
REMARK Flexibility Score: inf
ROOT
ATOM      1  C   UNL A   1      31.769  29.008  24.979  1.00  0.00     0.117 C 
ENDROOT
BRANCH   1   2
ATOM      2  N   UNL A   1      31.209  29.586  23.774  1.00  0.00    -0.356 N 
ATOM      3  C   UNL A   1      30.599  29.003  22.712  1.00  0.00     0.226 C 
ATOM      4  O   UNL A   1      30.162  29.763  21.839  1.00  0.00    -0.274 OA
ATOM      5  H   UNL A   1      31.284  30.566  23.716  1.00  0.00     0.163 HD
BRANCH   3   6
ATOM      6  C   UNL A   1      30.358  27.495  22.590  1.00  0.00     0.103 C 
ATOM      7  C   UNL A   1      31.132  25.249  23.079  1.00  0.00     0.093 C 
ATOM      8  C   UNL A   1      30.062  25.672  24.027  1.00  0.00    -0.011 C 
ATOM      9  C   UNL A   1      31.553  26.550  22.389  1.00  0.00     0.042 C 
ATOM     10  C   UNL A   1      29.645  26.918  23.779  1.00  0.00    -0.016 C 
BRANCH   7  11
ATOM     11  N   UNL A   1      32.146  24.439  23.731  1.00  0.00    -0.204 NA
ATOM     12  H   UNL A   1      32.521  25.045  24.461  1.00  0.00     0.142 HD
BRANCH  11  13
ATOM     13  S   UNL A   1      33.491  23.699  23.078  1.00  0.00     0.241 S 
ATOM     14  O   UNL A   1      34.666  24.311  23.637  1.00  0.00    -0.207 OA
ATOM     15  O   UNL A   1      33.260  23.671  21.650  1.00  0.00    -0.207 OA
BRANCH  13  16
ATOM     16  C   UNL A   1      33.420  22.008  23.609  1.00  0.00     0.082 A 
ATOM     17  C   UNL A   1      33.385  19.321  24.366  1.00  0.00     0.118 A 
ATOM     18  C   UNL A   1      32.415  19.815  23.490  1.00  0.00     0.048 A 
ATOM     19  C   UNL A   1      34.370  20.178  24.866  1.00  0.00     0.048 A 
ATOM     20  C   UNL A   1      32.419  21.163  23.122  1.00  0.00     0.025 A 
ATOM     21  C   UNL A   1      34.376  21.526  24.504  1.00  0.00     0.025 A 
BRANCH  17  22
ATOM     22  O   UNL A   1      33.297  17.984  24.645  1.00  0.00    -0.497 OA
ATOM     23  C   UNL A   1      32.676  17.668  25.886  1.00  0.00     0.278 C 
ENDBRANCH  17  22
ENDBRANCH  13  16
ENDBRANCH  11  13
ENDBRANCH   7  11
ENDBRANCH   3   6
ENDBRANCH   1   2
BRANCH   1  24
ATOM     24  C   UNL A   1      33.251  28.689  24.815  1.00  0.00     0.042 C 
BRANCH  24  25
ATOM     25  C   UNL A   1      34.065  28.923  26.078  1.00  0.00     0.118 C 
BRANCH  25  26
ATOM     26  N   UNL A   1      33.914  30.290  26.570  1.00  0.00    -0.352 N 
ATOM     27  C   UNL A   1      34.562  30.953  27.588  1.00  0.00     0.251 C 
ATOM     28  H   UNL A   1      33.237  30.825  26.097  1.00  0.00     0.163 HD
ATOM     29  O   UNL A   1      34.078  32.000  28.015  1.00  0.00    -0.269 OA
BRANCH  27  30
ATOM     30  C   UNL A   1      35.819  30.429  28.178  1.00  0.00     0.039 A 
ATOM     31  C   UNL A   1      35.768  29.709  29.379  1.00  0.00     0.014 A 
ATOM     32  C   UNL A   1      37.058  30.688  27.594  1.00  0.00     0.014 A 
ATOM     33  C   UNL A   1      36.943  29.196  29.945  1.00  0.00     0.010 A 
ATOM     34  C   UNL A   1      38.210  30.087  28.095  1.00  0.00     0.010 A 
ATOM     35  C   UNL A   1      38.173  29.346  29.286  1.00  0.00    -0.014 A 
BRANCH  35  36
ATOM     36  C   UNL A   1      39.440  28.759  29.803  1.00  0.00     0.031 A 
ATOM     37  C   UNL A   1      40.193  29.452  30.913  1.00  0.00     0.074 A 
ATOM     38  C   UNL A   1      39.989  27.691  29.190  1.00  0.00     0.049 A 
ATOM     39  N   UNL A   1      41.392  29.212  31.376  1.00  0.00    -0.248 NA
ATOM     40  C   UNL A   1      39.523  30.594  31.558  1.00  0.00     0.031 C 
ATOM     41  C   UNL A   1      39.404  26.972  28.055  1.00  0.00     0.029 A 
ATOM     42  N   UNL A   1      41.187  27.053  29.403  1.00  0.00    -0.354 N 
ATOM     43  C   UNL A   1      41.646  30.208  32.313  1.00  0.00     0.074 A 
ATOM     44  C   UNL A   1      40.484  31.069  32.336  1.00  0.00     0.031 C 
ATOM     45  C   UNL A   1      40.248  26.003  27.667  1.00  0.00     0.029 A 
ATOM     46  C   UNL A   1      41.450  26.055  28.492  1.00  0.00     0.049 A 
ATOM     47  H   UNL A   1      41.799  27.286  30.138  1.00  0.00     0.167 HD
ATOM     48  C   UNL A   1      42.734  30.380  33.099  1.00  0.00     0.034 A 
ATOM     49  C   UNL A   1      42.544  25.286  28.320  1.00  0.00     0.034 A 
ATOM     50  C   UNL A   1      43.857  29.481  33.125  1.00  0.00     0.049 A 
ATOM     51  C   UNL A   1      43.714  25.453  29.250  1.00  0.00     0.074 A 
ATOM     52  C   UNL A   1      44.954  29.500  33.968  1.00  0.00     0.029 A 
ATOM     53  N   UNL A   1      44.029  28.406  32.267  1.00  0.00    -0.354 N 
ATOM     54  N   UNL A   1      43.868  26.304  30.235  1.00  0.00    -0.248 NA
ATOM     55  C   UNL A   1      44.847  24.533  29.070  1.00  0.00     0.031 C 
ATOM     56  C   UNL A   1      45.802  28.451  33.603  1.00  0.00     0.029 A 
ATOM     57  C   UNL A   1      45.219  27.760  32.553  1.00  0.00     0.049 A 
ATOM     58  H   UNL A   1      43.398  28.143  31.559  1.00  0.00     0.167 HD
ATOM     59  C   UNL A   1      45.095  26.000  30.815  1.00  0.00     0.074 A 
ATOM     60  C   UNL A   1      45.636  24.876  30.080  1.00  0.00     0.031 C 
ATOM     61  C   UNL A   1      45.720  26.604  31.854  1.00  0.00     0.034 A 
BRANCH  48  62
ATOM     62  C   UNL A   1      42.748  31.558  34.039  1.00  0.00     0.023 A 
ATOM     63  C   UNL A   1      43.222  32.808  33.589  1.00  0.00     0.012 A 
ATOM     64  C   UNL A   1      42.235  31.446  35.347  1.00  0.00     0.148 A 
ATOM     65  C   UNL A   1      43.227  33.915  34.436  1.00  0.00     0.002 A 
ATOM     66  C   UNL A   1      42.198  32.566  36.171  1.00  0.00     0.091 A 
ATOM     67  F   UNL A   1      41.805  30.248  35.766  1.00  0.00    -0.205 F 
ATOM     68  C   UNL A   1      42.705  33.797  35.722  1.00  0.00     0.022 A 
BRANCH  66  69
ATOM     69  S   UNL A   1      41.467  32.538  37.812  1.00  0.00     0.127 S 
ATOM     70  O   UNL A   1      41.652  33.924  38.241  1.00  0.00    -0.237 OA
ATOM     71  O   UNL A   1      40.080  32.170  37.526  1.00  0.00    -0.237 OA
ATOM     72  O   UNL A   1      42.215  31.544  38.567  1.00  0.00    -0.744 OA
ENDBRANCH  66  69
ENDBRANCH  48  62
BRANCH  49  73
ATOM     73  C   UNL A   1      42.556  24.247  27.249  1.00  0.00     0.023 A 
ATOM     74  C   UNL A   1      43.199  24.524  26.027  1.00  0.00     0.012 A 
ATOM     75  C   UNL A   1      41.976  22.979  27.449  1.00  0.00     0.148 A 
ATOM     76  C   UNL A   1      43.239  23.569  25.012  1.00  0.00     0.002 A 
ATOM     77  C   UNL A   1      42.065  22.013  26.452  1.00  0.00     0.091 A 
ATOM     78  F   UNL A   1      41.359  22.738  28.615  1.00  0.00    -0.205 F 
ATOM     79  C   UNL A   1      42.682  22.311  25.228  1.00  0.00     0.022 A 
BRANCH  77  80
ATOM     80  S   UNL A   1      41.487  20.327  26.685  1.00  0.00     0.127 S 
ATOM     81  O   UNL A   1      40.048  20.524  26.840  1.00  0.00    -0.237 OA
ATOM     82  O   UNL A   1      41.889  19.694  25.429  1.00  0.00    -0.237 OA
ATOM     83  O   UNL A   1      42.186  19.828  27.861  1.00  0.00    -0.744 OA
ENDBRANCH  77  80
ENDBRANCH  49  73
BRANCH  61  84
ATOM     84  C   UNL A   1      47.043  26.044  32.308  1.00  0.00     0.023 A 
ATOM     85  C   UNL A   1      47.090  25.138  33.385  1.00  0.00     0.012 A 
ATOM     86  C   UNL A   1      48.223  26.339  31.597  1.00  0.00     0.148 A 
ATOM     87  C   UNL A   1      48.298  24.550  33.761  1.00  0.00     0.002 A 
ATOM     88  C   UNL A   1      49.413  25.713  31.946  1.00  0.00     0.091 A 
ATOM     89  F   UNL A   1      48.157  27.218  30.586  1.00  0.00    -0.205 F 
ATOM     90  C   UNL A   1      49.455  24.826  33.034  1.00  0.00     0.022 A 
BRANCH  88  91
ATOM     91  S   UNL A   1      50.929  25.929  31.007  1.00  0.00     0.127 S 
ATOM     92  O   UNL A   1      51.174  27.361  31.161  1.00  0.00    -0.237 OA
ATOM     93  O   UNL A   1      51.866  25.068  31.729  1.00  0.00    -0.237 OA
ATOM     94  O   UNL A   1      50.629  25.490  29.650  1.00  0.00    -0.744 OA
ENDBRANCH  88  91
ENDBRANCH  61  84
ENDBRANCH  35  36
ENDBRANCH  27  30
ENDBRANCH  25  26
ENDBRANCH  24  25
ENDBRANCH   1  24
TORSDOF 17
ENDMDL
MODEL 3
REMARK VINA RESULT:     -11.6      3.423      8.711
REMARK SMILES COc1ccc(S(=O)(=O)N[C@H]2C=C[C@@H](C(=O)NCCCNC(=O)c3ccc(-c4c5nc(c(-c6cccc(S(=O)(=O)[O-])c6F)c6ccc([nH]6)c(-c6cccc(S(=O)(=O)[O-])c6F)c6nc(c(-c7cccc(S(=O)(=O)[O-])c7F)c7ccc4[nH]7)C=C6)C=C5)cc3)C2)cc1
REMARK SMILES IDX 18 1 17 2 15 3 16 4 14 6 11 7 12 8 87 9 13 10 10 11 7 13
REMARK SMILES IDX 8 14 9 15 6 16 3 17 4 18 89 19 5 20 88 21 2 22 1 23 19 24
REMARK SMILES IDX 20 25 21 26 22 27 23 29 24 30 25 31 86 32 26 33 85 34 27 35
REMARK SMILES IDX 28 36 29 37 79 38 30 39 84 40 78 41 80 42 31 43 83 44 77 45
REMARK SMILES IDX 76 46 32 48 64 49 44 50 63 51 45 52 48 53 62 54 81 55 46 56
REMARK SMILES IDX 47 57 61 59 82 60 49 61 33 62 34 63 42 64 35 65 37 66 43 67
REMARK SMILES IDX 36 68 38 69 39 70 40 71 41 72 65 73 66 74 74 75 67 76 69 77
REMARK SMILES IDX 75 78 68 79 70 80 71 81 72 82 73 83 50 84 51 85 59 86 52 87
REMARK SMILES IDX 54 88 60 89 53 90 55 91 56 92 57 93 58 94
REMARK H PARENT 17 5 10 12 21 28 80 47 48 58
REMARK Flexibility Score: inf
ROOT
ATOM      1  C   UNL A   1      31.498  30.479  26.681  1.00  0.00     0.117 C 
ENDROOT
BRANCH   1   2
ATOM      2  N   UNL A   1      32.755  29.921  27.142  1.00  0.00    -0.356 N 
ATOM      3  C   UNL A   1      33.375  28.757  26.828  1.00  0.00     0.226 C 
ATOM      4  O   UNL A   1      34.485  28.566  27.339  1.00  0.00    -0.274 OA
ATOM      5  H   UNL A   1      33.238  30.481  27.791  1.00  0.00     0.163 HD
BRANCH   3   6
ATOM      6  C   UNL A   1      32.819  27.737  25.830  1.00  0.00     0.103 C 
ATOM      7  C   UNL A   1      32.889  25.474  24.957  1.00  0.00     0.093 C 
ATOM      8  C   UNL A   1      31.751  25.655  25.903  1.00  0.00    -0.011 C 
ATOM      9  C   UNL A   1      33.765  26.708  25.189  1.00  0.00     0.042 C 
ATOM     10  C   UNL A   1      31.718  26.894  26.407  1.00  0.00    -0.016 C 
BRANCH   7  11
ATOM     11  N   UNL A   1      33.486  24.156  25.072  1.00  0.00    -0.204 NA
ATOM     12  H   UNL A   1      34.101  24.229  25.883  1.00  0.00     0.142 HD
BRANCH  11  13
ATOM     13  S   UNL A   1      34.377  23.296  23.955  1.00  0.00     0.241 S 
ATOM     14  O   UNL A   1      34.635  24.147  22.824  1.00  0.00    -0.207 OA
ATOM     15  O   UNL A   1      33.693  22.029  23.808  1.00  0.00    -0.207 OA
BRANCH  13  16
ATOM     16  C   UNL A   1      35.919  22.919  24.749  1.00  0.00     0.082 A 
ATOM     17  C   UNL A   1      38.396  22.374  25.913  1.00  0.00     0.118 A 
ATOM     18  C   UNL A   1      37.743  21.393  25.163  1.00  0.00     0.048 A 
ATOM     19  C   UNL A   1      37.802  23.628  26.083  1.00  0.00     0.048 A 
ATOM     20  C   UNL A   1      36.496  21.656  24.593  1.00  0.00     0.025 A 
ATOM     21  C   UNL A   1      36.554  23.894  25.519  1.00  0.00     0.025 A 
BRANCH  17  22
ATOM     22  O   UNL A   1      39.620  22.015  26.410  1.00  0.00    -0.497 OA
ATOM     23  C   UNL A   1      40.026  20.684  26.108  1.00  0.00     0.278 C 
ENDBRANCH  17  22
ENDBRANCH  13  16
ENDBRANCH  11  13
ENDBRANCH   7  11
ENDBRANCH   3   6
ENDBRANCH   1   2
BRANCH   1  24
ATOM     24  C   UNL A   1      31.529  32.003  26.667  1.00  0.00     0.042 C 
BRANCH  24  25
ATOM     25  C   UNL A   1      32.794  32.590  27.274  1.00  0.00     0.118 C 
BRANCH  25  26
ATOM     26  N   UNL A   1      32.610  33.987  27.659  1.00  0.00    -0.352 N 
ATOM     27  C   UNL A   1      33.170  34.715  28.684  1.00  0.00     0.251 C 
ATOM     28  H   UNL A   1      31.982  34.490  27.092  1.00  0.00     0.163 HD
ATOM     29  O   UNL A   1      32.657  35.789  28.996  1.00  0.00    -0.269 OA
BRANCH  27  30
ATOM     30  C   UNL A   1      34.364  34.229  29.419  1.00  0.00     0.039 A 
ATOM     31  C   UNL A   1      34.194  33.489  30.596  1.00  0.00     0.014 A 
ATOM     32  C   UNL A   1      35.655  34.544  28.994  1.00  0.00     0.014 A 
ATOM     33  C   UNL A   1      35.312  33.012  31.296  1.00  0.00     0.010 A 
ATOM     34  C   UNL A   1      36.759  33.979  29.627  1.00  0.00     0.010 A 
ATOM     35  C   UNL A   1      36.605  33.219  30.795  1.00  0.00    -0.014 A 
BRANCH  35  36
ATOM     36  C   UNL A   1      37.822  32.672  31.458  1.00  0.00     0.031 A 
ATOM     37  C   UNL A   1      38.570  31.523  30.828  1.00  0.00     0.074 A 
ATOM     38  C   UNL A   1      38.174  33.104  32.686  1.00  0.00     0.049 A 
ATOM     39  N   UNL A   1      39.531  30.788  31.324  1.00  0.00    -0.248 NA
ATOM     40  C   UNL A   1      38.152  31.119  29.474  1.00  0.00     0.031 C 
ATOM     41  C   UNL A   1      37.490  34.155  33.442  1.00  0.00     0.029 A 
ATOM     42  N   UNL A   1      39.166  32.678  33.536  1.00  0.00    -0.354 N 
ATOM     43  C   UNL A   1      39.783  29.799  30.379  1.00  0.00     0.074 A 
ATOM     44  C   UNL A   1      38.859  30.016  29.287  1.00  0.00     0.031 C 
ATOM     45  C   UNL A   1      38.074  34.283  34.644  1.00  0.00     0.029 A 
ATOM     46  C   UNL A   1      39.144  33.298  34.764  1.00  0.00     0.049 A 
ATOM     47  H   UNL A   1      39.830  31.994  33.289  1.00  0.00     0.167 HD
ATOM     48  C   UNL A   1      40.714  28.816  30.403  1.00  0.00     0.034 A 
ATOM     49  C   UNL A   1      39.881  33.084  35.872  1.00  0.00     0.034 A 
ATOM     50  C   UNL A   1      41.678  28.648  31.457  1.00  0.00     0.049 A 
ATOM     51  C   UNL A   1      40.953  32.029  35.849  1.00  0.00     0.074 A 
ATOM     52  C   UNL A   1      42.736  27.758  31.519  1.00  0.00     0.029 A 
ATOM     53  N   UNL A   1      41.701  29.380  32.633  1.00  0.00    -0.354 N 
ATOM     54  N   UNL A   1      41.279  31.206  34.882  1.00  0.00    -0.248 NA
ATOM     55  C   UNL A   1      41.782  31.893  37.057  1.00  0.00     0.031 C 
ATOM     56  C   UNL A   1      43.383  27.935  32.746  1.00  0.00     0.029 A 
ATOM     57  C   UNL A   1      42.747  28.957  33.433  1.00  0.00     0.049 A 
ATOM     58  H   UNL A   1      41.064  30.095  32.865  1.00  0.00     0.167 HD
ATOM     59  C   UNL A   1      42.372  30.483  35.347  1.00  0.00     0.074 A 
ATOM     60  C   UNL A   1      42.662  30.974  36.678  1.00  0.00     0.031 C 
ATOM     61  C   UNL A   1      43.064  29.494  34.731  1.00  0.00     0.034 A 
BRANCH  48  62
ATOM     62  C   UNL A   1      40.772  27.870  29.230  1.00  0.00     0.023 A 
ATOM     63  C   UNL A   1      39.915  26.751  29.190  1.00  0.00     0.012 A 
ATOM     64  C   UNL A   1      41.630  28.121  28.140  1.00  0.00     0.148 A 
ATOM     65  C   UNL A   1      39.939  25.874  28.107  1.00  0.00     0.002 A 
ATOM     66  C   UNL A   1      41.615  27.268  27.042  1.00  0.00     0.091 A 
ATOM     67  F   UNL A   1      42.451  29.178  28.202  1.00  0.00    -0.205 F 
ATOM     68  C   UNL A   1      40.780  26.138  27.029  1.00  0.00     0.022 A 
BRANCH  66  69
ATOM     69  S   UNL A   1      42.597  27.570  25.568  1.00  0.00     0.127 S 
ATOM     70  O   UNL A   1      43.952  27.590  26.116  1.00  0.00    -0.237 OA
ATOM     71  O   UNL A   1      42.291  26.397  24.747  1.00  0.00    -0.237 OA
ATOM     72  O   UNL A   1      42.123  28.833  25.022  1.00  0.00    -0.744 OA
ENDBRANCH  66  69
ENDBRANCH  48  62
BRANCH  49  73
ATOM     73  C   UNL A   1      39.662  33.930  37.081  1.00  0.00     0.023 A 
ATOM     74  C   UNL A   1      40.041  35.286  37.051  1.00  0.00     0.012 A 
ATOM     75  C   UNL A   1      39.048  33.413  38.239  1.00  0.00     0.148 A 
ATOM     76  C   UNL A   1      39.838  36.106  38.161  1.00  0.00     0.002 A 
ATOM     77  C   UNL A   1      38.800  34.250  39.322  1.00  0.00     0.091 A 
ATOM     78  F   UNL A   1      38.704  32.117  38.252  1.00  0.00    -0.205 F 
ATOM     79  C   UNL A   1      39.209  35.592  39.291  1.00  0.00     0.022 A 
BRANCH  77  80
ATOM     80  S   UNL A   1      37.886  33.709  40.772  1.00  0.00     0.127 S 
ATOM     81  O   UNL A   1      38.753  32.657  41.297  1.00  0.00    -0.237 OA
ATOM     82  O   UNL A   1      37.847  34.930  41.578  1.00  0.00    -0.237 OA
ATOM     83  O   UNL A   1      36.588  33.270  40.281  1.00  0.00    -0.744 OA
ENDBRANCH  77  80
ENDBRANCH  49  73
BRANCH  61  84
ATOM     84  C   UNL A   1      44.241  28.896  35.456  1.00  0.00     0.023 A 
ATOM     85  C   UNL A   1      45.513  29.489  35.340  1.00  0.00     0.012 A 
ATOM     86  C   UNL A   1      44.060  27.808  36.334  1.00  0.00     0.148 A 
ATOM     87  C   UNL A   1      46.593  28.994  36.071  1.00  0.00     0.002 A 
ATOM     88  C   UNL A   1      45.130  27.351  37.094  1.00  0.00     0.091 A 
ATOM     89  F   UNL A   1      42.845  27.248  36.415  1.00  0.00    -0.205 F 
ATOM     90  C   UNL A   1      46.399  27.936  36.957  1.00  0.00     0.022 A 
BRANCH  88  91
ATOM     91  S   UNL A   1      44.951  26.063  38.334  1.00  0.00     0.127 S 
ATOM     92  O   UNL A   1      46.317  25.946  38.840  1.00  0.00    -0.237 OA
ATOM     93  O   UNL A   1      44.002  26.664  39.271  1.00  0.00    -0.237 OA
ATOM     94  O   UNL A   1      44.445  24.892  37.629  1.00  0.00    -0.744 OA
ENDBRANCH  88  91
ENDBRANCH  61  84
ENDBRANCH  35  36
ENDBRANCH  27  30
ENDBRANCH  25  26
ENDBRANCH  24  25
ENDBRANCH   1  24
TORSDOF 17
ENDMDL
