MODEL 1
REMARK VINA RESULT:     -12.3      0.000      0.000
REMARK SMILES C[C@@H]1OCC[C@H]1C(=O)N[C@]1(C(=O)NCCCNC(=O)c2ccc(-c3c4nc(c(-c5cccc(S(=O)(=O)[O-])c5F)c5ccc([nH]5)c(-c5cccc(S(=O)(=O)[O-])c5F)c5nc(c(-c6cccc(S(=O)(=O)[O-])c6F)c6ccc3[nH]6)C=C5)C=C4)cc2)CCOC1
REMARK SMILES IDX 15 1 14 2 13 3 11 4 12 5 10 7 83 8 86 9 84 10 85 11 9 12
REMARK SMILES IDX 7 13 8 14 6 16 1 17 2 18 3 19 4 20 5 21 16 22 17 23 18 24
REMARK SMILES IDX 19 26 20 27 21 28 82 29 22 30 81 31 23 32 24 33 25 34 75 35
REMARK SMILES IDX 26 36 80 37 74 38 76 39 27 40 79 41 73 42 72 43 28 45 60 46
REMARK SMILES IDX 40 47 59 48 41 49 44 50 58 51 77 52 42 53 43 54 57 56 78 57
REMARK SMILES IDX 45 58 29 59 30 60 38 61 31 62 33 63 39 64 32 65 34 66 35 67
REMARK SMILES IDX 36 68 37 69 61 70 62 71 70 72 63 73 65 74 71 75 64 76 66 77
REMARK SMILES IDX 67 78 68 79 69 80 46 81 47 82 55 83 48 84 50 85 56 86 49 87
REMARK SMILES IDX 51 88 52 89 53 90 54 91
REMARK H PARENT 13 6 9 15 17 25 76 44 44 55
REMARK Flexibility Score: inf
ROOT
ATOM      1  C   UNL A   1      35.800  21.254  25.444  1.00  0.00     0.042 C 
ENDROOT
BRANCH   1   2
ATOM      2  C   UNL A   1      34.613  21.650  24.574  1.00  0.00     0.117 C 
BRANCH   2   3
ATOM      3  N   UNL A   1      34.574  23.074  24.284  1.00  0.00    -0.354 N 
ATOM      4  C   UNL A   1      34.098  24.035  25.124  1.00  0.00     0.248 C 
ATOM      5  O   UNL A   1      34.909  24.849  25.577  1.00  0.00    -0.272 OA
ATOM      6  H   UNL A   1      34.920  23.368  23.411  1.00  0.00     0.163 HD
BRANCH   4   7
ATOM      7  C   UNL A   1      32.605  24.102  25.501  1.00  0.00     0.144 C 
ATOM      8  C   UNL A   1      31.596  23.187  24.825  1.00  0.00     0.069 C 
ATOM      9  C   UNL A   1      32.624  23.554  26.948  1.00  0.00     0.198 C 
ATOM     10  C   UNL A   1      30.748  22.620  25.953  1.00  0.00     0.163 C 
ATOM     11  O   UNL A   1      31.376  22.906  27.200  1.00  0.00    -0.378 OA
BRANCH   7  12
ATOM     12  N   UNL A   1      32.033  25.490  25.548  1.00  0.00    -0.339 N 
ATOM     13  C   UNL A   1      31.556  26.402  24.675  1.00  0.00     0.226 C 
ATOM     14  O   UNL A   1      30.634  27.101  25.129  1.00  0.00    -0.275 OA
ATOM     15  H   UNL A   1      31.994  25.828  26.472  1.00  0.00     0.164 HD
BRANCH  13  16
ATOM     16  C   UNL A   1      32.017  26.699  23.249  1.00  0.00     0.109 C 
ATOM     17  C   UNL A   1      33.887  28.044  22.165  1.00  0.00     0.039 C 
ATOM     18  C   UNL A   1      33.502  26.821  22.994  1.00  0.00     0.127 C 
ATOM     19  O   UNL A   1      33.901  25.656  22.250  1.00  0.00    -0.378 OA
ATOM     20  C   UNL A   1      32.739  24.923  21.846  1.00  0.00     0.161 C 
ATOM     21  C   UNL A   1      31.524  25.745  22.192  1.00  0.00     0.044 C 
ENDBRANCH  13  16
ENDBRANCH   7  12
ENDBRANCH   4   7
ENDBRANCH   2   3
ENDBRANCH   1   2
BRANCH   1  22
ATOM     22  C   UNL A   1      37.151  21.290  24.733  1.00  0.00     0.118 C 
BRANCH  22  23
ATOM     23  N   UNL A   1      38.049  20.224  25.158  1.00  0.00    -0.352 N 
ATOM     24  C   UNL A   1      39.293  20.271  25.736  1.00  0.00     0.251 C 
ATOM     25  H   UNL A   1      37.703  19.314  25.004  1.00  0.00     0.163 HD
ATOM     26  O   UNL A   1      39.949  19.238  25.835  1.00  0.00    -0.269 OA
BRANCH  24  27
ATOM     27  C   UNL A   1      39.859  21.551  26.216  1.00  0.00     0.039 A 
ATOM     28  C   UNL A   1      41.162  21.562  26.723  1.00  0.00     0.014 A 
ATOM     29  C   UNL A   1      39.109  22.728  26.201  1.00  0.00     0.014 A 
ATOM     30  C   UNL A   1      41.735  22.766  27.141  1.00  0.00     0.010 A 
ATOM     31  C   UNL A   1      39.709  23.939  26.536  1.00  0.00     0.010 A 
ATOM     32  C   UNL A   1      41.029  23.973  27.011  1.00  0.00    -0.014 A 
BRANCH  32  33
ATOM     33  C   UNL A   1      41.657  25.279  27.346  1.00  0.00     0.031 A 
ATOM     34  C   UNL A   1      40.883  26.327  28.101  1.00  0.00     0.074 A 
ATOM     35  C   UNL A   1      42.894  25.558  26.888  1.00  0.00     0.049 A 
ATOM     36  N   UNL A   1      41.239  27.545  28.417  1.00  0.00    -0.248 NA
ATOM     37  C   UNL A   1      39.521  25.971  28.533  1.00  0.00     0.031 C 
ATOM     38  C   UNL A   1      43.718  24.659  26.077  1.00  0.00     0.029 A 
ATOM     39  N   UNL A   1      43.663  26.688  27.013  1.00  0.00    -0.354 N 
ATOM     40  C   UNL A   1      40.137  28.114  29.046  1.00  0.00     0.074 A 
ATOM     41  C   UNL A   1      39.088  27.118  29.040  1.00  0.00     0.031 C 
ATOM     42  C   UNL A   1      44.877  25.269  25.782  1.00  0.00     0.029 A 
ATOM     43  C   UNL A   1      44.866  26.613  26.349  1.00  0.00     0.049 A 
ATOM     44  H   UNL A   1      43.382  27.477  27.530  1.00  0.00     0.167 HD
ATOM     45  C   UNL A   1      40.018  29.342  29.607  1.00  0.00     0.034 A 
ATOM     46  C   UNL A   1      45.847  27.526  26.203  1.00  0.00     0.034 A 
ATOM     47  C   UNL A   1      41.077  30.313  29.653  1.00  0.00     0.049 A 
ATOM     48  C   UNL A   1      45.703  28.867  26.869  1.00  0.00     0.074 A 
ATOM     49  C   UNL A   1      41.083  31.548  30.278  1.00  0.00     0.029 A 
ATOM     50  N   UNL A   1      42.313  30.167  29.047  1.00  0.00    -0.354 N 
ATOM     51  N   UNL A   1      44.714  29.325  27.596  1.00  0.00    -0.248 NA
ATOM     52  C   UNL A   1      46.826  29.805  26.724  1.00  0.00     0.031 C 
ATOM     53  C   UNL A   1      42.315  32.159  30.026  1.00  0.00     0.029 A 
ATOM     54  C   UNL A   1      43.089  31.292  29.272  1.00  0.00     0.049 A 
ATOM     55  H   UNL A   1      42.601  29.378  28.532  1.00  0.00     0.167 HD
ATOM     56  C   UNL A   1      45.110  30.586  28.027  1.00  0.00     0.074 A 
ATOM     57  C   UNL A   1      46.438  30.811  27.496  1.00  0.00     0.031 C 
ATOM     58  C   UNL A   1      44.430  31.483  28.783  1.00  0.00     0.034 A 
BRANCH  45  59
ATOM     59  C   UNL A   1      38.705  29.689  30.263  1.00  0.00     0.023 A 
ATOM     60  C   UNL A   1      38.438  29.231  31.569  1.00  0.00     0.012 A 
ATOM     61  C   UNL A   1      37.769  30.519  29.617  1.00  0.00     0.148 A 
ATOM     62  C   UNL A   1      37.244  29.563  32.209  1.00  0.00     0.002 A 
ATOM     63  C   UNL A   1      36.602  30.885  30.279  1.00  0.00     0.091 A 
ATOM     64  F   UNL A   1      38.031  30.930  28.368  1.00  0.00    -0.205 F 
ATOM     65  C   UNL A   1      36.333  30.399  31.568  1.00  0.00     0.022 A 
BRANCH  63  66
ATOM     66  S   UNL A   1      35.402  32.020  29.574  1.00  0.00     0.127 S 
ATOM     67  O   UNL A   1      36.261  33.109  29.113  1.00  0.00    -0.237 OA
ATOM     68  O   UNL A   1      34.810  31.217  28.504  1.00  0.00    -0.237 OA
ATOM     69  O   UNL A   1      34.487  32.361  30.656  1.00  0.00    -0.744 OA
ENDBRANCH  63  66
ENDBRANCH  45  59
BRANCH  46  70
ATOM     70  C   UNL A   1      47.079  27.180  25.439  1.00  0.00     0.023 A 
ATOM     71  C   UNL A   1      48.074  26.393  26.051  1.00  0.00     0.012 A 
ATOM     72  C   UNL A   1      47.262  27.604  24.108  1.00  0.00     0.148 A 
ATOM     73  C   UNL A   1      49.244  26.064  25.365  1.00  0.00     0.002 A 
ATOM     74  C   UNL A   1      48.403  27.225  23.412  1.00  0.00     0.091 A 
ATOM     75  F   UNL A   1      46.309  28.361  23.547  1.00  0.00    -0.205 F 
ATOM     76  C   UNL A   1      49.404  26.471  24.044  1.00  0.00     0.022 A 
BRANCH  74  77
ATOM     77  S   UNL A   1      48.628  27.589  21.667  1.00  0.00     0.127 S 
ATOM     78  O   UNL A   1      49.568  28.706  21.713  1.00  0.00    -0.237 OA
ATOM     79  O   UNL A   1      49.188  26.332  21.166  1.00  0.00    -0.237 OA
ATOM     80  O   UNL A   1      47.300  27.897  21.155  1.00  0.00    -0.744 OA
ENDBRANCH  74  77
ENDBRANCH  46  70
BRANCH  58  81
ATOM     81  C   UNL A   1      45.119  32.779  29.123  1.00  0.00     0.023 A 
ATOM     82  C   UNL A   1      45.929  32.864  30.272  1.00  0.00     0.012 A 
ATOM     83  C   UNL A   1      45.023  33.889  28.260  1.00  0.00     0.148 A 
ATOM     84  C   UNL A   1      46.606  34.046  30.575  1.00  0.00     0.002 A 
ATOM     85  C   UNL A   1      45.740  35.044  28.542  1.00  0.00     0.091 A 
ATOM     86  F   UNL A   1      44.232  33.793  27.181  1.00  0.00    -0.205 F 
ATOM     87  C   UNL A   1      46.521  35.130  29.705  1.00  0.00     0.022 A 
BRANCH  85  88
ATOM     88  S   UNL A   1      45.769  36.455  27.428  1.00  0.00     0.127 S 
ATOM     89  O   UNL A   1      46.442  35.896  26.257  1.00  0.00    -0.237 OA
ATOM     90  O   UNL A   1      44.344  36.730  27.240  1.00  0.00    -0.237 OA
ATOM     91  O   UNL A   1      46.499  37.504  28.128  1.00  0.00    -0.744 OA
ENDBRANCH  85  88
ENDBRANCH  58  81
ENDBRANCH  32  33
ENDBRANCH  24  27
ENDBRANCH  22  23
ENDBRANCH   1  22
TORSDOF 15
ENDMDL
MODEL 2
REMARK VINA RESULT:     -12.2      5.931     10.087
REMARK SMILES C[C@@H]1OCC[C@H]1C(=O)N[C@]1(C(=O)NCCCNC(=O)c2ccc(-c3c4nc(c(-c5cccc(S(=O)(=O)[O-])c5F)c5ccc([nH]5)c(-c5cccc(S(=O)(=O)[O-])c5F)c5nc(c(-c6cccc(S(=O)(=O)[O-])c6F)c6ccc3[nH]6)C=C5)C=C4)cc2)CCOC1
REMARK SMILES IDX 15 1 14 2 13 3 11 4 12 5 10 7 83 8 86 9 84 10 85 11 9 12
REMARK SMILES IDX 7 13 8 14 6 16 1 17 2 18 3 19 4 20 5 21 16 22 17 23 18 24
REMARK SMILES IDX 19 26 20 27 21 28 82 29 22 30 81 31 23 32 24 33 25 34 75 35
REMARK SMILES IDX 26 36 80 37 74 38 76 39 27 40 79 41 73 42 72 43 28 45 60 46
REMARK SMILES IDX 40 47 59 48 41 49 44 50 58 51 77 52 42 53 43 54 57 56 78 57
REMARK SMILES IDX 45 58 29 59 30 60 38 61 31 62 33 63 39 64 32 65 34 66 35 67
REMARK SMILES IDX 36 68 37 69 61 70 62 71 70 72 63 73 65 74 71 75 64 76 66 77
REMARK SMILES IDX 67 78 68 79 69 80 46 81 47 82 55 83 48 84 50 85 56 86 49 87
REMARK SMILES IDX 51 88 52 89 53 90 54 91
REMARK H PARENT 13 6 9 15 17 25 76 44 44 55
REMARK Flexibility Score: inf
ROOT
ATOM      1  C   UNL A   1      35.518  33.362  29.514  1.00  0.00     0.042 C 
ENDROOT
BRANCH   1   2
ATOM      2  C   UNL A   1      34.406  32.701  30.321  1.00  0.00     0.117 C 
BRANCH   2   3
ATOM      3  N   UNL A   1      34.648  32.736  31.754  1.00  0.00    -0.354 N 
ATOM      4  C   UNL A   1      34.166  33.680  32.610  1.00  0.00     0.248 C 
ATOM      5  O   UNL A   1      33.341  33.316  33.454  1.00  0.00    -0.272 OA
ATOM      6  H   UNL A   1      35.205  32.021  32.137  1.00  0.00     0.163 HD
BRANCH   4   7
ATOM      7  C   UNL A   1      34.627  35.148  32.528  1.00  0.00     0.144 C 
ATOM      8  C   UNL A   1      33.853  36.155  31.690  1.00  0.00     0.069 C 
ATOM      9  C   UNL A   1      34.352  35.643  33.968  1.00  0.00     0.198 C 
ATOM     10  C   UNL A   1      33.695  37.380  32.578  1.00  0.00     0.163 C 
ATOM     11  O   UNL A   1      34.051  37.038  33.915  1.00  0.00    -0.378 OA
BRANCH   7  12
ATOM     12  N   UNL A   1      36.093  35.330  32.256  1.00  0.00    -0.339 N 
ATOM     13  C   UNL A   1      37.257  34.773  32.651  1.00  0.00     0.226 C 
ATOM     14  O   UNL A   1      38.132  34.755  31.770  1.00  0.00    -0.275 OA
ATOM     15  H   UNL A   1      36.248  36.058  31.612  1.00  0.00     0.164 HD
BRANCH  13  16
ATOM     16  C   UNL A   1      37.636  34.207  34.019  1.00  0.00     0.109 C 
ATOM     17  C   UNL A   1      36.454  33.825  36.242  1.00  0.00     0.039 C 
ATOM     18  C   UNL A   1      36.591  33.419  34.776  1.00  0.00     0.127 C 
ATOM     19  O   UNL A   1      36.998  32.039  34.749  1.00  0.00    -0.378 OA
ATOM     20  C   UNL A   1      38.322  31.940  34.212  1.00  0.00     0.161 C 
ATOM     21  C   UNL A   1      38.865  33.337  34.047  1.00  0.00     0.044 C 
ENDBRANCH  13  16
ENDBRANCH   7  12
ENDBRANCH   4   7
ENDBRANCH   2   3
ENDBRANCH   1   2
BRANCH   1  22
ATOM     22  C   UNL A   1      35.424  33.147  28.005  1.00  0.00     0.118 C 
BRANCH  22  23
ATOM     23  N   UNL A   1      34.490  32.092  27.635  1.00  0.00    -0.352 N 
ATOM     24  C   UNL A   1      34.662  30.734  27.529  1.00  0.00     0.251 C 
ATOM     25  H   UNL A   1      33.581  32.407  27.426  1.00  0.00     0.163 HD
ATOM     26  O   UNL A   1      33.778  30.055  27.014  1.00  0.00    -0.269 OA
BRANCH  24  27
ATOM     27  C   UNL A   1      35.905  30.087  28.004  1.00  0.00     0.039 A 
ATOM     28  C   UNL A   1      37.028  30.096  27.171  1.00  0.00     0.014 A 
ATOM     29  C   UNL A   1      35.963  29.447  29.243  1.00  0.00     0.014 A 
ATOM     30  C   UNL A   1      38.227  29.531  27.615  1.00  0.00     0.010 A 
ATOM     31  C   UNL A   1      37.179  28.963  29.718  1.00  0.00     0.010 A 
ATOM     32  C   UNL A   1      38.325  28.997  28.910  1.00  0.00    -0.014 A 
BRANCH  32  33
ATOM     33  C   UNL A   1      39.617  28.490  29.443  1.00  0.00     0.031 A 
ATOM     34  C   UNL A   1      40.327  29.222  30.552  1.00  0.00     0.074 A 
ATOM     35  C   UNL A   1      40.201  27.421  28.864  1.00  0.00     0.049 A 
ATOM     36  N   UNL A   1      41.492  28.971  31.091  1.00  0.00    -0.248 NA
ATOM     37  C   UNL A   1      39.653  30.407  31.109  1.00  0.00     0.031 C 
ATOM     38  C   UNL A   1      39.656  26.671  27.730  1.00  0.00     0.029 A 
ATOM     39  N   UNL A   1      41.395  26.797  29.129  1.00  0.00    -0.354 N 
ATOM     40  C   UNL A   1      41.710  29.984  32.017  1.00  0.00     0.074 A 
ATOM     41  C   UNL A   1      40.571  30.873  31.946  1.00  0.00     0.031 C 
ATOM     42  C   UNL A   1      40.508  25.688  27.400  1.00  0.00     0.029 A 
ATOM     43  C   UNL A   1      41.676  25.757  28.272  1.00  0.00     0.049 A 
ATOM     44  H   UNL A   1      41.993  27.067  29.863  1.00  0.00     0.167 HD
ATOM     45  C   UNL A   1      42.748  30.145  32.873  1.00  0.00     0.034 A 
ATOM     46  C   UNL A   1      42.757  24.956  28.189  1.00  0.00     0.034 A 
ATOM     47  C   UNL A   1      43.857  29.236  32.975  1.00  0.00     0.049 A 
ATOM     48  C   UNL A   1      43.877  25.133  29.177  1.00  0.00     0.074 A 
ATOM     49  C   UNL A   1      44.910  29.263  33.872  1.00  0.00     0.029 A 
ATOM     50  N   UNL A   1      44.063  28.142  32.150  1.00  0.00    -0.354 N 
ATOM     51  N   UNL A   1      43.988  26.003  30.152  1.00  0.00    -0.248 NA
ATOM     52  C   UNL A   1      45.006  24.198  29.078  1.00  0.00     0.031 C 
ATOM     53  C   UNL A   1      45.767  28.199  33.572  1.00  0.00     0.029 A 
ATOM     54  C   UNL A   1      45.232  27.491  32.509  1.00  0.00     0.049 A 
ATOM     55  H   UNL A   1      43.467  27.867  31.417  1.00  0.00     0.167 HD
ATOM     56  C   UNL A   1      45.176  25.695  30.804  1.00  0.00     0.074 A 
ATOM     57  C   UNL A   1      45.739  24.546  30.126  1.00  0.00     0.031 C 
ATOM     58  C   UNL A   1      45.755  26.316  31.861  1.00  0.00     0.034 A 
BRANCH  45  59
ATOM     59  C   UNL A   1      42.711  31.328  33.807  1.00  0.00     0.023 A 
ATOM     60  C   UNL A   1      43.268  32.557  33.397  1.00  0.00     0.012 A 
ATOM     61  C   UNL A   1      42.070  31.244  35.058  1.00  0.00     0.148 A 
ATOM     62  C   UNL A   1      43.219  33.673  34.231  1.00  0.00     0.002 A 
ATOM     63  C   UNL A   1      41.984  32.374  35.864  1.00  0.00     0.091 A 
ATOM     64  F   UNL A   1      41.563  30.064  35.440  1.00  0.00    -0.205 F 
ATOM     65  C   UNL A   1      42.568  33.585  35.458  1.00  0.00     0.022 A 
BRANCH  63  66
ATOM     66  S   UNL A   1      41.097  32.386  37.426  1.00  0.00     0.127 S 
ATOM     67  O   UNL A   1      41.979  31.583  38.272  1.00  0.00    -0.237 OA
ATOM     68  O   UNL A   1      41.072  33.812  37.755  1.00  0.00    -0.237 OA
ATOM     69  O   UNL A   1      39.791  31.802  37.152  1.00  0.00    -0.744 OA
ENDBRANCH  63  66
ENDBRANCH  45  59
BRANCH  46  70
ATOM     70  C   UNL A   1      42.804  23.873  27.167  1.00  0.00     0.023 A 
ATOM     71  C   UNL A   1      43.535  24.072  25.980  1.00  0.00     0.012 A 
ATOM     72  C   UNL A   1      42.150  22.642  27.371  1.00  0.00     0.148 A 
ATOM     73  C   UNL A   1      43.585  23.081  24.999  1.00  0.00     0.002 A 
ATOM     74  C   UNL A   1      42.252  21.637  26.416  1.00  0.00     0.091 A 
ATOM     75  F   UNL A   1      41.451  22.474  28.502  1.00  0.00    -0.205 F 
ATOM     76  C   UNL A   1      42.953  21.861  25.221  1.00  0.00     0.022 A 
BRANCH  74  77
ATOM     77  S   UNL A   1      41.585  19.990  26.679  1.00  0.00     0.127 S 
ATOM     78  O   UNL A   1      40.194  20.281  27.016  1.00  0.00    -0.237 OA
ATOM     79  O   UNL A   1      41.786  19.370  25.369  1.00  0.00    -0.237 OA
ATOM     80  O   UNL A   1      42.388  19.407  27.745  1.00  0.00    -0.744 OA
ENDBRANCH  74  77
ENDBRANCH  46  70
BRANCH  58  81
ATOM     81  C   UNL A   1      47.048  25.748  32.385  1.00  0.00     0.023 A 
ATOM     82  C   UNL A   1      48.277  26.195  31.859  1.00  0.00     0.012 A 
ATOM     83  C   UNL A   1      47.047  24.827  33.451  1.00  0.00     0.148 A 
ATOM     84  C   UNL A   1      49.482  25.707  32.364  1.00  0.00     0.002 A 
ATOM     85  C   UNL A   1      48.251  24.384  33.982  1.00  0.00     0.091 A 
ATOM     86  F   UNL A   1      45.866  24.400  33.925  1.00  0.00    -0.205 F 
ATOM     87  C   UNL A   1      49.470  24.813  33.433  1.00  0.00     0.022 A 
BRANCH  85  88
ATOM     88  S   UNL A   1      48.333  23.309  35.420  1.00  0.00     0.127 S 
ATOM     89  O   UNL A   1      47.702  22.091  34.917  1.00  0.00    -0.237 OA
ATOM     90  O   UNL A   1      49.775  23.202  35.644  1.00  0.00    -0.237 OA
ATOM     91  O   UNL A   1      47.607  23.998  36.479  1.00  0.00    -0.744 OA
ENDBRANCH  85  88
ENDBRANCH  58  81
ENDBRANCH  32  33
ENDBRANCH  24  27
ENDBRANCH  22  23
ENDBRANCH   1  22
TORSDOF 15
ENDMDL
MODEL 3
REMARK VINA RESULT:     -12.2      5.303     10.476
REMARK SMILES C[C@@H]1OCC[C@H]1C(=O)N[C@]1(C(=O)NCCCNC(=O)c2ccc(-c3c4nc(c(-c5cccc(S(=O)(=O)[O-])c5F)c5ccc([nH]5)c(-c5cccc(S(=O)(=O)[O-])c5F)c5nc(c(-c6cccc(S(=O)(=O)[O-])c6F)c6ccc3[nH]6)C=C5)C=C4)cc2)CCOC1
REMARK SMILES IDX 15 1 14 2 13 3 11 4 12 5 10 7 83 8 86 9 84 10 85 11 9 12
REMARK SMILES IDX 7 13 8 14 6 16 1 17 2 18 3 19 4 20 5 21 16 22 17 23 18 24
REMARK SMILES IDX 19 26 20 27 21 28 82 29 22 30 81 31 23 32 24 33 25 34 75 35
REMARK SMILES IDX 26 36 80 37 74 38 76 39 27 40 79 41 73 42 72 43 28 45 60 46
REMARK SMILES IDX 40 47 59 48 41 49 44 50 58 51 77 52 42 53 43 54 57 56 78 57
REMARK SMILES IDX 45 58 29 59 30 60 38 61 31 62 33 63 39 64 32 65 34 66 35 67
REMARK SMILES IDX 36 68 37 69 61 70 62 71 70 72 63 73 65 74 71 75 64 76 66 77
REMARK SMILES IDX 67 78 68 79 69 80 46 81 47 82 55 83 48 84 50 85 56 86 49 87
REMARK SMILES IDX 51 88 52 89 53 90 54 91
REMARK H PARENT 13 6 9 15 17 25 76 44 44 55
REMARK Flexibility Score: inf
ROOT
ATOM      1  C   UNL A   1      31.979  29.585  24.817  1.00  0.00     0.042 C 
ENDROOT
BRANCH   1   2
ATOM      2  C   UNL A   1      31.088  28.367  24.605  1.00  0.00     0.117 C 
BRANCH   2   3
ATOM      3  N   UNL A   1      31.529  27.204  25.359  1.00  0.00    -0.354 N 
ATOM      4  C   UNL A   1      32.690  26.522  25.146  1.00  0.00     0.248 C 
ATOM      5  O   UNL A   1      33.548  26.566  26.033  1.00  0.00    -0.272 OA
ATOM      6  H   UNL A   1      30.943  26.884  26.082  1.00  0.00     0.163 HD
BRANCH   4   7
ATOM      7  C   UNL A   1      32.927  25.730  23.846  1.00  0.00     0.144 C 
ATOM      8  C   UNL A   1      31.757  25.334  22.959  1.00  0.00     0.069 C 
ATOM      9  C   UNL A   1      33.658  26.777  22.972  1.00  0.00     0.198 C 
ATOM     10  C   UNL A   1      32.183  25.697  21.544  1.00  0.00     0.163 C 
ATOM     11  O   UNL A   1      33.349  26.516  21.602  1.00  0.00    -0.378 OA
BRANCH   7  12
ATOM     12  N   UNL A   1      33.837  24.544  23.992  1.00  0.00    -0.339 N 
ATOM     13  C   UNL A   1      33.743  23.260  24.396  1.00  0.00     0.226 C 
ATOM     14  O   UNL A   1      34.498  22.483  23.787  1.00  0.00    -0.275 OA
ATOM     15  H   UNL A   1      34.756  24.764  23.716  1.00  0.00     0.164 HD
BRANCH  13  16
ATOM     16  C   UNL A   1      32.876  22.662  25.502  1.00  0.00     0.109 C 
ATOM     17  C   UNL A   1      33.119  22.231  28.000  1.00  0.00     0.039 C 
ATOM     18  C   UNL A   1      32.972  23.265  26.885  1.00  0.00     0.127 C 
ATOM     19  O   UNL A   1      31.747  23.980  27.122  1.00  0.00    -0.378 OA
ATOM     20  C   UNL A   1      30.813  23.694  26.075  1.00  0.00     0.161 C 
ATOM     21  C   UNL A   1      31.398  22.605  25.213  1.00  0.00     0.044 C 
ENDBRANCH  13  16
ENDBRANCH   7  12
ENDBRANCH   4   7
ENDBRANCH   2   3
ENDBRANCH   1   2
BRANCH   1  22
ATOM     22  C   UNL A   1      32.176  29.983  26.279  1.00  0.00     0.118 C 
BRANCH  22  23
ATOM     23  N   UNL A   1      32.058  31.418  26.501  1.00  0.00    -0.352 N 
ATOM     24  C   UNL A   1      32.820  32.279  27.251  1.00  0.00     0.251 C 
ATOM     25  H   UNL A   1      31.302  31.842  26.033  1.00  0.00     0.163 HD
ATOM     26  O   UNL A   1      32.419  33.423  27.445  1.00  0.00    -0.269 OA
BRANCH  24  27
ATOM     27  C   UNL A   1      34.101  31.837  27.845  1.00  0.00     0.039 A 
ATOM     28  C   UNL A   1      35.123  32.777  28.013  1.00  0.00     0.014 A 
ATOM     29  C   UNL A   1      34.313  30.507  28.207  1.00  0.00     0.014 A 
ATOM     30  C   UNL A   1      36.326  32.395  28.613  1.00  0.00     0.010 A 
ATOM     31  C   UNL A   1      35.477  30.148  28.883  1.00  0.00     0.010 A 
ATOM     32  C   UNL A   1      36.498  31.087  29.092  1.00  0.00    -0.014 A 
BRANCH  32  33
ATOM     33  C   UNL A   1      37.726  30.687  29.830  1.00  0.00     0.031 A 
ATOM     34  C   UNL A   1      38.716  29.738  29.209  1.00  0.00     0.074 A 
ATOM     35  C   UNL A   1      37.902  31.105  31.100  1.00  0.00     0.049 A 
ATOM     36  N   UNL A   1      39.800  29.221  29.728  1.00  0.00    -0.248 NA
ATOM     37  C   UNL A   1      38.438  29.286  27.836  1.00  0.00     0.031 C 
ATOM     38  C   UNL A   1      36.978  31.962  31.845  1.00  0.00     0.029 A 
ATOM     39  N   UNL A   1      38.906  30.842  32.000  1.00  0.00    -0.354 N 
ATOM     40  C   UNL A   1      40.310  28.357  28.767  1.00  0.00     0.074 A 
ATOM     41  C   UNL A   1      39.400  28.393  27.643  1.00  0.00     0.031 C 
ATOM     42  C   UNL A   1      37.458  32.158  33.083  1.00  0.00     0.029 A 
ATOM     43  C   UNL A   1      38.703  31.414  33.235  1.00  0.00     0.049 A 
ATOM     44  H   UNL A   1      39.696  30.297  31.782  1.00  0.00     0.167 HD
ATOM     45  C   UNL A   1      41.448  27.623  28.801  1.00  0.00     0.034 A 
ATOM     46  C   UNL A   1      39.431  31.338  34.367  1.00  0.00     0.034 A 
ATOM     47  C   UNL A   1      42.375  27.624  29.900  1.00  0.00     0.049 A 
ATOM     48  C   UNL A   1      40.710  30.548  34.364  1.00  0.00     0.074 A 
ATOM     49  C   UNL A   1      43.600  26.987  29.991  1.00  0.00     0.029 A 
ATOM     50  N   UNL A   1      42.180  28.287  31.101  1.00  0.00    -0.354 N 
ATOM     51  N   UNL A   1      41.256  29.865  33.387  1.00  0.00    -0.248 NA
ATOM     52  C   UNL A   1      41.493  30.544  35.608  1.00  0.00     0.031 C 
ATOM     53  C   UNL A   1      44.133  27.243  31.258  1.00  0.00     0.029 A 
ATOM     54  C   UNL A   1      43.256  28.066  31.944  1.00  0.00     0.049 A 
ATOM     55  H   UNL A   1      41.393  28.835  31.322  1.00  0.00     0.167 HD
ATOM     56  C   UNL A   1      42.462  29.385  33.885  1.00  0.00     0.074 A 
ATOM     57  C   UNL A   1      42.576  29.872  35.244  1.00  0.00     0.031 C 
ATOM     58  C   UNL A   1      43.384  28.600  33.276  1.00  0.00     0.034 A 
BRANCH  45  59
ATOM     59  C   UNL A   1      41.783  26.791  27.589  1.00  0.00     0.023 A 
ATOM     60  C   UNL A   1      42.336  27.411  26.450  1.00  0.00     0.012 A 
ATOM     61  C   UNL A   1      41.615  25.392  27.601  1.00  0.00     0.148 A 
ATOM     62  C   UNL A   1      42.681  26.659  25.328  1.00  0.00     0.002 A 
ATOM     63  C   UNL A   1      42.005  24.644  26.496  1.00  0.00     0.091 A 
ATOM     64  F   UNL A   1      41.070  24.822  28.684  1.00  0.00    -0.205 F 
ATOM     65  C   UNL A   1      42.527  25.276  25.356  1.00  0.00     0.022 A 
BRANCH  63  66
ATOM     66  S   UNL A   1      41.923  22.850  26.462  1.00  0.00     0.127 S 
ATOM     67  O   UNL A   1      40.480  22.620  26.495  1.00  0.00    -0.237 OA
ATOM     68  O   UNL A   1      42.560  22.537  25.182  1.00  0.00    -0.237 OA
ATOM     69  O   UNL A   1      42.656  22.391  27.634  1.00  0.00    -0.744 OA
ENDBRANCH  63  66
ENDBRANCH  45  59
BRANCH  46  70
ATOM     70  C   UNL A   1      38.995  32.083  35.583  1.00  0.00     0.023 A 
ATOM     71  C   UNL A   1      39.248  33.465  35.677  1.00  0.00     0.012 A 
ATOM     72  C   UNL A   1      38.314  31.437  36.634  1.00  0.00     0.148 A 
ATOM     73  C   UNL A   1      38.864  34.185  36.809  1.00  0.00     0.002 A 
ATOM     74  C   UNL A   1      37.882  32.171  37.733  1.00  0.00     0.091 A 
ATOM     75  F   UNL A   1      38.091  30.120  36.532  1.00  0.00    -0.205 F 
ATOM     76  C   UNL A   1      38.173  33.541  37.831  1.00  0.00     0.022 A 
BRANCH  74  77
ATOM     77  S   UNL A   1      36.868  31.452  39.030  1.00  0.00     0.127 S 
ATOM     78  O   UNL A   1      37.732  31.596  40.199  1.00  0.00    -0.237 OA
ATOM     79  O   UNL A   1      35.696  32.329  39.017  1.00  0.00    -0.237 OA
ATOM     80  O   UNL A   1      36.597  30.086  38.605  1.00  0.00    -0.744 OA
ENDBRANCH  74  77
ENDBRANCH  46  70
BRANCH  58  81
ATOM     81  C   UNL A   1      44.625  28.246  34.053  1.00  0.00     0.023 A 
ATOM     82  C   UNL A   1      45.741  29.107  34.026  1.00  0.00     0.012 A 
ATOM     83  C   UNL A   1      44.657  27.099  34.871  1.00  0.00     0.148 A 
ATOM     84  C   UNL A   1      46.880  28.812  34.774  1.00  0.00     0.002 A 
ATOM     85  C   UNL A   1      45.775  26.839  35.651  1.00  0.00     0.091 A 
ATOM     86  F   UNL A   1      43.592  26.284  34.869  1.00  0.00    -0.205 F 
ATOM     87  C   UNL A   1      46.893  27.686  35.595  1.00  0.00     0.022 A 
BRANCH  85  88
ATOM     88  S   UNL A   1      45.843  25.469  36.812  1.00  0.00     0.127 S 
ATOM     89  O   UNL A   1      44.637  25.692  37.607  1.00  0.00    -0.237 OA
ATOM     90  O   UNL A   1      45.781  24.308  35.923  1.00  0.00    -0.237 OA
ATOM     91  O   UNL A   1      47.102  25.612  37.530  1.00  0.00    -0.744 OA
ENDBRANCH  85  88
ENDBRANCH  58  81
ENDBRANCH  32  33
ENDBRANCH  24  27
ENDBRANCH  22  23
ENDBRANCH   1  22
TORSDOF 15
ENDMDL
