MODEL 1
REMARK VINA RESULT:     -12.5      0.000      0.000
REMARK SMILES COc1cc2c(cc1OC)[C@H](C(=O)NCCCNC(=O)c1ccc(-c3c4nc(c(-c5cccc(S(=O)(=O)[O-])c5F)c5ccc([nH]5)c(-c5cccc(S(=O)(=O)[O-])c5F)c5nc(c(-c6cccc(S(=O)(=O)[O-])c6F)c6ccc3[nH]6)C=C5)C=C4)cc1)[C@H](c1cccc(Cl)c1)N(C)C2=O
REMARK SMILES IDX 17 1 16 2 15 3 14 4 12 5 13 6 11 8 3 9 4 10 8 11 5 12 7 13
REMARK SMILES IDX 6 14 94 15 92 16 95 17 84 18 93 19 2 20 1 21 9 22 10 23
REMARK SMILES IDX 85 24 86 25 91 26 87 27 89 28 88 29 90 30 18 31 19 32 20 34
REMARK SMILES IDX 21 35 22 36 83 37 23 38 82 39 24 40 25 41 26 42 76 43 27 44
REMARK SMILES IDX 81 45 75 46 77 47 28 48 80 49 74 50 73 51 29 53 61 54 41 55
REMARK SMILES IDX 60 56 42 57 45 58 59 59 78 60 43 61 44 62 58 64 79 65 46 66
REMARK SMILES IDX 30 67 31 68 39 69 32 70 34 71 40 72 33 73 35 74 36 75 37 76
REMARK SMILES IDX 38 77 62 78 63 79 71 80 64 81 66 82 72 83 65 84 67 85 68 86
REMARK SMILES IDX 69 87 70 88 47 89 48 90 56 91 49 92 51 93 57 94 50 95 52 96
REMARK SMILES IDX 53 97 54 98 55 99
REMARK H PARENT 14 7 18 33 77 52 45 63
REMARK Flexibility Score: inf
ROOT
ATOM      1  C   UNL A   1      33.121  32.739  27.304  1.00  0.00     0.118 C 
ENDROOT
BRANCH   1   2
ATOM      2  C   UNL A   1      31.963  31.847  26.872  1.00  0.00     0.042 C 
BRANCH   2   3
ATOM      3  C   UNL A   1      32.391  30.475  26.376  1.00  0.00     0.117 C 
BRANCH   3   4
ATOM      4  N   UNL A   1      32.134  29.451  27.377  1.00  0.00    -0.355 N 
ATOM      5  C   UNL A   1      32.097  28.095  27.247  1.00  0.00     0.230 C 
ATOM      6  O   UNL A   1      31.566  27.482  28.171  1.00  0.00    -0.274 OA
ATOM      7  H   UNL A   1      31.961  29.789  28.285  1.00  0.00     0.163 HD
BRANCH   5   8
ATOM      8  C   UNL A   1      32.595  27.439  25.969  1.00  0.00     0.136 C 
ATOM      9  C   UNL A   1      31.996  23.200  25.244  1.00  0.00     0.161 A 
ATOM     10  C   UNL A   1      32.652  24.023  24.319  1.00  0.00     0.064 A 
ATOM     11  C   UNL A   1      31.478  23.760  26.421  1.00  0.00     0.161 A 
ATOM     12  C   UNL A   1      32.820  25.388  24.578  1.00  0.00     0.048 A 
ATOM     13  C   UNL A   1      31.628  25.135  26.656  1.00  0.00     0.056 A 
ATOM     14  C   UNL A   1      32.331  25.955  25.767  1.00  0.00    -0.016 A 
ATOM     15  C   UNL A   1      33.442  26.267  23.535  1.00  0.00     0.254 C 
ATOM     16  N   UNL A   1      33.156  27.635  23.621  1.00  0.00    -0.333 N 
ATOM     17  O   UNL A   1      34.120  25.768  22.644  1.00  0.00    -0.269 OA
ATOM     18  C   UNL A   1      32.205  28.156  24.643  1.00  0.00     0.132 C 
ATOM     19  C   UNL A   1      33.683  28.540  22.617  1.00  0.00     0.147 C 
BRANCH   9  20
ATOM     20  O   UNL A   1      31.745  21.882  24.961  1.00  0.00    -0.493 OA
ATOM     21  C   UNL A   1      32.764  21.240  24.198  1.00  0.00     0.278 C 
ENDBRANCH   9  20
BRANCH  11  22
ATOM     22  O   UNL A   1      30.795  23.128  27.428  1.00  0.00    -0.493 OA
ATOM     23  C   UNL A   1      29.396  22.949  27.269  1.00  0.00     0.278 C 
ENDBRANCH  11  22
BRANCH  18  24
ATOM     24  C   UNL A   1      30.733  28.005  24.201  1.00  0.00    -0.023 A 
ATOM     25  C   UNL A   1      30.027  26.817  24.459  1.00  0.00     0.006 A 
ATOM     26  C   UNL A   1      30.038  29.012  23.505  1.00  0.00     0.026 A 
ATOM     27  C   UNL A   1      28.742  26.595  23.956  1.00  0.00     0.002 A 
ATOM     28  C   UNL A   1      28.745  28.799  23.018  1.00  0.00     0.041 A 
ATOM     29  C   UNL A   1      28.103  27.584  23.220  1.00  0.00     0.020 A 
ATOM     30  Cl  UNL A   1      27.943  30.052  22.151  1.00  0.00    -0.084 Cl
ENDBRANCH  18  24
ENDBRANCH   5   8
ENDBRANCH   3   4
ENDBRANCH   2   3
ENDBRANCH   1   2
BRANCH   1  31
ATOM     31  N   UNL A   1      32.697  34.082  27.678  1.00  0.00    -0.352 N 
ATOM     32  C   UNL A   1      33.139  34.868  28.717  1.00  0.00     0.251 C 
ATOM     33  H   UNL A   1      32.001  34.483  27.110  1.00  0.00     0.163 HD
ATOM     34  O   UNL A   1      32.558  35.915  28.987  1.00  0.00    -0.269 OA
BRANCH  32  35
ATOM     35  C   UNL A   1      34.297  34.424  29.517  1.00  0.00     0.039 A 
ATOM     36  C   UNL A   1      34.074  33.777  30.735  1.00  0.00     0.014 A 
ATOM     37  C   UNL A   1      35.598  34.613  29.044  1.00  0.00     0.014 A 
ATOM     38  C   UNL A   1      35.157  33.253  31.443  1.00  0.00     0.010 A 
ATOM     39  C   UNL A   1      36.663  34.013  29.704  1.00  0.00     0.010 A 
ATOM     40  C   UNL A   1      36.457  33.331  30.913  1.00  0.00    -0.014 A 
BRANCH  40  41
ATOM     41  C   UNL A   1      37.612  32.701  31.601  1.00  0.00     0.031 A 
ATOM     42  C   UNL A   1      38.338  31.549  30.955  1.00  0.00     0.074 A 
ATOM     43  C   UNL A   1      37.944  33.096  32.848  1.00  0.00     0.049 A 
ATOM     44  N   UNL A   1      39.317  30.824  31.429  1.00  0.00    -0.248 NA
ATOM     45  C   UNL A   1      37.885  31.137  29.615  1.00  0.00     0.031 C 
ATOM     46  C   UNL A   1      37.260  34.138  33.618  1.00  0.00     0.029 A 
ATOM     47  N   UNL A   1      38.920  32.646  33.701  1.00  0.00    -0.354 N 
ATOM     48  C   UNL A   1      39.564  29.847  30.474  1.00  0.00     0.074 A 
ATOM     49  C   UNL A   1      38.618  30.053  29.400  1.00  0.00     0.031 C 
ATOM     50  C   UNL A   1      37.836  34.246  34.826  1.00  0.00     0.029 A 
ATOM     51  C   UNL A   1      38.909  33.264  34.931  1.00  0.00     0.049 A 
ATOM     52  H   UNL A   1      39.568  31.946  33.457  1.00  0.00     0.167 HD
ATOM     53  C   UNL A   1      40.513  28.881  30.476  1.00  0.00     0.034 A 
ATOM     54  C   UNL A   1      39.671  33.054  36.024  1.00  0.00     0.034 A 
ATOM     55  C   UNL A   1      41.495  28.722  31.511  1.00  0.00     0.049 A 
ATOM     56  C   UNL A   1      40.759  32.016  35.966  1.00  0.00     0.074 A 
ATOM     57  C   UNL A   1      42.570  27.851  31.547  1.00  0.00     0.029 A 
ATOM     58  N   UNL A   1      41.523  29.442  32.694  1.00  0.00    -0.354 N 
ATOM     59  N   UNL A   1      41.095  31.226  34.974  1.00  0.00    -0.248 NA
ATOM     60  C   UNL A   1      41.600  31.864  37.163  1.00  0.00     0.031 C 
ATOM     61  C   UNL A   1      43.233  28.027  32.765  1.00  0.00     0.029 A 
ATOM     62  C   UNL A   1      42.588  29.028  33.473  1.00  0.00     0.049 A 
ATOM     63  H   UNL A   1      40.879  30.145  32.944  1.00  0.00     0.167 HD
ATOM     64  C   UNL A   1      42.209  30.518  35.412  1.00  0.00     0.074 A 
ATOM     65  C   UNL A   1      42.505  30.987  36.749  1.00  0.00     0.031 C 
ATOM     66  C   UNL A   1      42.912  29.552  34.773  1.00  0.00     0.034 A 
BRANCH  53  67
ATOM     67  C   UNL A   1      40.582  27.949  29.296  1.00  0.00     0.023 A 
ATOM     68  C   UNL A   1      39.675  26.874  29.205  1.00  0.00     0.012 A 
ATOM     69  C   UNL A   1      41.470  28.199  28.232  1.00  0.00     0.148 A 
ATOM     70  C   UNL A   1      39.665  26.050  28.080  1.00  0.00     0.002 A 
ATOM     71  C   UNL A   1      41.422  27.402  27.096  1.00  0.00     0.091 A 
ATOM     72  F   UNL A   1      42.336  29.216  28.350  1.00  0.00    -0.205 F 
ATOM     73  C   UNL A   1      40.528  26.322  27.021  1.00  0.00     0.022 A 
BRANCH  71  74
ATOM     74  S   UNL A   1      42.432  27.717  25.643  1.00  0.00     0.127 S 
ATOM     75  O   UNL A   1      41.863  28.973  25.157  1.00  0.00    -0.237 OA
ATOM     76  O   UNL A   1      43.769  27.839  26.223  1.00  0.00    -0.237 OA
ATOM     77  O   UNL A   1      42.248  26.571  24.766  1.00  0.00    -0.744 OA
ENDBRANCH  71  74
ENDBRANCH  53  67
BRANCH  54  78
ATOM     78  C   UNL A   1      39.473  33.877  37.252  1.00  0.00     0.023 A 
ATOM     79  C   UNL A   1      39.990  35.187  37.299  1.00  0.00     0.012 A 
ATOM     80  C   UNL A   1      38.790  33.370  38.373  1.00  0.00     0.148 A 
ATOM     81  C   UNL A   1      39.873  35.959  38.456  1.00  0.00     0.002 A 
ATOM     82  C   UNL A   1      38.625  34.166  39.502  1.00  0.00     0.091 A 
ATOM     83  F   UNL A   1      38.317  32.117  38.319  1.00  0.00    -0.205 F 
ATOM     84  C   UNL A   1      39.184  35.452  39.554  1.00  0.00     0.022 A 
BRANCH  82  85
ATOM     85  S   UNL A   1      37.635  33.636  40.903  1.00  0.00     0.127 S 
ATOM     86  O   UNL A   1      38.514  32.662  41.542  1.00  0.00    -0.237 OA
ATOM     87  O   UNL A   1      37.457  34.886  41.644  1.00  0.00    -0.237 OA
ATOM     88  O   UNL A   1      36.405  33.107  40.328  1.00  0.00    -0.744 OA
ENDBRANCH  82  85
ENDBRANCH  54  78
BRANCH  66  89
ATOM     89  C   UNL A   1      44.105  28.968  35.481  1.00  0.00     0.023 A 
ATOM     90  C   UNL A   1      45.370  29.571  35.340  1.00  0.00     0.012 A 
ATOM     91  C   UNL A   1      43.953  27.872  36.352  1.00  0.00     0.148 A 
ATOM     92  C   UNL A   1      46.473  29.069  36.029  1.00  0.00     0.002 A 
ATOM     93  C   UNL A   1      45.046  27.409  37.075  1.00  0.00     0.091 A 
ATOM     94  F   UNL A   1      42.743  27.302  36.459  1.00  0.00    -0.205 F 
ATOM     95  C   UNL A   1      46.309  27.999  36.905  1.00  0.00     0.022 A 
BRANCH  93  96
ATOM     96  S   UNL A   1      44.905  26.103  38.300  1.00  0.00     0.127 S 
ATOM     97  O   UNL A   1      43.849  26.622  39.168  1.00  0.00    -0.237 OA
ATOM     98  O   UNL A   1      44.513  24.953  37.484  1.00  0.00    -0.237 OA
ATOM     99  O   UNL A   1      46.220  25.986  38.915  1.00  0.00    -0.744 OA
ENDBRANCH  93  96
ENDBRANCH  66  89
ENDBRANCH  40  41
ENDBRANCH  32  35
ENDBRANCH   1  31
TORSDOF 16
ENDMDL
MODEL 2
REMARK VINA RESULT:     -12.5      2.786      8.223
REMARK SMILES COc1cc2c(cc1OC)[C@H](C(=O)NCCCNC(=O)c1ccc(-c3c4nc(c(-c5cccc(S(=O)(=O)[O-])c5F)c5ccc([nH]5)c(-c5cccc(S(=O)(=O)[O-])c5F)c5nc(c(-c6cccc(S(=O)(=O)[O-])c6F)c6ccc3[nH]6)C=C5)C=C4)cc1)[C@H](c1cccc(Cl)c1)N(C)C2=O
REMARK SMILES IDX 17 1 16 2 15 3 14 4 12 5 13 6 11 8 3 9 4 10 8 11 5 12 7 13
REMARK SMILES IDX 6 14 94 15 92 16 95 17 84 18 93 19 2 20 1 21 9 22 10 23
REMARK SMILES IDX 85 24 86 25 91 26 87 27 89 28 88 29 90 30 18 31 19 32 20 34
REMARK SMILES IDX 21 35 22 36 83 37 23 38 82 39 24 40 25 41 26 42 76 43 27 44
REMARK SMILES IDX 81 45 75 46 77 47 28 48 80 49 74 50 73 51 29 53 61 54 41 55
REMARK SMILES IDX 60 56 42 57 45 58 59 59 78 60 43 61 44 62 58 64 79 65 46 66
REMARK SMILES IDX 30 67 31 68 39 69 32 70 34 71 40 72 33 73 35 74 36 75 37 76
REMARK SMILES IDX 38 77 62 78 63 79 71 80 64 81 66 82 72 83 65 84 67 85 68 86
REMARK SMILES IDX 69 87 70 88 47 89 48 90 56 91 49 92 51 93 57 94 50 95 52 96
REMARK SMILES IDX 53 97 54 98 55 99
REMARK H PARENT 14 7 18 33 77 52 45 63
REMARK Flexibility Score: inf
ROOT
ATOM      1  C   UNL A   1      32.481  29.364  26.076  1.00  0.00     0.118 C 
ENDROOT
BRANCH   1   2
ATOM      2  C   UNL A   1      32.607  29.024  24.596  1.00  0.00     0.042 C 
BRANCH   2   3
ATOM      3  C   UNL A   1      33.874  28.264  24.241  1.00  0.00     0.117 C 
BRANCH   3   4
ATOM      4  N   UNL A   1      33.673  27.424  23.071  1.00  0.00    -0.355 N 
ATOM      5  C   UNL A   1      33.765  26.071  22.944  1.00  0.00     0.230 C 
ATOM      6  O   UNL A   1      33.843  25.644  21.793  1.00  0.00    -0.274 OA
ATOM      7  H   UNL A   1      33.434  27.906  22.247  1.00  0.00     0.163 HD
BRANCH   5   8
ATOM      8  C   UNL A   1      33.873  25.195  24.182  1.00  0.00     0.136 C 
ATOM      9  C   UNL A   1      30.405  24.393  26.669  1.00  0.00     0.161 A 
ATOM     10  C   UNL A   1      31.667  23.862  26.967  1.00  0.00     0.064 A 
ATOM     11  C   UNL A   1      30.238  25.173  25.515  1.00  0.00     0.161 A 
ATOM     12  C   UNL A   1      32.763  24.131  26.138  1.00  0.00     0.048 A 
ATOM     13  C   UNL A   1      31.339  25.412  24.679  1.00  0.00     0.056 A 
ATOM     14  C   UNL A   1      32.614  24.935  24.996  1.00  0.00    -0.016 A 
ATOM     15  C   UNL A   1      34.082  23.478  26.422  1.00  0.00     0.254 C 
ATOM     16  N   UNL A   1      34.974  23.381  25.348  1.00  0.00    -0.333 N 
ATOM     17  O   UNL A   1      34.308  23.024  27.539  1.00  0.00    -0.269 OA
ATOM     18  C   UNL A   1      34.578  23.822  23.982  1.00  0.00     0.132 C 
ATOM     19  C   UNL A   1      36.250  22.717  25.536  1.00  0.00     0.147 C 
BRANCH   9  20
ATOM     20  O   UNL A   1      29.306  24.063  27.421  1.00  0.00    -0.493 OA
ATOM     21  C   UNL A   1      29.042  22.665  27.491  1.00  0.00     0.278 C 
ENDBRANCH   9  20
BRANCH  11  22
ATOM     22  O   UNL A   1      29.090  25.759  25.050  1.00  0.00    -0.493 OA
ATOM     23  C   UNL A   1      29.207  26.706  23.999  1.00  0.00     0.278 C 
ENDBRANCH  11  22
BRANCH  18  24
ATOM     24  C   UNL A   1      33.761  22.745  23.235  1.00  0.00    -0.023 A 
ATOM     25  C   UNL A   1      33.226  23.007  21.962  1.00  0.00     0.006 A 
ATOM     26  C   UNL A   1      33.487  21.478  23.785  1.00  0.00     0.026 A 
ATOM     27  C   UNL A   1      32.372  22.108  21.318  1.00  0.00     0.002 A 
ATOM     28  C   UNL A   1      32.648  20.569  23.132  1.00  0.00     0.041 A 
ATOM     29  C   UNL A   1      32.069  20.890  21.910  1.00  0.00     0.020 A 
ATOM     30  Cl  UNL A   1      32.321  19.041  23.853  1.00  0.00    -0.084 Cl
ENDBRANCH  18  24
ENDBRANCH   5   8
ENDBRANCH   3   4
ENDBRANCH   2   3
ENDBRANCH   1   2
BRANCH   1  31
ATOM     31  N   UNL A   1      32.282  30.787  26.320  1.00  0.00    -0.352 N 
ATOM     32  C   UNL A   1      33.038  31.644  27.085  1.00  0.00     0.251 C 
ATOM     33  H   UNL A   1      31.502  31.190  25.877  1.00  0.00     0.163 HD
ATOM     34  O   UNL A   1      32.636  32.782  27.314  1.00  0.00    -0.269 OA
BRANCH  32  35
ATOM     35  C   UNL A   1      34.318  31.173  27.649  1.00  0.00     0.039 A 
ATOM     36  C   UNL A   1      35.315  32.105  27.943  1.00  0.00     0.014 A 
ATOM     37  C   UNL A   1      34.514  29.817  27.923  1.00  0.00     0.014 A 
ATOM     38  C   UNL A   1      36.483  31.683  28.582  1.00  0.00     0.010 A 
ATOM     39  C   UNL A   1      35.635  29.415  28.638  1.00  0.00     0.010 A 
ATOM     40  C   UNL A   1      36.635  30.342  28.971  1.00  0.00    -0.014 A 
BRANCH  40  41
ATOM     41  C   UNL A   1      37.826  29.887  29.733  1.00  0.00     0.031 A 
ATOM     42  C   UNL A   1      38.073  30.406  31.126  1.00  0.00     0.074 A 
ATOM     43  C   UNL A   1      38.736  29.089  29.137  1.00  0.00     0.049 A 
ATOM     44  N   UNL A   1      39.090  30.185  31.918  1.00  0.00    -0.248 NA
ATOM     45  C   UNL A   1      37.063  31.318  31.693  1.00  0.00     0.031 C 
ATOM     46  C   UNL A   1      38.656  28.593  27.761  1.00  0.00     0.029 A 
ATOM     47  N   UNL A   1      39.923  28.580  29.601  1.00  0.00    -0.354 N 
ATOM     48  C   UNL A   1      38.867  30.961  33.048  1.00  0.00     0.074 A 
ATOM     49  C   UNL A   1      37.632  31.680  32.835  1.00  0.00     0.031 C 
ATOM     50  C   UNL A   1      39.746  27.854  27.493  1.00  0.00     0.029 A 
ATOM     51  C   UNL A   1      40.615  27.846  28.664  1.00  0.00     0.049 A 
ATOM     52  H   UNL A   1      40.250  28.726  30.518  1.00  0.00     0.167 HD
ATOM     53  C   UNL A   1      39.611  31.047  34.176  1.00  0.00     0.034 A 
ATOM     54  C   UNL A   1      41.819  27.245  28.738  1.00  0.00     0.034 A 
ATOM     55  C   UNL A   1      40.802  30.279  34.414  1.00  0.00     0.049 A 
ATOM     56  C   UNL A   1      42.589  27.307  30.031  1.00  0.00     0.074 A 
ATOM     57  C   UNL A   1      41.558  30.207  35.571  1.00  0.00     0.029 A 
ATOM     58  N   UNL A   1      41.414  29.458  33.481  1.00  0.00    -0.354 N 
ATOM     59  N   UNL A   1      42.265  27.899  31.156  1.00  0.00    -0.248 NA
ATOM     60  C   UNL A   1      43.870  26.588  30.080  1.00  0.00     0.031 C 
ATOM     61  C   UNL A   1      42.644  29.361  35.328  1.00  0.00     0.029 A 
ATOM     62  C   UNL A   1      42.545  28.884  34.031  1.00  0.00     0.049 A 
ATOM     63  H   UNL A   1      41.091  29.306  32.564  1.00  0.00     0.167 HD
ATOM     64  C   UNL A   1      43.279  27.587  32.055  1.00  0.00     0.074 A 
ATOM     65  C   UNL A   1      44.216  26.736  31.351  1.00  0.00     0.031 C 
ATOM     66  C   UNL A   1      43.431  27.985  33.341  1.00  0.00     0.034 A 
BRANCH  53  67
ATOM     67  C   UNL A   1      39.135  31.959  35.275  1.00  0.00     0.023 A 
ATOM     68  C   UNL A   1      38.240  31.470  36.247  1.00  0.00     0.012 A 
ATOM     69  C   UNL A   1      39.656  33.262  35.404  1.00  0.00     0.148 A 
ATOM     70  C   UNL A   1      37.855  32.271  37.322  1.00  0.00     0.002 A 
ATOM     71  C   UNL A   1      39.302  34.036  36.501  1.00  0.00     0.091 A 
ATOM     72  F   UNL A   1      40.491  33.712  34.457  1.00  0.00    -0.205 F 
ATOM     73  C   UNL A   1      38.396  33.547  37.455  1.00  0.00     0.022 A 
BRANCH  71  74
ATOM     74  S   UNL A   1      40.005  35.661  36.811  1.00  0.00     0.127 S 
ATOM     75  O   UNL A   1      39.376  36.015  38.082  1.00  0.00    -0.237 OA
ATOM     76  O   UNL A   1      41.434  35.362  36.901  1.00  0.00    -0.237 OA
ATOM     77  O   UNL A   1      39.623  36.490  35.678  1.00  0.00    -0.744 OA
ENDBRANCH  71  74
ENDBRANCH  53  67
BRANCH  54  78
ATOM     78  C   UNL A   1      42.357  26.484  27.573  1.00  0.00     0.023 A 
ATOM     79  C   UNL A   1      43.145  27.151  26.614  1.00  0.00     0.012 A 
ATOM     80  C   UNL A   1      42.085  25.114  27.403  1.00  0.00     0.148 A 
ATOM     81  C   UNL A   1      43.613  26.479  25.483  1.00  0.00     0.002 A 
ATOM     82  C   UNL A   1      42.603  24.436  26.304  1.00  0.00     0.091 A 
ATOM     83  F   UNL A   1      41.322  24.497  28.316  1.00  0.00    -0.205 F 
ATOM     84  C   UNL A   1      43.348  25.121  25.332  1.00  0.00     0.022 A 
BRANCH  82  85
ATOM     85  S   UNL A   1      42.422  22.660  26.109  1.00  0.00     0.127 S 
ATOM     86  O   UNL A   1      43.081  22.157  27.310  1.00  0.00    -0.237 OA
ATOM     87  O   UNL A   1      40.968  22.499  26.090  1.00  0.00    -0.237 OA
ATOM     88  O   UNL A   1      43.071  22.343  24.843  1.00  0.00    -0.744 OA
ENDBRANCH  82  85
ENDBRANCH  54  78
BRANCH  66  89
ATOM     89  C   UNL A   1      44.625  27.467  34.098  1.00  0.00     0.023 A 
ATOM     90  C   UNL A   1      45.827  28.200  34.103  1.00  0.00     0.012 A 
ATOM     91  C   UNL A   1      44.526  26.294  34.873  1.00  0.00     0.148 A 
ATOM     92  C   UNL A   1      46.924  27.756  34.839  1.00  0.00     0.002 A 
ATOM     93  C   UNL A   1      45.606  25.885  35.645  1.00  0.00     0.091 A 
ATOM     94  F   UNL A   1      43.378  25.601  34.841  1.00  0.00    -0.205 F 
ATOM     95  C   UNL A   1      46.810  26.608  35.620  1.00  0.00     0.022 A 
BRANCH  93  96
ATOM     96  S   UNL A   1      45.515  24.477  36.757  1.00  0.00     0.127 S 
ATOM     97  O   UNL A   1      44.416  24.867  37.640  1.00  0.00    -0.237 OA
ATOM     98  O   UNL A   1      45.202  23.379  35.842  1.00  0.00    -0.237 OA
ATOM     99  O   UNL A   1      46.823  24.380  37.391  1.00  0.00    -0.744 OA
ENDBRANCH  93  96
ENDBRANCH  66  89
ENDBRANCH  40  41
ENDBRANCH  32  35
ENDBRANCH   1  31
TORSDOF 16
ENDMDL
MODEL 3
REMARK VINA RESULT:     -12.3      2.759      4.221
REMARK SMILES COc1cc2c(cc1OC)[C@H](C(=O)NCCCNC(=O)c1ccc(-c3c4nc(c(-c5cccc(S(=O)(=O)[O-])c5F)c5ccc([nH]5)c(-c5cccc(S(=O)(=O)[O-])c5F)c5nc(c(-c6cccc(S(=O)(=O)[O-])c6F)c6ccc3[nH]6)C=C5)C=C4)cc1)[C@H](c1cccc(Cl)c1)N(C)C2=O
REMARK SMILES IDX 17 1 16 2 15 3 14 4 12 5 13 6 11 8 3 9 4 10 8 11 5 12 7 13
REMARK SMILES IDX 6 14 94 15 92 16 95 17 84 18 93 19 2 20 1 21 9 22 10 23
REMARK SMILES IDX 85 24 86 25 91 26 87 27 89 28 88 29 90 30 18 31 19 32 20 34
REMARK SMILES IDX 21 35 22 36 83 37 23 38 82 39 24 40 25 41 26 42 76 43 27 44
REMARK SMILES IDX 81 45 75 46 77 47 28 48 80 49 74 50 73 51 29 53 61 54 41 55
REMARK SMILES IDX 60 56 42 57 45 58 59 59 78 60 43 61 44 62 58 64 79 65 46 66
REMARK SMILES IDX 30 67 31 68 39 69 32 70 34 71 40 72 33 73 35 74 36 75 37 76
REMARK SMILES IDX 38 77 62 78 63 79 71 80 64 81 66 82 72 83 65 84 67 85 68 86
REMARK SMILES IDX 69 87 70 88 47 89 48 90 56 91 49 92 51 93 57 94 50 95 52 96
REMARK SMILES IDX 53 97 54 98 55 99
REMARK H PARENT 14 7 18 33 77 52 45 63
REMARK Flexibility Score: inf
ROOT
ATOM      1  C   UNL A   1      32.491  29.452  26.031  1.00  0.00     0.118 C 
ENDROOT
BRANCH   1   2
ATOM      2  C   UNL A   1      32.692  29.162  24.549  1.00  0.00     0.042 C 
BRANCH   2   3
ATOM      3  C   UNL A   1      33.914  28.309  24.244  1.00  0.00     0.117 C 
BRANCH   3   4
ATOM      4  N   UNL A   1      33.692  27.472  23.076  1.00  0.00    -0.355 N 
ATOM      5  C   UNL A   1      33.768  26.118  22.948  1.00  0.00     0.230 C 
ATOM      6  O   UNL A   1      33.831  25.691  21.796  1.00  0.00    -0.274 OA
ATOM      7  H   UNL A   1      33.451  27.957  22.255  1.00  0.00     0.163 HD
BRANCH   5   8
ATOM      8  C   UNL A   1      33.877  25.241  24.185  1.00  0.00     0.136 C 
ATOM      9  C   UNL A   1      30.400  24.389  26.643  1.00  0.00     0.161 A 
ATOM     10  C   UNL A   1      31.666  23.873  26.949  1.00  0.00     0.064 A 
ATOM     11  C   UNL A   1      30.232  25.170  25.489  1.00  0.00     0.161 A 
ATOM     12  C   UNL A   1      32.765  24.158  26.130  1.00  0.00     0.048 A 
ATOM     13  C   UNL A   1      31.337  25.424  24.662  1.00  0.00     0.056 A 
ATOM     14  C   UNL A   1      32.615  24.963  24.988  1.00  0.00    -0.016 A 
ATOM     15  C   UNL A   1      34.090  23.521  26.423  1.00  0.00     0.254 C 
ATOM     16  N   UNL A   1      34.992  23.438  25.356  1.00  0.00    -0.333 N 
ATOM     17  O   UNL A   1      34.313  23.067  27.540  1.00  0.00    -0.269 OA
ATOM     18  C   UNL A   1      34.601  23.878  23.987  1.00  0.00     0.132 C 
ATOM     19  C   UNL A   1      36.275  22.790  25.553  1.00  0.00     0.147 C 
BRANCH   9  20
ATOM     20  O   UNL A   1      29.300  24.043  27.384  1.00  0.00    -0.493 OA
ATOM     21  C   UNL A   1      29.012  22.648  27.393  1.00  0.00     0.278 C 
ENDBRANCH   9  20
BRANCH  11  22
ATOM     22  O   UNL A   1      29.080  25.742  25.016  1.00  0.00    -0.493 OA
ATOM     23  C   UNL A   1      29.187  26.640  23.922  1.00  0.00     0.278 C 
ENDBRANCH  11  22
BRANCH  18  24
ATOM     24  C   UNL A   1      33.804  22.792  23.232  1.00  0.00    -0.023 A 
ATOM     25  C   UNL A   1      33.300  23.041  21.944  1.00  0.00     0.006 A 
ATOM     26  C   UNL A   1      33.518  21.530  23.787  1.00  0.00     0.026 A 
ATOM     27  C   UNL A   1      32.463  22.134  21.287  1.00  0.00     0.002 A 
ATOM     28  C   UNL A   1      32.696  20.613  23.123  1.00  0.00     0.041 A 
ATOM     29  C   UNL A   1      32.147  20.922  21.885  1.00  0.00     0.020 A 
ATOM     30  Cl  UNL A   1      32.353  19.092  23.852  1.00  0.00    -0.084 Cl
ENDBRANCH  18  24
ENDBRANCH   5   8
ENDBRANCH   3   4
ENDBRANCH   2   3
ENDBRANCH   1   2
BRANCH   1  31
ATOM     31  N   UNL A   1      32.197  30.853  26.304  1.00  0.00    -0.352 N 
ATOM     32  C   UNL A   1      32.899  31.746  27.078  1.00  0.00     0.251 C 
ATOM     33  H   UNL A   1      31.387  31.209  25.874  1.00  0.00     0.163 HD
ATOM     34  O   UNL A   1      32.422  32.849  27.332  1.00  0.00    -0.269 OA
BRANCH  32  35
ATOM     35  C   UNL A   1      34.214  31.355  27.623  1.00  0.00     0.039 A 
ATOM     36  C   UNL A   1      35.183  32.338  27.833  1.00  0.00     0.014 A 
ATOM     37  C   UNL A   1      34.472  30.024  27.961  1.00  0.00     0.014 A 
ATOM     38  C   UNL A   1      36.386  31.996  28.452  1.00  0.00     0.010 A 
ATOM     39  C   UNL A   1      35.631  29.704  28.658  1.00  0.00     0.010 A 
ATOM     40  C   UNL A   1      36.603  30.684  28.907  1.00  0.00    -0.014 A 
BRANCH  40  41
ATOM     41  C   UNL A   1      37.835  30.316  29.651  1.00  0.00     0.031 A 
ATOM     42  C   UNL A   1      38.812  29.336  29.055  1.00  0.00     0.074 A 
ATOM     43  C   UNL A   1      38.024  30.784  30.903  1.00  0.00     0.049 A 
ATOM     44  N   UNL A   1      39.899  28.837  29.580  1.00  0.00    -0.248 NA
ATOM     45  C   UNL A   1      38.512  28.825  27.705  1.00  0.00     0.031 C 
ATOM     46  C   UNL A   1      37.105  31.667  31.625  1.00  0.00     0.029 A 
ATOM     47  N   UNL A   1      39.036  30.557  31.801  1.00  0.00    -0.354 N 
ATOM     48  C   UNL A   1      40.386  27.923  28.653  1.00  0.00     0.074 A 
ATOM     49  C   UNL A   1      39.463  27.916  27.540  1.00  0.00     0.031 C 
ATOM     50  C   UNL A   1      37.595  31.905  32.853  1.00  0.00     0.029 A 
ATOM     51  C   UNL A   1      38.844  31.171  33.018  1.00  0.00     0.049 A 
ATOM     52  H   UNL A   1      39.825  30.006  31.595  1.00  0.00     0.167 HD
ATOM     53  C   UNL A   1      41.514  27.178  28.710  1.00  0.00     0.034 A 
ATOM     54  C   UNL A   1      39.585  31.136  34.144  1.00  0.00     0.034 A 
ATOM     55  C   UNL A   1      42.463  27.238  29.786  1.00  0.00     0.049 A 
ATOM     56  C   UNL A   1      40.868  30.347  34.148  1.00  0.00     0.074 A 
ATOM     57  C   UNL A   1      43.694  26.611  29.880  1.00  0.00     0.029 A 
ATOM     58  N   UNL A   1      42.289  27.959  30.956  1.00  0.00    -0.354 N 
ATOM     59  N   UNL A   1      41.403  29.636  33.185  1.00  0.00    -0.248 NA
ATOM     60  C   UNL A   1      41.671  30.386  35.379  1.00  0.00     0.031 C 
ATOM     61  C   UNL A   1      44.253  26.934  31.120  1.00  0.00     0.029 A 
ATOM     62  C   UNL A   1      43.384  27.784  31.784  1.00  0.00     0.049 A 
ATOM     63  H   UNL A   1      41.504  28.514  31.167  1.00  0.00     0.167 HD
ATOM     64  C   UNL A   1      42.620  29.180  33.679  1.00  0.00     0.074 A 
ATOM     65  C   UNL A   1      42.755  29.714  35.018  1.00  0.00     0.031 C 
ATOM     66  C   UNL A   1      43.536  28.377  33.085  1.00  0.00     0.034 A 
BRANCH  53  67
ATOM     67  C   UNL A   1      41.826  26.269  27.552  1.00  0.00     0.023 A 
ATOM     68  C   UNL A   1      42.553  26.767  26.452  1.00  0.00     0.012 A 
ATOM     69  C   UNL A   1      41.492  24.901  27.601  1.00  0.00     0.148 A 
ATOM     70  C   UNL A   1      42.927  25.921  25.409  1.00  0.00     0.002 A 
ATOM     71  C   UNL A   1      41.908  24.056  26.580  1.00  0.00     0.091 A 
ATOM     72  F   UNL A   1      40.784  24.454  28.648  1.00  0.00    -0.205 F 
ATOM     73  C   UNL A   1      42.617  24.565  25.479  1.00  0.00     0.022 A 
BRANCH  71  74
ATOM     74  S   UNL A   1      41.633  22.281  26.614  1.00  0.00     0.127 S 
ATOM     75  O   UNL A   1      42.293  21.857  25.380  1.00  0.00    -0.237 OA
ATOM     76  O   UNL A   1      42.326  21.889  27.841  1.00  0.00    -0.237 OA
ATOM     77  O   UNL A   1      40.190  22.096  26.640  1.00  0.00    -0.744 OA
ENDBRANCH  71  74
ENDBRANCH  53  67
BRANCH  54  78
ATOM     78  C   UNL A   1      39.169  31.910  35.348  1.00  0.00     0.023 A 
ATOM     79  C   UNL A   1      38.247  31.345  36.251  1.00  0.00     0.012 A 
ATOM     80  C   UNL A   1      39.668  33.202  35.599  1.00  0.00     0.148 A 
ATOM     81  C   UNL A   1      37.793  32.069  37.355  1.00  0.00     0.002 A 
ATOM     82  C   UNL A   1      39.257  33.896  36.733  1.00  0.00     0.091 A 
ATOM     83  F   UNL A   1      40.533  33.733  34.723  1.00  0.00    -0.205 F 
ATOM     84  C   UNL A   1      38.304  33.340  37.599  1.00  0.00     0.022 A 
BRANCH  82  85
ATOM     85  S   UNL A   1      39.969  35.479  37.190  1.00  0.00     0.127 S 
ATOM     86  O   UNL A   1      39.589  36.319  36.058  1.00  0.00    -0.237 OA
ATOM     87  O   UNL A   1      39.273  35.780  38.442  1.00  0.00    -0.237 OA
ATOM     88  O   UNL A   1      41.396  35.229  37.350  1.00  0.00    -0.744 OA
ENDBRANCH  82  85
ENDBRANCH  54  78
BRANCH  66  89
ATOM     89  C   UNL A   1      44.794  28.063  33.850  1.00  0.00     0.023 A 
ATOM     90  C   UNL A   1      45.901  28.928  33.768  1.00  0.00     0.012 A 
ATOM     91  C   UNL A   1      44.845  26.953  34.716  1.00  0.00     0.148 A 
ATOM     92  C   UNL A   1      47.054  28.675  34.509  1.00  0.00     0.002 A 
ATOM     93  C   UNL A   1      45.977  26.735  35.491  1.00  0.00     0.091 A 
ATOM     94  F   UNL A   1      43.785  26.131  34.767  1.00  0.00    -0.205 F 
ATOM     95  C   UNL A   1      47.087  27.588  35.379  1.00  0.00     0.022 A 
BRANCH  93  96
ATOM     96  S   UNL A   1      46.069  25.420  36.711  1.00  0.00     0.127 S 
ATOM     97  O   UNL A   1      45.919  24.229  35.877  1.00  0.00    -0.237 OA
ATOM     98  O   UNL A   1      47.408  25.608  37.272  1.00  0.00    -0.237 OA
ATOM     99  O   UNL A   1      44.982  25.667  37.650  1.00  0.00    -0.744 OA
ENDBRANCH  93  96
ENDBRANCH  66  89
ENDBRANCH  40  41
ENDBRANCH  32  35
ENDBRANCH   1  31
TORSDOF 16
ENDMDL
