MODEL 1
REMARK VINA RESULT:     -13.1      0.000      0.000
REMARK SMILES CC(C)(C)c1cc2c(cc1Cl)C=C(C(=O)NCCCNC(=O)c1ccc(-c3c4nc(c(-c5cccc(S(=O)(=O)[O-])c5F)c5ccc([nH]5)c(-c5cccc(S(=O)(=O)[O-])c5F)c5nc(c(-c6cccc(S(=O)(=O)[O-])c6F)c6ccc3[nH]6)C=C5)C=C4)cc1)[C@@H](C(F)(F)F)O2
REMARK SMILES IDX 19 1 18 2 17 3 16 4 14 5 15 6 13 8 5 9 6 10 10 11 7 12 9 13
REMARK SMILES IDX 11 14 8 15 91 16 12 17 86 18 2 19 1 20 3 21 4 22 87 23 88 24
REMARK SMILES IDX 89 25 90 26 20 27 21 28 22 30 23 31 24 32 85 33 25 34 84 35
REMARK SMILES IDX 26 36 27 37 28 38 78 39 29 40 83 41 77 42 79 43 30 44 82 45
REMARK SMILES IDX 76 46 75 47 31 49 63 50 43 51 62 52 44 53 47 54 61 55 80 56
REMARK SMILES IDX 45 57 46 58 60 60 81 61 48 62 32 63 33 64 41 65 34 66 36 67
REMARK SMILES IDX 42 68 35 69 37 70 38 71 39 72 40 73 64 74 65 75 73 76 66 77
REMARK SMILES IDX 68 78 74 79 67 80 69 81 70 82 71 83 72 84 49 85 50 86 58 87
REMARK SMILES IDX 51 88 53 89 59 90 52 91 54 92 55 93 56 94 57 95
REMARK H PARENT 16 7 20 29 79 48 47 59
REMARK Flexibility Score: inf
ROOT
ATOM      1  C   UNL A   1      37.496  22.011  25.029  1.00  0.00     0.118 C 
ENDROOT
BRANCH   1   2
ATOM      2  C   UNL A   1      36.291  21.462  24.274  1.00  0.00     0.042 C 
BRANCH   2   3
ATOM      3  C   UNL A   1      35.617  20.318  25.015  1.00  0.00     0.118 C 
BRANCH   3   4
ATOM      4  N   UNL A   1      34.260  20.089  24.545  1.00  0.00    -0.352 N 
ATOM      5  C   UNL A   1      33.086  20.764  24.526  1.00  0.00     0.251 C 
ATOM      6  O   UNL A   1      32.144  20.164  23.999  1.00  0.00    -0.270 OA
ATOM      7  H   UNL A   1      34.169  19.202  24.127  1.00  0.00     0.163 HD
BRANCH   5   8
ATOM      8  C   UNL A   1      32.874  22.133  25.073  1.00  0.00     0.067 C 
ATOM      9  C   UNL A   1      32.551  27.169  25.706  1.00  0.00    -0.020 A 
ATOM     10  C   UNL A   1      32.062  26.024  26.376  1.00  0.00     0.053 A 
ATOM     11  C   UNL A   1      33.298  26.921  24.529  1.00  0.00     0.045 A 
ATOM     12  C   UNL A   1      32.283  24.732  25.901  1.00  0.00     0.128 A 
ATOM     13  C   UNL A   1      33.478  25.614  24.032  1.00  0.00     0.032 A 
ATOM     14  Cl  UNL A   1      34.108  28.146  23.615  1.00  0.00    -0.084 Cl
ATOM     15  C   UNL A   1      32.971  24.515  24.718  1.00  0.00     0.019 A 
ATOM     16  O   UNL A   1      31.771  23.709  26.648  1.00  0.00    -0.475 OA
ATOM     17  C   UNL A   1      33.131  23.152  24.229  1.00  0.00     0.025 C 
ATOM     18  C   UNL A   1      32.439  22.426  26.482  1.00  0.00     0.314 C 
BRANCH   9  19
ATOM     19  C   UNL A   1      32.288  28.566  26.325  1.00  0.00    -0.012 C 
ATOM     20  C   UNL A   1      31.502  29.415  25.306  1.00  0.00     0.016 C 
ATOM     21  C   UNL A   1      33.597  29.342  26.647  1.00  0.00     0.016 C 
ATOM     22  C   UNL A   1      31.521  28.512  27.665  1.00  0.00     0.016 C 
ENDBRANCH   9  19
BRANCH  18  23
ATOM     23  C   UNL A   1      33.601  22.312  27.490  1.00  0.00     0.429 C 
ATOM     24  F   UNL A   1      34.678  23.014  27.057  1.00  0.00    -0.167 F 
ATOM     25  F   UNL A   1      33.283  22.808  28.709  1.00  0.00    -0.167 F 
ATOM     26  F   UNL A   1      34.003  21.036  27.685  1.00  0.00    -0.167 F 
ENDBRANCH  18  23
ENDBRANCH   5   8
ENDBRANCH   3   4
ENDBRANCH   2   3
ENDBRANCH   1   2
BRANCH   1  27
ATOM     27  N   UNL A   1      38.363  20.947  25.531  1.00  0.00    -0.352 N 
ATOM     28  C   UNL A   1      39.547  21.017  26.228  1.00  0.00     0.251 C 
ATOM     29  H   UNL A   1      38.049  20.033  25.340  1.00  0.00     0.163 HD
ATOM     30  O   UNL A   1      40.238  20.010  26.348  1.00  0.00    -0.269 OA
BRANCH  28  31
ATOM     31  C   UNL A   1      39.986  22.303  26.806  1.00  0.00     0.039 A 
ATOM     32  C   UNL A   1      39.466  23.501  26.320  1.00  0.00     0.014 A 
ATOM     33  C   UNL A   1      40.932  22.316  27.837  1.00  0.00     0.014 A 
ATOM     34  C   UNL A   1      40.039  24.704  26.707  1.00  0.00     0.010 A 
ATOM     35  C   UNL A   1      41.426  23.537  28.308  1.00  0.00     0.010 A 
ATOM     36  C   UNL A   1      41.026  24.740  27.705  1.00  0.00    -0.014 A 
BRANCH  36  37
ATOM     37  C   UNL A   1      41.604  26.054  28.091  1.00  0.00     0.031 A 
ATOM     38  C   UNL A   1      42.979  26.463  27.633  1.00  0.00     0.074 A 
ATOM     39  C   UNL A   1      40.844  26.915  28.798  1.00  0.00     0.049 A 
ATOM     40  N   UNL A   1      43.598  27.600  27.822  1.00  0.00    -0.248 NA
ATOM     41  C   UNL A   1      43.767  25.479  26.872  1.00  0.00     0.031 C 
ATOM     42  C   UNL A   1      39.505  26.623  29.315  1.00  0.00     0.029 A 
ATOM     43  N   UNL A   1      41.066  28.215  29.171  1.00  0.00    -0.354 N 
ATOM     44  C   UNL A   1      44.856  27.452  27.253  1.00  0.00     0.074 A 
ATOM     45  C   UNL A   1      44.919  26.115  26.706  1.00  0.00     0.031 C 
ATOM     46  C   UNL A   1      38.996  27.730  29.872  1.00  0.00     0.029 A 
ATOM     47  C   UNL A   1      39.994  28.792  29.811  1.00  0.00     0.049 A 
ATOM     48  H   UNL A   1      41.912  28.689  29.000  1.00  0.00     0.167 HD
ATOM     49  C   UNL A   1      45.860  28.356  27.175  1.00  0.00     0.034 A 
ATOM     50  C   UNL A   1      39.825  30.037  30.295  1.00  0.00     0.034 A 
ATOM     51  C   UNL A   1      45.771  29.707  27.654  1.00  0.00     0.049 A 
ATOM     52  C   UNL A   1      40.942  31.029  30.163  1.00  0.00     0.074 A 
ATOM     53  C   UNL A   1      46.721  30.709  27.569  1.00  0.00     0.029 A 
ATOM     54  N   UNL A   1      44.670  30.249  28.297  1.00  0.00    -0.354 N 
ATOM     55  N   UNL A   1      42.096  30.886  29.559  1.00  0.00    -0.248 NA
ATOM     56  C   UNL A   1      40.737  32.350  30.773  1.00  0.00     0.031 C 
ATOM     57  C   UNL A   1      46.194  31.860  28.162  1.00  0.00     0.029 A 
ATOM     58  C   UNL A   1      44.916  31.573  28.614  1.00  0.00     0.049 A 
ATOM     59  H   UNL A   1      43.837  29.765  28.497  1.00  0.00     0.167 HD
ATOM     60  C   UNL A   1      42.756  32.098  29.712  1.00  0.00     0.074 A 
ATOM     61  C   UNL A   1      41.862  32.973  30.443  1.00  0.00     0.031 C 
ATOM     62  C   UNL A   1      43.999  32.442  29.303  1.00  0.00     0.034 A 
BRANCH  49  63
ATOM     63  C   UNL A   1      47.138  27.942  26.498  1.00  0.00     0.023 A 
ATOM     64  C   UNL A   1      48.169  27.368  27.266  1.00  0.00     0.012 A 
ATOM     65  C   UNL A   1      47.272  28.018  25.098  1.00  0.00     0.148 A 
ATOM     66  C   UNL A   1      49.321  26.880  26.651  1.00  0.00     0.002 A 
ATOM     67  C   UNL A   1      48.412  27.504  24.490  1.00  0.00     0.091 A 
ATOM     68  F   UNL A   1      46.281  28.580  24.392  1.00  0.00    -0.205 F 
ATOM     69  C   UNL A   1      49.438  26.939  25.265  1.00  0.00     0.022 A 
BRANCH  67  70
ATOM     70  S   UNL A   1      48.639  27.481  22.708  1.00  0.00     0.127 S 
ATOM     71  O   UNL A   1      48.614  26.046  22.428  1.00  0.00    -0.237 OA
ATOM     72  O   UNL A   1      47.465  28.215  22.239  1.00  0.00    -0.237 OA
ATOM     73  O   UNL A   1      49.914  28.138  22.454  1.00  0.00    -0.744 OA
ENDBRANCH  67  70
ENDBRANCH  49  63
BRANCH  50  74
ATOM     74  C   UNL A   1      38.518  30.408  30.901  1.00  0.00     0.023 A 
ATOM     75  C   UNL A   1      38.294  30.147  32.265  1.00  0.00     0.012 A 
ATOM     76  C   UNL A   1      37.545  31.106  30.160  1.00  0.00     0.148 A 
ATOM     77  C   UNL A   1      37.120  30.577  32.884  1.00  0.00     0.002 A 
ATOM     78  C   UNL A   1      36.400  31.573  30.794  1.00  0.00     0.091 A 
ATOM     79  F   UNL A   1      37.781  31.333  28.860  1.00  0.00    -0.205 F 
ATOM     80  C   UNL A   1      36.181  31.301  32.153  1.00  0.00     0.022 A 
BRANCH  78  81
ATOM     81  S   UNL A   1      35.200  32.624  29.967  1.00  0.00     0.127 S 
ATOM     82  O   UNL A   1      36.033  33.744  29.536  1.00  0.00    -0.237 OA
ATOM     83  O   UNL A   1      34.732  31.751  28.890  1.00  0.00    -0.237 OA
ATOM     84  O   UNL A   1      34.192  32.939  30.971  1.00  0.00    -0.744 OA
ENDBRANCH  78  81
ENDBRANCH  50  74
BRANCH  62  85
ATOM     85  C   UNL A   1      44.491  33.822  29.632  1.00  0.00     0.023 A 
ATOM     86  C   UNL A   1      45.195  34.028  30.832  1.00  0.00     0.012 A 
ATOM     87  C   UNL A   1      44.374  34.870  28.700  1.00  0.00     0.148 A 
ATOM     88  C   UNL A   1      45.777  35.265  31.105  1.00  0.00     0.002 A 
ATOM     89  C   UNL A   1      44.984  36.090  28.963  1.00  0.00     0.091 A 
ATOM     90  F   UNL A   1      43.691  34.645  27.568  1.00  0.00    -0.205 F 
ATOM     91  C   UNL A   1      45.683  36.290  30.165  1.00  0.00     0.022 A 
BRANCH  89  92
ATOM     92  S   UNL A   1      44.982  37.447  27.787  1.00  0.00     0.127 S 
ATOM     93  O   UNL A   1      45.653  36.844  26.636  1.00  0.00    -0.237 OA
ATOM     94  O   UNL A   1      43.552  37.692  27.601  1.00  0.00    -0.237 OA
ATOM     95  O   UNL A   1      45.709  38.537  28.424  1.00  0.00    -0.744 OA
ENDBRANCH  89  92
ENDBRANCH  62  85
ENDBRANCH  36  37
ENDBRANCH  28  31
ENDBRANCH   1  27
TORSDOF 15
ENDMDL
MODEL 2
REMARK VINA RESULT:     -13.0      5.309     10.305
REMARK SMILES CC(C)(C)c1cc2c(cc1Cl)C=C(C(=O)NCCCNC(=O)c1ccc(-c3c4nc(c(-c5cccc(S(=O)(=O)[O-])c5F)c5ccc([nH]5)c(-c5cccc(S(=O)(=O)[O-])c5F)c5nc(c(-c6cccc(S(=O)(=O)[O-])c6F)c6ccc3[nH]6)C=C5)C=C4)cc1)[C@@H](C(F)(F)F)O2
REMARK SMILES IDX 19 1 18 2 17 3 16 4 14 5 15 6 13 8 5 9 6 10 10 11 7 12 9 13
REMARK SMILES IDX 11 14 8 15 91 16 12 17 86 18 2 19 1 20 3 21 4 22 87 23 88 24
REMARK SMILES IDX 89 25 90 26 20 27 21 28 22 30 23 31 24 32 85 33 25 34 84 35
REMARK SMILES IDX 26 36 27 37 28 38 78 39 29 40 83 41 77 42 79 43 30 44 82 45
REMARK SMILES IDX 76 46 75 47 31 49 63 50 43 51 62 52 44 53 47 54 61 55 80 56
REMARK SMILES IDX 45 57 46 58 60 60 81 61 48 62 32 63 33 64 41 65 34 66 36 67
REMARK SMILES IDX 42 68 35 69 37 70 38 71 39 72 40 73 64 74 65 75 73 76 66 77
REMARK SMILES IDX 68 78 74 79 67 80 69 81 70 82 71 83 72 84 49 85 50 86 58 87
REMARK SMILES IDX 51 88 53 89 59 90 52 91 54 92 55 93 56 94 57 95
REMARK H PARENT 16 7 20 29 79 48 47 59
REMARK Flexibility Score: inf
ROOT
ATOM      1  C   UNL A   1      32.848  30.143  26.859  1.00  0.00     0.118 C 
ENDROOT
BRANCH   1   2
ATOM      2  C   UNL A   1      31.538  29.616  26.288  1.00  0.00     0.042 C 
BRANCH   2   3
ATOM      3  C   UNL A   1      31.226  30.198  24.919  1.00  0.00     0.118 C 
BRANCH   3   4
ATOM      4  N   UNL A   1      30.310  29.357  24.164  1.00  0.00    -0.352 N 
ATOM      5  C   UNL A   1      30.334  28.139  23.574  1.00  0.00     0.251 C 
ATOM      6  O   UNL A   1      29.283  27.802  23.022  1.00  0.00    -0.270 OA
ATOM      7  H   UNL A   1      29.434  29.792  24.051  1.00  0.00     0.163 HD
BRANCH   5   8
ATOM      8  C   UNL A   1      31.503  27.215  23.560  1.00  0.00     0.067 C 
ATOM      9  C   UNL A   1      34.913  23.597  24.633  1.00  0.00    -0.020 A 
ATOM     10  C   UNL A   1      34.576  24.377  23.503  1.00  0.00     0.053 A 
ATOM     11  C   UNL A   1      34.110  23.799  25.782  1.00  0.00     0.045 A 
ATOM     12  C   UNL A   1      33.510  25.276  23.510  1.00  0.00     0.128 A 
ATOM     13  C   UNL A   1      33.006  24.676  25.765  1.00  0.00     0.032 A 
ATOM     14  Cl  UNL A   1      34.408  23.064  27.318  1.00  0.00    -0.084 Cl
ATOM     15  C   UNL A   1      32.704  25.418  24.628  1.00  0.00     0.019 A 
ATOM     16  O   UNL A   1      33.297  25.982  22.359  1.00  0.00    -0.475 OA
ATOM     17  C   UNL A   1      31.566  26.328  24.572  1.00  0.00     0.025 C 
ATOM     18  C   UNL A   1      32.597  27.247  22.529  1.00  0.00     0.314 C 
BRANCH   9  19
ATOM     19  C   UNL A   1      36.137  22.649  24.549  1.00  0.00    -0.012 C 
ATOM     20  C   UNL A   1      37.211  23.144  25.536  1.00  0.00     0.016 C 
ATOM     21  C   UNL A   1      36.792  22.628  23.139  1.00  0.00     0.016 C 
ATOM     22  C   UNL A   1      35.792  21.172  24.845  1.00  0.00     0.016 C 
ENDBRANCH   9  19
BRANCH  18  23
ATOM     23  C   UNL A   1      33.618  28.372  22.792  1.00  0.00     0.429 C 
ATOM     24  F   UNL A   1      33.088  29.580  22.476  1.00  0.00    -0.167 F 
ATOM     25  F   UNL A   1      33.990  28.444  24.092  1.00  0.00    -0.167 F 
ATOM     26  F   UNL A   1      34.754  28.229  22.073  1.00  0.00    -0.167 F 
ENDBRANCH  18  23
ENDBRANCH   5   8
ENDBRANCH   3   4
ENDBRANCH   2   3
ENDBRANCH   1   2
BRANCH   1  27
ATOM     27  N   UNL A   1      32.828  31.594  27.035  1.00  0.00    -0.352 N 
ATOM     28  C   UNL A   1      33.709  32.424  27.688  1.00  0.00     0.251 C 
ATOM     29  H   UNL A   1      32.061  32.050  26.619  1.00  0.00     0.163 HD
ATOM     30  O   UNL A   1      33.384  33.585  27.924  1.00  0.00    -0.269 OA
BRANCH  28  31
ATOM     31  C   UNL A   1      35.025  31.910  28.119  1.00  0.00     0.039 A 
ATOM     32  C   UNL A   1      35.166  30.572  28.482  1.00  0.00     0.014 A 
ATOM     33  C   UNL A   1      36.126  32.770  28.170  1.00  0.00     0.014 A 
ATOM     34  C   UNL A   1      36.338  30.148  29.093  1.00  0.00     0.010 A 
ATOM     35  C   UNL A   1      37.344  32.308  28.680  1.00  0.00     0.010 A 
ATOM     36  C   UNL A   1      37.443  31.008  29.200  1.00  0.00    -0.014 A 
BRANCH  36  37
ATOM     37  C   UNL A   1      38.678  30.505  29.856  1.00  0.00     0.031 A 
ATOM     38  C   UNL A   1      39.012  30.878  31.276  1.00  0.00     0.074 A 
ATOM     39  C   UNL A   1      39.464  29.641  29.183  1.00  0.00     0.049 A 
ATOM     40  N   UNL A   1      40.011  30.468  32.014  1.00  0.00    -0.248 NA
ATOM     41  C   UNL A   1      38.123  31.833  31.959  1.00  0.00     0.031 C 
ATOM     42  C   UNL A   1      39.253  29.221  27.794  1.00  0.00     0.029 A 
ATOM     43  N   UNL A   1      40.568  28.931  29.578  1.00  0.00    -0.354 N 
ATOM     44  C   UNL A   1      39.901  31.147  33.220  1.00  0.00     0.074 A 
ATOM     45  C   UNL A   1      38.736  31.998  33.124  1.00  0.00     0.031 C 
ATOM     46  C   UNL A   1      40.150  28.277  27.478  1.00  0.00     0.029 A 
ATOM     47  C   UNL A   1      41.039  28.068  28.616  1.00  0.00     0.049 A 
ATOM     48  H   UNL A   1      40.985  29.032  30.464  1.00  0.00     0.167 HD
ATOM     49  C   UNL A   1      40.688  31.054  34.318  1.00  0.00     0.034 A 
ATOM     50  C   UNL A   1      42.070  27.202  28.640  1.00  0.00     0.034 A 
ATOM     51  C   UNL A   1      41.802  30.155  34.441  1.00  0.00     0.049 A 
ATOM     52  C   UNL A   1      42.903  27.094  29.882  1.00  0.00     0.074 A 
ATOM     53  C   UNL A   1      42.623  29.955  35.536  1.00  0.00     0.029 A 
ATOM     54  N   UNL A   1      42.245  29.303  33.444  1.00  0.00    -0.354 N 
ATOM     55  N   UNL A   1      42.737  27.697  31.034  1.00  0.00    -0.248 NA
ATOM     56  C   UNL A   1      44.060  26.191  29.833  1.00  0.00     0.031 C 
ATOM     57  C   UNL A   1      43.566  28.979  35.201  1.00  0.00     0.029 A 
ATOM     58  C   UNL A   1      43.329  28.572  33.897  1.00  0.00     0.049 A 
ATOM     59  H   UNL A   1      41.848  29.226  32.546  1.00  0.00     0.167 HD
ATOM     60  C   UNL A   1      43.765  27.245  31.849  1.00  0.00     0.074 A 
ATOM     61  C   UNL A   1      44.535  26.297  31.068  1.00  0.00     0.031 C 
ATOM     62  C   UNL A   1      44.056  27.602  33.122  1.00  0.00     0.034 A 
BRANCH  49  63
ATOM     63  C   UNL A   1      40.349  31.907  35.510  1.00  0.00     0.023 A 
ATOM     64  C   UNL A   1      41.075  33.092  35.736  1.00  0.00     0.012 A 
ATOM     65  C   UNL A   1      39.250  31.595  36.333  1.00  0.00     0.148 A 
ATOM     66  C   UNL A   1      40.716  33.954  36.771  1.00  0.00     0.002 A 
ATOM     67  C   UNL A   1      38.881  32.474  37.345  1.00  0.00     0.091 A 
ATOM     68  F   UNL A   1      38.584  30.455  36.103  1.00  0.00    -0.205 F 
ATOM     69  C   UNL A   1      39.615  33.651  37.567  1.00  0.00     0.022 A 
BRANCH  67  70
ATOM     70  S   UNL A   1      37.447  32.206  38.394  1.00  0.00     0.127 S 
ATOM     71  O   UNL A   1      36.429  32.999  37.707  1.00  0.00    -0.237 OA
ATOM     72  O   UNL A   1      37.263  30.759  38.297  1.00  0.00    -0.237 OA
ATOM     73  O   UNL A   1      37.819  32.689  39.718  1.00  0.00    -0.744 OA
ENDBRANCH  67  70
ENDBRANCH  49  63
BRANCH  50  74
ATOM     74  C   UNL A   1      42.320  26.341  27.453  1.00  0.00     0.023 A 
ATOM     75  C   UNL A   1      43.078  26.850  26.382  1.00  0.00     0.012 A 
ATOM     76  C   UNL A   1      41.902  24.996  27.429  1.00  0.00     0.148 A 
ATOM     77  C   UNL A   1      43.416  26.032  25.304  1.00  0.00     0.002 A 
ATOM     78  C   UNL A   1      42.284  24.176  26.375  1.00  0.00     0.091 A 
ATOM     79  F   UNL A   1      41.175  24.541  28.459  1.00  0.00    -0.205 F 
ATOM     80  C   UNL A   1      43.032  24.694  25.307  1.00  0.00     0.022 A 
BRANCH  78  81
ATOM     81  S   UNL A   1      41.947  22.410  26.357  1.00  0.00     0.127 S 
ATOM     82  O   UNL A   1      42.598  21.997  25.117  1.00  0.00    -0.237 OA
ATOM     83  O   UNL A   1      42.614  21.967  27.582  1.00  0.00    -0.237 OA
ATOM     84  O   UNL A   1      40.496  22.284  26.379  1.00  0.00    -0.744 OA
ENDBRANCH  78  81
ENDBRANCH  50  74
BRANCH  62  85
ATOM     85  C   UNL A   1      45.260  26.981  33.769  1.00  0.00     0.023 A 
ATOM     86  C   UNL A   1      46.490  27.663  33.721  1.00  0.00     0.012 A 
ATOM     87  C   UNL A   1      45.141  25.804  34.532  1.00  0.00     0.148 A 
ATOM     88  C   UNL A   1      47.592  27.178  34.423  1.00  0.00     0.002 A 
ATOM     89  C   UNL A   1      46.235  25.344  35.254  1.00  0.00     0.091 A 
ATOM     90  F   UNL A   1      43.958  25.173  34.552  1.00  0.00    -0.205 F 
ATOM     91  C   UNL A   1      47.461  26.028  35.198  1.00  0.00     0.022 A 
BRANCH  89  92
ATOM     92  S   UNL A   1      46.148  23.916  36.339  1.00  0.00     0.127 S 
ATOM     93  O   UNL A   1      45.136  24.338  37.306  1.00  0.00    -0.237 OA
ATOM     94  O   UNL A   1      45.715  22.860  35.424  1.00  0.00    -0.237 OA
ATOM     95  O   UNL A   1      47.486  23.739  36.884  1.00  0.00    -0.744 OA
ENDBRANCH  89  92
ENDBRANCH  62  85
ENDBRANCH  36  37
ENDBRANCH  28  31
ENDBRANCH   1  27
TORSDOF 15
ENDMDL
MODEL 3
REMARK VINA RESULT:     -12.8      5.308     10.298
REMARK SMILES CC(C)(C)c1cc2c(cc1Cl)C=C(C(=O)NCCCNC(=O)c1ccc(-c3c4nc(c(-c5cccc(S(=O)(=O)[O-])c5F)c5ccc([nH]5)c(-c5cccc(S(=O)(=O)[O-])c5F)c5nc(c(-c6cccc(S(=O)(=O)[O-])c6F)c6ccc3[nH]6)C=C5)C=C4)cc1)[C@@H](C(F)(F)F)O2
REMARK SMILES IDX 19 1 18 2 17 3 16 4 14 5 15 6 13 8 5 9 6 10 10 11 7 12 9 13
REMARK SMILES IDX 11 14 8 15 91 16 12 17 86 18 2 19 1 20 3 21 4 22 87 23 88 24
REMARK SMILES IDX 89 25 90 26 20 27 21 28 22 30 23 31 24 32 85 33 25 34 84 35
REMARK SMILES IDX 26 36 27 37 28 38 78 39 29 40 83 41 77 42 79 43 30 44 82 45
REMARK SMILES IDX 76 46 75 47 31 49 63 50 43 51 62 52 44 53 47 54 61 55 80 56
REMARK SMILES IDX 45 57 46 58 60 60 81 61 48 62 32 63 33 64 41 65 34 66 36 67
REMARK SMILES IDX 42 68 35 69 37 70 38 71 39 72 40 73 64 74 65 75 73 76 66 77
REMARK SMILES IDX 68 78 74 79 67 80 69 81 70 82 71 83 72 84 49 85 50 86 58 87
REMARK SMILES IDX 51 88 53 89 59 90 52 91 54 92 55 93 56 94 57 95
REMARK H PARENT 16 7 20 29 79 48 47 59
REMARK Flexibility Score: inf
ROOT
ATOM      1  C   UNL A   1      32.546  30.463  26.937  1.00  0.00     0.118 C 
ENDROOT
BRANCH   1   2
ATOM      2  C   UNL A   1      32.336  30.004  25.500  1.00  0.00     0.042 C 
BRANCH   2   3
ATOM      3  C   UNL A   1      30.979  30.418  24.952  1.00  0.00     0.118 C 
BRANCH   3   4
ATOM      4  N   UNL A   1      30.665  29.741  23.704  1.00  0.00    -0.352 N 
ATOM      5  C   UNL A   1      30.819  28.504  23.177  1.00  0.00     0.251 C 
ATOM      6  O   UNL A   1      30.381  28.363  22.031  1.00  0.00    -0.270 OA
ATOM      7  H   UNL A   1      30.219  30.348  23.069  1.00  0.00     0.163 HD
BRANCH   5   8
ATOM      8  C   UNL A   1      31.452  27.348  23.871  1.00  0.00     0.067 C 
ATOM      9  C   UNL A   1      34.494  23.503  25.226  1.00  0.00    -0.020 A 
ATOM     10  C   UNL A   1      33.494  24.282  25.854  1.00  0.00     0.053 A 
ATOM     11  C   UNL A   1      34.801  23.857  23.889  1.00  0.00     0.045 A 
ATOM     12  C   UNL A   1      32.862  25.343  25.207  1.00  0.00     0.128 A 
ATOM     13  C   UNL A   1      34.189  24.960  23.260  1.00  0.00     0.032 A 
ATOM     14  Cl  UNL A   1      35.886  22.973  22.874  1.00  0.00    -0.084 Cl
ATOM     15  C   UNL A   1      33.216  25.706  23.917  1.00  0.00     0.019 A 
ATOM     16  O   UNL A   1      31.902  26.009  25.917  1.00  0.00    -0.475 OA
ATOM     17  C   UNL A   1      32.569  26.857  23.300  1.00  0.00     0.025 C 
ATOM     18  C   UNL A   1      30.905  26.700  25.113  1.00  0.00     0.314 C 
BRANCH   9  19
ATOM     19  C   UNL A   1      35.119  22.319  26.007  1.00  0.00    -0.012 C 
ATOM     20  C   UNL A   1      34.532  22.306  27.432  1.00  0.00     0.016 C 
ATOM     21  C   UNL A   1      36.663  22.437  26.153  1.00  0.00     0.016 C 
ATOM     22  C   UNL A   1      34.890  20.948  25.333  1.00  0.00     0.016 C 
ENDBRANCH   9  19
BRANCH  18  23
ATOM     23  C   UNL A   1      29.733  25.746  24.808  1.00  0.00     0.429 C 
ATOM     24  F   UNL A   1      29.524  24.900  25.846  1.00  0.00    -0.167 F 
ATOM     25  F   UNL A   1      28.566  26.403  24.606  1.00  0.00    -0.167 F 
ATOM     26  F   UNL A   1      29.944  24.989  23.707  1.00  0.00    -0.167 F 
ENDBRANCH  18  23
ENDBRANCH   5   8
ENDBRANCH   3   4
ENDBRANCH   2   3
ENDBRANCH   1   2
BRANCH   1  27
ATOM     27  N   UNL A   1      32.587  31.921  27.049  1.00  0.00    -0.352 N 
ATOM     28  C   UNL A   1      33.506  32.741  27.660  1.00  0.00     0.251 C 
ATOM     29  H   UNL A   1      31.836  32.389  26.618  1.00  0.00     0.163 HD
ATOM     30  O   UNL A   1      33.230  33.924  27.847  1.00  0.00    -0.269 OA
BRANCH  28  31
ATOM     31  C   UNL A   1      34.802  32.193  28.106  1.00  0.00     0.039 A 
ATOM     32  C   UNL A   1      34.897  30.861  28.504  1.00  0.00     0.014 A 
ATOM     33  C   UNL A   1      35.933  33.015  28.136  1.00  0.00     0.014 A 
ATOM     34  C   UNL A   1      36.052  30.412  29.128  1.00  0.00     0.010 A 
ATOM     35  C   UNL A   1      37.134  32.524  28.660  1.00  0.00     0.010 A 
ATOM     36  C   UNL A   1      37.186  31.236  29.215  1.00  0.00    -0.014 A 
BRANCH  36  37
ATOM     37  C   UNL A   1      38.403  30.707  29.885  1.00  0.00     0.031 A 
ATOM     38  C   UNL A   1      38.719  31.061  31.313  1.00  0.00     0.074 A 
ATOM     39  C   UNL A   1      39.186  29.837  29.216  1.00  0.00     0.049 A 
ATOM     40  N   UNL A   1      39.700  30.628  32.064  1.00  0.00    -0.248 NA
ATOM     41  C   UNL A   1      37.834  32.023  31.991  1.00  0.00     0.031 C 
ATOM     42  C   UNL A   1      38.992  29.434  27.820  1.00  0.00     0.029 A 
ATOM     43  N   UNL A   1      40.273  29.106  29.622  1.00  0.00    -0.354 N 
ATOM     44  C   UNL A   1      39.581  31.297  33.275  1.00  0.00     0.074 A 
ATOM     45  C   UNL A   1      38.432  32.167  33.168  1.00  0.00     0.031 C 
ATOM     46  C   UNL A   1      39.879  28.479  27.510  1.00  0.00     0.029 A 
ATOM     47  C   UNL A   1      40.745  28.246  28.659  1.00  0.00     0.049 A 
ATOM     48  H   UNL A   1      40.677  29.192  30.516  1.00  0.00     0.167 HD
ATOM     49  C   UNL A   1      40.349  31.182  34.384  1.00  0.00     0.034 A 
ATOM     50  C   UNL A   1      41.762  27.363  28.691  1.00  0.00     0.034 A 
ATOM     51  C   UNL A   1      41.446  30.264  34.515  1.00  0.00     0.049 A 
ATOM     52  C   UNL A   1      42.573  27.230  29.945  1.00  0.00     0.074 A 
ATOM     53  C   UNL A   1      42.246  30.040  35.622  1.00  0.00     0.029 A 
ATOM     54  N   UNL A   1      41.892  29.414  33.517  1.00  0.00    -0.354 N 
ATOM     55  N   UNL A   1      42.398  27.824  31.100  1.00  0.00    -0.248 NA
ATOM     56  C   UNL A   1      43.717  26.309  29.906  1.00  0.00     0.031 C 
ATOM     57  C   UNL A   1      43.179  29.053  35.292  1.00  0.00     0.029 A 
ATOM     58  C   UNL A   1      42.957  28.663  33.981  1.00  0.00     0.049 A 
ATOM     59  H   UNL A   1      41.508  29.352  32.613  1.00  0.00     0.167 HD
ATOM     60  C   UNL A   1      43.406  27.348  31.927  1.00  0.00     0.074 A 
ATOM     61  C   UNL A   1      44.173  26.396  31.150  1.00  0.00     0.031 C 
ATOM     62  C   UNL A   1      43.682  27.689  33.208  1.00  0.00     0.034 A 
BRANCH  49  63
ATOM     63  C   UNL A   1      40.004  32.028  35.578  1.00  0.00     0.023 A 
ATOM     64  C   UNL A   1      40.640  33.273  35.746  1.00  0.00     0.012 A 
ATOM     65  C   UNL A   1      38.979  31.644  36.465  1.00  0.00     0.148 A 
ATOM     66  C   UNL A   1      40.267  34.124  36.784  1.00  0.00     0.002 A 
ATOM     67  C   UNL A   1      38.593  32.511  37.482  1.00  0.00     0.091 A 
ATOM     68  F   UNL A   1      38.399  30.449  36.291  1.00  0.00    -0.205 F 
ATOM     69  C   UNL A   1      39.238  33.748  37.645  1.00  0.00     0.022 A 
BRANCH  67  70
ATOM     70  S   UNL A   1      37.244  32.148  38.612  1.00  0.00     0.127 S 
ATOM     71  O   UNL A   1      36.142  32.889  38.000  1.00  0.00    -0.237 OA
ATOM     72  O   UNL A   1      37.137  30.693  38.504  1.00  0.00    -0.237 OA
ATOM     73  O   UNL A   1      37.668  32.635  39.917  1.00  0.00    -0.744 OA
ENDBRANCH  67  70
ENDBRANCH  49  63
BRANCH  50  74
ATOM     74  C   UNL A   1      42.018  26.509  27.500  1.00  0.00     0.023 A 
ATOM     75  C   UNL A   1      42.741  27.041  26.416  1.00  0.00     0.012 A 
ATOM     76  C   UNL A   1      41.641  25.153  27.482  1.00  0.00     0.148 A 
ATOM     77  C   UNL A   1      43.086  26.233  25.332  1.00  0.00     0.002 A 
ATOM     78  C   UNL A   1      42.029  24.343  26.423  1.00  0.00     0.091 A 
ATOM     79  F   UNL A   1      40.946  24.676  28.524  1.00  0.00    -0.205 F 
ATOM     80  C   UNL A   1      42.743  24.883  25.342  1.00  0.00     0.022 A 
BRANCH  78  81
ATOM     81  S   UNL A   1      41.746  22.569  26.410  1.00  0.00     0.127 S 
ATOM     82  O   UNL A   1      42.367  22.160  27.667  1.00  0.00    -0.237 OA
ATOM     83  O   UNL A   1      40.284  22.500  26.391  1.00  0.00    -0.237 OA
ATOM     84  O   UNL A   1      42.390  22.074  25.200  1.00  0.00    -0.744 OA
ENDBRANCH  78  81
ENDBRANCH  50  74
BRANCH  62  85
ATOM     85  C   UNL A   1      44.865  27.042  33.868  1.00  0.00     0.023 A 
ATOM     86  C   UNL A   1      46.115  27.685  33.811  1.00  0.00     0.012 A 
ATOM     87  C   UNL A   1      44.709  25.882  34.651  1.00  0.00     0.148 A 
ATOM     88  C   UNL A   1      47.201  27.180  34.523  1.00  0.00     0.002 A 
ATOM     89  C   UNL A   1      45.788  25.402  35.383  1.00  0.00     0.091 A 
ATOM     90  F   UNL A   1      43.507  25.288  34.679  1.00  0.00    -0.205 F 
ATOM     91  C   UNL A   1      47.034  26.048  35.318  1.00  0.00     0.022 A 
BRANCH  89  92
ATOM     92  S   UNL A   1      45.655  23.996  36.492  1.00  0.00     0.127 S 
ATOM     93  O   UNL A   1      47.044  23.815  36.910  1.00  0.00    -0.237 OA
ATOM     94  O   UNL A   1      44.766  24.509  37.535  1.00  0.00    -0.237 OA
ATOM     95  O   UNL A   1      45.102  22.906  35.702  1.00  0.00    -0.744 OA
ENDBRANCH  89  92
ENDBRANCH  62  85
ENDBRANCH  36  37
ENDBRANCH  28  31
ENDBRANCH   1  27
TORSDOF 15
ENDMDL
