MODEL 1
REMARK VINA RESULT:     -12.8      0.000      0.000
REMARK SMILES Cc1cccc(NC(=O)C[C@H]([NH2+]C(C)C)C(=O)NCCCNC(=O)c2ccc(-c3c4nc(c(-c5cccc(S(=O)(=O)[O-])c5F)c5ccc([nH]5)c(-c5cccc(S(=O)(=O)[O-])c5F)c5nc(c(-c6cccc(S(=O)(=O)[O-])c6F)c6ccc3[nH]6)C=C5)C=C4)cc2)c1
REMARK SMILES IDX 20 1 19 2 18 3 16 4 17 5 11 7 10 8 8 9 7 10 9 12 6 13 1 14
REMARK SMILES IDX 2 15 3 16 88 17 4 18 5 19 12 20 13 23 14 24 15 25 21 26
REMARK SMILES IDX 22 27 23 28 24 30 25 31 26 32 87 33 27 34 86 35 28 36 29 37
REMARK SMILES IDX 30 38 80 39 31 40 85 41 79 42 81 43 32 44 84 45 78 46 77 47
REMARK SMILES IDX 33 49 65 50 45 51 64 52 46 53 49 54 63 55 82 56 47 57 48 58
REMARK SMILES IDX 62 60 83 61 50 62 34 63 35 64 43 65 36 66 38 67 44 68 37 69
REMARK SMILES IDX 39 70 40 71 41 72 42 73 66 74 67 75 75 76 68 77 70 78 76 79
REMARK SMILES IDX 69 80 71 81 72 82 73 83 74 84 51 85 52 86 60 87 53 88 55 89
REMARK SMILES IDX 61 90 54 91 56 92 57 93 58 94 59 95
REMARK H PARENT 18 6 7 11 12 21 12 22 22 29 81 48 49 59
REMARK Flexibility Score: inf
ROOT
ATOM      1  C   UNL A   1      35.492  30.041  27.469  1.00  0.00     0.042 C 
ENDROOT
BRANCH   1   2
ATOM      2  C   UNL A   1      34.544  28.881  26.577  1.00  0.00     0.118 C 
BRANCH   2   3
ATOM      3  N   UNL A   1      33.849  28.828  24.615  1.00  0.00    -0.351 N 
ATOM      4  C   UNL A   1      32.980  28.548  23.563  1.00  0.00     0.278 C 
ATOM      5  O   UNL A   1      33.298  29.137  22.509  1.00  0.00    -0.268 OA
ATOM      6  H   UNL A   1      34.587  29.273  24.138  1.00  0.00     0.163 HD
BRANCH   4   7
ATOM      7  C   UNL A   1      31.751  27.634  23.483  1.00  0.00     0.282 C 
BRANCH   7   8
ATOM      8  C   UNL A   1      32.014  26.117  23.669  1.00  0.00     0.175 C 
BRANCH   8   9
ATOM      9  C   UNL A   1      32.514  25.310  22.461  1.00  0.00     0.230 C 
ATOM     10  N   UNL A   1      33.390  24.262  22.574  1.00  0.00    -0.326 N 
ATOM     11  H   UNL A   1      33.805  23.928  21.745  1.00  0.00     0.169 HD
ATOM     12  O   UNL A   1      32.137  25.619  21.323  1.00  0.00    -0.274 OA
BRANCH  10  13
ATOM     13  C   UNL A   1      33.741  23.627  23.772  1.00  0.00     0.041 A 
ATOM     14  C   UNL A   1      37.520  23.892  26.148  1.00  0.00     0.044 C 
ATOM     15  C   UNL A   1      36.300  23.297  25.565  1.00  0.00    -0.049 A 
ATOM     16  C   UNL A   1      36.013  21.510  25.616  1.00  0.00     0.003 A 
ATOM     17  C   UNL A   1      35.169  24.356  24.610  1.00  0.00     0.029 A 
ATOM     18  C   UNL A   1      34.534  20.801  24.843  1.00  0.00     0.002 A 
ATOM     19  C   UNL A   1      33.368  21.861  23.971  1.00  0.00     0.026 A 
ENDBRANCH  10  13
ENDBRANCH   8   9
ENDBRANCH   7   8
BRANCH   7  20
ATOM     20  N   UNL A   1      30.796  28.015  22.374  1.00  0.00    -0.334 N 
ATOM     21  H   UNL A   1      30.338  27.165  22.048  1.00  0.00     0.347 HD
ATOM     22  H   UNL A   1      31.363  28.474  21.661  1.00  0.00     0.347 HD
BRANCH  20  23
ATOM     23  C   UNL A   1      29.739  28.992  22.748  1.00  0.00     0.176 C 
ATOM     24  C   UNL A   1      29.698  30.128  21.714  1.00  0.00     0.075 C 
ATOM     25  C   UNL A   1      28.339  28.448  22.998  1.00  0.00     0.075 C 
ENDBRANCH  20  23
ENDBRANCH   7  20
ENDBRANCH   4   7
ENDBRANCH   2   3
ENDBRANCH   1   2
BRANCH   1  26
ATOM     26  C   UNL A   1      34.777  30.820  28.569  1.00  0.00     0.118 C 
BRANCH  26  27
ATOM     27  N   UNL A   1      34.383  32.165  28.238  1.00  0.00    -0.352 N 
ATOM     28  C   UNL A   1      34.398  33.228  29.131  1.00  0.00     0.251 C 
ATOM     29  H   UNL A   1      34.083  32.342  27.317  1.00  0.00     0.163 HD
ATOM     30  O   UNL A   1      33.428  33.977  29.182  1.00  0.00    -0.269 OA
BRANCH  28  31
ATOM     31  C   UNL A   1      35.670  33.541  29.854  1.00  0.00     0.039 A 
ATOM     32  C   UNL A   1      36.733  33.931  29.039  1.00  0.00     0.014 A 
ATOM     33  C   UNL A   1      35.945  32.965  31.084  1.00  0.00     0.014 A 
ATOM     34  C   UNL A   1      37.983  33.361  29.242  1.00  0.00     0.010 A 
ATOM     35  C   UNL A   1      37.127  32.278  31.215  1.00  0.00     0.010 A 
ATOM     36  C   UNL A   1      38.110  32.398  30.228  1.00  0.00    -0.014 A 
BRANCH  36  37
ATOM     37  C   UNL A   1      39.356  31.743  30.555  1.00  0.00     0.031 A 
ATOM     38  C   UNL A   1      39.499  30.441  29.868  1.00  0.00     0.074 A 
ATOM     39  C   UNL A   1      40.339  32.330  31.282  1.00  0.00     0.049 A 
ATOM     40  N   UNL A   1      40.357  29.548  30.190  1.00  0.00    -0.248 NA
ATOM     41  C   UNL A   1      38.612  30.004  28.782  1.00  0.00     0.031 C 
ATOM     42  C   UNL A   1      41.747  31.940  31.296  1.00  0.00     0.029 A 
ATOM     43  N   UNL A   1      40.293  33.354  32.237  1.00  0.00    -0.354 N 
ATOM     44  C   UNL A   1      40.326  28.572  29.216  1.00  0.00     0.074 A 
ATOM     45  C   UNL A   1      39.158  28.841  28.429  1.00  0.00     0.031 C 
ATOM     46  C   UNL A   1      42.350  32.484  32.365  1.00  0.00     0.029 A 
ATOM     47  C   UNL A   1      41.312  33.098  33.171  1.00  0.00     0.049 A 
ATOM     48  H   UNL A   1      39.664  34.111  32.251  1.00  0.00     0.167 HD
ATOM     49  C   UNL A   1      41.396  27.741  29.128  1.00  0.00     0.034 A 
ATOM     50  C   UNL A   1      41.110  32.842  34.500  1.00  0.00     0.034 A 
ATOM     51  C   UNL A   1      42.315  28.038  30.234  1.00  0.00     0.049 A 
ATOM     52  C   UNL A   1      41.534  31.429  34.876  1.00  0.00     0.074 A 
ATOM     53  C   UNL A   1      43.418  28.869  30.345  1.00  0.00     0.029 A 
ATOM     54  N   UNL A   1      41.892  27.769  31.528  1.00  0.00    -0.354 N 
ATOM     55  N   UNL A   1      41.875  30.523  33.999  1.00  0.00    -0.248 NA
ATOM     56  C   UNL A   1      41.634  30.919  36.240  1.00  0.00     0.031 C 
ATOM     57  C   UNL A   1      43.635  29.118  31.730  1.00  0.00     0.029 A 
ATOM     58  C   UNL A   1      42.689  28.414  32.457  1.00  0.00     0.049 A 
ATOM     59  H   UNL A   1      41.125  27.196  31.755  1.00  0.00     0.167 HD
ATOM     60  C   UNL A   1      42.168  29.333  34.610  1.00  0.00     0.074 A 
ATOM     61  C   UNL A   1      42.048  29.654  36.025  1.00  0.00     0.031 C 
ATOM     62  C   UNL A   1      42.453  28.202  33.884  1.00  0.00     0.034 A 
BRANCH  49  63
ATOM     63  C   UNL A   1      41.763  26.851  27.960  1.00  0.00     0.023 A 
ATOM     64  C   UNL A   1      42.008  27.517  26.737  1.00  0.00     0.012 A 
ATOM     65  C   UNL A   1      41.852  25.438  27.923  1.00  0.00     0.148 A 
ATOM     66  C   UNL A   1      42.272  26.840  25.545  1.00  0.00     0.002 A 
ATOM     67  C   UNL A   1      42.096  24.756  26.724  1.00  0.00     0.091 A 
ATOM     68  F   UNL A   1      41.742  24.727  29.045  1.00  0.00    -0.205 F 
ATOM     69  C   UNL A   1      42.304  25.457  25.534  1.00  0.00     0.022 A 
BRANCH  67  70
ATOM     70  S   UNL A   1      42.132  22.956  26.600  1.00  0.00     0.127 S 
ATOM     71  O   UNL A   1      43.212  22.606  27.526  1.00  0.00    -0.237 OA
ATOM     72  O   UNL A   1      40.797  22.580  27.061  1.00  0.00    -0.237 OA
ATOM     73  O   UNL A   1      42.419  22.641  25.206  1.00  0.00    -0.744 OA
ENDBRANCH  67  70
ENDBRANCH  49  63
BRANCH  50  74
ATOM     74  C   UNL A   1      39.986  33.632  35.081  1.00  0.00     0.023 A 
ATOM     75  C   UNL A   1      38.734  32.963  35.109  1.00  0.00     0.012 A 
ATOM     76  C   UNL A   1      40.255  34.620  36.039  1.00  0.00     0.148 A 
ATOM     77  C   UNL A   1      37.898  33.076  36.217  1.00  0.00     0.002 A 
ATOM     78  C   UNL A   1      39.417  34.720  37.145  1.00  0.00     0.091 A 
ATOM     79  F   UNL A   1      41.379  35.338  35.920  1.00  0.00    -0.205 F 
ATOM     80  C   UNL A   1      38.276  33.905  37.263  1.00  0.00     0.022 A 
BRANCH  78  81
ATOM     81  S   UNL A   1      39.864  35.672  38.597  1.00  0.00     0.127 S 
ATOM     82  O   UNL A   1      39.710  37.042  38.118  1.00  0.00    -0.237 OA
ATOM     83  O   UNL A   1      38.839  35.233  39.540  1.00  0.00    -0.237 OA
ATOM     84  O   UNL A   1      41.221  35.263  38.923  1.00  0.00    -0.744 OA
ENDBRANCH  78  81
ENDBRANCH  50  74
BRANCH  62  85
ATOM     85  C   UNL A   1      42.544  26.768  34.408  1.00  0.00     0.023 A 
ATOM     86  C   UNL A   1      41.541  26.177  35.190  1.00  0.00     0.012 A 
ATOM     87  C   UNL A   1      43.614  25.905  34.020  1.00  0.00     0.148 A 
ATOM     88  C   UNL A   1      41.604  24.839  35.602  1.00  0.00     0.002 A 
ATOM     89  C   UNL A   1      43.599  24.545  34.309  1.00  0.00     0.091 A 
ATOM     90  F   UNL A   1      44.696  26.397  33.404  1.00  0.00    -0.205 F 
ATOM     91  C   UNL A   1      42.614  24.014  35.134  1.00  0.00     0.022 A 
BRANCH  89  92
ATOM     92  S   UNL A   1      44.748  23.401  33.529  1.00  0.00     0.127 S 
ATOM     93  O   UNL A   1      46.038  23.935  33.963  1.00  0.00    -0.237 OA
ATOM     94  O   UNL A   1      44.374  22.129  34.149  1.00  0.00    -0.237 OA
ATOM     95  O   UNL A   1      44.471  23.478  32.103  1.00  0.00    -0.744 OA
ENDBRANCH  89  92
ENDBRANCH  62  85
ENDBRANCH  36  37
ENDBRANCH  28  31
ENDBRANCH  26  27
ENDBRANCH   1  26
TORSDOF 18
ENDMDL
MODEL 2
REMARK VINA RESULT:     -12.8      2.947      4.006
REMARK SMILES Cc1cccc(NC(=O)C[C@H]([NH2+]C(C)C)C(=O)NCCCNC(=O)c2ccc(-c3c4nc(c(-c5cccc(S(=O)(=O)[O-])c5F)c5ccc([nH]5)c(-c5cccc(S(=O)(=O)[O-])c5F)c5nc(c(-c6cccc(S(=O)(=O)[O-])c6F)c6ccc3[nH]6)C=C5)C=C4)cc2)c1
REMARK SMILES IDX 20 1 19 2 18 3 16 4 17 5 11 7 10 8 8 9 7 10 9 12 6 13 1 14
REMARK SMILES IDX 2 15 3 16 88 17 4 18 5 19 12 20 13 23 14 24 15 25 21 26
REMARK SMILES IDX 22 27 23 28 24 30 25 31 26 32 87 33 27 34 86 35 28 36 29 37
REMARK SMILES IDX 30 38 80 39 31 40 85 41 79 42 81 43 32 44 84 45 78 46 77 47
REMARK SMILES IDX 33 49 65 50 45 51 64 52 46 53 49 54 63 55 82 56 47 57 48 58
REMARK SMILES IDX 62 60 83 61 50 62 34 63 35 64 43 65 36 66 38 67 44 68 37 69
REMARK SMILES IDX 39 70 40 71 41 72 42 73 66 74 67 75 75 76 68 77 70 78 76 79
REMARK SMILES IDX 69 80 71 81 72 82 73 83 74 84 51 85 52 86 60 87 53 88 55 89
REMARK SMILES IDX 61 90 54 91 56 92 57 93 58 94 59 95
REMARK H PARENT 18 6 7 11 12 21 12 22 22 29 81 48 49 59
REMARK Flexibility Score: inf
ROOT
ATOM      1  C   UNL A   1      33.948  29.620  26.641  1.00  0.00     0.042 C 
ENDROOT
BRANCH   1   2
ATOM      2  C   UNL A   1      33.302  28.110  27.223  1.00  0.00     0.118 C 
BRANCH   2   3
ATOM      3  N   UNL A   1      31.613  27.002  26.714  1.00  0.00    -0.351 N 
ATOM      4  C   UNL A   1      30.668  26.400  25.886  1.00  0.00     0.278 C 
ATOM      5  O   UNL A   1      29.930  25.604  26.502  1.00  0.00    -0.268 OA
ATOM      6  H   UNL A   1      31.275  26.749  27.604  1.00  0.00     0.163 HD
BRANCH   4   7
ATOM      7  C   UNL A   1      30.375  26.577  24.392  1.00  0.00     0.282 C 
BRANCH   7   8
ATOM      8  C   UNL A   1      30.629  25.338  23.494  1.00  0.00     0.175 C 
BRANCH   8   9
ATOM      9  C   UNL A   1      31.778  25.399  22.476  1.00  0.00     0.230 C 
ATOM     10  N   UNL A   1      33.025  24.886  22.724  1.00  0.00    -0.326 N 
ATOM     11  H   UNL A   1      33.749  25.136  22.105  1.00  0.00     0.169 HD
ATOM     12  O   UNL A   1      31.596  25.953  21.384  1.00  0.00    -0.274 OA
BRANCH  10  13
ATOM     13  C   UNL A   1      33.352  24.035  23.788  1.00  0.00     0.041 A 
ATOM     14  C   UNL A   1      37.150  23.707  26.126  1.00  0.00     0.044 C 
ATOM     15  C   UNL A   1      35.900  23.279  25.462  1.00  0.00    -0.049 A 
ATOM     16  C   UNL A   1      35.531  21.526  25.201  1.00  0.00     0.003 A 
ATOM     17  C   UNL A   1      34.816  24.540  24.723  1.00  0.00     0.029 A 
ATOM     18  C   UNL A   1      34.017  21.032  24.335  1.00  0.00     0.002 A 
ATOM     19  C   UNL A   1      32.898  22.281  23.677  1.00  0.00     0.026 A 
ENDBRANCH  10  13
ENDBRANCH   8   9
ENDBRANCH   7   8
BRANCH   7  20
ATOM     20  N   UNL A   1      30.845  27.906  23.845  1.00  0.00    -0.334 N 
ATOM     21  H   UNL A   1      31.472  27.720  23.062  1.00  0.00     0.347 HD
ATOM     22  H   UNL A   1      31.294  28.387  24.624  1.00  0.00     0.347 HD
BRANCH  20  23
ATOM     23  C   UNL A   1      29.771  28.817  23.366  1.00  0.00     0.176 C 
ATOM     24  C   UNL A   1      30.253  29.571  22.117  1.00  0.00     0.075 C 
ATOM     25  C   UNL A   1      28.395  28.211  23.124  1.00  0.00     0.075 C 
ENDBRANCH  20  23
ENDBRANCH   7  20
ENDBRANCH   4   7
ENDBRANCH   2   3
ENDBRANCH   1   2
BRANCH   1  26
ATOM     26  C   UNL A   1      33.975  30.787  27.625  1.00  0.00     0.118 C 
BRANCH  26  27
ATOM     27  N   UNL A   1      35.163  31.600  27.610  1.00  0.00    -0.352 N 
ATOM     28  C   UNL A   1      36.284  31.362  28.394  1.00  0.00     0.251 C 
ATOM     29  H   UNL A   1      35.182  32.375  27.003  1.00  0.00     0.163 HD
ATOM     30  O   UNL A   1      36.805  32.299  28.988  1.00  0.00    -0.269 OA
BRANCH  28  31
ATOM     31  C   UNL A   1      36.935  30.016  28.328  1.00  0.00     0.039 A 
ATOM     32  C   UNL A   1      37.074  29.364  29.553  1.00  0.00     0.014 A 
ATOM     33  C   UNL A   1      37.809  29.703  27.299  1.00  0.00     0.014 A 
ATOM     34  C   UNL A   1      38.292  28.780  29.872  1.00  0.00     0.010 A 
ATOM     35  C   UNL A   1      39.064  29.264  27.643  1.00  0.00     0.010 A 
ATOM     36  C   UNL A   1      39.332  28.901  28.967  1.00  0.00    -0.014 A 
BRANCH  36  37
ATOM     37  C   UNL A   1      40.642  28.323  29.165  1.00  0.00     0.031 A 
ATOM     38  C   UNL A   1      40.675  26.884  28.822  1.00  0.00     0.074 A 
ATOM     39  C   UNL A   1      41.739  29.055  29.478  1.00  0.00     0.049 A 
ATOM     40  N   UNL A   1      41.614  26.086  29.164  1.00  0.00    -0.248 NA
ATOM     41  C   UNL A   1      39.586  26.203  28.111  1.00  0.00     0.031 C 
ATOM     42  C   UNL A   1      43.129  28.649  29.278  1.00  0.00     0.029 A 
ATOM     43  N   UNL A   1      41.871  30.292  30.123  1.00  0.00    -0.354 N 
ATOM     44  C   UNL A   1      41.403  24.892  28.506  1.00  0.00     0.074 A 
ATOM     45  C   UNL A   1      40.081  24.976  27.957  1.00  0.00     0.031 C 
ATOM     46  C   UNL A   1      43.934  29.437  30.009  1.00  0.00     0.029 A 
ATOM     47  C   UNL A   1      43.079  30.262  30.840  1.00  0.00     0.049 A 
ATOM     48  H   UNL A   1      41.234  31.042  30.082  1.00  0.00     0.167 HD
ATOM     49  C   UNL A   1      42.455  24.042  28.398  1.00  0.00     0.034 A 
ATOM     50  C   UNL A   1      43.186  30.364  32.200  1.00  0.00     0.034 A 
ATOM     51  C   UNL A   1      43.586  24.592  29.157  1.00  0.00     0.049 A 
ATOM     52  C   UNL A   1      43.732  29.086  32.823  1.00  0.00     0.074 A 
ATOM     53  C   UNL A   1      44.656  25.398  28.801  1.00  0.00     0.029 A 
ATOM     54  N   UNL A   1      43.469  24.678  30.537  1.00  0.00    -0.354 N 
ATOM     55  N   UNL A   1      43.902  27.976  32.156  1.00  0.00    -0.248 NA
ATOM     56  C   UNL A   1      44.150  28.945  34.215  1.00  0.00     0.031 C 
ATOM     57  C   UNL A   1      45.165  25.991  29.991  1.00  0.00     0.029 A 
ATOM     58  C   UNL A   1      44.429  25.522  31.067  1.00  0.00     0.049 A 
ATOM     59  H   UNL A   1      42.792  24.201  31.069  1.00  0.00     0.167 HD
ATOM     60  C   UNL A   1      44.366  26.979  32.971  1.00  0.00     0.074 A 
ATOM     61  C   UNL A   1      44.551  27.657  34.245  1.00  0.00     0.031 C 
ATOM     62  C   UNL A   1      44.523  25.692  32.516  1.00  0.00     0.034 A 
BRANCH  49  63
ATOM     63  C   UNL A   1      42.586  22.871  27.447  1.00  0.00     0.023 A 
ATOM     64  C   UNL A   1      41.684  21.805  27.663  1.00  0.00     0.012 A 
ATOM     65  C   UNL A   1      43.519  22.689  26.397  1.00  0.00     0.148 A 
ATOM     66  C   UNL A   1      41.727  20.615  26.932  1.00  0.00     0.002 A 
ATOM     67  C   UNL A   1      43.578  21.489  25.676  1.00  0.00     0.091 A 
ATOM     68  F   UNL A   1      44.340  23.680  26.046  1.00  0.00    -0.205 F 
ATOM     69  C   UNL A   1      42.684  20.451  25.946  1.00  0.00     0.022 A 
BRANCH  67  70
ATOM     70  S   UNL A   1      44.802  21.168  24.390  1.00  0.00     0.127 S 
ATOM     71  O   UNL A   1      44.527  22.238  23.429  1.00  0.00    -0.237 OA
ATOM     72  O   UNL A   1      46.065  21.314  25.111  1.00  0.00    -0.237 OA
ATOM     73  O   UNL A   1      44.529  19.829  23.882  1.00  0.00    -0.744 OA
ENDBRANCH  67  70
ENDBRANCH  49  63
BRANCH  50  74
ATOM     74  C   UNL A   1      42.191  31.304  32.794  1.00  0.00     0.023 A 
ATOM     75  C   UNL A   1      42.173  32.601  32.218  1.00  0.00     0.012 A 
ATOM     76  C   UNL A   1      41.020  30.796  33.375  1.00  0.00     0.148 A 
ATOM     77  C   UNL A   1      40.964  33.252  31.981  1.00  0.00     0.002 A 
ATOM     78  C   UNL A   1      39.817  31.450  33.126  1.00  0.00     0.091 A 
ATOM     79  F   UNL A   1      41.084  29.633  34.034  1.00  0.00    -0.205 F 
ATOM     80  C   UNL A   1      39.783  32.641  32.378  1.00  0.00     0.022 A 
BRANCH  78  81
ATOM     81  S   UNL A   1      38.231  30.700  33.494  1.00  0.00     0.127 S 
ATOM     82  O   UNL A   1      38.524  29.280  33.333  1.00  0.00    -0.237 OA
ATOM     83  O   UNL A   1      38.037  31.133  34.876  1.00  0.00    -0.237 OA
ATOM     84  O   UNL A   1      37.302  31.270  32.530  1.00  0.00    -0.744 OA
ENDBRANCH  78  81
ENDBRANCH  50  74
BRANCH  62  85
ATOM     85  C   UNL A   1      44.779  24.440  33.356  1.00  0.00     0.023 A 
ATOM     86  C   UNL A   1      43.875  23.369  33.423  1.00  0.00     0.012 A 
ATOM     87  C   UNL A   1      46.022  24.242  34.030  1.00  0.00     0.148 A 
ATOM     88  C   UNL A   1      44.154  22.198  34.139  1.00  0.00     0.002 A 
ATOM     89  C   UNL A   1      46.352  23.025  34.616  1.00  0.00     0.091 A 
ATOM     90  F   UNL A   1      46.894  25.250  34.160  1.00  0.00    -0.205 F 
ATOM     91  C   UNL A   1      45.405  22.011  34.707  1.00  0.00     0.022 A 
BRANCH  89  92
ATOM     92  S   UNL A   1      48.030  22.656  35.147  1.00  0.00     0.127 S 
ATOM     93  O   UNL A   1      48.098  23.357  36.427  1.00  0.00    -0.237 OA
ATOM     94  O   UNL A   1      48.000  21.196  35.250  1.00  0.00    -0.237 OA
ATOM     95  O   UNL A   1      48.896  23.165  34.093  1.00  0.00    -0.744 OA
ENDBRANCH  89  92
ENDBRANCH  62  85
ENDBRANCH  36  37
ENDBRANCH  28  31
ENDBRANCH  26  27
ENDBRANCH   1  26
TORSDOF 18
ENDMDL
MODEL 3
REMARK VINA RESULT:     -12.6      2.803      3.930
REMARK SMILES Cc1cccc(NC(=O)C[C@H]([NH2+]C(C)C)C(=O)NCCCNC(=O)c2ccc(-c3c4nc(c(-c5cccc(S(=O)(=O)[O-])c5F)c5ccc([nH]5)c(-c5cccc(S(=O)(=O)[O-])c5F)c5nc(c(-c6cccc(S(=O)(=O)[O-])c6F)c6ccc3[nH]6)C=C5)C=C4)cc2)c1
REMARK SMILES IDX 20 1 19 2 18 3 16 4 17 5 11 7 10 8 8 9 7 10 9 12 6 13 1 14
REMARK SMILES IDX 2 15 3 16 88 17 4 18 5 19 12 20 13 23 14 24 15 25 21 26
REMARK SMILES IDX 22 27 23 28 24 30 25 31 26 32 87 33 27 34 86 35 28 36 29 37
REMARK SMILES IDX 30 38 80 39 31 40 85 41 79 42 81 43 32 44 84 45 78 46 77 47
REMARK SMILES IDX 33 49 65 50 45 51 64 52 46 53 49 54 63 55 82 56 47 57 48 58
REMARK SMILES IDX 62 60 83 61 50 62 34 63 35 64 43 65 36 66 38 67 44 68 37 69
REMARK SMILES IDX 39 70 40 71 41 72 42 73 66 74 67 75 75 76 68 77 70 78 76 79
REMARK SMILES IDX 69 80 71 81 72 82 73 83 74 84 51 85 52 86 60 87 53 88 55 89
REMARK SMILES IDX 61 90 54 91 56 92 57 93 58 94 59 95
REMARK H PARENT 18 6 7 11 12 21 12 22 22 29 81 48 49 59
REMARK Flexibility Score: inf
ROOT
ATOM      1  C   UNL A   1      32.524  30.489  27.267  1.00  0.00     0.042 C 
ENDROOT
BRANCH   1   2
ATOM      2  C   UNL A   1      31.752  28.997  26.802  1.00  0.00     0.118 C 
BRANCH   2   3
ATOM      3  N   UNL A   1      31.061  28.268  24.977  1.00  0.00    -0.351 N 
ATOM      4  C   UNL A   1      30.834  27.340  23.964  1.00  0.00     0.278 C 
ATOM      5  O   UNL A   1      30.015  27.749  23.115  1.00  0.00    -0.268 OA
ATOM      6  H   UNL A   1      30.634  29.071  24.599  1.00  0.00     0.163 HD
BRANCH   4   7
ATOM      7  C   UNL A   1      31.433  25.952  23.711  1.00  0.00     0.282 C 
BRANCH   7   8
ATOM      8  C   UNL A   1      31.001  24.832  24.692  1.00  0.00     0.175 C 
BRANCH   8   9
ATOM      9  C   UNL A   1      31.612  24.821  26.102  1.00  0.00     0.230 C 
ATOM     10  N   UNL A   1      32.670  24.022  26.452  1.00  0.00    -0.326 N 
ATOM     11  H   UNL A   1      32.872  23.935  27.412  1.00  0.00     0.169 HD
ATOM     12  O   UNL A   1      31.128  25.545  26.982  1.00  0.00    -0.274 OA
BRANCH  10  13
ATOM     13  C   UNL A   1      33.485  23.321  25.554  1.00  0.00     0.041 A 
ATOM     14  C   UNL A   1      33.754  18.927  24.767  1.00  0.00     0.044 C 
ATOM     15  C   UNL A   1      34.197  20.330  24.910  1.00  0.00    -0.049 A 
ATOM     16  C   UNL A   1      35.956  20.756  24.955  1.00  0.00     0.003 A 
ATOM     17  C   UNL A   1      32.957  21.619  25.241  1.00  0.00     0.029 A 
ATOM     18  C   UNL A   1      36.471  22.479  25.186  1.00  0.00     0.002 A 
ATOM     19  C   UNL A   1      35.239  23.771  25.429  1.00  0.00     0.026 A 
ENDBRANCH  10  13
ENDBRANCH   8   9
ENDBRANCH   7   8
BRANCH   7  20
ATOM     20  N   UNL A   1      32.901  25.993  23.348  1.00  0.00    -0.334 N 
ATOM     21  H   UNL A   1      33.417  25.489  24.069  1.00  0.00     0.347 HD
ATOM     22  H   UNL A   1      33.146  26.980  23.283  1.00  0.00     0.347 HD
BRANCH  20  23
ATOM     23  C   UNL A   1      33.250  25.396  22.031  1.00  0.00     0.176 C 
ATOM     24  C   UNL A   1      33.205  23.864  22.132  1.00  0.00     0.075 C 
ATOM     25  C   UNL A   1      32.468  25.874  20.815  1.00  0.00     0.075 C 
ENDBRANCH  20  23
ENDBRANCH   7  20
ENDBRANCH   4   7
ENDBRANCH   2   3
ENDBRANCH   1   2
BRANCH   1  26
ATOM     26  C   UNL A   1      34.000  30.646  26.912  1.00  0.00     0.118 C 
BRANCH  26  27
ATOM     27  N   UNL A   1      34.783  31.457  27.807  1.00  0.00    -0.352 N 
ATOM     28  C   UNL A   1      35.332  31.002  28.998  1.00  0.00     0.251 C 
ATOM     29  H   UNL A   1      34.939  32.397  27.557  1.00  0.00     0.163 HD
ATOM     30  O   UNL A   1      35.218  31.689  30.007  1.00  0.00    -0.269 OA
BRANCH  28  31
ATOM     31  C   UNL A   1      36.213  29.792  28.967  1.00  0.00     0.039 A 
ATOM     32  C   UNL A   1      36.691  29.377  30.210  1.00  0.00     0.014 A 
ATOM     33  C   UNL A   1      36.936  29.473  27.829  1.00  0.00     0.014 A 
ATOM     34  C   UNL A   1      38.038  29.065  30.344  1.00  0.00     0.010 A 
ATOM     35  C   UNL A   1      38.293  29.314  27.963  1.00  0.00     0.010 A 
ATOM     36  C   UNL A   1      38.857  29.215  29.239  1.00  0.00    -0.014 A 
BRANCH  36  37
ATOM     37  C   UNL A   1      40.269  28.907  29.237  1.00  0.00     0.031 A 
ATOM     38  C   UNL A   1      40.529  27.485  28.921  1.00  0.00     0.074 A 
ATOM     39  C   UNL A   1      41.237  29.848  29.356  1.00  0.00     0.049 A 
ATOM     40  N   UNL A   1      41.646  26.897  29.124  1.00  0.00    -0.248 NA
ATOM     41  C   UNL A   1      39.498  26.575  28.408  1.00  0.00     0.031 C 
ATOM     42  C   UNL A   1      42.632  29.703  28.944  1.00  0.00     0.029 A 
ATOM     43  N   UNL A   1      41.222  31.118  29.947  1.00  0.00    -0.354 N 
ATOM     44  C   UNL A   1      41.574  25.653  28.532  1.00  0.00     0.074 A 
ATOM     45  C   UNL A   1      40.193  25.457  28.201  1.00  0.00     0.031 C 
ATOM     46  C   UNL A   1      43.371  30.665  29.521  1.00  0.00     0.029 A 
ATOM     47  C   UNL A   1      42.509  31.354  30.461  1.00  0.00     0.049 A 
ATOM     48  H   UNL A   1      40.452  31.731  29.993  1.00  0.00     0.167 HD
ATOM     49  C   UNL A   1      42.743  25.013  28.275  1.00  0.00     0.034 A 
ATOM     50  C   UNL A   1      42.800  31.543  31.785  1.00  0.00     0.034 A 
ATOM     51  C   UNL A   1      43.847  25.805  28.832  1.00  0.00     0.049 A 
ATOM     52  C   UNL A   1      43.674  30.425  32.338  1.00  0.00     0.074 A 
ATOM     53  C   UNL A   1      44.672  26.780  28.294  1.00  0.00     0.029 A 
ATOM     54  N   UNL A   1      43.929  25.937  30.211  1.00  0.00    -0.354 N 
ATOM     55  N   UNL A   1      43.953  29.335  31.674  1.00  0.00    -0.248 NA
ATOM     56  C   UNL A   1      44.319  30.435  33.647  1.00  0.00     0.031 C 
ATOM     57  C   UNL A   1      45.232  27.518  29.375  1.00  0.00     0.029 A 
ATOM     58  C   UNL A   1      44.775  26.974  30.564  1.00  0.00     0.049 A 
ATOM     59  H   UNL A   1      43.447  25.368  30.854  1.00  0.00     0.167 HD
ATOM     60  C   UNL A   1      44.721  28.486  32.424  1.00  0.00     0.074 A 
ATOM     61  C   UNL A   1      44.963  29.250  33.639  1.00  0.00     0.031 C 
ATOM     62  C   UNL A   1      45.054  27.231  31.976  1.00  0.00     0.034 A 
BRANCH  49  63
ATOM     63  C   UNL A   1      42.952  23.842  27.339  1.00  0.00     0.023 A 
ATOM     64  C   UNL A   1      43.826  24.076  26.253  1.00  0.00     0.012 A 
ATOM     65  C   UNL A   1      42.355  22.558  27.386  1.00  0.00     0.148 A 
ATOM     66  C   UNL A   1      44.059  23.133  25.250  1.00  0.00     0.002 A 
ATOM     67  C   UNL A   1      42.572  21.618  26.371  1.00  0.00     0.091 A 
ATOM     68  F   UNL A   1      41.601  22.205  28.427  1.00  0.00    -0.205 F 
ATOM     69  C   UNL A   1      43.422  21.906  25.301  1.00  0.00     0.022 A 
BRANCH  67  70
ATOM     70  S   UNL A   1      41.769  20.001  26.334  1.00  0.00     0.127 S 
ATOM     71  O   UNL A   1      42.131  19.448  27.641  1.00  0.00    -0.237 OA
ATOM     72  O   UNL A   1      40.357  20.352  26.196  1.00  0.00    -0.237 OA
ATOM     73  O   UNL A   1      42.342  19.279  25.204  1.00  0.00    -0.744 OA
ENDBRANCH  67  70
ENDBRANCH  49  63
BRANCH  50  74
ATOM     74  C   UNL A   1      41.743  32.306  32.511  1.00  0.00     0.023 A 
ATOM     75  C   UNL A   1      41.390  33.548  31.924  1.00  0.00     0.012 A 
ATOM     76  C   UNL A   1      40.793  31.615  33.277  1.00  0.00     0.148 A 
ATOM     77  C   UNL A   1      40.057  33.949  31.868  1.00  0.00     0.002 A 
ATOM     78  C   UNL A   1      39.463  32.020  33.208  1.00  0.00     0.091 A 
ATOM     79  F   UNL A   1      41.179  30.516  33.937  1.00  0.00    -0.205 F 
ATOM     80  C   UNL A   1      39.089  33.148  32.455  1.00  0.00     0.022 A 
BRANCH  78  81
ATOM     81  S   UNL A   1      38.125  31.004  33.833  1.00  0.00     0.127 S 
ATOM     82  O   UNL A   1      38.053  31.423  35.228  1.00  0.00    -0.237 OA
ATOM     83  O   UNL A   1      37.019  31.463  32.997  1.00  0.00    -0.237 OA
ATOM     84  O   UNL A   1      38.545  29.630  33.604  1.00  0.00    -0.744 OA
ENDBRANCH  78  81
ENDBRANCH  50  74
BRANCH  62  85
ATOM     85  C   UNL A   1      45.675  26.094  32.789  1.00  0.00     0.023 A 
ATOM     86  C   UNL A   1      47.060  25.893  32.885  1.00  0.00     0.012 A 
ATOM     87  C   UNL A   1      44.869  25.240  33.602  1.00  0.00     0.148 A 
ATOM     88  C   UNL A   1      47.617  24.893  33.692  1.00  0.00     0.002 A 
ATOM     89  C   UNL A   1      45.431  24.347  34.508  1.00  0.00     0.091 A 
ATOM     90  F   UNL A   1      43.536  25.240  33.477  1.00  0.00    -0.205 F 
ATOM     91  C   UNL A   1      46.806  24.142  34.530  1.00  0.00     0.022 A 
BRANCH  89  92
ATOM     92  S   UNL A   1      44.441  23.535  35.771  1.00  0.00     0.127 S 
ATOM     93  O   UNL A   1      43.723  22.532  34.987  1.00  0.00    -0.237 OA
ATOM     94  O   UNL A   1      45.471  22.994  36.659  1.00  0.00    -0.237 OA
ATOM     95  O   UNL A   1      43.627  24.585  36.367  1.00  0.00    -0.744 OA
ENDBRANCH  89  92
ENDBRANCH  62  85
ENDBRANCH  36  37
ENDBRANCH  28  31
ENDBRANCH  26  27
ENDBRANCH   1  26
TORSDOF 18
ENDMDL
