MODEL 1
REMARK VINA RESULT:     -12.5      0.000      0.000
REMARK SMILES Cc1ccccc1OCCC(=O)N[C@@](C)(C(=O)NCCCNC(=O)c1ccc(-c2c3nc(c(-c4cccc(S(=O)(=O)[O-])c4F)c4ccc([nH]4)c(-c4cccc(S(=O)(=O)[O-])c4F)c4nc(c(-c5cccc(S(=O)(=O)[O-])c5F)c5ccc2[nH]5)C=C4)C=C3)cc1)C1CC1
REMARK SMILES IDX 19 1 18 2 16 3 17 4 14 6 15 7 13 8 11 9 12 10 10 12 9 13
REMARK SMILES IDX 8 14 7 15 1 16 2 17 3 18 4 19 6 20 5 21 88 22 89 23 90 24
REMARK SMILES IDX 20 25 21 26 22 27 23 28 24 30 25 31 26 32 87 33 27 34 86 35
REMARK SMILES IDX 28 36 29 37 30 38 80 39 31 40 85 41 79 42 81 43 32 44 84 45
REMARK SMILES IDX 78 46 77 47 33 49 65 50 45 51 64 52 46 53 49 54 63 55 82 56
REMARK SMILES IDX 47 57 48 58 62 60 83 61 50 62 34 63 35 64 43 65 36 66 38 67
REMARK SMILES IDX 44 68 37 69 39 70 40 71 41 72 42 73 66 74 67 75 75 76 68 77
REMARK SMILES IDX 70 78 76 79 69 80 71 81 72 82 73 83 74 84 51 85 52 86 60 87
REMARK SMILES IDX 53 88 55 89 61 90 54 91 56 92 57 93 58 94 59 95
REMARK H PARENT 18 5 13 11 22 29 81 48 49 59
REMARK Flexibility Score: inf
ROOT
ATOM      1  C   UNL A   1      36.357  20.893  24.938  1.00  0.00     0.117 C 
ENDROOT
BRANCH   1   2
ATOM      2  N   UNL A   1      35.774  21.200  26.247  1.00  0.00    -0.354 N 
ATOM      3  C   UNL A   1      34.547  21.729  26.604  1.00  0.00     0.245 C 
ATOM      4  O   UNL A   1      34.212  21.635  27.787  1.00  0.00    -0.272 OA
ATOM      5  H   UNL A   1      36.361  20.992  27.010  1.00  0.00     0.163 HD
BRANCH   3   6
ATOM      6  C   UNL A   1      33.617  22.427  25.527  1.00  0.00     0.119 C 
ATOM      7  C   UNL A   1      34.312  23.736  25.133  1.00  0.00     0.046 C 
BRANCH   6   8
ATOM      8  N   UNL A   1      32.363  22.594  26.311  1.00  0.00    -0.342 N 
ATOM      9  C   UNL A   1      31.575  23.587  26.766  1.00  0.00     0.224 C 
ATOM     10  O   UNL A   1      30.564  23.244  27.389  1.00  0.00    -0.275 OA
ATOM     11  H   UNL A   1      32.003  21.717  26.577  1.00  0.00     0.164 HD
BRANCH   9  12
ATOM     12  C   UNL A   1      31.810  25.039  26.474  1.00  0.00     0.141 C 
BRANCH  12  13
ATOM     13  C   UNL A   1      30.748  25.761  25.657  1.00  0.00     0.239 C 
BRANCH  13  14
ATOM     14  O   UNL A   1      31.229  26.634  24.652  1.00  0.00    -0.493 OA
BRANCH  14  15
ATOM     15  C   UNL A   1      30.596  27.777  24.263  1.00  0.00     0.122 A 
ATOM     16  C   UNL A   1      31.912  29.733  25.398  1.00  0.00     0.048 C 
ATOM     17  C   UNL A   1      30.910  29.130  24.454  1.00  0.00    -0.009 A 
ATOM     18  C   UNL A   1      30.138  30.097  23.759  1.00  0.00     0.007 A 
ATOM     19  C   UNL A   1      29.069  29.749  22.935  1.00  0.00     0.001 A 
ATOM     20  C   UNL A   1      29.457  27.453  23.493  1.00  0.00     0.047 A 
ATOM     21  C   UNL A   1      28.708  28.420  22.824  1.00  0.00     0.004 A 
ENDBRANCH  14  15
ENDBRANCH  13  14
ENDBRANCH  12  13
ENDBRANCH   9  12
ENDBRANCH   6   8
BRANCH   6  22
ATOM     22  C   UNL A   1      33.378  21.497  24.337  1.00  0.00     0.024 C 
ATOM     23  C   UNL A   1      32.313  20.406  24.308  1.00  0.00     0.007 C 
ATOM     24  C   UNL A   1      32.151  21.623  23.452  1.00  0.00     0.007 C 
ENDBRANCH   6  22
ENDBRANCH   3   6
ENDBRANCH   1   2
BRANCH   1  25
ATOM     25  C   UNL A   1      37.764  21.442  24.733  1.00  0.00     0.042 C 
BRANCH  25  26
ATOM     26  C   UNL A   1      38.225  22.338  25.869  1.00  0.00     0.118 C 
BRANCH  26  27
ATOM     27  N   UNL A   1      39.630  22.188  26.232  1.00  0.00    -0.352 N 
ATOM     28  C   UNL A   1      40.561  23.161  26.562  1.00  0.00     0.251 C 
ATOM     29  H   UNL A   1      39.966  21.262  26.242  1.00  0.00     0.163 HD
ATOM     30  O   UNL A   1      41.732  22.827  26.720  1.00  0.00    -0.269 OA
BRANCH  28  31
ATOM     31  C   UNL A   1      40.120  24.554  26.836  1.00  0.00     0.039 A 
ATOM     32  C   UNL A   1      40.738  25.608  26.148  1.00  0.00     0.014 A 
ATOM     33  C   UNL A   1      39.269  24.834  27.899  1.00  0.00     0.014 A 
ATOM     34  C   UNL A   1      40.718  26.894  26.689  1.00  0.00     0.010 A 
ATOM     35  C   UNL A   1      39.343  26.070  28.502  1.00  0.00     0.010 A 
ATOM     36  C   UNL A   1      40.124  27.081  27.934  1.00  0.00    -0.014 A 
BRANCH  36  37
ATOM     37  C   UNL A   1      40.353  28.220  28.814  1.00  0.00     0.031 A 
ATOM     38  C   UNL A   1      39.478  29.410  28.751  1.00  0.00     0.074 A 
ATOM     39  C   UNL A   1      41.146  28.017  29.893  1.00  0.00     0.049 A 
ATOM     40  N   UNL A   1      39.653  30.465  29.472  1.00  0.00    -0.248 NA
ATOM     41  C   UNL A   1      38.351  29.525  27.828  1.00  0.00     0.031 C 
ATOM     42  C   UNL A   1      41.102  28.722  31.170  1.00  0.00     0.029 A 
ATOM     43  N   UNL A   1      42.329  27.272  29.958  1.00  0.00    -0.354 N 
ATOM     44  C   UNL A   1      38.507  31.218  29.367  1.00  0.00     0.074 A 
ATOM     45  C   UNL A   1      37.805  30.676  28.233  1.00  0.00     0.031 C 
ATOM     46  C   UNL A   1      42.304  28.621  31.757  1.00  0.00     0.029 A 
ATOM     47  C   UNL A   1      43.193  28.007  30.789  1.00  0.00     0.049 A 
ATOM     48  H   UNL A   1      42.518  26.413  29.515  1.00  0.00     0.167 HD
ATOM     49  C   UNL A   1      38.219  32.107  30.356  1.00  0.00     0.034 A 
ATOM     50  C   UNL A   1      44.382  28.530  30.373  1.00  0.00     0.034 A 
ATOM     51  C   UNL A   1      39.395  32.352  31.202  1.00  0.00     0.049 A 
ATOM     52  C   UNL A   1      44.489  30.034  30.562  1.00  0.00     0.074 A 
ATOM     53  C   UNL A   1      39.747  32.004  32.493  1.00  0.00     0.029 A 
ATOM     54  N   UNL A   1      40.540  32.882  30.613  1.00  0.00    -0.354 N 
ATOM     55  N   UNL A   1      43.517  30.799  30.978  1.00  0.00    -0.248 NA
ATOM     56  C   UNL A   1      45.697  30.800  30.263  1.00  0.00     0.031 C 
ATOM     57  C   UNL A   1      41.150  32.216  32.632  1.00  0.00     0.029 A 
ATOM     58  C   UNL A   1      41.637  32.734  31.442  1.00  0.00     0.049 A 
ATOM     59  H   UNL A   1      40.565  33.306  29.724  1.00  0.00     0.167 HD
ATOM     60  C   UNL A   1      43.874  32.118  30.853  1.00  0.00     0.074 A 
ATOM     61  C   UNL A   1      45.284  32.057  30.500  1.00  0.00     0.031 C 
ATOM     62  C   UNL A   1      42.962  33.135  30.970  1.00  0.00     0.034 A 
BRANCH  49  63
ATOM     63  C   UNL A   1      36.839  32.652  30.687  1.00  0.00     0.023 A 
ATOM     64  C   UNL A   1      36.320  32.359  31.970  1.00  0.00     0.012 A 
ATOM     65  C   UNL A   1      35.954  33.322  29.804  1.00  0.00     0.148 A 
ATOM     66  C   UNL A   1      35.014  32.696  32.349  1.00  0.00     0.002 A 
ATOM     67  C   UNL A   1      34.677  33.724  30.207  1.00  0.00     0.091 A 
ATOM     68  F   UNL A   1      36.286  33.497  28.522  1.00  0.00    -0.205 F 
ATOM     69  C   UNL A   1      34.197  33.397  31.474  1.00  0.00     0.022 A 
BRANCH  67  70
ATOM     70  S   UNL A   1      33.589  34.686  29.136  1.00  0.00     0.127 S 
ATOM     71  O   UNL A   1      34.478  35.750  28.669  1.00  0.00    -0.237 OA
ATOM     72  O   UNL A   1      33.216  33.712  28.109  1.00  0.00    -0.237 OA
ATOM     73  O   UNL A   1      32.480  35.126  29.974  1.00  0.00    -0.744 OA
ENDBRANCH  67  70
ENDBRANCH  49  63
BRANCH  50  74
ATOM     74  C   UNL A   1      45.045  27.735  29.299  1.00  0.00     0.023 A 
ATOM     75  C   UNL A   1      45.574  26.478  29.680  1.00  0.00     0.012 A 
ATOM     76  C   UNL A   1      44.816  27.990  27.934  1.00  0.00     0.148 A 
ATOM     77  C   UNL A   1      45.764  25.463  28.742  1.00  0.00     0.002 A 
ATOM     78  C   UNL A   1      45.003  26.967  27.004  1.00  0.00     0.091 A 
ATOM     79  F   UNL A   1      44.330  29.187  27.583  1.00  0.00    -0.205 F 
ATOM     80  C   UNL A   1      45.447  25.698  27.409  1.00  0.00     0.022 A 
BRANCH  78  81
ATOM     81  S   UNL A   1      44.536  27.146  25.275  1.00  0.00     0.127 S 
ATOM     82  O   UNL A   1      44.121  25.784  24.943  1.00  0.00    -0.237 OA
ATOM     83  O   UNL A   1      43.447  28.122  25.353  1.00  0.00    -0.237 OA
ATOM     84  O   UNL A   1      45.729  27.636  24.608  1.00  0.00    -0.744 OA
ENDBRANCH  78  81
ENDBRANCH  50  74
BRANCH  62  85
ATOM     85  C   UNL A   1      43.205  34.593  30.601  1.00  0.00     0.023 A 
ATOM     86  C   UNL A   1      43.577  35.564  31.552  1.00  0.00     0.012 A 
ATOM     87  C   UNL A   1      43.218  35.009  29.242  1.00  0.00     0.148 A 
ATOM     88  C   UNL A   1      43.884  36.884  31.192  1.00  0.00     0.002 A 
ATOM     89  C   UNL A   1      43.628  36.293  28.881  1.00  0.00     0.091 A 
ATOM     90  F   UNL A   1      42.817  34.166  28.280  1.00  0.00    -0.205 F 
ATOM     91  C   UNL A   1      43.932  37.244  29.854  1.00  0.00     0.022 A 
BRANCH  89  92
ATOM     92  S   UNL A   1      43.933  36.700  27.154  1.00  0.00     0.127 S 
ATOM     93  O   UNL A   1      44.760  35.580  26.712  1.00  0.00    -0.237 OA
ATOM     94  O   UNL A   1      42.584  36.718  26.583  1.00  0.00    -0.237 OA
ATOM     95  O   UNL A   1      44.575  38.008  27.197  1.00  0.00    -0.744 OA
ENDBRANCH  89  92
ENDBRANCH  62  85
ENDBRANCH  36  37
ENDBRANCH  28  31
ENDBRANCH  26  27
ENDBRANCH  25  26
ENDBRANCH   1  25
TORSDOF 19
ENDMDL
MODEL 2
REMARK VINA RESULT:     -12.3      4.018      9.633
REMARK SMILES Cc1ccccc1OCCC(=O)N[C@@](C)(C(=O)NCCCNC(=O)c1ccc(-c2c3nc(c(-c4cccc(S(=O)(=O)[O-])c4F)c4ccc([nH]4)c(-c4cccc(S(=O)(=O)[O-])c4F)c4nc(c(-c5cccc(S(=O)(=O)[O-])c5F)c5ccc2[nH]5)C=C4)C=C3)cc1)C1CC1
REMARK SMILES IDX 19 1 18 2 16 3 17 4 14 6 15 7 13 8 11 9 12 10 10 12 9 13
REMARK SMILES IDX 8 14 7 15 1 16 2 17 3 18 4 19 6 20 5 21 88 22 89 23 90 24
REMARK SMILES IDX 20 25 21 26 22 27 23 28 24 30 25 31 26 32 87 33 27 34 86 35
REMARK SMILES IDX 28 36 29 37 30 38 80 39 31 40 85 41 79 42 81 43 32 44 84 45
REMARK SMILES IDX 78 46 77 47 33 49 65 50 45 51 64 52 46 53 49 54 63 55 82 56
REMARK SMILES IDX 47 57 48 58 62 60 83 61 50 62 34 63 35 64 43 65 36 66 38 67
REMARK SMILES IDX 44 68 37 69 39 70 40 71 41 72 42 73 66 74 67 75 75 76 68 77
REMARK SMILES IDX 70 78 76 79 69 80 71 81 72 82 73 83 74 84 51 85 52 86 60 87
REMARK SMILES IDX 53 88 55 89 61 90 54 91 56 92 57 93 58 94 59 95
REMARK H PARENT 18 5 13 11 22 29 81 48 49 59
REMARK Flexibility Score: inf
ROOT
ATOM      1  C   UNL A   1      31.741  29.650  26.021  1.00  0.00     0.117 C 
ENDROOT
BRANCH   1   2
ATOM      2  N   UNL A   1      32.023  29.745  24.586  1.00  0.00    -0.354 N 
ATOM      3  C   UNL A   1      32.142  28.775  23.608  1.00  0.00     0.245 C 
ATOM      4  O   UNL A   1      32.120  29.149  22.433  1.00  0.00    -0.272 OA
ATOM      5  H   UNL A   1      32.151  30.665  24.259  1.00  0.00     0.163 HD
BRANCH   3   6
ATOM      6  C   UNL A   1      32.300  27.246  23.994  1.00  0.00     0.119 C 
ATOM      7  C   UNL A   1      33.394  27.177  25.067  1.00  0.00     0.046 C 
BRANCH   6   8
ATOM      8  N   UNL A   1      32.678  26.666  22.676  1.00  0.00    -0.342 N 
ATOM      9  C   UNL A   1      33.183  25.521  22.178  1.00  0.00     0.224 C 
ATOM     10  O   UNL A   1      33.318  25.468  20.950  1.00  0.00    -0.275 OA
ATOM     11  H   UNL A   1      32.509  27.312  21.953  1.00  0.00     0.164 HD
BRANCH   9  12
ATOM     12  C   UNL A   1      33.489  24.311  23.011  1.00  0.00     0.141 C 
BRANCH  12  13
ATOM     13  C   UNL A   1      32.993  22.970  22.489  1.00  0.00     0.239 C 
BRANCH  13  14
ATOM     14  O   UNL A   1      33.027  21.898  23.411  1.00  0.00    -0.493 OA
BRANCH  14  15
ATOM     15  C   UNL A   1      33.292  22.038  24.741  1.00  0.00     0.122 A 
ATOM     16  C   UNL A   1      31.093  22.975  25.803  1.00  0.00     0.048 C 
ATOM     17  C   UNL A   1      32.473  22.382  25.826  1.00  0.00    -0.009 A 
ATOM     18  C   UNL A   1      33.014  22.262  27.132  1.00  0.00     0.007 A 
ATOM     19  C   UNL A   1      34.326  21.856  27.364  1.00  0.00     0.001 A 
ATOM     20  C   UNL A   1      34.643  21.712  24.995  1.00  0.00     0.047 A 
ATOM     21  C   UNL A   1      35.155  21.607  26.287  1.00  0.00     0.004 A 
ENDBRANCH  14  15
ENDBRANCH  13  14
ENDBRANCH  12  13
ENDBRANCH   9  12
ENDBRANCH   6   8
BRANCH   6  22
ATOM     22  C   UNL A   1      30.966  26.667  24.464  1.00  0.00     0.024 C 
ATOM     23  C   UNL A   1      29.611  27.074  23.895  1.00  0.00     0.007 C 
ATOM     24  C   UNL A   1      30.158  25.709  23.607  1.00  0.00     0.007 C 
ENDBRANCH   6  22
ENDBRANCH   3   6
ENDBRANCH   1   2
BRANCH   1  25
ATOM     25  C   UNL A   1      32.376  30.753  26.860  1.00  0.00     0.042 C 
BRANCH  25  26
ATOM     26  C   UNL A   1      33.807  30.445  27.261  1.00  0.00     0.118 C 
BRANCH  26  27
ATOM     27  N   UNL A   1      34.509  31.547  27.913  1.00  0.00    -0.352 N 
ATOM     28  C   UNL A   1      35.688  31.530  28.643  1.00  0.00     0.251 C 
ATOM     29  H   UNL A   1      34.082  32.430  27.822  1.00  0.00     0.163 HD
ATOM     30  O   UNL A   1      36.043  32.558  29.211  1.00  0.00    -0.269 OA
BRANCH  28  31
ATOM     31  C   UNL A   1      36.555  30.322  28.631  1.00  0.00     0.039 A 
ATOM     32  C   UNL A   1      36.748  29.615  29.827  1.00  0.00     0.014 A 
ATOM     33  C   UNL A   1      37.332  30.017  27.520  1.00  0.00     0.014 A 
ATOM     34  C   UNL A   1      37.878  28.812  29.981  1.00  0.00     0.010 A 
ATOM     35  C   UNL A   1      38.509  29.325  27.702  1.00  0.00     0.010 A 
ATOM     36  C   UNL A   1      38.815  28.781  28.953  1.00  0.00    -0.014 A 
BRANCH  36  37
ATOM     37  C   UNL A   1      40.200  28.344  29.087  1.00  0.00     0.031 A 
ATOM     38  C   UNL A   1      40.567  26.926  28.883  1.00  0.00     0.074 A 
ATOM     39  C   UNL A   1      41.155  29.303  29.060  1.00  0.00     0.049 A 
ATOM     40  N   UNL A   1      41.764  26.470  29.028  1.00  0.00    -0.248 NA
ATOM     41  C   UNL A   1      39.594  25.891  28.540  1.00  0.00     0.031 C 
ATOM     42  C   UNL A   1      42.539  29.163  28.618  1.00  0.00     0.029 A 
ATOM     43  N   UNL A   1      41.119  30.566  29.663  1.00  0.00    -0.354 N 
ATOM     44  C   UNL A   1      41.783  25.210  28.477  1.00  0.00     0.074 A 
ATOM     45  C   UNL A   1      40.399  24.844  28.330  1.00  0.00     0.031 C 
ATOM     46  C   UNL A   1      43.274  30.122  29.199  1.00  0.00     0.029 A 
ATOM     47  C   UNL A   1      42.415  30.783  30.164  1.00  0.00     0.049 A 
ATOM     48  H   UNL A   1      40.348  31.175  29.725  1.00  0.00     0.167 HD
ATOM     49  C   UNL A   1      42.975  24.697  28.065  1.00  0.00     0.034 A 
ATOM     50  C   UNL A   1      42.699  30.941  31.489  1.00  0.00     0.034 A 
ATOM     51  C   UNL A   1      44.098  25.466  28.619  1.00  0.00     0.049 A 
ATOM     52  C   UNL A   1      43.705  29.937  32.024  1.00  0.00     0.074 A 
ATOM     53  C   UNL A   1      45.021  26.349  28.088  1.00  0.00     0.029 A 
ATOM     54  N   UNL A   1      44.237  25.539  30.002  1.00  0.00    -0.354 N 
ATOM     55  N   UNL A   1      44.190  28.937  31.339  1.00  0.00    -0.248 NA
ATOM     56  C   UNL A   1      44.221  29.963  33.391  1.00  0.00     0.031 C 
ATOM     57  C   UNL A   1      45.629  27.044  29.173  1.00  0.00     0.029 A 
ATOM     58  C   UNL A   1      45.109  26.552  30.359  1.00  0.00     0.049 A 
ATOM     59  H   UNL A   1      43.776  24.948  30.641  1.00  0.00     0.167 HD
ATOM     60  C   UNL A   1      44.915  28.114  32.163  1.00  0.00     0.074 A 
ATOM     61  C   UNL A   1      44.987  28.858  33.411  1.00  0.00     0.031 C 
ATOM     62  C   UNL A   1      45.319  26.863  31.773  1.00  0.00     0.034 A 
BRANCH  49  63
ATOM     63  C   UNL A   1      43.160  23.600  27.029  1.00  0.00     0.023 A 
ATOM     64  C   UNL A   1      43.848  23.942  25.843  1.00  0.00     0.012 A 
ATOM     65  C   UNL A   1      42.608  22.294  27.066  1.00  0.00     0.148 A 
ATOM     66  C   UNL A   1      43.973  23.058  24.763  1.00  0.00     0.002 A 
ATOM     67  C   UNL A   1      42.797  21.386  26.020  1.00  0.00     0.091 A 
ATOM     68  F   UNL A   1      41.802  21.931  28.068  1.00  0.00    -0.205 F 
ATOM     69  C   UNL A   1      43.464  21.771  24.858  1.00  0.00     0.022 A 
BRANCH  67  70
ATOM     70  S   UNL A   1      42.207  19.683  26.107  1.00  0.00     0.127 S 
ATOM     71  O   UNL A   1      42.634  19.276  27.445  1.00  0.00    -0.237 OA
ATOM     72  O   UNL A   1      40.761  19.840  25.952  1.00  0.00    -0.237 OA
ATOM     73  O   UNL A   1      42.852  18.974  25.007  1.00  0.00    -0.744 OA
ENDBRANCH  67  70
ENDBRANCH  49  63
BRANCH  50  74
ATOM     74  C   UNL A   1      41.595  31.573  32.268  1.00  0.00     0.023 A 
ATOM     75  C   UNL A   1      41.329  32.936  31.996  1.00  0.00     0.012 A 
ATOM     76  C   UNL A   1      40.611  30.806  32.920  1.00  0.00     0.148 A 
ATOM     77  C   UNL A   1      40.077  33.493  32.262  1.00  0.00     0.002 A 
ATOM     78  C   UNL A   1      39.360  31.369  33.177  1.00  0.00     0.091 A 
ATOM     79  F   UNL A   1      40.877  29.522  33.187  1.00  0.00    -0.205 F 
ATOM     80  C   UNL A   1      39.084  32.700  32.822  1.00  0.00     0.022 A 
BRANCH  78  81
ATOM     81  S   UNL A   1      37.984  30.399  33.814  1.00  0.00     0.127 S 
ATOM     82  O   UNL A   1      38.294  29.073  33.286  1.00  0.00    -0.237 OA
ATOM     83  O   UNL A   1      38.154  30.544  35.261  1.00  0.00    -0.237 OA
ATOM     84  O   UNL A   1      36.793  31.040  33.287  1.00  0.00    -0.744 OA
ENDBRANCH  78  81
ENDBRANCH  50  74
BRANCH  62  85
ATOM     85  C   UNL A   1      45.897  25.790  32.688  1.00  0.00     0.023 A 
ATOM     86  C   UNL A   1      47.282  25.642  32.902  1.00  0.00     0.012 A 
ATOM     87  C   UNL A   1      45.048  24.984  33.493  1.00  0.00     0.148 A 
ATOM     88  C   UNL A   1      47.802  24.710  33.811  1.00  0.00     0.002 A 
ATOM     89  C   UNL A   1      45.568  24.137  34.473  1.00  0.00     0.091 A 
ATOM     90  F   UNL A   1      43.720  25.017  33.310  1.00  0.00    -0.205 F 
ATOM     91  C   UNL A   1      46.946  23.973  34.614  1.00  0.00     0.022 A 
BRANCH  89  92
ATOM     92  S   UNL A   1      44.481  23.364  35.682  1.00  0.00     0.127 S 
ATOM     93  O   UNL A   1      43.373  22.900  34.850  1.00  0.00    -0.237 OA
ATOM     94  O   UNL A   1      45.316  22.293  36.230  1.00  0.00    -0.237 OA
ATOM     95  O   UNL A   1      44.181  24.428  36.632  1.00  0.00    -0.744 OA
ENDBRANCH  89  92
ENDBRANCH  62  85
ENDBRANCH  36  37
ENDBRANCH  28  31
ENDBRANCH  26  27
ENDBRANCH  25  26
ENDBRANCH   1  25
TORSDOF 19
ENDMDL
MODEL 3
REMARK VINA RESULT:     -12.0      1.544      2.085
REMARK SMILES Cc1ccccc1OCCC(=O)N[C@@](C)(C(=O)NCCCNC(=O)c1ccc(-c2c3nc(c(-c4cccc(S(=O)(=O)[O-])c4F)c4ccc([nH]4)c(-c4cccc(S(=O)(=O)[O-])c4F)c4nc(c(-c5cccc(S(=O)(=O)[O-])c5F)c5ccc2[nH]5)C=C4)C=C3)cc1)C1CC1
REMARK SMILES IDX 19 1 18 2 16 3 17 4 14 6 15 7 13 8 11 9 12 10 10 12 9 13
REMARK SMILES IDX 8 14 7 15 1 16 2 17 3 18 4 19 6 20 5 21 88 22 89 23 90 24
REMARK SMILES IDX 20 25 21 26 22 27 23 28 24 30 25 31 26 32 87 33 27 34 86 35
REMARK SMILES IDX 28 36 29 37 30 38 80 39 31 40 85 41 79 42 81 43 32 44 84 45
REMARK SMILES IDX 78 46 77 47 33 49 65 50 45 51 64 52 46 53 49 54 63 55 82 56
REMARK SMILES IDX 47 57 48 58 62 60 83 61 50 62 34 63 35 64 43 65 36 66 38 67
REMARK SMILES IDX 44 68 37 69 39 70 40 71 41 72 42 73 66 74 67 75 75 76 68 77
REMARK SMILES IDX 70 78 76 79 69 80 71 81 72 82 73 83 74 84 51 85 52 86 60 87
REMARK SMILES IDX 53 88 55 89 61 90 54 91 56 92 57 93 58 94 59 95
REMARK H PARENT 18 5 13 11 22 29 81 48 49 59
REMARK Flexibility Score: inf
ROOT
ATOM      1  C   UNL A   1      36.483  20.453  25.211  1.00  0.00     0.117 C 
ENDROOT
BRANCH   1   2
ATOM      2  N   UNL A   1      35.800  21.112  26.328  1.00  0.00    -0.354 N 
ATOM      3  C   UNL A   1      34.471  21.438  26.526  1.00  0.00     0.245 C 
ATOM      4  O   UNL A   1      34.127  21.748  27.670  1.00  0.00    -0.272 OA
ATOM      5  H   UNL A   1      36.393  21.367  27.072  1.00  0.00     0.163 HD
BRANCH   3   6
ATOM      6  C   UNL A   1      33.438  21.413  25.324  1.00  0.00     0.119 C 
ATOM      7  C   UNL A   1      34.193  21.922  24.089  1.00  0.00     0.046 C 
BRANCH   6   8
ATOM      8  N   UNL A   1      32.389  22.333  25.840  1.00  0.00    -0.342 N 
ATOM      9  C   UNL A   1      31.424  23.143  25.363  1.00  0.00     0.224 C 
ATOM     10  O   UNL A   1      30.736  23.733  26.204  1.00  0.00    -0.275 OA
ATOM     11  H   UNL A   1      32.405  22.357  26.824  1.00  0.00     0.164 HD
BRANCH   9  12
ATOM     12  C   UNL A   1      31.096  23.282  23.906  1.00  0.00     0.141 C 
BRANCH  12  13
ATOM     13  C   UNL A   1      30.820  24.688  23.391  1.00  0.00     0.239 C 
BRANCH  13  14
ATOM     14  O   UNL A   1      31.916  25.581  23.414  1.00  0.00    -0.493 OA
BRANCH  14  15
ATOM     15  C   UNL A   1      32.304  26.291  24.511  1.00  0.00     0.122 A 
ATOM     16  C   UNL A   1      34.569  25.229  25.276  1.00  0.00     0.048 C 
ATOM     17  C   UNL A   1      33.479  26.263  25.276  1.00  0.00    -0.009 A 
ATOM     18  C   UNL A   1      33.656  27.269  26.261  1.00  0.00     0.007 A 
ATOM     19  C   UNL A   1      32.696  28.246  26.513  1.00  0.00     0.001 A 
ATOM     20  C   UNL A   1      31.308  27.237  24.842  1.00  0.00     0.047 A 
ATOM     21  C   UNL A   1      31.501  28.213  25.819  1.00  0.00     0.004 A 
ENDBRANCH  14  15
ENDBRANCH  13  14
ENDBRANCH  12  13
ENDBRANCH   9  12
ENDBRANCH   6   8
BRANCH   6  22
ATOM     22  C   UNL A   1      32.865  20.008  25.134  1.00  0.00     0.024 C 
ATOM     23  C   UNL A   1      32.252  19.506  23.832  1.00  0.00     0.007 C 
ATOM     24  C   UNL A   1      33.568  18.959  24.292  1.00  0.00     0.007 C 
ENDBRANCH   6  22
ENDBRANCH   3   6
ENDBRANCH   1   2
BRANCH   1  25
ATOM     25  C   UNL A   1      37.799  21.108  24.807  1.00  0.00     0.042 C 
BRANCH  25  26
ATOM     26  C   UNL A   1      38.237  22.203  25.763  1.00  0.00     0.118 C 
BRANCH  26  27
ATOM     27  N   UNL A   1      39.543  21.989  26.378  1.00  0.00    -0.352 N 
ATOM     28  C   UNL A   1      40.431  22.917  26.901  1.00  0.00     0.251 C 
ATOM     29  H   UNL A   1      39.836  21.050  26.428  1.00  0.00     0.163 HD
ATOM     30  O   UNL A   1      41.538  22.531  27.267  1.00  0.00    -0.269 OA
BRANCH  28  31
ATOM     31  C   UNL A   1      39.998  24.322  27.123  1.00  0.00     0.039 A 
ATOM     32  C   UNL A   1      40.582  25.339  26.354  1.00  0.00     0.014 A 
ATOM     33  C   UNL A   1      39.195  24.655  28.208  1.00  0.00     0.014 A 
ATOM     34  C   UNL A   1      40.582  26.651  26.830  1.00  0.00     0.010 A 
ATOM     35  C   UNL A   1      39.292  25.920  28.742  1.00  0.00     0.010 A 
ATOM     36  C   UNL A   1      40.044  26.901  28.089  1.00  0.00    -0.014 A 
BRANCH  36  37
ATOM     37  C   UNL A   1      40.310  28.084  28.898  1.00  0.00     0.031 A 
ATOM     38  C   UNL A   1      39.453  29.284  28.784  1.00  0.00     0.074 A 
ATOM     39  C   UNL A   1      41.120  27.929  29.972  1.00  0.00     0.049 A 
ATOM     40  N   UNL A   1      39.659  30.375  29.441  1.00  0.00    -0.248 NA
ATOM     41  C   UNL A   1      38.310  29.366  27.877  1.00  0.00     0.031 C 
ATOM     42  C   UNL A   1      41.113  28.705  31.207  1.00  0.00     0.029 A 
ATOM     43  N   UNL A   1      42.292  27.168  30.057  1.00  0.00    -0.354 N 
ATOM     44  C   UNL A   1      38.524  31.140  29.314  1.00  0.00     0.074 A 
ATOM     45  C   UNL A   1      37.791  30.547  28.226  1.00  0.00     0.031 C 
ATOM     46  C   UNL A   1      42.324  28.617  31.776  1.00  0.00     0.029 A 
ATOM     47  C   UNL A   1      43.184  27.933  30.829  1.00  0.00     0.049 A 
ATOM     48  H   UNL A   1      42.457  26.282  29.660  1.00  0.00     0.167 HD
ATOM     49  C   UNL A   1      38.270  32.089  30.256  1.00  0.00     0.034 A 
ATOM     50  C   UNL A   1      44.373  28.411  30.361  1.00  0.00     0.034 A 
ATOM     51  C   UNL A   1      39.466  32.361  31.065  1.00  0.00     0.049 A 
ATOM     52  C   UNL A   1      44.508  29.921  30.462  1.00  0.00     0.074 A 
ATOM     53  C   UNL A   1      39.839  32.081  32.367  1.00  0.00     0.029 A 
ATOM     54  N   UNL A   1      40.608  32.837  30.425  1.00  0.00    -0.354 N 
ATOM     55  N   UNL A   1      43.557  30.726  30.852  1.00  0.00    -0.248 NA
ATOM     56  C   UNL A   1      45.722  30.648  30.098  1.00  0.00     0.031 C 
ATOM     57  C   UNL A   1      41.247  32.275  32.467  1.00  0.00     0.029 A 
ATOM     58  C   UNL A   1      41.719  32.717  31.241  1.00  0.00     0.049 A 
ATOM     59  H   UNL A   1      40.623  33.209  29.514  1.00  0.00     0.167 HD
ATOM     60  C   UNL A   1      43.934  32.029  30.645  1.00  0.00     0.074 A 
ATOM     61  C   UNL A   1      45.335  31.924  30.270  1.00  0.00     0.031 C 
ATOM     62  C   UNL A   1      43.041  33.067  30.722  1.00  0.00     0.034 A 
BRANCH  49  63
ATOM     63  C   UNL A   1      36.906  32.676  30.582  1.00  0.00     0.023 A 
ATOM     64  C   UNL A   1      36.411  32.470  31.890  1.00  0.00     0.012 A 
ATOM     65  C   UNL A   1      36.013  33.306  29.678  1.00  0.00     0.148 A 
ATOM     66  C   UNL A   1      35.119  32.852  32.276  1.00  0.00     0.002 A 
ATOM     67  C   UNL A   1      34.751  33.753  30.082  1.00  0.00     0.091 A 
ATOM     68  F   UNL A   1      36.319  33.396  28.381  1.00  0.00    -0.205 F 
ATOM     69  C   UNL A   1      34.293  33.511  31.377  1.00  0.00     0.022 A 
BRANCH  67  70
ATOM     70  S   UNL A   1      33.655  34.665  28.976  1.00  0.00     0.127 S 
ATOM     71  O   UNL A   1      33.224  33.625  28.042  1.00  0.00    -0.237 OA
ATOM     72  O   UNL A   1      32.609  35.135  29.885  1.00  0.00    -0.237 OA
ATOM     73  O   UNL A   1      34.462  35.729  28.393  1.00  0.00    -0.744 OA
ENDBRANCH  67  70
ENDBRANCH  49  63
BRANCH  50  74
ATOM     74  C   UNL A   1      45.002  27.545  29.322  1.00  0.00     0.023 A 
ATOM     75  C   UNL A   1      45.491  26.290  29.757  1.00  0.00     0.012 A 
ATOM     76  C   UNL A   1      44.772  27.744  27.948  1.00  0.00     0.148 A 
ATOM     77  C   UNL A   1      45.640  25.227  28.867  1.00  0.00     0.002 A 
ATOM     78  C   UNL A   1      44.918  26.674  27.065  1.00  0.00     0.091 A 
ATOM     79  F   UNL A   1      44.324  28.940  27.543  1.00  0.00    -0.205 F 
ATOM     80  C   UNL A   1      45.322  25.410  27.527  1.00  0.00     0.022 A 
BRANCH  78  81
ATOM     81  S   UNL A   1      44.445  26.788  25.332  1.00  0.00     0.127 S 
ATOM     82  O   UNL A   1      43.789  28.094  25.295  1.00  0.00    -0.237 OA
ATOM     83  O   UNL A   1      45.743  26.729  24.657  1.00  0.00    -0.237 OA
ATOM     84  O   UNL A   1      43.596  25.634  25.094  1.00  0.00    -0.744 OA
ENDBRANCH  78  81
ENDBRANCH  50  74
BRANCH  62  85
ATOM     85  C   UNL A   1      43.301  34.498  30.265  1.00  0.00     0.023 A 
ATOM     86  C   UNL A   1      42.868  34.985  29.016  1.00  0.00     0.012 A 
ATOM     87  C   UNL A   1      43.862  35.455  31.152  1.00  0.00     0.148 A 
ATOM     88  C   UNL A   1      43.034  36.325  28.639  1.00  0.00     0.002 A 
ATOM     89  C   UNL A   1      43.926  36.807  30.813  1.00  0.00     0.091 A 
ATOM     90  F   UNL A   1      44.356  35.065  32.336  1.00  0.00    -0.205 F 
ATOM     91  C   UNL A   1      43.542  37.243  29.544  1.00  0.00     0.022 A 
BRANCH  89  92
ATOM     92  S   UNL A   1      44.349  38.040  32.055  1.00  0.00     0.127 S 
ATOM     93  O   UNL A   1      43.802  39.264  31.474  1.00  0.00    -0.237 OA
ATOM     94  O   UNL A   1      43.635  37.563  33.241  1.00  0.00    -0.237 OA
ATOM     95  O   UNL A   1      45.799  37.962  32.164  1.00  0.00    -0.744 OA
ENDBRANCH  89  92
ENDBRANCH  62  85
ENDBRANCH  36  37
ENDBRANCH  28  31
ENDBRANCH  26  27
ENDBRANCH  25  26
ENDBRANCH   1  25
TORSDOF 19
ENDMDL
