MODEL 1
REMARK VINA RESULT:     -13.0      0.000      0.000
REMARK SMILES Cc1ccc(C(=O)NCCCNC(=O)c2ccc(-c3c4nc(c(-c5cccc(S(=O)(=O)[O-])c5F)c5ccc([nH]5)c(-c5cccc(S(=O)(=O)[O-])c5F)c5nc(c(-c6cccc(S(=O)(=O)[O-])c6F)c6ccc3[nH]6)C=C5)C=C4)cc2)cc1N1C(=O)/C(=C\c2nc3ccccc3n2C)SC1=S
REMARK SMILES IDX 10 1 9 2 8 3 6 4 7 5 5 7 1 8 2 9 3 10 79 11 4 12 78 13 80 14
REMARK SMILES IDX 81 15 96 16 82 17 83 18 95 19 97 20 84 21 85 22 86 23 93 24
REMARK SMILES IDX 87 25 92 26 94 27 88 28 91 29 89 30 90 31 11 32 12 33 13 34
REMARK SMILES IDX 14 36 15 37 16 38 77 39 17 40 76 41 18 42 19 43 20 44 70 45
REMARK SMILES IDX 21 46 75 47 69 48 71 49 22 50 74 51 68 52 67 53 23 55 55 56
REMARK SMILES IDX 35 57 54 58 36 59 39 60 53 61 72 62 37 63 38 64 52 66 73 67
REMARK SMILES IDX 40 68 24 69 25 70 33 71 26 72 28 73 34 74 27 75 29 76 30 77
REMARK SMILES IDX 31 78 32 79 56 80 57 81 65 82 58 83 60 84 66 85 59 86 61 87
REMARK SMILES IDX 62 88 63 89 64 90 41 91 42 92 50 93 43 94 45 95 51 96 44 97
REMARK SMILES IDX 46 98 47 99 48 100 49 101
REMARK H PARENT 8 6 12 35 71 54 39 65
REMARK Flexibility Score: inf
ROOT
ATOM      1  C   UNL A   1      40.048  23.538  26.874  1.00  0.00     0.042 C 
ENDROOT
BRANCH   1   2
ATOM      2  C   UNL A   1      38.607  23.214  26.478  1.00  0.00     0.118 C 
BRANCH   2   3
ATOM      3  N   UNL A   1      38.421  21.807  26.133  1.00  0.00    -0.352 N 
ATOM      4  C   UNL A   1      37.608  21.171  25.219  1.00  0.00     0.251 C 
ATOM      5  O   UNL A   1      37.780  19.964  25.037  1.00  0.00    -0.269 OA
ATOM      6  H   UNL A   1      38.987  21.194  26.655  1.00  0.00     0.163 HD
BRANCH   4   7
ATOM      7  C   UNL A   1      36.544  21.854  24.419  1.00  0.00     0.041 A 
ATOM      8  C   UNL A   1      33.636  24.142  22.134  1.00  0.00     0.046 C 
ATOM      9  C   UNL A   1      34.579  23.288  22.929  1.00  0.00    -0.027 A 
ATOM     10  C   UNL A   1      35.916  23.194  22.489  1.00  0.00     0.006 A 
ATOM     11  C   UNL A   1      34.223  22.616  24.102  1.00  0.00     0.054 A 
ATOM     12  C   UNL A   1      36.887  22.506  23.234  1.00  0.00     0.014 A 
ATOM     13  C   UNL A   1      35.205  21.879  24.778  1.00  0.00     0.041 A 
BRANCH  11  14
ATOM     14  N   UNL A   1      32.967  22.763  24.774  1.00  0.00    -0.261 N 
ATOM     15  C   UNL A   1      32.729  23.944  25.471  1.00  0.00     0.270 C 
ATOM     16  C   UNL A   1      32.086  21.732  25.041  1.00  0.00     0.152 C 
ATOM     17  O   UNL A   1      33.573  24.800  25.742  1.00  0.00    -0.268 OA
ATOM     18  C   UNL A   1      31.355  23.954  26.047  1.00  0.00     0.084 C 
ATOM     19  S   UNL A   1      30.746  22.341  26.036  1.00  0.00    -0.054 SA
ATOM     20  S   UNL A   1      32.198  20.113  24.639  1.00  0.00    -0.051 S 
ATOM     21  C   UNL A   1      30.679  25.027  26.499  1.00  0.00     0.068 C 
BRANCH  21  22
ATOM     22  C   UNL A   1      31.178  26.338  26.266  1.00  0.00     0.134 A 
ATOM     23  N   UNL A   1      31.835  27.106  27.113  1.00  0.00    -0.229 NA
ATOM     24  N   UNL A   1      30.988  27.018  25.080  1.00  0.00    -0.328 N 
ATOM     25  C   UNL A   1      31.711  28.377  26.622  1.00  0.00     0.089 A 
ATOM     26  C   UNL A   1      31.163  28.362  25.343  1.00  0.00     0.068 A 
ATOM     27  C   UNL A   1      30.700  26.450  23.786  1.00  0.00     0.152 C 
ATOM     28  C   UNL A   1      32.019  29.597  27.237  1.00  0.00     0.030 A 
ATOM     29  C   UNL A   1      30.898  29.537  24.628  1.00  0.00     0.028 A 
ATOM     30  C   UNL A   1      31.737  30.783  26.553  1.00  0.00     0.002 A 
ATOM     31  C   UNL A   1      31.183  30.750  25.271  1.00  0.00     0.002 A 
ENDBRANCH  21  22
ENDBRANCH  11  14
ENDBRANCH   4   7
ENDBRANCH   2   3
ENDBRANCH   1   2
BRANCH   1  32
ATOM     32  C   UNL A   1      40.733  22.437  27.651  1.00  0.00     0.118 C 
BRANCH  32  33
ATOM     33  N   UNL A   1      41.371  21.427  26.820  1.00  0.00    -0.352 N 
ATOM     34  C   UNL A   1      42.624  21.479  26.221  1.00  0.00     0.251 C 
ATOM     35  H   UNL A   1      40.851  20.606  26.662  1.00  0.00     0.163 HD
ATOM     36  O   UNL A   1      42.946  20.632  25.397  1.00  0.00    -0.269 OA
BRANCH  34  37
ATOM     37  C   UNL A   1      43.587  22.498  26.706  1.00  0.00     0.039 A 
ATOM     38  C   UNL A   1      43.904  22.457  28.065  1.00  0.00     0.014 A 
ATOM     39  C   UNL A   1      43.794  23.659  25.969  1.00  0.00     0.014 A 
ATOM     40  C   UNL A   1      44.091  23.652  28.745  1.00  0.00     0.010 A 
ATOM     41  C   UNL A   1      43.851  24.851  26.650  1.00  0.00     0.010 A 
ATOM     42  C   UNL A   1      43.909  24.840  28.045  1.00  0.00    -0.014 A 
BRANCH  42  43
ATOM     43  C   UNL A   1      43.927  26.152  28.659  1.00  0.00     0.031 A 
ATOM     44  C   UNL A   1      42.628  26.840  28.766  1.00  0.00     0.074 A 
ATOM     45  C   UNL A   1      45.058  26.623  29.230  1.00  0.00     0.049 A 
ATOM     46  N   UNL A   1      42.478  28.111  28.878  1.00  0.00    -0.248 NA
ATOM     47  C   UNL A   1      41.366  26.108  28.692  1.00  0.00     0.031 C 
ATOM     48  C   UNL A   1      45.162  27.738  30.162  1.00  0.00     0.029 A 
ATOM     49  N   UNL A   1      46.394  26.281  28.979  1.00  0.00    -0.354 N 
ATOM     50  C   UNL A   1      41.151  28.334  29.192  1.00  0.00     0.074 A 
ATOM     51  C   UNL A   1      40.486  27.084  28.924  1.00  0.00     0.031 C 
ATOM     52  C   UNL A   1      46.436  28.166  30.188  1.00  0.00     0.029 A 
ATOM     53  C   UNL A   1      47.134  27.471  29.119  1.00  0.00     0.049 A 
ATOM     54  H   UNL A   1      46.745  25.390  28.750  1.00  0.00     0.167 HD
ATOM     55  C   UNL A   1      40.818  29.497  29.819  1.00  0.00     0.034 A 
ATOM     56  C   UNL A   1      47.817  28.087  28.102  1.00  0.00     0.034 A 
ATOM     57  C   UNL A   1      42.008  30.360  29.931  1.00  0.00     0.049 A 
ATOM     58  C   UNL A   1      47.312  29.493  27.820  1.00  0.00     0.074 A 
ATOM     59  C   UNL A   1      42.925  30.541  30.955  1.00  0.00     0.029 A 
ATOM     60  N   UNL A   1      42.595  30.888  28.784  1.00  0.00    -0.354 N 
ATOM     61  N   UNL A   1      46.230  29.996  28.348  1.00  0.00    -0.248 NA
ATOM     62  C   UNL A   1      47.956  30.425  26.898  1.00  0.00     0.031 C 
ATOM     63  C   UNL A   1      44.107  31.093  30.392  1.00  0.00     0.029 A 
ATOM     64  C   UNL A   1      43.900  31.292  29.036  1.00  0.00     0.049 A 
ATOM     65  H   UNL A   1      42.145  30.964  27.911  1.00  0.00     0.167 HD
ATOM     66  C   UNL A   1      45.939  31.198  27.763  1.00  0.00     0.074 A 
ATOM     67  C   UNL A   1      47.102  31.464  26.930  1.00  0.00     0.031 C 
ATOM     68  C   UNL A   1      44.739  31.832  27.963  1.00  0.00     0.034 A 
BRANCH  55  69
ATOM     69  C   UNL A   1      39.548  29.729  30.634  1.00  0.00     0.023 A 
ATOM     70  C   UNL A   1      39.236  28.754  31.611  1.00  0.00     0.012 A 
ATOM     71  C   UNL A   1      38.597  30.771  30.492  1.00  0.00     0.148 A 
ATOM     72  C   UNL A   1      38.034  28.754  32.328  1.00  0.00     0.002 A 
ATOM     73  C   UNL A   1      37.374  30.750  31.176  1.00  0.00     0.091 A 
ATOM     74  F   UNL A   1      38.880  31.837  29.746  1.00  0.00    -0.205 F 
ATOM     75  C   UNL A   1      37.088  29.737  32.092  1.00  0.00     0.022 A 
BRANCH  73  76
ATOM     76  S   UNL A   1      36.079  31.979  30.906  1.00  0.00     0.127 S 
ATOM     77  O   UNL A   1      36.834  33.234  30.938  1.00  0.00    -0.237 OA
ATOM     78  O   UNL A   1      35.570  31.613  29.586  1.00  0.00    -0.237 OA
ATOM     79  O   UNL A   1      35.130  31.826  32.002  1.00  0.00    -0.744 OA
ENDBRANCH  73  76
ENDBRANCH  55  69
BRANCH  56  80
ATOM     80  C   UNL A   1      48.306  27.140  27.057  1.00  0.00     0.023 A 
ATOM     81  C   UNL A   1      47.587  27.132  25.840  1.00  0.00     0.012 A 
ATOM     82  C   UNL A   1      49.636  26.695  27.065  1.00  0.00     0.148 A 
ATOM     83  C   UNL A   1      48.263  26.975  24.633  1.00  0.00     0.002 A 
ATOM     84  C   UNL A   1      50.298  26.522  25.854  1.00  0.00     0.091 A 
ATOM     85  F   UNL A   1      50.255  26.515  28.240  1.00  0.00    -0.205 F 
ATOM     86  C   UNL A   1      49.635  26.749  24.639  1.00  0.00     0.022 A 
BRANCH  84  87
ATOM     87  S   UNL A   1      52.041  26.100  25.821  1.00  0.00     0.127 S 
ATOM     88  O   UNL A   1      52.025  24.739  26.349  1.00  0.00    -0.237 OA
ATOM     89  O   UNL A   1      52.368  26.195  24.400  1.00  0.00    -0.237 OA
ATOM     90  O   UNL A   1      52.675  27.112  26.654  1.00  0.00    -0.744 OA
ENDBRANCH  84  87
ENDBRANCH  56  80
BRANCH  68  91
ATOM     91  C   UNL A   1      44.258  33.038  27.175  1.00  0.00     0.023 A 
ATOM     92  C   UNL A   1      44.108  33.011  25.775  1.00  0.00     0.012 A 
ATOM     93  C   UNL A   1      43.826  34.217  27.833  1.00  0.00     0.148 A 
ATOM     94  C   UNL A   1      43.670  34.126  25.052  1.00  0.00     0.002 A 
ATOM     95  C   UNL A   1      43.265  35.275  27.121  1.00  0.00     0.091 A 
ATOM     96  F   UNL A   1      43.980  34.341  29.159  1.00  0.00    -0.205 F 
ATOM     97  C   UNL A   1      43.233  35.253  25.727  1.00  0.00     0.022 A 
BRANCH  95  98
ATOM     98  S   UNL A   1      42.425  36.627  27.957  1.00  0.00     0.127 S 
ATOM     99  O   UNL A   1      41.397  35.919  28.717  1.00  0.00    -0.237 OA
ATOM    100  O   UNL A   1      43.499  37.201  28.772  1.00  0.00    -0.237 OA
ATOM    101  O   UNL A   1      41.952  37.504  26.895  1.00  0.00    -0.744 OA
ENDBRANCH  95  98
ENDBRANCH  68  91
ENDBRANCH  42  43
ENDBRANCH  34  37
ENDBRANCH  32  33
ENDBRANCH   1  32
TORSDOF 15
ENDMDL
MODEL 2
REMARK VINA RESULT:     -12.7      4.667     10.692
REMARK SMILES Cc1ccc(C(=O)NCCCNC(=O)c2ccc(-c3c4nc(c(-c5cccc(S(=O)(=O)[O-])c5F)c5ccc([nH]5)c(-c5cccc(S(=O)(=O)[O-])c5F)c5nc(c(-c6cccc(S(=O)(=O)[O-])c6F)c6ccc3[nH]6)C=C5)C=C4)cc2)cc1N1C(=O)/C(=C\c2nc3ccccc3n2C)SC1=S
REMARK SMILES IDX 10 1 9 2 8 3 6 4 7 5 5 7 1 8 2 9 3 10 79 11 4 12 78 13 80 14
REMARK SMILES IDX 81 15 96 16 82 17 83 18 95 19 97 20 84 21 85 22 86 23 93 24
REMARK SMILES IDX 87 25 92 26 94 27 88 28 91 29 89 30 90 31 11 32 12 33 13 34
REMARK SMILES IDX 14 36 15 37 16 38 77 39 17 40 76 41 18 42 19 43 20 44 70 45
REMARK SMILES IDX 21 46 75 47 69 48 71 49 22 50 74 51 68 52 67 53 23 55 55 56
REMARK SMILES IDX 35 57 54 58 36 59 39 60 53 61 72 62 37 63 38 64 52 66 73 67
REMARK SMILES IDX 40 68 24 69 25 70 33 71 26 72 28 73 34 74 27 75 29 76 30 77
REMARK SMILES IDX 31 78 32 79 56 80 57 81 65 82 58 83 60 84 66 85 59 86 61 87
REMARK SMILES IDX 62 88 63 89 64 90 41 91 42 92 50 93 43 94 45 95 51 96 44 97
REMARK SMILES IDX 46 98 47 99 48 100 49 101
REMARK H PARENT 8 6 12 35 71 54 39 65
REMARK Flexibility Score: inf
ROOT
ATOM      1  C   UNL A   1      35.889  30.871  28.220  1.00  0.00     0.042 C 
ENDROOT
BRANCH   1   2
ATOM      2  C   UNL A   1      34.934  30.188  27.242  1.00  0.00     0.118 C 
BRANCH   2   3
ATOM      3  N   UNL A   1      33.774  31.015  26.919  1.00  0.00    -0.352 N 
ATOM      4  C   UNL A   1      32.450  30.710  26.678  1.00  0.00     0.251 C 
ATOM      5  O   UNL A   1      31.652  31.645  26.584  1.00  0.00    -0.269 OA
ATOM      6  H   UNL A   1      33.976  31.976  26.862  1.00  0.00     0.163 HD
BRANCH   4   7
ATOM      7  C   UNL A   1      31.917  29.318  26.547  1.00  0.00     0.041 A 
ATOM      8  C   UNL A   1      30.621  25.169  26.387  1.00  0.00     0.046 C 
ATOM      9  C   UNL A   1      31.018  26.616  26.370  1.00  0.00    -0.027 A 
ATOM     10  C   UNL A   1      31.019  27.316  27.595  1.00  0.00     0.006 A 
ATOM     11  C   UNL A   1      31.429  27.300  25.222  1.00  0.00     0.054 A 
ATOM     12  C   UNL A   1      31.482  28.639  27.685  1.00  0.00     0.014 A 
ATOM     13  C   UNL A   1      31.813  28.643  25.341  1.00  0.00     0.041 A 
BRANCH  11  14
ATOM     14  N   UNL A   1      31.660  26.685  23.949  1.00  0.00    -0.261 N 
ATOM     15  C   UNL A   1      32.802  25.905  23.794  1.00  0.00     0.270 C 
ATOM     16  C   UNL A   1      31.015  27.027  22.776  1.00  0.00     0.152 C 
ATOM     17  O   UNL A   1      33.747  25.852  24.583  1.00  0.00    -0.268 OA
ATOM     18  C   UNL A   1      32.847  25.291  22.437  1.00  0.00     0.084 C 
ATOM     19  S   UNL A   1      31.734  26.129  21.421  1.00  0.00    -0.054 SA
ATOM     20  S   UNL A   1      29.810  28.158  22.520  1.00  0.00    -0.051 S 
ATOM     21  C   UNL A   1      33.611  24.254  22.047  1.00  0.00     0.068 C 
BRANCH  21  22
ATOM     22  C   UNL A   1      34.332  23.494  23.009  1.00  0.00     0.134 A 
ATOM     23  N   UNL A   1      35.607  23.608  23.327  1.00  0.00    -0.229 NA
ATOM     24  N   UNL A   1      33.768  22.462  23.733  1.00  0.00    -0.328 N 
ATOM     25  C   UNL A   1      35.937  22.427  23.933  1.00  0.00     0.089 A 
ATOM     26  C   UNL A   1      34.799  21.668  24.191  1.00  0.00     0.068 A 
ATOM     27  C   UNL A   1      32.367  22.255  24.008  1.00  0.00     0.152 C 
ATOM     28  C   UNL A   1      37.203  21.925  24.262  1.00  0.00     0.030 A 
ATOM     29  C   UNL A   1      34.864  20.397  24.774  1.00  0.00     0.028 A 
ATOM     30  C   UNL A   1      37.293  20.647  24.819  1.00  0.00     0.002 A 
ATOM     31  C   UNL A   1      36.141  19.897  25.068  1.00  0.00     0.002 A 
ENDBRANCH  21  22
ENDBRANCH  11  14
ENDBRANCH   4   7
ENDBRANCH   2   3
ENDBRANCH   1   2
BRANCH   1  32
ATOM     32  C   UNL A   1      35.250  31.253  29.536  1.00  0.00     0.118 C 
BRANCH  32  33
ATOM     33  N   UNL A   1      34.521  32.512  29.501  1.00  0.00    -0.352 N 
ATOM     34  C   UNL A   1      34.868  33.718  30.097  1.00  0.00     0.251 C 
ATOM     35  H   UNL A   1      33.676  32.509  28.995  1.00  0.00     0.163 HD
ATOM     36  O   UNL A   1      34.061  34.639  30.137  1.00  0.00    -0.269 OA
BRANCH  34  37
ATOM     37  C   UNL A   1      36.270  33.893  30.551  1.00  0.00     0.039 A 
ATOM     38  C   UNL A   1      37.219  34.147  29.559  1.00  0.00     0.014 A 
ATOM     39  C   UNL A   1      36.661  33.397  31.790  1.00  0.00     0.014 A 
ATOM     40  C   UNL A   1      38.482  33.586  29.682  1.00  0.00     0.010 A 
ATOM     41  C   UNL A   1      37.861  32.731  31.866  1.00  0.00     0.010 A 
ATOM     42  C   UNL A   1      38.728  32.757  30.772  1.00  0.00    -0.014 A 
BRANCH  42  43
ATOM     43  C   UNL A   1      39.945  31.992  30.947  1.00  0.00     0.031 A 
ATOM     44  C   UNL A   1      40.032  30.724  30.200  1.00  0.00     0.074 A 
ATOM     45  C   UNL A   1      40.984  32.510  31.640  1.00  0.00     0.049 A 
ATOM     46  N   UNL A   1      40.788  29.735  30.518  1.00  0.00    -0.248 NA
ATOM     47  C   UNL A   1      39.192  30.465  29.033  1.00  0.00     0.031 C 
ATOM     48  C   UNL A   1      42.361  32.036  31.626  1.00  0.00     0.029 A 
ATOM     49  N   UNL A   1      40.991  33.504  32.628  1.00  0.00    -0.354 N 
ATOM     50  C   UNL A   1      40.766  28.854  29.455  1.00  0.00     0.074 A 
ATOM     51  C   UNL A   1      39.661  29.280  28.634  1.00  0.00     0.031 C 
ATOM     52  C   UNL A   1      42.996  32.511  32.711  1.00  0.00     0.029 A 
ATOM     53  C   UNL A   1      41.985  33.128  33.552  1.00  0.00     0.049 A 
ATOM     54  H   UNL A   1      40.417  34.302  32.670  1.00  0.00     0.167 HD
ATOM     55  C   UNL A   1      41.806  27.985  29.308  1.00  0.00     0.034 A 
ATOM     56  C   UNL A   1      41.745  32.792  34.859  1.00  0.00     0.034 A 
ATOM     57  C   UNL A   1      42.728  28.116  30.452  1.00  0.00     0.049 A 
ATOM     58  C   UNL A   1      42.169  31.369  35.189  1.00  0.00     0.074 A 
ATOM     59  C   UNL A   1      43.891  28.851  30.621  1.00  0.00     0.029 A 
ATOM     60  N   UNL A   1      42.310  27.747  31.728  1.00  0.00    -0.354 N 
ATOM     61  N   UNL A   1      42.541  30.496  34.295  1.00  0.00    -0.248 NA
ATOM     62  C   UNL A   1      42.168  30.806  36.537  1.00  0.00     0.031 C 
ATOM     63  C   UNL A   1      44.113  29.003  32.017  1.00  0.00     0.029 A 
ATOM     64  C   UNL A   1      43.116  28.326  32.701  1.00  0.00     0.049 A 
ATOM     65  H   UNL A   1      41.545  27.155  31.915  1.00  0.00     0.167 HD
ATOM     66  C   UNL A   1      42.678  29.263  34.871  1.00  0.00     0.074 A 
ATOM     67  C   UNL A   1      42.526  29.533  36.294  1.00  0.00     0.031 C 
ATOM     68  C   UNL A   1      42.836  28.125  34.124  1.00  0.00     0.034 A 
BRANCH  55  69
ATOM     69  C   UNL A   1      42.194  27.281  28.010  1.00  0.00     0.023 A 
ATOM     70  C   UNL A   1      42.024  28.019  26.815  1.00  0.00     0.012 A 
ATOM     71  C   UNL A   1      42.644  25.947  27.841  1.00  0.00     0.148 A 
ATOM     72  C   UNL A   1      42.194  27.457  25.544  1.00  0.00     0.002 A 
ATOM     73  C   UNL A   1      42.773  25.369  26.571  1.00  0.00     0.091 A 
ATOM     74  F   UNL A   1      43.021  25.230  28.898  1.00  0.00    -0.205 F 
ATOM     75  C   UNL A   1      42.542  26.122  25.419  1.00  0.00     0.022 A 
BRANCH  73  76
ATOM     76  S   UNL A   1      43.198  23.632  26.323  1.00  0.00     0.127 S 
ATOM     77  O   UNL A   1      44.644  23.633  26.557  1.00  0.00    -0.237 OA
ATOM     78  O   UNL A   1      42.417  22.966  27.364  1.00  0.00    -0.237 OA
ATOM     79  O   UNL A   1      42.815  23.305  24.955  1.00  0.00    -0.744 OA
ENDBRANCH  73  76
ENDBRANCH  55  69
BRANCH  56  80
ATOM     80  C   UNL A   1      40.548  33.472  35.437  1.00  0.00     0.023 A 
ATOM     81  C   UNL A   1      39.340  32.743  35.397  1.00  0.00     0.012 A 
ATOM     82  C   UNL A   1      40.700  34.489  36.391  1.00  0.00     0.148 A 
ATOM     83  C   UNL A   1      38.442  32.822  36.459  1.00  0.00     0.002 A 
ATOM     84  C   UNL A   1      39.788  34.574  37.439  1.00  0.00     0.091 A 
ATOM     85  F   UNL A   1      41.756  35.309  36.308  1.00  0.00    -0.205 F 
ATOM     86  C   UNL A   1      38.709  33.681  37.520  1.00  0.00     0.022 A 
BRANCH  84  87
ATOM     87  S   UNL A   1      40.027  35.762  38.761  1.00  0.00     0.127 S 
ATOM     88  O   UNL A   1      38.960  35.391  39.686  1.00  0.00    -0.237 OA
ATOM     89  O   UNL A   1      41.374  35.451  39.233  1.00  0.00    -0.237 OA
ATOM     90  O   UNL A   1      39.901  37.059  38.111  1.00  0.00    -0.744 OA
ENDBRANCH  84  87
ENDBRANCH  56  80
BRANCH  68  91
ATOM     91  C   UNL A   1      42.762  26.712  34.677  1.00  0.00     0.023 A 
ATOM     92  C   UNL A   1      41.564  26.156  35.165  1.00  0.00     0.012 A 
ATOM     93  C   UNL A   1      43.883  25.844  34.620  1.00  0.00     0.148 A 
ATOM     94  C   UNL A   1      41.502  24.856  35.680  1.00  0.00     0.002 A 
ATOM     95  C   UNL A   1      43.781  24.510  35.008  1.00  0.00     0.091 A 
ATOM     96  F   UNL A   1      45.072  26.309  34.214  1.00  0.00    -0.205 F 
ATOM     97  C   UNL A   1      42.607  24.027  35.586  1.00  0.00     0.022 A 
BRANCH  95  98
ATOM     98  S   UNL A   1      45.084  23.326  34.644  1.00  0.00     0.127 S 
ATOM     99  O   UNL A   1      46.283  24.153  34.756  1.00  0.00    -0.237 OA
ATOM    100  O   UNL A   1      44.917  22.343  35.717  1.00  0.00    -0.237 OA
ATOM    101  O   UNL A   1      44.779  22.812  33.316  1.00  0.00    -0.744 OA
ENDBRANCH  95  98
ENDBRANCH  68  91
ENDBRANCH  42  43
ENDBRANCH  34  37
ENDBRANCH  32  33
ENDBRANCH   1  32
TORSDOF 15
ENDMDL
MODEL 3
REMARK VINA RESULT:     -12.7      2.287      2.790
REMARK SMILES Cc1ccc(C(=O)NCCCNC(=O)c2ccc(-c3c4nc(c(-c5cccc(S(=O)(=O)[O-])c5F)c5ccc([nH]5)c(-c5cccc(S(=O)(=O)[O-])c5F)c5nc(c(-c6cccc(S(=O)(=O)[O-])c6F)c6ccc3[nH]6)C=C5)C=C4)cc2)cc1N1C(=O)/C(=C\c2nc3ccccc3n2C)SC1=S
REMARK SMILES IDX 10 1 9 2 8 3 6 4 7 5 5 7 1 8 2 9 3 10 79 11 4 12 78 13 80 14
REMARK SMILES IDX 81 15 96 16 82 17 83 18 95 19 97 20 84 21 85 22 86 23 93 24
REMARK SMILES IDX 87 25 92 26 94 27 88 28 91 29 89 30 90 31 11 32 12 33 13 34
REMARK SMILES IDX 14 36 15 37 16 38 77 39 17 40 76 41 18 42 19 43 20 44 70 45
REMARK SMILES IDX 21 46 75 47 69 48 71 49 22 50 74 51 68 52 67 53 23 55 55 56
REMARK SMILES IDX 35 57 54 58 36 59 39 60 53 61 72 62 37 63 38 64 52 66 73 67
REMARK SMILES IDX 40 68 24 69 25 70 33 71 26 72 28 73 34 74 27 75 29 76 30 77
REMARK SMILES IDX 31 78 32 79 56 80 57 81 65 82 58 83 60 84 66 85 59 86 61 87
REMARK SMILES IDX 62 88 63 89 64 90 41 91 42 92 50 93 43 94 45 95 51 96 44 97
REMARK SMILES IDX 46 98 47 99 48 100 49 101
REMARK H PARENT 8 6 12 35 71 54 39 65
REMARK Flexibility Score: inf
ROOT
ATOM      1  C   UNL A   1      40.059  19.933  25.964  1.00  0.00     0.042 C 
ENDROOT
BRANCH   1   2
ATOM      2  C   UNL A   1      38.702  20.610  25.773  1.00  0.00     0.118 C 
BRANCH   2   3
ATOM      3  N   UNL A   1      38.709  22.011  26.188  1.00  0.00    -0.352 N 
ATOM      4  C   UNL A   1      37.857  23.064  25.928  1.00  0.00     0.251 C 
ATOM      5  O   UNL A   1      38.032  24.113  26.551  1.00  0.00    -0.269 OA
ATOM      6  H   UNL A   1      39.470  22.248  26.764  1.00  0.00     0.163 HD
BRANCH   4   7
ATOM      7  C   UNL A   1      36.720  23.009  24.957  1.00  0.00     0.041 A 
ATOM      8  C   UNL A   1      33.522  23.164  22.013  1.00  0.00     0.046 C 
ATOM      9  C   UNL A   1      34.582  23.045  23.069  1.00  0.00    -0.027 A 
ATOM     10  C   UNL A   1      35.931  23.070  22.657  1.00  0.00     0.006 A 
ATOM     11  C   UNL A   1      34.313  22.953  24.438  1.00  0.00     0.054 A 
ATOM     12  C   UNL A   1      36.982  23.074  23.588  1.00  0.00     0.014 A 
ATOM     13  C   UNL A   1      35.391  22.885  25.331  1.00  0.00     0.041 A 
BRANCH  11  14
ATOM     14  N   UNL A   1      33.014  23.103  25.023  1.00  0.00    -0.261 N 
ATOM     15  C   UNL A   1      32.717  24.301  25.665  1.00  0.00     0.270 C 
ATOM     16  C   UNL A   1      32.132  22.067  25.268  1.00  0.00     0.152 C 
ATOM     17  O   UNL A   1      33.530  25.178  25.960  1.00  0.00    -0.268 OA
ATOM     18  C   UNL A   1      31.309  24.309  26.151  1.00  0.00     0.084 C 
ATOM     19  S   UNL A   1      30.722  22.688  26.154  1.00  0.00    -0.054 SA
ATOM     20  S   UNL A   1      32.290  20.438  24.927  1.00  0.00    -0.051 S 
ATOM     21  C   UNL A   1      30.591  25.385  26.523  1.00  0.00     0.068 C 
BRANCH  21  22
ATOM     22  C   UNL A   1      31.086  26.696  26.280  1.00  0.00     0.134 A 
ATOM     23  N   UNL A   1      31.738  27.474  27.122  1.00  0.00    -0.229 NA
ATOM     24  N   UNL A   1      30.899  27.364  25.086  1.00  0.00    -0.328 N 
ATOM     25  C   UNL A   1      31.611  28.739  26.617  1.00  0.00     0.089 A 
ATOM     26  C   UNL A   1      31.069  28.710  25.336  1.00  0.00     0.068 A 
ATOM     27  C   UNL A   1      30.618  26.781  23.796  1.00  0.00     0.152 C 
ATOM     28  C   UNL A   1      31.913  29.967  27.222  1.00  0.00     0.030 A 
ATOM     29  C   UNL A   1      30.802  29.877  24.609  1.00  0.00     0.028 A 
ATOM     30  C   UNL A   1      31.629  31.145  26.525  1.00  0.00     0.002 A 
ATOM     31  C   UNL A   1      31.081  31.098  25.241  1.00  0.00     0.002 A 
ENDBRANCH  21  22
ENDBRANCH  11  14
ENDBRANCH   4   7
ENDBRANCH   2   3
ENDBRANCH   1   2
BRANCH   1  32
ATOM     32  C   UNL A   1      40.946  20.614  26.980  1.00  0.00     0.118 C 
BRANCH  32  33
ATOM     33  N   UNL A   1      42.264  20.973  26.477  1.00  0.00    -0.352 N 
ATOM     34  C   UNL A   1      42.719  22.228  26.092  1.00  0.00     0.251 C 
ATOM     35  H   UNL A   1      42.912  20.236  26.399  1.00  0.00     0.163 HD
ATOM     36  O   UNL A   1      43.792  22.341  25.511  1.00  0.00    -0.269 OA
BRANCH  34  37
ATOM     37  C   UNL A   1      41.938  23.415  26.520  1.00  0.00     0.039 A 
ATOM     38  C   UNL A   1      42.195  24.607  25.839  1.00  0.00     0.014 A 
ATOM     39  C   UNL A   1      41.345  23.435  27.777  1.00  0.00     0.014 A 
ATOM     40  C   UNL A   1      42.183  25.799  26.550  1.00  0.00     0.010 A 
ATOM     41  C   UNL A   1      41.454  24.586  28.520  1.00  0.00     0.010 A 
ATOM     42  C   UNL A   1      41.957  25.742  27.921  1.00  0.00    -0.014 A 
BRANCH  42  43
ATOM     43  C   UNL A   1      42.063  26.884  28.806  1.00  0.00     0.031 A 
ATOM     44  C   UNL A   1      41.014  27.910  28.677  1.00  0.00     0.074 A 
ATOM     45  C   UNL A   1      42.994  26.903  29.787  1.00  0.00     0.049 A 
ATOM     46  N   UNL A   1      41.138  29.137  29.037  1.00  0.00    -0.248 NA
ATOM     47  C   UNL A   1      39.726  27.614  28.053  1.00  0.00     0.031 C 
ATOM     48  C   UNL A   1      43.020  27.788  30.944  1.00  0.00     0.029 A 
ATOM     49  N   UNL A   1      44.210  26.212  29.877  1.00  0.00    -0.354 N 
ATOM     50  C   UNL A   1      39.880  29.703  28.980  1.00  0.00     0.074 A 
ATOM     51  C   UNL A   1      39.079  28.766  28.234  1.00  0.00     0.031 C 
ATOM     52  C   UNL A   1      44.263  27.801  31.455  1.00  0.00     0.029 A 
ATOM     53  C   UNL A   1      45.110  27.089  30.514  1.00  0.00     0.049 A 
ATOM     54  H   UNL A   1      44.399  25.300  29.559  1.00  0.00     0.167 HD
ATOM     55  C   UNL A   1      39.630  30.810  29.735  1.00  0.00     0.034 A 
ATOM     56  C   UNL A   1      46.235  27.609  29.927  1.00  0.00     0.034 A 
ATOM     57  C   UNL A   1      40.869  31.246  30.405  1.00  0.00     0.049 A 
ATOM     58  C   UNL A   1      46.212  29.127  29.850  1.00  0.00     0.074 A 
ATOM     59  C   UNL A   1      41.375  30.991  31.669  1.00  0.00     0.029 A 
ATOM     60  N   UNL A   1      41.934  31.731  29.648  1.00  0.00    -0.354 N 
ATOM     61  N   UNL A   1      45.165  29.852  30.130  1.00  0.00    -0.248 NA
ATOM     62  C   UNL A   1      47.343  29.943  29.415  1.00  0.00     0.031 C 
ATOM     63  C   UNL A   1      42.775  31.235  31.637  1.00  0.00     0.029 A 
ATOM     64  C   UNL A   1      43.119  31.680  30.371  1.00  0.00     0.049 A 
ATOM     65  H   UNL A   1      41.856  32.065  28.724  1.00  0.00     0.167 HD
ATOM     66  C   UNL A   1      45.393  31.157  29.789  1.00  0.00     0.074 A 
ATOM     67  C   UNL A   1      46.805  31.175  29.435  1.00  0.00     0.031 C 
ATOM     68  C   UNL A   1      44.387  32.089  29.763  1.00  0.00     0.034 A 
BRANCH  55  69
ATOM     69  C   UNL A   1      38.246  31.296  30.160  1.00  0.00     0.023 A 
ATOM     70  C   UNL A   1      37.716  30.737  31.348  1.00  0.00     0.012 A 
ATOM     71  C   UNL A   1      37.387  32.193  29.476  1.00  0.00     0.148 A 
ATOM     72  C   UNL A   1      36.405  30.973  31.780  1.00  0.00     0.002 A 
ATOM     73  C   UNL A   1      36.061  32.396  29.881  1.00  0.00     0.091 A 
ATOM     74  F   UNL A   1      37.851  32.920  28.461  1.00  0.00    -0.205 F 
ATOM     75  C   UNL A   1      35.566  31.781  31.032  1.00  0.00     0.022 A 
BRANCH  73  76
ATOM     76  S   UNL A   1      34.896  33.413  28.949  1.00  0.00     0.127 S 
ATOM     77  O   UNL A   1      35.614  34.686  28.844  1.00  0.00    -0.237 OA
ATOM     78  O   UNL A   1      34.777  32.680  27.690  1.00  0.00    -0.237 OA
ATOM     79  O   UNL A   1      33.677  33.481  29.747  1.00  0.00    -0.744 OA
ENDBRANCH  73  76
ENDBRANCH  55  69
BRANCH  56  80
ATOM     80  C   UNL A   1      46.826  26.719  28.884  1.00  0.00     0.023 A 
ATOM     81  C   UNL A   1      47.149  25.408  29.297  1.00  0.00     0.012 A 
ATOM     82  C   UNL A   1      46.596  26.968  27.523  1.00  0.00     0.148 A 
ATOM     83  C   UNL A   1      46.952  24.335  28.430  1.00  0.00     0.002 A 
ATOM     84  C   UNL A   1      46.420  25.891  26.660  1.00  0.00     0.091 A 
ATOM     85  F   UNL A   1      46.486  28.235  27.102  1.00  0.00    -0.205 F 
ATOM     86  C   UNL A   1      46.509  24.574  27.134  1.00  0.00     0.022 A 
BRANCH  84  87
ATOM     87  S   UNL A   1      45.976  26.162  24.943  1.00  0.00     0.127 S 
ATOM     88  O   UNL A   1      45.519  24.834  24.544  1.00  0.00    -0.237 OA
ATOM     89  O   UNL A   1      44.917  27.164  25.040  1.00  0.00    -0.237 OA
ATOM     90  O   UNL A   1      47.203  26.640  24.323  1.00  0.00    -0.744 OA
ENDBRANCH  84  87
ENDBRANCH  56  80
BRANCH  68  91
ATOM     91  C   UNL A   1      44.518  33.484  29.177  1.00  0.00     0.023 A 
ATOM     92  C   UNL A   1      44.250  34.644  29.929  1.00  0.00     0.012 A 
ATOM     93  C   UNL A   1      45.030  33.685  27.870  1.00  0.00     0.148 A 
ATOM     94  C   UNL A   1      44.366  35.928  29.384  1.00  0.00     0.002 A 
ATOM     95  C   UNL A   1      45.271  34.965  27.379  1.00  0.00     0.091 A 
ATOM     96  F   UNL A   1      45.265  32.633  27.072  1.00  0.00    -0.205 F 
ATOM     97  C   UNL A   1      44.892  36.089  28.113  1.00  0.00     0.022 A 
BRANCH  95  98
ATOM     98  S   UNL A   1      46.211  35.230  25.870  1.00  0.00     0.127 S 
ATOM     99  O   UNL A   1      46.301  36.687  25.822  1.00  0.00    -0.237 OA
ATOM    100  O   UNL A   1      47.474  34.550  26.168  1.00  0.00    -0.237 OA
ATOM    101  O   UNL A   1      45.432  34.598  24.814  1.00  0.00    -0.744 OA
ENDBRANCH  95  98
ENDBRANCH  68  91
ENDBRANCH  42  43
ENDBRANCH  34  37
ENDBRANCH  32  33
ENDBRANCH   1  32
TORSDOF 15
ENDMDL
