MODEL 1
REMARK VINA RESULT:     -12.0      0.000      0.000
REMARK SMILES O=C(NCCCNC(=O)[C@H]1CCCC[C@H]1C(=O)Nc1ccc(Cl)cc1F)c1ccc(-c2c3nc(c(-c4cccc(S(=O)(=O)[O-])c4F)c4ccc([nH]4)c(-c4cccc(S(=O)(=O)[O-])c4F)c4nc(c(-c5cccc(S(=O)(=O)[O-])c5F)c5ccc2[nH]5)C=C4)C=C3)cc1
REMARK SMILES IDX 4 1 3 2 1 3 2 4 27 6 28 7 89 8 29 9 88 10 30 11 31 12 32 13
REMARK SMILES IDX 82 14 33 15 87 16 81 17 83 18 34 19 86 20 80 21 79 22 35 24
REMARK SMILES IDX 67 25 47 26 66 27 48 28 51 29 65 30 84 31 49 32 50 33 64 35
REMARK SMILES IDX 85 36 52 37 36 38 37 39 45 40 38 41 40 42 46 43 39 44 41 45
REMARK SMILES IDX 42 46 43 47 44 48 68 49 69 50 77 51 70 52 72 53 78 54 71 55
REMARK SMILES IDX 73 56 74 57 75 58 76 59 53 60 54 61 62 62 55 63 57 64 63 65
REMARK SMILES IDX 56 66 58 67 59 68 60 69 61 70 5 71 6 72 7 73 8 74 9 76 10 77
REMARK SMILES IDX 11 78 15 79 12 80 14 81 13 82 16 83 17 84 18 85 19 87 20 88
REMARK SMILES IDX 25 89 21 90 24 91 26 92 22 93 23 94
REMARK H PARENT 3 5 83 23 51 34 7 75 18 86
REMARK Flexibility Score: inf
ROOT
ATOM      1  C   UNL A   1      33.586  29.011  26.239  1.00  0.00     0.118 C 
ENDROOT
BRANCH   1   2
ATOM      2  N   UNL A   1      33.620  30.347  26.806  1.00  0.00    -0.352 N 
ATOM      3  O   UNL A   1      34.197  31.997  28.202  1.00  0.00    -0.269 OA
ATOM      4  C   UNL A   1      34.496  30.914  27.700  1.00  0.00     0.251 C 
ATOM      5  H   UNL A   1      32.900  30.943  26.500  1.00  0.00     0.163 HD
BRANCH   4   6
ATOM      6  C   UNL A   1      35.771  30.258  28.086  1.00  0.00     0.039 A 
ATOM      7  C   UNL A   1      36.909  30.296  27.273  1.00  0.00     0.014 A 
ATOM      8  C   UNL A   1      35.867  29.703  29.368  1.00  0.00     0.014 A 
ATOM      9  C   UNL A   1      38.109  29.720  27.711  1.00  0.00     0.010 A 
ATOM     10  C   UNL A   1      37.080  29.172  29.824  1.00  0.00     0.010 A 
ATOM     11  C   UNL A   1      38.215  29.165  28.999  1.00  0.00    -0.014 A 
BRANCH  11  12
ATOM     12  C   UNL A   1      39.524  28.670  29.518  1.00  0.00     0.031 A 
ATOM     13  C   UNL A   1      40.257  29.395  30.616  1.00  0.00     0.074 A 
ATOM     14  C   UNL A   1      40.098  27.594  28.942  1.00  0.00     0.049 A 
ATOM     15  N   UNL A   1      41.419  29.118  31.154  1.00  0.00    -0.248 NA
ATOM     16  C   UNL A   1      39.610  30.592  31.177  1.00  0.00     0.031 C 
ATOM     17  C   UNL A   1      39.533  26.836  27.824  1.00  0.00     0.029 A 
ATOM     18  N   UNL A   1      41.297  26.970  29.192  1.00  0.00    -0.354 N 
ATOM     19  C   UNL A   1      41.661  30.120  32.088  1.00  0.00     0.074 A 
ATOM     20  C   UNL A   1      40.525  31.017  32.039  1.00  0.00     0.031 C 
ATOM     21  C   UNL A   1      40.385  25.856  27.480  1.00  0.00     0.029 A 
ATOM     22  C   UNL A   1      41.573  25.937  28.325  1.00  0.00     0.049 A 
ATOM     23  H   UNL A   1      41.902  27.236  29.922  1.00  0.00     0.167 HD
ATOM     24  C   UNL A   1      42.720  30.270  32.921  1.00  0.00     0.034 A 
ATOM     25  C   UNL A   1      42.664  25.153  28.201  1.00  0.00     0.034 A 
ATOM     26  C   UNL A   1      43.836  29.363  32.996  1.00  0.00     0.049 A 
ATOM     27  C   UNL A   1      43.819  25.336  29.149  1.00  0.00     0.074 A 
ATOM     28  C   UNL A   1      44.901  29.383  33.880  1.00  0.00     0.029 A 
ATOM     29  N   UNL A   1      44.047  28.288  32.147  1.00  0.00    -0.354 N 
ATOM     30  N   UNL A   1      43.943  26.179  30.144  1.00  0.00    -0.248 NA
ATOM     31  C   UNL A   1      44.972  24.440  28.975  1.00  0.00     0.031 C 
ATOM     32  C   UNL A   1      45.771  28.339  33.547  1.00  0.00     0.029 A 
ATOM     33  C   UNL A   1      45.235  27.653  32.471  1.00  0.00     0.049 A 
ATOM     34  H   UNL A   1      43.442  28.017  31.419  1.00  0.00     0.167 HD
ATOM     35  C   UNL A   1      45.172  25.898  30.730  1.00  0.00     0.074 A 
ATOM     36  C   UNL A   1      45.742  24.789  29.995  1.00  0.00     0.031 C 
ATOM     37  C   UNL A   1      45.778  26.517  31.772  1.00  0.00     0.034 A 
BRANCH  24  38
ATOM     38  C   UNL A   1      42.715  31.444  33.868  1.00  0.00     0.023 A 
ATOM     39  C   UNL A   1      43.213  32.688  33.431  1.00  0.00     0.012 A 
ATOM     40  C   UNL A   1      42.134  31.343  35.148  1.00  0.00     0.148 A 
ATOM     41  C   UNL A   1      43.157  33.806  34.262  1.00  0.00     0.002 A 
ATOM     42  C   UNL A   1      42.045  32.472  35.955  1.00  0.00     0.091 A 
ATOM     43  F   UNL A   1      41.678  30.148  35.552  1.00  0.00    -0.205 F 
ATOM     44  C   UNL A   1      42.564  33.702  35.517  1.00  0.00     0.022 A 
BRANCH  42  45
ATOM     45  S   UNL A   1      41.230  32.460  37.557  1.00  0.00     0.127 S 
ATOM     46  O   UNL A   1      41.246  33.878  37.906  1.00  0.00    -0.237 OA
ATOM     47  O   UNL A   1      39.909  31.927  37.227  1.00  0.00    -0.237 OA
ATOM     48  O   UNL A   1      42.038  31.596  38.409  1.00  0.00    -0.744 OA
ENDBRANCH  42  45
ENDBRANCH  24  38
BRANCH  25  49
ATOM     49  C   UNL A   1      42.698  24.091  27.155  1.00  0.00     0.023 A 
ATOM     50  C   UNL A   1      43.376  24.333  25.946  1.00  0.00     0.012 A 
ATOM     51  C   UNL A   1      42.089  22.839  27.364  1.00  0.00     0.148 A 
ATOM     52  C   UNL A   1      43.425  23.355  24.951  1.00  0.00     0.002 A 
ATOM     53  C   UNL A   1      42.191  21.850  26.394  1.00  0.00     0.091 A 
ATOM     54  F   UNL A   1      41.430  22.636  28.514  1.00  0.00    -0.205 F 
ATOM     55  C   UNL A   1      42.844  22.111  25.179  1.00  0.00     0.022 A 
BRANCH  53  56
ATOM     56  S   UNL A   1      41.592  20.177  26.663  1.00  0.00     0.127 S 
ATOM     57  O   UNL A   1      41.975  19.520  25.416  1.00  0.00    -0.237 OA
ATOM     58  O   UNL A   1      42.361  19.765  27.838  1.00  0.00    -0.237 OA
ATOM     59  O   UNL A   1      40.163  20.309  26.900  1.00  0.00    -0.744 OA
ENDBRANCH  53  56
ENDBRANCH  25  49
BRANCH  37  60
ATOM     60  C   UNL A   1      47.125  26.001  32.209  1.00  0.00     0.023 A 
ATOM     61  C   UNL A   1      48.294  26.494  31.597  1.00  0.00     0.012 A 
ATOM     62  C   UNL A   1      47.237  25.085  33.275  1.00  0.00     0.148 A 
ATOM     63  C   UNL A   1      49.552  26.066  32.020  1.00  0.00     0.002 A 
ATOM     64  C   UNL A   1      48.496  24.697  33.722  1.00  0.00     0.091 A 
ATOM     65  F   UNL A   1      46.113  24.613  33.832  1.00  0.00    -0.205 F 
ATOM     66  C   UNL A   1      49.654  25.178  33.089  1.00  0.00     0.022 A 
BRANCH  64  67
ATOM     67  S   UNL A   1      48.727  23.630  35.148  1.00  0.00     0.127 S 
ATOM     68  O   UNL A   1      47.973  24.343  36.179  1.00  0.00    -0.237 OA
ATOM     69  O   UNL A   1      48.117  22.377  34.702  1.00  0.00    -0.237 OA
ATOM     70  O   UNL A   1      50.166  23.556  35.367  1.00  0.00    -0.744 OA
ENDBRANCH  64  67
ENDBRANCH  37  60
ENDBRANCH  11  12
ENDBRANCH   4   6
ENDBRANCH   1   2
BRANCH   1  71
ATOM     71  C   UNL A   1      32.779  28.034  27.090  1.00  0.00     0.042 C 
BRANCH  71  72
ATOM     72  C   UNL A   1      31.654  27.225  26.420  1.00  0.00     0.117 C 
BRANCH  72  73
ATOM     73  N   UNL A   1      31.674  25.780  26.581  1.00  0.00    -0.356 N 
ATOM     74  C   UNL A   1      32.506  24.808  26.104  1.00  0.00     0.223 C 
ATOM     75  H   UNL A   1      30.947  25.435  27.146  1.00  0.00     0.163 HD
ATOM     76  O   UNL A   1      32.533  23.733  26.712  1.00  0.00    -0.275 OA
BRANCH  74  77
ATOM     77  C   UNL A   1      33.377  25.027  24.879  1.00  0.00     0.091 C 
ATOM     78  C   UNL A   1      34.853  25.239  25.318  1.00  0.00     0.014 C 
ATOM     79  C   UNL A   1      33.241  24.006  23.722  1.00  0.00     0.091 C 
ATOM     80  C   UNL A   1      35.703  23.972  25.296  1.00  0.00     0.001 C 
ATOM     81  C   UNL A   1      34.314  22.920  23.549  1.00  0.00     0.014 C 
ATOM     82  C   UNL A   1      35.712  23.389  23.896  1.00  0.00     0.001 C 
BRANCH  79  83
ATOM     83  C   UNL A   1      31.855  23.465  23.369  1.00  0.00     0.228 C 
ATOM     84  O   UNL A   1      31.703  22.234  23.399  1.00  0.00    -0.274 OA
ATOM     85  N   UNL A   1      30.719  24.196  23.180  1.00  0.00    -0.323 N 
ATOM     86  H   UNL A   1      29.912  23.643  23.070  1.00  0.00     0.170 HD
BRANCH  85  87
ATOM     87  C   UNL A   1      30.461  25.575  23.110  1.00  0.00     0.077 A 
ATOM     88  C   UNL A   1      29.332  26.056  23.775  1.00  0.00     0.031 A 
ATOM     89  C   UNL A   1      31.168  26.472  22.308  1.00  0.00     0.148 A 
ATOM     90  C   UNL A   1      29.025  27.423  23.753  1.00  0.00     0.023 A 
ATOM     91  C   UNL A   1      30.900  27.837  22.303  1.00  0.00     0.062 A 
ATOM     92  F   UNL A   1      31.971  26.023  21.346  1.00  0.00    -0.205 F 
ATOM     93  C   UNL A   1      29.833  28.313  23.045  1.00  0.00     0.044 A 
ATOM     94  Cl  UNL A   1      29.468  29.993  23.038  1.00  0.00    -0.084 Cl
ENDBRANCH  85  87
ENDBRANCH  79  83
ENDBRANCH  74  77
ENDBRANCH  72  73
ENDBRANCH  71  72
ENDBRANCH   1  71
TORSDOF 15
ENDMDL
MODEL 2
REMARK VINA RESULT:     -12.0      1.304      1.636
REMARK SMILES O=C(NCCCNC(=O)[C@H]1CCCC[C@H]1C(=O)Nc1ccc(Cl)cc1F)c1ccc(-c2c3nc(c(-c4cccc(S(=O)(=O)[O-])c4F)c4ccc([nH]4)c(-c4cccc(S(=O)(=O)[O-])c4F)c4nc(c(-c5cccc(S(=O)(=O)[O-])c5F)c5ccc2[nH]5)C=C4)C=C3)cc1
REMARK SMILES IDX 4 1 3 2 1 3 2 4 27 6 28 7 89 8 29 9 88 10 30 11 31 12 32 13
REMARK SMILES IDX 82 14 33 15 87 16 81 17 83 18 34 19 86 20 80 21 79 22 35 24
REMARK SMILES IDX 67 25 47 26 66 27 48 28 51 29 65 30 84 31 49 32 50 33 64 35
REMARK SMILES IDX 85 36 52 37 36 38 37 39 45 40 38 41 40 42 46 43 39 44 41 45
REMARK SMILES IDX 42 46 43 47 44 48 68 49 69 50 77 51 70 52 72 53 78 54 71 55
REMARK SMILES IDX 73 56 74 57 75 58 76 59 53 60 54 61 62 62 55 63 57 64 63 65
REMARK SMILES IDX 56 66 58 67 59 68 60 69 61 70 5 71 6 72 7 73 8 74 9 76 10 77
REMARK SMILES IDX 11 78 15 79 12 80 14 81 13 82 16 83 17 84 18 85 19 87 20 88
REMARK SMILES IDX 25 89 21 90 24 91 26 92 22 93 23 94
REMARK H PARENT 3 5 83 23 51 34 7 75 18 86
REMARK Flexibility Score: inf
ROOT
ATOM      1  C   UNL A   1      33.632  28.981  26.237  1.00  0.00     0.118 C 
ENDROOT
BRANCH   1   2
ATOM      2  N   UNL A   1      33.657  30.317  26.801  1.00  0.00    -0.352 N 
ATOM      3  O   UNL A   1      34.227  31.975  28.192  1.00  0.00    -0.269 OA
ATOM      4  C   UNL A   1      34.532  30.894  27.690  1.00  0.00     0.251 C 
ATOM      5  H   UNL A   1      32.930  30.906  26.498  1.00  0.00     0.163 HD
BRANCH   4   6
ATOM      6  C   UNL A   1      35.815  30.250  28.071  1.00  0.00     0.039 A 
ATOM      7  C   UNL A   1      36.958  30.324  27.268  1.00  0.00     0.014 A 
ATOM      8  C   UNL A   1      35.911  29.667  29.341  1.00  0.00     0.014 A 
ATOM      9  C   UNL A   1      38.164  29.757  27.702  1.00  0.00     0.010 A 
ATOM     10  C   UNL A   1      37.129  29.146  29.794  1.00  0.00     0.010 A 
ATOM     11  C   UNL A   1      38.270  29.175  28.977  1.00  0.00    -0.014 A 
BRANCH  11  12
ATOM     12  C   UNL A   1      39.583  28.689  29.495  1.00  0.00     0.031 A 
ATOM     13  C   UNL A   1      40.308  29.416  30.599  1.00  0.00     0.074 A 
ATOM     14  C   UNL A   1      40.168  27.622  28.913  1.00  0.00     0.049 A 
ATOM     15  N   UNL A   1      41.472  29.146  31.136  1.00  0.00    -0.248 NA
ATOM     16  C   UNL A   1      39.649  30.602  31.166  1.00  0.00     0.031 C 
ATOM     17  C   UNL A   1      39.612  26.866  27.791  1.00  0.00     0.029 A 
ATOM     18  N   UNL A   1      41.373  27.009  29.161  1.00  0.00    -0.354 N 
ATOM     19  C   UNL A   1      41.703  30.144  32.077  1.00  0.00     0.074 A 
ATOM     20  C   UNL A   1      40.559  31.032  32.032  1.00  0.00     0.031 C 
ATOM     21  C   UNL A   1      40.473  25.897  27.442  1.00  0.00     0.029 A 
ATOM     22  C   UNL A   1      41.659  25.984  28.288  1.00  0.00     0.049 A 
ATOM     23  H   UNL A   1      41.974  27.276  29.894  1.00  0.00     0.167 HD
ATOM     24  C   UNL A   1      42.759  30.300  32.912  1.00  0.00     0.034 A 
ATOM     25  C   UNL A   1      42.758  25.211  28.162  1.00  0.00     0.034 A 
ATOM     26  C   UNL A   1      43.884  29.403  32.983  1.00  0.00     0.049 A 
ATOM     27  C   UNL A   1      43.910  25.399  29.111  1.00  0.00     0.074 A 
ATOM     28  C   UNL A   1      44.948  29.428  33.868  1.00  0.00     0.029 A 
ATOM     29  N   UNL A   1      44.106  28.335  32.127  1.00  0.00    -0.354 N 
ATOM     30  N   UNL A   1      44.025  26.237  30.112  1.00  0.00    -0.248 NA
ATOM     31  C   UNL A   1      45.071  24.515  28.933  1.00  0.00     0.031 C 
ATOM     32  C   UNL A   1      45.829  28.394  33.530  1.00  0.00     0.029 A 
ATOM     33  C   UNL A   1      45.300  27.710  32.449  1.00  0.00     0.049 A 
ATOM     34  H   UNL A   1      43.505  28.063  31.397  1.00  0.00     0.167 HD
ATOM     35  C   UNL A   1      45.256  25.964  30.698  1.00  0.00     0.074 A 
ATOM     36  C   UNL A   1      45.838  24.865  29.957  1.00  0.00     0.031 C 
ATOM     37  C   UNL A   1      45.854  26.583  31.744  1.00  0.00     0.034 A 
BRANCH  24  38
ATOM     38  C   UNL A   1      42.742  31.468  33.866  1.00  0.00     0.023 A 
ATOM     39  C   UNL A   1      43.226  32.721  33.436  1.00  0.00     0.012 A 
ATOM     40  C   UNL A   1      42.164  31.353  35.145  1.00  0.00     0.148 A 
ATOM     41  C   UNL A   1      43.158  33.833  34.273  1.00  0.00     0.002 A 
ATOM     42  C   UNL A   1      42.063  32.477  35.959  1.00  0.00     0.091 A 
ATOM     43  F   UNL A   1      41.722  30.151  35.542  1.00  0.00    -0.205 F 
ATOM     44  C   UNL A   1      42.568  33.714  35.528  1.00  0.00     0.022 A 
BRANCH  42  45
ATOM     45  S   UNL A   1      41.250  32.445  37.562  1.00  0.00     0.127 S 
ATOM     46  O   UNL A   1      39.927  31.936  37.210  1.00  0.00    -0.237 OA
ATOM     47  O   UNL A   1      42.085  31.508  38.314  1.00  0.00    -0.237 OA
ATOM     48  O   UNL A   1      41.283  33.817  38.053  1.00  0.00    -0.744 OA
ENDBRANCH  42  45
ENDBRANCH  24  38
BRANCH  25  49
ATOM     49  C   UNL A   1      42.804  24.156  27.109  1.00  0.00     0.023 A 
ATOM     50  C   UNL A   1      43.525  24.391  25.924  1.00  0.00     0.012 A 
ATOM     51  C   UNL A   1      42.161  22.916  27.289  1.00  0.00     0.148 A 
ATOM     52  C   UNL A   1      43.586  23.419  24.924  1.00  0.00     0.002 A 
ATOM     53  C   UNL A   1      42.273  21.931  26.315  1.00  0.00     0.091 A 
ATOM     54  F   UNL A   1      41.461  22.719  28.415  1.00  0.00    -0.205 F 
ATOM     55  C   UNL A   1      42.971  22.186  25.124  1.00  0.00     0.022 A 
BRANCH  53  56
ATOM     56  S   UNL A   1      41.630  20.270  26.552  1.00  0.00     0.127 S 
ATOM     57  O   UNL A   1      40.188  20.506  26.550  1.00  0.00    -0.237 OA
ATOM     58  O   UNL A   1      42.143  19.575  25.371  1.00  0.00    -0.237 OA
ATOM     59  O   UNL A   1      42.198  19.809  27.810  1.00  0.00    -0.744 OA
ENDBRANCH  53  56
ENDBRANCH  25  49
BRANCH  37  60
ATOM     60  C   UNL A   1      47.206  26.077  32.179  1.00  0.00     0.023 A 
ATOM     61  C   UNL A   1      47.300  25.178  33.260  1.00  0.00     0.012 A 
ATOM     62  C   UNL A   1      48.373  26.431  31.472  1.00  0.00     0.148 A 
ATOM     63  C   UNL A   1      48.535  24.659  33.647  1.00  0.00     0.002 A 
ATOM     64  C   UNL A   1      49.595  25.875  31.835  1.00  0.00     0.091 A 
ATOM     65  F   UNL A   1      48.266  27.302  30.459  1.00  0.00    -0.205 F 
ATOM     66  C   UNL A   1      49.680  24.998  32.928  1.00  0.00     0.022 A 
BRANCH  64  67
ATOM     67  S   UNL A   1      51.106  26.181  30.913  1.00  0.00     0.127 S 
ATOM     68  O   UNL A   1      50.707  25.811  29.556  1.00  0.00    -0.237 OA
ATOM     69  O   UNL A   1      51.312  27.615  31.119  1.00  0.00    -0.237 OA
ATOM     70  O   UNL A   1      52.125  25.332  31.516  1.00  0.00    -0.744 OA
ENDBRANCH  64  67
ENDBRANCH  37  60
ENDBRANCH  11  12
ENDBRANCH   4   6
ENDBRANCH   1   2
BRANCH   1  71
ATOM     71  C   UNL A   1      32.838  27.997  27.094  1.00  0.00     0.042 C 
BRANCH  71  72
ATOM     72  C   UNL A   1      31.649  27.256  26.458  1.00  0.00     0.117 C 
BRANCH  72  73
ATOM     73  N   UNL A   1      31.621  25.806  26.569  1.00  0.00    -0.356 N 
ATOM     74  C   UNL A   1      32.441  24.826  26.089  1.00  0.00     0.223 C 
ATOM     75  H   UNL A   1      30.863  25.465  27.095  1.00  0.00     0.163 HD
ATOM     76  O   UNL A   1      32.413  23.731  26.660  1.00  0.00    -0.275 OA
BRANCH  74  77
ATOM     77  C   UNL A   1      33.363  25.060  24.905  1.00  0.00     0.091 C 
ATOM     78  C   UNL A   1      34.821  25.252  25.408  1.00  0.00     0.014 C 
ATOM     79  C   UNL A   1      33.267  24.060  23.725  1.00  0.00     0.091 C 
ATOM     80  C   UNL A   1      35.662  23.978  25.397  1.00  0.00     0.001 C 
ATOM     81  C   UNL A   1      34.338  22.968  23.577  1.00  0.00     0.014 C 
ATOM     82  C   UNL A   1      35.724  23.419  23.989  1.00  0.00     0.001 C 
BRANCH  79  83
ATOM     83  C   UNL A   1      31.893  23.537  23.306  1.00  0.00     0.228 C 
ATOM     84  O   UNL A   1      31.737  22.307  23.285  1.00  0.00    -0.274 OA
ATOM     85  N   UNL A   1      30.764  24.278  23.106  1.00  0.00    -0.323 N 
ATOM     86  H   UNL A   1      29.961  23.732  22.949  1.00  0.00     0.170 HD
BRANCH  85  87
ATOM     87  C   UNL A   1      30.512  25.660  23.079  1.00  0.00     0.077 A 
ATOM     88  C   UNL A   1      29.379  26.123  23.751  1.00  0.00     0.031 A 
ATOM     89  C   UNL A   1      31.228  26.580  22.313  1.00  0.00     0.148 A 
ATOM     90  C   UNL A   1      29.077  27.491  23.772  1.00  0.00     0.023 A 
ATOM     91  C   UNL A   1      30.965  27.946  22.350  1.00  0.00     0.062 A 
ATOM     92  F   UNL A   1      32.038  26.160  21.343  1.00  0.00    -0.205 F 
ATOM     93  C   UNL A   1      29.893  28.400  23.099  1.00  0.00     0.044 A 
ATOM     94  Cl  UNL A   1      29.534  30.081  23.144  1.00  0.00    -0.084 Cl
ENDBRANCH  85  87
ENDBRANCH  79  83
ENDBRANCH  74  77
ENDBRANCH  72  73
ENDBRANCH  71  72
ENDBRANCH   1  71
TORSDOF 15
ENDMDL
MODEL 3
REMARK VINA RESULT:     -11.9      2.052      2.725
REMARK SMILES O=C(NCCCNC(=O)[C@H]1CCCC[C@H]1C(=O)Nc1ccc(Cl)cc1F)c1ccc(-c2c3nc(c(-c4cccc(S(=O)(=O)[O-])c4F)c4ccc([nH]4)c(-c4cccc(S(=O)(=O)[O-])c4F)c4nc(c(-c5cccc(S(=O)(=O)[O-])c5F)c5ccc2[nH]5)C=C4)C=C3)cc1
REMARK SMILES IDX 4 1 3 2 1 3 2 4 27 6 28 7 89 8 29 9 88 10 30 11 31 12 32 13
REMARK SMILES IDX 82 14 33 15 87 16 81 17 83 18 34 19 86 20 80 21 79 22 35 24
REMARK SMILES IDX 67 25 47 26 66 27 48 28 51 29 65 30 84 31 49 32 50 33 64 35
REMARK SMILES IDX 85 36 52 37 36 38 37 39 45 40 38 41 40 42 46 43 39 44 41 45
REMARK SMILES IDX 42 46 43 47 44 48 68 49 69 50 77 51 70 52 72 53 78 54 71 55
REMARK SMILES IDX 73 56 74 57 75 58 76 59 53 60 54 61 62 62 55 63 57 64 63 65
REMARK SMILES IDX 56 66 58 67 59 68 60 69 61 70 5 71 6 72 7 73 8 74 9 76 10 77
REMARK SMILES IDX 11 78 15 79 12 80 14 81 13 82 16 83 17 84 18 85 19 87 20 88
REMARK SMILES IDX 25 89 21 90 24 91 26 92 22 93 23 94
REMARK H PARENT 3 5 83 23 51 34 7 75 18 86
REMARK Flexibility Score: inf
ROOT
ATOM      1  C   UNL A   1      32.715  29.693  25.485  1.00  0.00     0.118 C 
ENDROOT
BRANCH   1   2
ATOM      2  N   UNL A   1      32.445  31.017  26.013  1.00  0.00    -0.352 N 
ATOM      3  O   UNL A   1      32.529  32.744  27.433  1.00  0.00    -0.269 OA
ATOM      4  C   UNL A   1      33.072  31.725  27.010  1.00  0.00     0.251 C 
ATOM      5  H   UNL A   1      31.690  31.484  25.589  1.00  0.00     0.163 HD
BRANCH   4   6
ATOM      6  C   UNL A   1      34.365  31.291  27.598  1.00  0.00     0.039 A 
ATOM      7  C   UNL A   1      35.392  32.193  27.897  1.00  0.00     0.014 A 
ATOM      8  C   UNL A   1      34.498  29.952  27.987  1.00  0.00     0.014 A 
ATOM      9  C   UNL A   1      36.569  31.744  28.512  1.00  0.00     0.010 A 
ATOM     10  C   UNL A   1      35.654  29.515  28.648  1.00  0.00     0.010 A 
ATOM     11  C   UNL A   1      36.708  30.403  28.911  1.00  0.00    -0.014 A 
BRANCH  11  12
ATOM     12  C   UNL A   1      37.902  29.950  29.684  1.00  0.00     0.031 A 
ATOM     13  C   UNL A   1      38.174  30.459  31.076  1.00  0.00     0.074 A 
ATOM     14  C   UNL A   1      38.795  29.127  29.097  1.00  0.00     0.049 A 
ATOM     15  N   UNL A   1      39.184  30.193  31.867  1.00  0.00    -0.248 NA
ATOM     16  C   UNL A   1      37.195  31.393  31.652  1.00  0.00     0.031 C 
ATOM     17  C   UNL A   1      38.693  28.611  27.731  1.00  0.00     0.029 A 
ATOM     18  N   UNL A   1      39.979  28.604  29.560  1.00  0.00    -0.354 N 
ATOM     19  C   UNL A   1      38.983  30.951  33.016  1.00  0.00     0.074 A 
ATOM     20  C   UNL A   1      37.756  31.693  32.816  1.00  0.00     0.031 C 
ATOM     21  C   UNL A   1      39.770  27.855  27.463  1.00  0.00     0.029 A 
ATOM     22  C   UNL A   1      40.658  27.861  28.622  1.00  0.00     0.049 A 
ATOM     23  H   UNL A   1      40.310  28.748  30.476  1.00  0.00     0.167 HD
ATOM     24  C   UNL A   1      39.739  31.011  34.140  1.00  0.00     0.034 A 
ATOM     25  C   UNL A   1      41.868  27.265  28.672  1.00  0.00     0.034 A 
ATOM     26  C   UNL A   1      40.943  30.251  34.357  1.00  0.00     0.049 A 
ATOM     27  C   UNL A   1      42.678  27.339  29.937  1.00  0.00     0.074 A 
ATOM     28  C   UNL A   1      41.715  30.173  35.503  1.00  0.00     0.029 A 
ATOM     29  N   UNL A   1      41.563  29.454  33.407  1.00  0.00    -0.354 N 
ATOM     30  N   UNL A   1      42.380  27.915  31.075  1.00  0.00    -0.248 NA
ATOM     31  C   UNL A   1      43.981  26.656  29.935  1.00  0.00     0.031 C 
ATOM     32  C   UNL A   1      42.819  29.354  35.238  1.00  0.00     0.029 A 
ATOM     33  C   UNL A   1      42.720  28.901  33.933  1.00  0.00     0.049 A 
ATOM     34  H   UNL A   1      41.232  29.305  32.492  1.00  0.00     0.167 HD
ATOM     35  C   UNL A   1      43.441  27.642  31.931  1.00  0.00     0.074 A 
ATOM     36  C   UNL A   1      44.378  26.826  31.188  1.00  0.00     0.031 C 
ATOM     37  C   UNL A   1      43.627  28.048  33.210  1.00  0.00     0.034 A 
BRANCH  24  38
ATOM     38  C   UNL A   1      39.270  31.902  35.263  1.00  0.00     0.023 A 
ATOM     39  C   UNL A   1      38.402  31.381  36.244  1.00  0.00     0.012 A 
ATOM     40  C   UNL A   1      39.760  33.215  35.401  1.00  0.00     0.148 A 
ATOM     41  C   UNL A   1      38.008  32.162  37.330  1.00  0.00     0.002 A 
ATOM     42  C   UNL A   1      39.395  33.974  36.508  1.00  0.00     0.091 A 
ATOM     43  F   UNL A   1      40.574  33.699  34.451  1.00  0.00    -0.205 F 
ATOM     44  C   UNL A   1      38.512  33.452  37.468  1.00  0.00     0.022 A 
BRANCH  42  45
ATOM     45  S   UNL A   1      40.050  35.619  36.818  1.00  0.00     0.127 S 
ATOM     46  O   UNL A   1      39.526  36.365  35.676  1.00  0.00    -0.237 OA
ATOM     47  O   UNL A   1      39.439  35.958  38.102  1.00  0.00    -0.237 OA
ATOM     48  O   UNL A   1      41.500  35.470  36.856  1.00  0.00    -0.744 OA
ENDBRANCH  42  45
ENDBRANCH  24  38
BRANCH  25  49
ATOM     49  C   UNL A   1      42.370  26.510  27.489  1.00  0.00     0.023 A 
ATOM     50  C   UNL A   1      43.165  27.170  26.533  1.00  0.00     0.012 A 
ATOM     51  C   UNL A   1      42.088  25.141  27.322  1.00  0.00     0.148 A 
ATOM     52  C   UNL A   1      43.651  26.486  25.417  1.00  0.00     0.002 A 
ATOM     53  C   UNL A   1      42.622  24.452  26.239  1.00  0.00     0.091 A 
ATOM     54  F   UNL A   1      41.311  24.536  28.231  1.00  0.00    -0.205 F 
ATOM     55  C   UNL A   1      43.390  25.125  25.276  1.00  0.00     0.022 A 
BRANCH  53  56
ATOM     56  S   UNL A   1      42.450  22.672  26.056  1.00  0.00     0.127 S 
ATOM     57  O   UNL A   1      43.071  22.446  24.753  1.00  0.00    -0.237 OA
ATOM     58  O   UNL A   1      43.217  22.175  27.199  1.00  0.00    -0.237 OA
ATOM     59  O   UNL A   1      41.021  22.409  26.135  1.00  0.00    -0.744 OA
ENDBRANCH  53  56
ENDBRANCH  25  49
BRANCH  37  60
ATOM     60  C   UNL A   1      44.882  27.599  33.914  1.00  0.00     0.023 A 
ATOM     61  C   UNL A   1      46.022  28.427  33.903  1.00  0.00     0.012 A 
ATOM     62  C   UNL A   1      44.909  26.396  34.648  1.00  0.00     0.148 A 
ATOM     63  C   UNL A   1      47.177  28.053  34.589  1.00  0.00     0.002 A 
ATOM     64  C   UNL A   1      46.049  26.052  35.366  1.00  0.00     0.091 A 
ATOM     65  F   UNL A   1      43.821  25.613  34.631  1.00  0.00    -0.205 F 
ATOM     66  C   UNL A   1      47.187  26.873  35.329  1.00  0.00     0.022 A 
BRANCH  64  67
ATOM     67  S   UNL A   1      46.123  24.599  36.421  1.00  0.00     0.127 S 
ATOM     68  O   UNL A   1      45.948  23.518  35.451  1.00  0.00    -0.237 OA
ATOM     69  O   UNL A   1      47.467  24.696  36.991  1.00  0.00    -0.237 OA
ATOM     70  O   UNL A   1      45.045  24.748  37.389  1.00  0.00    -0.744 OA
ENDBRANCH  64  67
ENDBRANCH  37  60
ENDBRANCH  11  12
ENDBRANCH   4   6
ENDBRANCH   1   2
BRANCH   1  71
ATOM     71  C   UNL A   1      31.581  28.708  25.762  1.00  0.00     0.042 C 
BRANCH  71  72
ATOM     72  C   UNL A   1      31.548  27.981  27.119  1.00  0.00     0.117 C 
BRANCH  72  73
ATOM     73  N   UNL A   1      31.268  26.554  27.112  1.00  0.00    -0.356 N 
ATOM     74  C   UNL A   1      31.858  25.499  26.477  1.00  0.00     0.223 C 
ATOM     75  H   UNL A   1      30.503  26.299  27.676  1.00  0.00     0.163 HD
ATOM     76  O   UNL A   1      31.677  24.374  26.955  1.00  0.00    -0.275 OA
BRANCH  74  77
ATOM     77  C   UNL A   1      32.713  25.685  25.236  1.00  0.00     0.091 C 
ATOM     78  C   UNL A   1      34.205  25.836  25.646  1.00  0.00     0.014 C 
ATOM     79  C   UNL A   1      32.513  24.672  24.080  1.00  0.00     0.091 C 
ATOM     80  C   UNL A   1      35.002  24.535  25.605  1.00  0.00     0.001 C 
ATOM     81  C   UNL A   1      33.537  23.544  23.885  1.00  0.00     0.014 C 
ATOM     82  C   UNL A   1      34.960  23.955  24.205  1.00  0.00     0.001 C 
BRANCH  79  83
ATOM     83  C   UNL A   1      31.099  24.190  23.754  1.00  0.00     0.228 C 
ATOM     84  O   UNL A   1      30.860  22.985  23.923  1.00  0.00    -0.274 OA
ATOM     85  N   UNL A   1      30.022  24.969  23.449  1.00  0.00    -0.323 N 
ATOM     86  H   UNL A   1      29.180  24.463  23.382  1.00  0.00     0.170 HD
BRANCH  85  87
ATOM     87  C   UNL A   1      29.864  26.345  23.211  1.00  0.00     0.077 A 
ATOM     88  C   UNL A   1      28.686  26.947  23.657  1.00  0.00     0.031 A 
ATOM     89  C   UNL A   1      30.731  27.118  22.438  1.00  0.00     0.148 A 
ATOM     90  C   UNL A   1      28.473  28.318  23.462  1.00  0.00     0.023 A 
ATOM     91  C   UNL A   1      30.553  28.487  22.264  1.00  0.00     0.062 A 
ATOM     92  F   UNL A   1      31.630  26.533  21.649  1.00  0.00    -0.205 F 
ATOM     93  C   UNL A   1      29.426  29.088  22.796  1.00  0.00     0.044 A 
ATOM     94  Cl  UNL A   1      29.173  30.775  22.576  1.00  0.00    -0.084 Cl
ENDBRANCH  85  87
ENDBRANCH  79  83
ENDBRANCH  74  77
ENDBRANCH  72  73
ENDBRANCH  71  72
ENDBRANCH   1  71
TORSDOF 15
ENDMDL
