MODEL 1
REMARK VINA RESULT:     -12.2      0.000      0.000
REMARK SMILES C[C@@H]1C[C@@H]1NC(=O)Cn1cccc1C(=O)NCCCNC(=O)c1ccc(-c2c3nc(c(-c4cccc(S(=O)(=O)[O-])c4F)c4ccc([nH]4)c(-c4cccc(S(=O)(=O)[O-])c4F)c4nc(c(-c5cccc(S(=O)(=O)[O-])c5F)c5ccc2[nH]5)C=C4)C=C3)cc1
REMARK SMILES IDX 18 1 17 2 16 3 14 4 15 5 13 7 9 8 10 9 11 10 12 11 8 12 6 13
REMARK SMILES IDX 5 14 7 16 4 17 1 18 2 19 3 20 19 21 20 22 21 23 22 25 23 26
REMARK SMILES IDX 24 27 85 28 25 29 84 30 26 31 27 32 28 33 78 34 29 35 83 36
REMARK SMILES IDX 77 37 79 38 30 39 82 40 76 41 75 42 31 44 63 45 43 46 62 47
REMARK SMILES IDX 44 48 47 49 61 50 80 51 45 52 46 53 60 55 81 56 48 57 32 58
REMARK SMILES IDX 33 59 41 60 34 61 36 62 42 63 35 64 37 65 38 66 39 67 40 68
REMARK SMILES IDX 64 69 65 70 73 71 66 72 68 73 74 74 67 75 69 76 70 77 71 78
REMARK SMILES IDX 72 79 49 80 50 81 58 82 51 83 53 84 59 85 52 86 54 87 55 88
REMARK SMILES IDX 56 89 57 90
REMARK H PARENT 16 6 5 15 20 24 79 43 47 54
REMARK Flexibility Score: inf
ROOT
ATOM      1  C   UNL A   1      33.340  28.859  26.776  1.00  0.00     0.042 C 
ENDROOT
BRANCH   1   2
ATOM      2  C   UNL A   1      33.012  27.777  25.767  1.00  0.00     0.118 C 
BRANCH   2   3
ATOM      3  N   UNL A   1      32.040  26.802  26.110  1.00  0.00    -0.351 N 
ATOM      4  C   UNL A   1      31.413  25.910  25.284  1.00  0.00     0.267 C 
ATOM      5  O   UNL A   1      30.584  25.195  25.857  1.00  0.00    -0.268 OA
ATOM      6  H   UNL A   1      31.784  26.763  27.060  1.00  0.00     0.163 HD
BRANCH   4   7
ATOM      7  C   UNL A   1      31.618  25.778  23.826  1.00  0.00     0.107 A 
ATOM      8  N   UNL A   1      31.230  26.443  22.647  1.00  0.00    -0.334 N 
ATOM      9  C   UNL A   1      32.049  25.981  21.612  1.00  0.00     0.087 A 
ATOM     10  C   UNL A   1      32.748  24.884  22.023  1.00  0.00     0.020 A 
ATOM     11  C   UNL A   1      32.471  24.751  23.386  1.00  0.00     0.033 A 
BRANCH   8  12
ATOM     12  C   UNL A   1      30.462  27.672  22.379  1.00  0.00     0.222 C 
BRANCH  12  13
ATOM     13  C   UNL A   1      30.905  29.047  22.855  1.00  0.00     0.240 C 
ATOM     14  N   UNL A   1      30.121  30.093  23.234  1.00  0.00    -0.352 N 
ATOM     15  H   UNL A   1      30.387  30.491  24.095  1.00  0.00     0.163 HD
ATOM     16  O   UNL A   1      32.128  29.249  22.968  1.00  0.00    -0.273 OA
BRANCH  14  17
ATOM     17  C   UNL A   1      28.993  30.727  22.639  1.00  0.00     0.085 C 
ATOM     18  C   UNL A   1      27.299  28.803  23.205  1.00  0.00     0.010 C 
ATOM     19  C   UNL A   1      27.596  30.158  22.661  1.00  0.00     0.010 C 
ATOM     20  C   UNL A   1      28.335  30.364  21.358  1.00  0.00     0.030 C 
ENDBRANCH  14  17
ENDBRANCH  12  13
ENDBRANCH   8  12
ENDBRANCH   4   7
ENDBRANCH   2   3
ENDBRANCH   1   2
BRANCH   1  21
ATOM     21  C   UNL A   1      34.818  28.999  27.062  1.00  0.00     0.118 C 
BRANCH  21  22
ATOM     22  N   UNL A   1      35.198  30.344  27.488  1.00  0.00    -0.352 N 
ATOM     23  C   UNL A   1      36.396  30.743  28.052  1.00  0.00     0.251 C 
ATOM     24  H   UNL A   1      34.523  31.048  27.359  1.00  0.00     0.163 HD
ATOM     25  O   UNL A   1      36.530  31.861  28.507  1.00  0.00    -0.269 OA
BRANCH  23  26
ATOM     26  C   UNL A   1      37.494  29.754  28.143  1.00  0.00     0.039 A 
ATOM     27  C   UNL A   1      38.454  29.726  27.125  1.00  0.00     0.014 A 
ATOM     28  C   UNL A   1      37.610  28.923  29.261  1.00  0.00     0.014 A 
ATOM     29  C   UNL A   1      39.590  28.941  27.287  1.00  0.00     0.010 A 
ATOM     30  C   UNL A   1      38.770  28.202  29.459  1.00  0.00     0.010 A 
ATOM     31  C   UNL A   1      39.763  28.219  28.476  1.00  0.00    -0.014 A 
BRANCH  31  32
ATOM     32  C   UNL A   1      41.048  27.550  28.753  1.00  0.00     0.031 A 
ATOM     33  C   UNL A   1      41.057  26.089  28.247  1.00  0.00     0.074 A 
ATOM     34  C   UNL A   1      41.987  28.328  29.373  1.00  0.00     0.049 A 
ATOM     35  N   UNL A   1      41.657  25.041  28.728  1.00  0.00    -0.248 NA
ATOM     36  C   UNL A   1      40.176  25.712  27.106  1.00  0.00     0.031 C 
ATOM     37  C   UNL A   1      41.785  29.753  29.740  1.00  0.00     0.029 A 
ATOM     38  N   UNL A   1      43.281  28.127  29.806  1.00  0.00    -0.354 N 
ATOM     39  C   UNL A   1      41.425  23.967  27.825  1.00  0.00     0.074 A 
ATOM     40  C   UNL A   1      40.383  24.400  26.947  1.00  0.00     0.031 C 
ATOM     41  C   UNL A   1      42.863  30.250  30.378  1.00  0.00     0.029 A 
ATOM     42  C   UNL A   1      43.876  29.222  30.483  1.00  0.00     0.049 A 
ATOM     43  H   UNL A   1      43.759  27.280  29.655  1.00  0.00     0.167 HD
ATOM     44  C   UNL A   1      42.235  22.864  27.754  1.00  0.00     0.034 A 
ATOM     45  C   UNL A   1      45.083  29.291  31.128  1.00  0.00     0.034 A 
ATOM     46  C   UNL A   1      43.333  23.053  28.645  1.00  0.00     0.049 A 
ATOM     47  C   UNL A   1      45.767  28.028  30.829  1.00  0.00     0.074 A 
ATOM     48  C   UNL A   1      43.455  23.000  30.007  1.00  0.00     0.029 A 
ATOM     49  N   UNL A   1      44.413  23.713  28.104  1.00  0.00    -0.354 N 
ATOM     50  N   UNL A   1      46.281  27.727  29.674  1.00  0.00    -0.248 NA
ATOM     51  C   UNL A   1      45.759  26.961  31.837  1.00  0.00     0.031 C 
ATOM     52  C   UNL A   1      44.381  24.024  30.283  1.00  0.00     0.029 A 
ATOM     53  C   UNL A   1      44.943  24.499  29.091  1.00  0.00     0.049 A 
ATOM     54  H   UNL A   1      44.742  23.633  27.180  1.00  0.00     0.167 HD
ATOM     55  C   UNL A   1      46.288  26.355  29.718  1.00  0.00     0.074 A 
ATOM     56  C   UNL A   1      46.309  25.988  31.117  1.00  0.00     0.031 C 
ATOM     57  C   UNL A   1      45.722  25.651  28.701  1.00  0.00     0.034 A 
BRANCH  44  58
ATOM     58  C   UNL A   1      42.381  21.687  26.809  1.00  0.00     0.023 A 
ATOM     59  C   UNL A   1      41.437  20.632  27.011  1.00  0.00     0.012 A 
ATOM     60  C   UNL A   1      43.481  21.403  25.985  1.00  0.00     0.148 A 
ATOM     61  C   UNL A   1      41.642  19.334  26.550  1.00  0.00     0.002 A 
ATOM     62  C   UNL A   1      43.656  20.106  25.478  1.00  0.00     0.091 A 
ATOM     63  F   UNL A   1      44.394  22.351  25.757  1.00  0.00    -0.205 F 
ATOM     64  C   UNL A   1      42.766  19.067  25.795  1.00  0.00     0.022 A 
BRANCH  62  65
ATOM     65  S   UNL A   1      45.021  19.652  24.400  1.00  0.00     0.127 S 
ATOM     66  O   UNL A   1      45.291  18.277  24.813  1.00  0.00    -0.237 OA
ATOM     67  O   UNL A   1      44.413  19.774  23.072  1.00  0.00    -0.237 OA
ATOM     68  O   UNL A   1      46.069  20.629  24.661  1.00  0.00    -0.744 OA
ENDBRANCH  62  65
ENDBRANCH  44  58
BRANCH  45  69
ATOM     69  C   UNL A   1      45.747  30.238  32.101  1.00  0.00     0.023 A 
ATOM     70  C   UNL A   1      46.986  30.858  31.886  1.00  0.00     0.012 A 
ATOM     71  C   UNL A   1      45.059  30.627  33.289  1.00  0.00     0.148 A 
ATOM     72  C   UNL A   1      47.450  31.883  32.736  1.00  0.00     0.002 A 
ATOM     73  C   UNL A   1      45.452  31.718  34.053  1.00  0.00     0.091 A 
ATOM     74  F   UNL A   1      44.019  29.907  33.720  1.00  0.00    -0.205 F 
ATOM     75  C   UNL A   1      46.662  32.349  33.787  1.00  0.00     0.022 A 
BRANCH  73  76
ATOM     76  S   UNL A   1      44.356  32.451  35.284  1.00  0.00     0.127 S 
ATOM     77  O   UNL A   1      43.129  32.668  34.521  1.00  0.00    -0.237 OA
ATOM     78  O   UNL A   1      44.282  31.379  36.278  1.00  0.00    -0.237 OA
ATOM     79  O   UNL A   1      45.016  33.662  35.754  1.00  0.00    -0.744 OA
ENDBRANCH  73  76
ENDBRANCH  45  69
BRANCH  57  80
ATOM     80  C   UNL A   1      45.707  26.372  27.350  1.00  0.00     0.023 A 
ATOM     81  C   UNL A   1      44.456  26.822  26.876  1.00  0.00     0.012 A 
ATOM     82  C   UNL A   1      46.814  26.525  26.479  1.00  0.00     0.148 A 
ATOM     83  C   UNL A   1      44.301  27.368  25.599  1.00  0.00     0.002 A 
ATOM     84  C   UNL A   1      46.658  27.060  25.193  1.00  0.00     0.091 A 
ATOM     85  F   UNL A   1      48.016  26.147  26.901  1.00  0.00    -0.205 F 
ATOM     86  C   UNL A   1      45.399  27.484  24.755  1.00  0.00     0.022 A 
BRANCH  84  87
ATOM     87  S   UNL A   1      47.997  27.194  23.985  1.00  0.00     0.127 S 
ATOM     88  O   UNL A   1      48.260  25.794  23.649  1.00  0.00    -0.237 OA
ATOM     89  O   UNL A   1      47.368  27.959  22.911  1.00  0.00    -0.237 OA
ATOM     90  O   UNL A   1      49.107  27.859  24.658  1.00  0.00    -0.744 OA
ENDBRANCH  84  87
ENDBRANCH  57  80
ENDBRANCH  31  32
ENDBRANCH  23  26
ENDBRANCH  21  22
ENDBRANCH   1  21
TORSDOF 16
ENDMDL
MODEL 2
REMARK VINA RESULT:     -12.2      3.736      5.774
REMARK SMILES C[C@@H]1C[C@@H]1NC(=O)Cn1cccc1C(=O)NCCCNC(=O)c1ccc(-c2c3nc(c(-c4cccc(S(=O)(=O)[O-])c4F)c4ccc([nH]4)c(-c4cccc(S(=O)(=O)[O-])c4F)c4nc(c(-c5cccc(S(=O)(=O)[O-])c5F)c5ccc2[nH]5)C=C4)C=C3)cc1
REMARK SMILES IDX 18 1 17 2 16 3 14 4 15 5 13 7 9 8 10 9 11 10 12 11 8 12 6 13
REMARK SMILES IDX 5 14 7 16 4 17 1 18 2 19 3 20 19 21 20 22 21 23 22 25 23 26
REMARK SMILES IDX 24 27 85 28 25 29 84 30 26 31 27 32 28 33 78 34 29 35 83 36
REMARK SMILES IDX 77 37 79 38 30 39 82 40 76 41 75 42 31 44 63 45 43 46 62 47
REMARK SMILES IDX 44 48 47 49 61 50 80 51 45 52 46 53 60 55 81 56 48 57 32 58
REMARK SMILES IDX 33 59 41 60 34 61 36 62 42 63 35 64 37 65 38 66 39 67 40 68
REMARK SMILES IDX 64 69 65 70 73 71 66 72 68 73 74 74 67 75 69 76 70 77 71 78
REMARK SMILES IDX 72 79 49 80 50 81 58 82 51 83 53 84 59 85 52 86 54 87 55 88
REMARK SMILES IDX 56 89 57 90
REMARK H PARENT 16 6 5 15 20 24 79 43 47 54
REMARK Flexibility Score: inf
ROOT
ATOM      1  C   UNL A   1      36.513  32.877  28.403  1.00  0.00     0.042 C 
ENDROOT
BRANCH   1   2
ATOM      2  C   UNL A   1      36.691  34.211  29.101  1.00  0.00     0.118 C 
BRANCH   2   3
ATOM      3  N   UNL A   1      38.002  34.621  29.458  1.00  0.00    -0.351 N 
ATOM      4  C   UNL A   1      38.759  34.197  30.516  1.00  0.00     0.267 C 
ATOM      5  O   UNL A   1      39.859  34.753  30.597  1.00  0.00    -0.268 OA
ATOM      6  H   UNL A   1      38.418  35.294  28.872  1.00  0.00     0.163 HD
BRANCH   4   7
ATOM      7  C   UNL A   1      38.355  33.206  31.535  1.00  0.00     0.107 A 
ATOM      8  N   UNL A   1      37.468  33.122  32.624  1.00  0.00    -0.334 N 
ATOM      9  C   UNL A   1      37.346  31.772  32.968  1.00  0.00     0.087 A 
ATOM     10  C   UNL A   1      38.301  31.038  32.327  1.00  0.00     0.020 A 
ATOM     11  C   UNL A   1      38.933  31.926  31.452  1.00  0.00     0.033 A 
BRANCH   8  12
ATOM     12  C   UNL A   1      36.457  34.037  33.185  1.00  0.00     0.222 C 
BRANCH  12  13
ATOM     13  C   UNL A   1      34.961  33.775  33.092  1.00  0.00     0.240 C 
ATOM     14  N   UNL A   1      34.117  34.103  32.076  1.00  0.00    -0.352 N 
ATOM     15  H   UNL A   1      33.547  33.356  31.783  1.00  0.00     0.163 HD
ATOM     16  O   UNL A   1      34.430  33.142  34.023  1.00  0.00    -0.273 OA
BRANCH  14  17
ATOM     17  C   UNL A   1      33.892  35.308  31.351  1.00  0.00     0.085 C 
ATOM     18  C   UNL A   1      31.577  35.842  32.466  1.00  0.00     0.010 C 
ATOM     19  C   UNL A   1      32.700  36.209  31.559  1.00  0.00     0.010 C 
ATOM     20  C   UNL A   1      32.933  35.516  30.236  1.00  0.00     0.030 C 
ENDBRANCH  14  17
ENDBRANCH  12  13
ENDBRANCH   8  12
ENDBRANCH   4   7
ENDBRANCH   2   3
ENDBRANCH   1   2
BRANCH   1  21
ATOM     21  C   UNL A   1      35.804  31.839  29.242  1.00  0.00     0.118 C 
BRANCH  21  22
ATOM     22  N   UNL A   1      35.173  30.788  28.447  1.00  0.00    -0.352 N 
ATOM     23  C   UNL A   1      35.760  29.641  27.946  1.00  0.00     0.251 C 
ATOM     24  H   UNL A   1      34.218  30.911  28.243  1.00  0.00     0.163 HD
ATOM     25  O   UNL A   1      35.166  28.924  27.167  1.00  0.00    -0.269 OA
BRANCH  23  26
ATOM     26  C   UNL A   1      37.157  29.339  28.337  1.00  0.00     0.039 A 
ATOM     27  C   UNL A   1      37.387  28.731  29.576  1.00  0.00     0.014 A 
ATOM     28  C   UNL A   1      38.210  29.584  27.451  1.00  0.00     0.014 A 
ATOM     29  C   UNL A   1      38.663  28.269  29.877  1.00  0.00     0.010 A 
ATOM     30  C   UNL A   1      39.459  29.060  27.714  1.00  0.00     0.010 A 
ATOM     31  C   UNL A   1      39.682  28.394  28.922  1.00  0.00    -0.014 A 
BRANCH  31  32
ATOM     32  C   UNL A   1      40.981  27.729  29.137  1.00  0.00     0.031 A 
ATOM     33  C   UNL A   1      40.974  26.271  28.622  1.00  0.00     0.074 A 
ATOM     34  C   UNL A   1      41.944  28.509  29.719  1.00  0.00     0.049 A 
ATOM     35  N   UNL A   1      41.600  25.223  29.070  1.00  0.00    -0.248 NA
ATOM     36  C   UNL A   1      40.045  25.896  27.520  1.00  0.00     0.031 C 
ATOM     37  C   UNL A   1      41.752  29.930  30.103  1.00  0.00     0.029 A 
ATOM     38  N   UNL A   1      43.257  28.311  30.092  1.00  0.00    -0.354 N 
ATOM     39  C   UNL A   1      41.333  24.154  28.170  1.00  0.00     0.074 A 
ATOM     40  C   UNL A   1      40.250  24.586  27.344  1.00  0.00     0.031 C 
ATOM     41  C   UNL A   1      42.855  30.429  30.695  1.00  0.00     0.029 A 
ATOM     42  C   UNL A   1      43.877  29.405  30.748  1.00  0.00     0.049 A 
ATOM     43  H   UNL A   1      43.731  27.467  29.914  1.00  0.00     0.167 HD
ATOM     44  C   UNL A   1      42.144  23.055  28.057  1.00  0.00     0.034 A 
ATOM     45  C   UNL A   1      45.111  29.476  31.338  1.00  0.00     0.034 A 
ATOM     46  C   UNL A   1      43.280  23.244  28.898  1.00  0.00     0.049 A 
ATOM     47  C   UNL A   1      45.787  28.218  31.001  1.00  0.00     0.074 A 
ATOM     48  C   UNL A   1      43.463  23.184  30.253  1.00  0.00     0.029 A 
ATOM     49  N   UNL A   1      44.332  23.912  28.313  1.00  0.00    -0.354 N 
ATOM     50  N   UNL A   1      46.250  27.926  29.822  1.00  0.00    -0.248 NA
ATOM     51  C   UNL A   1      45.830  27.145  32.001  1.00  0.00     0.031 C 
ATOM     52  C   UNL A   1      44.396  24.211  30.494  1.00  0.00     0.029 A 
ATOM     53  C   UNL A   1      44.902  24.696  29.280  1.00  0.00     0.049 A 
ATOM     54  H   UNL A   1      44.619  23.840  27.375  1.00  0.00     0.167 HD
ATOM     55  C   UNL A   1      46.265  26.554  29.857  1.00  0.00     0.074 A 
ATOM     56  C   UNL A   1      46.351  26.179  31.251  1.00  0.00     0.031 C 
ATOM     57  C   UNL A   1      45.657  25.853  28.862  1.00  0.00     0.034 A 
BRANCH  44  58
ATOM     58  C   UNL A   1      42.252  21.884  27.099  1.00  0.00     0.023 A 
ATOM     59  C   UNL A   1      41.322  20.825  27.335  1.00  0.00     0.012 A 
ATOM     60  C   UNL A   1      43.317  21.610  26.226  1.00  0.00     0.148 A 
ATOM     61  C   UNL A   1      41.511  19.530  26.858  1.00  0.00     0.002 A 
ATOM     62  C   UNL A   1      43.474  20.317  25.704  1.00  0.00     0.091 A 
ATOM     63  F   UNL A   1      44.216  22.562  25.964  1.00  0.00    -0.205 F 
ATOM     64  C   UNL A   1      42.601  19.272  26.053  1.00  0.00     0.022 A 
BRANCH  62  65
ATOM     65  S   UNL A   1      44.792  19.873  24.565  1.00  0.00     0.127 S 
ATOM     66  O   UNL A   1      44.519  18.460  24.318  1.00  0.00    -0.237 OA
ATOM     67  O   UNL A   1      44.515  20.749  23.423  1.00  0.00    -0.237 OA
ATOM     68  O   UNL A   1      46.033  20.186  25.261  1.00  0.00    -0.744 OA
ENDBRANCH  62  65
ENDBRANCH  44  58
BRANCH  45  69
ATOM     69  C   UNL A   1      45.814  30.420  32.285  1.00  0.00     0.023 A 
ATOM     70  C   UNL A   1      45.626  30.437  33.675  1.00  0.00     0.012 A 
ATOM     71  C   UNL A   1      46.814  31.307  31.787  1.00  0.00     0.148 A 
ATOM     72  C   UNL A   1      46.461  31.199  34.518  1.00  0.00     0.002 A 
ATOM     73  C   UNL A   1      47.716  31.957  32.621  1.00  0.00     0.091 A 
ATOM     74  F   UNL A   1      46.881  31.564  30.478  1.00  0.00    -0.205 F 
ATOM     75  C   UNL A   1      47.537  31.916  33.998  1.00  0.00     0.022 A 
BRANCH  73  76
ATOM     76  S   UNL A   1      49.216  32.722  31.974  1.00  0.00     0.127 S 
ATOM     77  O   UNL A   1      49.920  33.110  33.194  1.00  0.00    -0.237 OA
ATOM     78  O   UNL A   1      49.818  31.606  31.244  1.00  0.00    -0.237 OA
ATOM     79  O   UNL A   1      48.782  33.829  31.130  1.00  0.00    -0.744 OA
ENDBRANCH  73  76
ENDBRANCH  45  69
BRANCH  57  80
ATOM     80  C   UNL A   1      45.578  26.582  27.518  1.00  0.00     0.023 A 
ATOM     81  C   UNL A   1      44.311  27.060  27.120  1.00  0.00     0.012 A 
ATOM     82  C   UNL A   1      46.635  26.719  26.585  1.00  0.00     0.148 A 
ATOM     83  C   UNL A   1      44.093  27.615  25.856  1.00  0.00     0.002 A 
ATOM     84  C   UNL A   1      46.415  27.264  25.313  1.00  0.00     0.091 A 
ATOM     85  F   UNL A   1      47.852  26.315  26.935  1.00  0.00    -0.205 F 
ATOM     86  C   UNL A   1      45.142  27.715  24.951  1.00  0.00     0.022 A 
BRANCH  84  87
ATOM     87  S   UNL A   1      47.684  27.379  24.030  1.00  0.00     0.127 S 
ATOM     88  O   UNL A   1      47.904  25.976  23.676  1.00  0.00    -0.237 OA
ATOM     89  O   UNL A   1      47.007  28.157  22.994  1.00  0.00    -0.237 OA
ATOM     90  O   UNL A   1      48.842  28.023  24.638  1.00  0.00    -0.744 OA
ENDBRANCH  84  87
ENDBRANCH  57  80
ENDBRANCH  31  32
ENDBRANCH  23  26
ENDBRANCH  21  22
ENDBRANCH   1  21
TORSDOF 16
ENDMDL
MODEL 3
REMARK VINA RESULT:     -12.2      4.529      6.722
REMARK SMILES C[C@@H]1C[C@@H]1NC(=O)Cn1cccc1C(=O)NCCCNC(=O)c1ccc(-c2c3nc(c(-c4cccc(S(=O)(=O)[O-])c4F)c4ccc([nH]4)c(-c4cccc(S(=O)(=O)[O-])c4F)c4nc(c(-c5cccc(S(=O)(=O)[O-])c5F)c5ccc2[nH]5)C=C4)C=C3)cc1
REMARK SMILES IDX 18 1 17 2 16 3 14 4 15 5 13 7 9 8 10 9 11 10 12 11 8 12 6 13
REMARK SMILES IDX 5 14 7 16 4 17 1 18 2 19 3 20 19 21 20 22 21 23 22 25 23 26
REMARK SMILES IDX 24 27 85 28 25 29 84 30 26 31 27 32 28 33 78 34 29 35 83 36
REMARK SMILES IDX 77 37 79 38 30 39 82 40 76 41 75 42 31 44 63 45 43 46 62 47
REMARK SMILES IDX 44 48 47 49 61 50 80 51 45 52 46 53 60 55 81 56 48 57 32 58
REMARK SMILES IDX 33 59 41 60 34 61 36 62 42 63 35 64 37 65 38 66 39 67 40 68
REMARK SMILES IDX 64 69 65 70 73 71 66 72 68 73 74 74 67 75 69 76 70 77 71 78
REMARK SMILES IDX 72 79 49 80 50 81 58 82 51 83 53 84 59 85 52 86 54 87 55 88
REMARK SMILES IDX 56 89 57 90
REMARK H PARENT 16 6 5 15 20 24 79 43 47 54
REMARK Flexibility Score: inf
ROOT
ATOM      1  C   UNL A   1      31.596  32.124  26.500  1.00  0.00     0.042 C 
ENDROOT
BRANCH   1   2
ATOM      2  C   UNL A   1      31.888  30.659  26.245  1.00  0.00     0.118 C 
BRANCH   2   3
ATOM      3  N   UNL A   1      31.682  29.732  27.299  1.00  0.00    -0.351 N 
ATOM      4  C   UNL A   1      31.818  28.371  27.263  1.00  0.00     0.267 C 
ATOM      5  O   UNL A   1      31.542  27.813  28.331  1.00  0.00    -0.268 OA
ATOM      6  H   UNL A   1      31.406  30.115  28.163  1.00  0.00     0.163 HD
BRANCH   4   7
ATOM      7  C   UNL A   1      32.210  27.564  26.089  1.00  0.00     0.107 A 
ATOM      8  N   UNL A   1      31.680  27.211  24.833  1.00  0.00    -0.334 N 
ATOM      9  C   UNL A   1      32.722  26.676  24.070  1.00  0.00     0.087 A 
ATOM     10  C   UNL A   1      33.807  26.437  24.861  1.00  0.00     0.020 A 
ATOM     11  C   UNL A   1      33.486  26.974  26.111  1.00  0.00     0.033 A 
BRANCH   8  12
ATOM     12  C   UNL A   1      30.457  27.591  24.103  1.00  0.00     0.222 C 
BRANCH  12  13
ATOM     13  C   UNL A   1      30.456  28.576  22.943  1.00  0.00     0.240 C 
ATOM     14  N   UNL A   1      30.338  29.930  22.999  1.00  0.00    -0.352 N 
ATOM     15  H   UNL A   1      31.023  30.406  22.475  1.00  0.00     0.163 HD
ATOM     16  O   UNL A   1      30.634  28.117  21.801  1.00  0.00    -0.273 OA
BRANCH  14  17
ATOM     17  C   UNL A   1      29.425  30.800  23.662  1.00  0.00     0.085 C 
ATOM     18  C   UNL A   1      27.292  29.922  22.409  1.00  0.00     0.010 C 
ATOM     19  C   UNL A   1      27.933  30.780  23.445  1.00  0.00     0.010 C 
ATOM     20  C   UNL A   1      28.757  31.998  23.093  1.00  0.00     0.030 C 
ENDBRANCH  14  17
ENDBRANCH  12  13
ENDBRANCH   8  12
ENDBRANCH   4   7
ENDBRANCH   2   3
ENDBRANCH   1   2
BRANCH   1  21
ATOM     21  C   UNL A   1      32.586  32.792  27.427  1.00  0.00     0.118 C 
BRANCH  21  22
ATOM     22  N   UNL A   1      32.313  34.211  27.637  1.00  0.00    -0.352 N 
ATOM     23  C   UNL A   1      32.936  35.068  28.526  1.00  0.00     0.251 C 
ATOM     24  H   UNL A   1      31.602  34.604  27.081  1.00  0.00     0.163 HD
ATOM     25  O   UNL A   1      32.509  36.189  28.716  1.00  0.00    -0.269 OA
BRANCH  23  26
ATOM     26  C   UNL A   1      34.101  34.564  29.289  1.00  0.00     0.039 A 
ATOM     27  C   UNL A   1      33.877  33.983  30.542  1.00  0.00     0.014 A 
ATOM     28  C   UNL A   1      35.381  34.596  28.731  1.00  0.00     0.014 A 
ATOM     29  C   UNL A   1      34.926  33.336  31.186  1.00  0.00     0.010 A 
ATOM     30  C   UNL A   1      36.405  33.890  29.330  1.00  0.00     0.010 A 
ATOM     31  C   UNL A   1      36.173  33.252  30.552  1.00  0.00    -0.014 A 
BRANCH  31  32
ATOM     32  C   UNL A   1      37.234  32.398  31.118  1.00  0.00     0.031 A 
ATOM     33  C   UNL A   1      37.567  31.204  30.194  1.00  0.00     0.074 A 
ATOM     34  C   UNL A   1      37.737  32.815  32.321  1.00  0.00     0.049 A 
ATOM     35  N   UNL A   1      37.951  29.998  30.490  1.00  0.00    -0.248 NA
ATOM     36  C   UNL A   1      37.326  31.333  28.729  1.00  0.00     0.031 C 
ATOM     37  C   UNL A   1      37.298  34.043  33.031  1.00  0.00     0.029 A 
ATOM     38  N   UNL A   1      38.704  32.344  33.183  1.00  0.00    -0.354 N 
ATOM     39  C   UNL A   1      38.225  29.327  29.266  1.00  0.00     0.074 A 
ATOM     40  C   UNL A   1      37.668  30.139  28.231  1.00  0.00     0.031 C 
ATOM     41  C   UNL A   1      37.934  34.177  34.212  1.00  0.00     0.029 A 
ATOM     42  C   UNL A   1      38.855  33.073  34.390  1.00  0.00     0.049 A 
ATOM     43  H   UNL A   1      39.253  31.554  32.975  1.00  0.00     0.167 HD
ATOM     44  C   UNL A   1      39.049  28.235  29.183  1.00  0.00     0.034 A 
ATOM     45  C   UNL A   1      39.630  32.793  35.483  1.00  0.00     0.034 A 
ATOM     46  C   UNL A   1      39.609  27.993  30.472  1.00  0.00     0.049 A 
ATOM     47  C   UNL A   1      40.457  31.642  35.100  1.00  0.00     0.074 A 
ATOM     48  C   UNL A   1      39.103  27.467  31.630  1.00  0.00     0.029 A 
ATOM     49  N   UNL A   1      40.771  28.681  30.739  1.00  0.00    -0.354 N 
ATOM     50  N   UNL A   1      41.457  31.700  34.272  1.00  0.00    -0.248 NA
ATOM     51  C   UNL A   1      40.063  30.302  35.552  1.00  0.00     0.031 C 
ATOM     52  C   UNL A   1      39.734  28.233  32.629  1.00  0.00     0.029 A 
ATOM     53  C   UNL A   1      40.743  29.024  32.064  1.00  0.00     0.049 A 
ATOM     54  H   UNL A   1      41.488  28.887  30.097  1.00  0.00     0.167 HD
ATOM     55  C   UNL A   1      41.533  30.402  33.830  1.00  0.00     0.074 A 
ATOM     56  C   UNL A   1      40.941  29.581  34.863  1.00  0.00     0.031 C 
ATOM     57  C   UNL A   1      41.537  30.151  32.493  1.00  0.00     0.034 A 
BRANCH  44  58
ATOM     58  C   UNL A   1      39.684  27.442  28.057  1.00  0.00     0.023 A 
ATOM     59  C   UNL A   1      39.313  26.062  28.009  1.00  0.00     0.012 A 
ATOM     60  C   UNL A   1      40.778  27.832  27.269  1.00  0.00     0.148 A 
ATOM     61  C   UNL A   1      40.065  25.099  27.341  1.00  0.00     0.002 A 
ATOM     62  C   UNL A   1      41.502  26.866  26.554  1.00  0.00     0.091 A 
ATOM     63  F   UNL A   1      41.169  29.110  27.271  1.00  0.00    -0.205 F 
ATOM     64  C   UNL A   1      41.174  25.501  26.624  1.00  0.00     0.022 A 
BRANCH  62  65
ATOM     65  S   UNL A   1      42.904  27.269  25.504  1.00  0.00     0.127 S 
ATOM     66  O   UNL A   1      42.333  28.266  24.602  1.00  0.00    -0.237 OA
ATOM     67  O   UNL A   1      43.863  27.811  26.472  1.00  0.00    -0.237 OA
ATOM     68  O   UNL A   1      43.320  26.009  24.904  1.00  0.00    -0.744 OA
ENDBRANCH  62  65
ENDBRANCH  44  58
BRANCH  45  69
ATOM     69  C   UNL A   1      39.718  33.275  36.912  1.00  0.00     0.023 A 
ATOM     70  C   UNL A   1      40.546  34.319  37.349  1.00  0.00     0.012 A 
ATOM     71  C   UNL A   1      38.848  32.723  37.899  1.00  0.00     0.148 A 
ATOM     72  C   UNL A   1      40.428  34.853  38.649  1.00  0.00     0.002 A 
ATOM     73  C   UNL A   1      38.643  33.327  39.133  1.00  0.00     0.091 A 
ATOM     74  F   UNL A   1      38.227  31.564  37.663  1.00  0.00    -0.205 F 
ATOM     75  C   UNL A   1      39.444  34.394  39.522  1.00  0.00     0.022 A 
BRANCH  73  76
ATOM     76  S   UNL A   1      37.251  32.872  40.186  1.00  0.00     0.127 S 
ATOM     77  O   UNL A   1      37.216  33.970  41.150  1.00  0.00    -0.237 OA
ATOM     78  O   UNL A   1      36.150  32.863  39.222  1.00  0.00    -0.237 OA
ATOM     79  O   UNL A   1      37.570  31.565  40.747  1.00  0.00    -0.744 OA
ENDBRANCH  73  76
ENDBRANCH  45  69
BRANCH  57  80
ATOM     80  C   UNL A   1      42.089  31.286  31.627  1.00  0.00     0.023 A 
ATOM     81  C   UNL A   1      41.149  32.101  30.962  1.00  0.00     0.012 A 
ATOM     82  C   UNL A   1      43.456  31.521  31.339  1.00  0.00     0.148 A 
ATOM     83  C   UNL A   1      41.536  33.077  30.038  1.00  0.00     0.002 A 
ATOM     84  C   UNL A   1      43.846  32.490  30.404  1.00  0.00     0.091 A 
ATOM     85  F   UNL A   1      44.375  30.799  31.972  1.00  0.00    -0.205 F 
ATOM     86  C   UNL A   1      42.883  33.269  29.756  1.00  0.00     0.022 A 
BRANCH  84  87
ATOM     87  S   UNL A   1      45.560  32.780  29.905  1.00  0.00     0.127 S 
ATOM     88  O   UNL A   1      46.193  33.174  31.165  1.00  0.00    -0.237 OA
ATOM     89  O   UNL A   1      45.966  31.464  29.418  1.00  0.00    -0.237 OA
ATOM     90  O   UNL A   1      45.533  33.838  28.902  1.00  0.00    -0.744 OA
ENDBRANCH  84  87
ENDBRANCH  57  80
ENDBRANCH  31  32
ENDBRANCH  23  26
ENDBRANCH  21  22
ENDBRANCH   1  21
TORSDOF 16
ENDMDL
