MODEL 1
REMARK VINA RESULT:     -11.0      0.000      0.000
REMARK SMILES C[C@H](NC(=O)[C@@H](C)Oc1ccc(Cl)cc1Br)C(=O)NCCCNC(=O)c1ccc(-c2c3nc(c(-c4cccc(S(=O)(=O)[O-])c4F)c4ccc([nH]4)c(-c4cccc(S(=O)(=O)[O-])c4F)c4nc(c(-c5cccc(S(=O)(=O)[O-])c5F)c5ccc2[nH]5)C=C4)C=C3)cc1
REMARK SMILES IDX 20 1 19 2 17 3 18 4 2 6 1 7 3 8 4 9 5 11 6 12 7 13 8 14 9 15
REMARK SMILES IDX 10 16 15 17 11 18 14 19 16 20 12 21 13 22 21 23 22 24 23 25
REMARK SMILES IDX 24 26 25 28 26 29 27 30 88 31 28 32 87 33 29 34 30 35 31 36
REMARK SMILES IDX 81 37 32 38 86 39 80 40 82 41 33 42 85 43 79 44 78 45 34 47
REMARK SMILES IDX 66 48 46 49 65 50 47 51 50 52 64 53 83 54 48 55 49 56 63 58
REMARK SMILES IDX 84 59 51 60 35 61 36 62 44 63 37 64 39 65 45 66 38 67 40 68
REMARK SMILES IDX 41 69 42 70 43 71 67 72 68 73 76 74 69 75 71 76 77 77 70 78
REMARK SMILES IDX 72 79 73 80 74 81 75 82 52 83 53 84 61 85 54 86 56 87 62 88
REMARK SMILES IDX 55 89 57 90 58 91 59 92 60 93
REMARK H PARENT 19 5 3 10 23 27 82 46 50 57
REMARK Flexibility Score: inf
ROOT
ATOM      1  C   UNL A   1      42.448  19.646  25.789  1.00  0.00     0.117 C 
ENDROOT
BRANCH   1   2
ATOM      2  N   UNL A   1      43.869  19.546  26.074  1.00  0.00    -0.354 N 
ATOM      3  C   UNL A   1      44.924  19.685  25.221  1.00  0.00     0.242 C 
ATOM      4  O   UNL A   1      46.061  19.479  25.643  1.00  0.00    -0.273 OA
ATOM      5  H   UNL A   1      44.102  19.351  27.011  1.00  0.00     0.163 HD
BRANCH   3   6
ATOM      6  C   UNL A   1      44.670  20.245  23.812  1.00  0.00     0.168 C 
ATOM      7  C   UNL A   1      44.936  19.102  22.845  1.00  0.00     0.041 C 
BRANCH   6   8
ATOM      8  N   UNL A   1      45.415  21.503  23.656  1.00  0.00    -0.341 N 
ATOM      9  C   UNL A   1      45.637  22.647  24.336  1.00  0.00     0.261 C 
ATOM     10  H   UNL A   1      45.897  21.513  22.798  1.00  0.00     0.164 HD
ATOM     11  O   UNL A   1      46.583  23.318  23.894  1.00  0.00    -0.271 OA
BRANCH   9  12
ATOM     12  C   UNL A   1      44.800  23.232  25.514  1.00  0.00     0.258 C 
ATOM     13  C   UNL A   1      43.369  23.551  25.064  1.00  0.00     0.064 C 
BRANCH  12  14
ATOM     14  O   UNL A   1      44.790  22.873  26.885  1.00  0.00    -0.480 OA
BRANCH  14  15
ATOM     15  C   UNL A   1      45.364  23.704  27.792  1.00  0.00     0.134 A 
ATOM     16  C   UNL A   1      46.560  24.369  27.526  1.00  0.00     0.049 A 
ATOM     17  C   UNL A   1      44.688  23.957  28.996  1.00  0.00     0.061 A 
ATOM     18  C   UNL A   1      47.154  25.155  28.518  1.00  0.00     0.024 A 
ATOM     19  C   UNL A   1      45.275  24.748  29.985  1.00  0.00     0.040 A 
ATOM     20  Br  UNL A   1      42.997  23.176  29.365  1.00  0.00    -0.047 Br
ATOM     21  C   UNL A   1      46.524  25.316  29.751  1.00  0.00     0.042 A 
ATOM     22  Cl  UNL A   1      47.306  26.201  31.001  1.00  0.00    -0.084 Cl
ENDBRANCH  14  15
ENDBRANCH  12  14
ENDBRANCH   9  12
ENDBRANCH   6   8
ENDBRANCH   3   6
ENDBRANCH   1   2
BRANCH   1  23
ATOM     23  C   UNL A   1      41.677  20.054  27.033  1.00  0.00     0.042 C 
BRANCH  23  24
ATOM     24  C   UNL A   1      41.136  21.472  26.936  1.00  0.00     0.118 C 
BRANCH  24  25
ATOM     25  N   UNL A   1      39.830  21.514  26.289  1.00  0.00    -0.352 N 
ATOM     26  C   UNL A   1      38.906  22.520  26.288  1.00  0.00     0.251 C 
ATOM     27  H   UNL A   1      39.580  20.707  25.784  1.00  0.00     0.163 HD
ATOM     28  O   UNL A   1      37.755  22.296  25.911  1.00  0.00    -0.269 OA
BRANCH  26  29
ATOM     29  C   UNL A   1      39.306  23.860  26.740  1.00  0.00     0.039 A 
ATOM     30  C   UNL A   1      39.076  24.227  28.064  1.00  0.00     0.014 A 
ATOM     31  C   UNL A   1      39.924  24.744  25.849  1.00  0.00     0.014 A 
ATOM     32  C   UNL A   1      39.501  25.476  28.504  1.00  0.00     0.010 A 
ATOM     33  C   UNL A   1      40.441  25.942  26.317  1.00  0.00     0.010 A 
ATOM     34  C   UNL A   1      40.211  26.332  27.641  1.00  0.00    -0.014 A 
BRANCH  34  35
ATOM     35  C   UNL A   1      40.715  27.637  28.125  1.00  0.00     0.031 A 
ATOM     36  C   UNL A   1      42.182  27.960  28.054  1.00  0.00     0.074 A 
ATOM     37  C   UNL A   1      39.846  28.509  28.669  1.00  0.00     0.049 A 
ATOM     38  N   UNL A   1      42.791  29.072  28.371  1.00  0.00    -0.248 NA
ATOM     39  C   UNL A   1      43.088  26.894  27.593  1.00  0.00     0.031 C 
ATOM     40  C   UNL A   1      38.420  28.256  28.890  1.00  0.00     0.029 A 
ATOM     41  N   UNL A   1      40.034  29.782  29.139  1.00  0.00    -0.354 N 
ATOM     42  C   UNL A   1      44.146  28.831  28.176  1.00  0.00     0.074 A 
ATOM     43  C   UNL A   1      44.276  27.453  27.761  1.00  0.00     0.031 C 
ATOM     44  C   UNL A   1      37.855  29.352  29.420  1.00  0.00     0.029 A 
ATOM     45  C   UNL A   1      38.882  30.373  29.601  1.00  0.00     0.049 A 
ATOM     46  H   UNL A   1      40.910  30.230  29.145  1.00  0.00     0.167 HD
ATOM     47  C   UNL A   1      45.184  29.691  28.298  1.00  0.00     0.034 A 
ATOM     48  C   UNL A   1      38.677  31.604  30.102  1.00  0.00     0.034 A 
ATOM     49  C   UNL A   1      45.038  31.068  28.681  1.00  0.00     0.049 A 
ATOM     50  C   UNL A   1      39.836  32.560  30.162  1.00  0.00     0.074 A 
ATOM     51  C   UNL A   1      46.011  32.050  28.754  1.00  0.00     0.029 A 
ATOM     52  N   UNL A   1      43.844  31.658  29.066  1.00  0.00    -0.354 N 
ATOM     53  N   UNL A   1      41.085  32.367  29.811  1.00  0.00    -0.248 NA
ATOM     54  C   UNL A   1      39.547  33.917  30.641  1.00  0.00     0.031 C 
ATOM     55  C   UNL A   1      45.408  33.226  29.214  1.00  0.00     0.029 A 
ATOM     56  C   UNL A   1      44.053  32.989  29.387  1.00  0.00     0.049 A 
ATOM     57  H   UNL A   1      42.975  31.199  29.106  1.00  0.00     0.167 HD
ATOM     58  C   UNL A   1      41.723  33.587  29.994  1.00  0.00     0.074 A 
ATOM     59  C   UNL A   1      40.713  34.519  30.456  1.00  0.00     0.031 C 
ATOM     60  C   UNL A   1      43.028  33.908  29.809  1.00  0.00     0.034 A 
BRANCH  47  61
ATOM     61  C   UNL A   1      46.562  29.175  27.965  1.00  0.00     0.023 A 
ATOM     62  C   UNL A   1      47.520  29.027  28.990  1.00  0.00     0.012 A 
ATOM     63  C   UNL A   1      46.894  28.791  26.652  1.00  0.00     0.148 A 
ATOM     64  C   UNL A   1      48.796  28.540  28.707  1.00  0.00     0.002 A 
ATOM     65  C   UNL A   1      48.150  28.258  26.387  1.00  0.00     0.091 A 
ATOM     66  F   UNL A   1      45.980  28.960  25.685  1.00  0.00    -0.205 F 
ATOM     67  C   UNL A   1      49.107  28.146  27.409  1.00  0.00     0.022 A 
BRANCH  65  68
ATOM     68  S   UNL A   1      48.621  27.642  24.766  1.00  0.00     0.127 S 
ATOM     69  O   UNL A   1      49.981  28.164  24.637  1.00  0.00    -0.237 OA
ATOM     70  O   UNL A   1      48.540  26.194  24.955  1.00  0.00    -0.237 OA
ATOM     71  O   UNL A   1      47.651  28.190  23.829  1.00  0.00    -0.744 OA
ENDBRANCH  65  68
ENDBRANCH  47  61
BRANCH  48  72
ATOM     72  C   UNL A   1      37.307  32.025  30.509  1.00  0.00     0.023 A 
ATOM     73  C   UNL A   1      36.889  31.843  31.842  1.00  0.00     0.012 A 
ATOM     74  C   UNL A   1      36.429  32.631  29.589  1.00  0.00     0.148 A 
ATOM     75  C   UNL A   1      35.606  32.221  32.242  1.00  0.00     0.002 A 
ATOM     76  C   UNL A   1      35.176  33.057  30.009  1.00  0.00     0.091 A 
ATOM     77  F   UNL A   1      36.846  32.789  28.325  1.00  0.00    -0.205 F 
ATOM     78  C   UNL A   1      34.753  32.836  31.328  1.00  0.00     0.022 A 
BRANCH  76  79
ATOM     79  S   UNL A   1      34.067  33.980  28.938  1.00  0.00     0.127 S 
ATOM     80  O   UNL A   1      34.958  34.998  28.391  1.00  0.00    -0.237 OA
ATOM     81  O   UNL A   1      33.645  32.952  27.985  1.00  0.00    -0.237 OA
ATOM     82  O   UNL A   1      33.002  34.468  29.803  1.00  0.00    -0.744 OA
ENDBRANCH  76  79
ENDBRANCH  48  72
BRANCH  60  83
ATOM     83  C   UNL A   1      43.428  35.337  30.071  1.00  0.00     0.023 A 
ATOM     84  C   UNL A   1      43.927  35.711  31.335  1.00  0.00     0.012 A 
ATOM     85  C   UNL A   1      43.336  36.304  29.052  1.00  0.00     0.148 A 
ATOM     86  C   UNL A   1      44.273  37.036  31.597  1.00  0.00     0.002 A 
ATOM     87  C   UNL A   1      43.738  37.610  29.302  1.00  0.00     0.091 A 
ATOM     88  F   UNL A   1      42.843  35.935  27.860  1.00  0.00    -0.205 F 
ATOM     89  C   UNL A   1      44.188  37.983  30.579  1.00  0.00     0.022 A 
BRANCH  87  90
ATOM     90  S   UNL A   1      43.757  38.866  28.020  1.00  0.00     0.127 S 
ATOM     91  O   UNL A   1      44.601  38.243  27.003  1.00  0.00    -0.237 OA
ATOM     92  O   UNL A   1      42.342  38.967  27.661  1.00  0.00    -0.237 OA
ATOM     93  O   UNL A   1      44.304  40.064  28.644  1.00  0.00    -0.744 OA
ENDBRANCH  87  90
ENDBRANCH  60  83
ENDBRANCH  34  35
ENDBRANCH  26  29
ENDBRANCH  24  25
ENDBRANCH  23  24
ENDBRANCH   1  23
TORSDOF 17
ENDMDL
MODEL 2
REMARK VINA RESULT:     -10.2      6.416     12.011
REMARK SMILES C[C@H](NC(=O)[C@@H](C)Oc1ccc(Cl)cc1Br)C(=O)NCCCNC(=O)c1ccc(-c2c3nc(c(-c4cccc(S(=O)(=O)[O-])c4F)c4ccc([nH]4)c(-c4cccc(S(=O)(=O)[O-])c4F)c4nc(c(-c5cccc(S(=O)(=O)[O-])c5F)c5ccc2[nH]5)C=C4)C=C3)cc1
REMARK SMILES IDX 20 1 19 2 17 3 18 4 2 6 1 7 3 8 4 9 5 11 6 12 7 13 8 14 9 15
REMARK SMILES IDX 10 16 15 17 11 18 14 19 16 20 12 21 13 22 21 23 22 24 23 25
REMARK SMILES IDX 24 26 25 28 26 29 27 30 88 31 28 32 87 33 29 34 30 35 31 36
REMARK SMILES IDX 81 37 32 38 86 39 80 40 82 41 33 42 85 43 79 44 78 45 34 47
REMARK SMILES IDX 66 48 46 49 65 50 47 51 50 52 64 53 83 54 48 55 49 56 63 58
REMARK SMILES IDX 84 59 51 60 35 61 36 62 44 63 37 64 39 65 45 66 38 67 40 68
REMARK SMILES IDX 41 69 42 70 43 71 67 72 68 73 76 74 69 75 71 76 77 77 70 78
REMARK SMILES IDX 72 79 73 80 74 81 75 82 52 83 53 84 61 85 54 86 56 87 62 88
REMARK SMILES IDX 55 89 57 90 58 91 59 92 60 93
REMARK H PARENT 19 5 3 10 23 27 82 46 50 57
REMARK Flexibility Score: inf
ROOT
ATOM      1  C   UNL A   1      32.817  26.974  26.454  1.00  0.00     0.117 C 
ENDROOT
BRANCH   1   2
ATOM      2  N   UNL A   1      33.418  26.434  25.246  1.00  0.00    -0.354 N 
ATOM      3  C   UNL A   1      34.086  25.258  25.076  1.00  0.00     0.242 C 
ATOM      4  O   UNL A   1      34.597  25.016  23.983  1.00  0.00    -0.273 OA
ATOM      5  H   UNL A   1      33.330  26.994  24.441  1.00  0.00     0.163 HD
BRANCH   3   6
ATOM      6  C   UNL A   1      34.042  24.210  26.200  1.00  0.00     0.168 C 
ATOM      7  C   UNL A   1      35.288  23.355  26.035  1.00  0.00     0.041 C 
BRANCH   6   8
ATOM      8  N   UNL A   1      32.722  23.561  26.197  1.00  0.00    -0.341 N 
ATOM      9  C   UNL A   1      31.872  22.984  25.323  1.00  0.00     0.261 C 
ATOM     10  H   UNL A   1      32.346  23.541  27.106  1.00  0.00     0.164 HD
ATOM     11  O   UNL A   1      30.970  22.324  25.861  1.00  0.00    -0.271 OA
BRANCH   9  12
ATOM     12  C   UNL A   1      31.857  23.133  23.771  1.00  0.00     0.258 C 
ATOM     13  C   UNL A   1      32.285  21.829  23.090  1.00  0.00     0.064 C 
BRANCH  12  14
ATOM     14  O   UNL A   1      30.939  23.819  22.935  1.00  0.00    -0.480 OA
BRANCH  14  15
ATOM     15  C   UNL A   1      30.735  25.147  23.124  1.00  0.00     0.134 A 
ATOM     16  C   UNL A   1      29.925  25.627  24.151  1.00  0.00     0.049 A 
ATOM     17  C   UNL A   1      31.425  26.057  22.308  1.00  0.00     0.061 A 
ATOM     18  C   UNL A   1      29.680  26.999  24.261  1.00  0.00     0.024 A 
ATOM     19  C   UNL A   1      31.189  27.429  22.420  1.00  0.00     0.040 A 
ATOM     20  Br  UNL A   1      32.636  25.467  20.970  1.00  0.00    -0.047 Br
ATOM     21  C   UNL A   1      30.290  27.889  23.378  1.00  0.00     0.042 A 
ATOM     22  Cl  UNL A   1      29.909  29.564  23.454  1.00  0.00    -0.084 Cl
ENDBRANCH  14  15
ENDBRANCH  12  14
ENDBRANCH   9  12
ENDBRANCH   6   8
ENDBRANCH   3   6
ENDBRANCH   1   2
BRANCH   1  23
ATOM     23  C   UNL A   1      32.471  28.442  26.274  1.00  0.00     0.042 C 
BRANCH  23  24
ATOM     24  C   UNL A   1      33.711  29.317  26.175  1.00  0.00     0.118 C 
BRANCH  24  25
ATOM     25  N   UNL A   1      33.407  30.722  26.420  1.00  0.00    -0.352 N 
ATOM     26  C   UNL A   1      33.924  31.558  27.370  1.00  0.00     0.251 C 
ATOM     27  H   UNL A   1      32.737  31.123  25.821  1.00  0.00     0.163 HD
ATOM     28  O   UNL A   1      33.375  32.635  27.604  1.00  0.00    -0.269 OA
BRANCH  26  29
ATOM     29  C   UNL A   1      35.135  31.152  28.097  1.00  0.00     0.039 A 
ATOM     30  C   UNL A   1      35.140  29.941  28.785  1.00  0.00     0.014 A 
ATOM     31  C   UNL A   1      36.270  31.971  28.081  1.00  0.00     0.014 A 
ATOM     32  C   UNL A   1      36.303  29.534  29.431  1.00  0.00     0.010 A 
ATOM     33  C   UNL A   1      37.455  31.513  28.633  1.00  0.00     0.010 A 
ATOM     34  C   UNL A   1      37.477  30.304  29.337  1.00  0.00    -0.014 A 
BRANCH  34  35
ATOM     35  C   UNL A   1      38.731  29.843  29.974  1.00  0.00     0.031 A 
ATOM     36  C   UNL A   1      39.145  30.378  31.317  1.00  0.00     0.074 A 
ATOM     37  C   UNL A   1      39.513  28.970  29.312  1.00  0.00     0.049 A 
ATOM     38  N   UNL A   1      40.173  30.043  32.050  1.00  0.00    -0.248 NA
ATOM     39  C   UNL A   1      38.317  31.446  31.904  1.00  0.00     0.031 C 
ATOM     40  C   UNL A   1      39.266  28.469  27.958  1.00  0.00     0.029 A 
ATOM     41  N   UNL A   1      40.678  28.353  29.687  1.00  0.00    -0.354 N 
ATOM     42  C   UNL A   1      40.132  30.872  33.164  1.00  0.00     0.074 A 
ATOM     43  C   UNL A   1      39.007  31.762  32.989  1.00  0.00     0.031 C 
ATOM     44  C   UNL A   1      40.230  27.595  27.629  1.00  0.00     0.029 A 
ATOM     45  C   UNL A   1      41.175  27.495  28.735  1.00  0.00     0.049 A 
ATOM     46  H   UNL A   1      41.117  28.509  30.553  1.00  0.00     0.167 HD
ATOM     47  C   UNL A   1      40.938  30.869  34.252  1.00  0.00     0.034 A 
ATOM     48  C   UNL A   1      42.265  26.707  28.759  1.00  0.00     0.034 A 
ATOM     49  C   UNL A   1      42.034  29.957  34.429  1.00  0.00     0.049 A 
ATOM     50  C   UNL A   1      43.103  26.674  30.006  1.00  0.00     0.074 A 
ATOM     51  C   UNL A   1      42.863  29.810  35.527  1.00  0.00     0.029 A 
ATOM     52  N   UNL A   1      42.463  29.044  33.479  1.00  0.00    -0.354 N 
ATOM     53  N   UNL A   1      42.950  27.345  31.123  1.00  0.00    -0.248 NA
ATOM     54  C   UNL A   1      44.236  25.740  30.016  1.00  0.00     0.031 C 
ATOM     55  C   UNL A   1      43.814  28.827  35.227  1.00  0.00     0.029 A 
ATOM     56  C   UNL A   1      43.550  28.333  33.958  1.00  0.00     0.049 A 
ATOM     57  H   UNL A   1      42.055  28.919  32.591  1.00  0.00     0.167 HD
ATOM     58  C   UNL A   1      43.943  26.890  31.980  1.00  0.00     0.074 A 
ATOM     59  C   UNL A   1      44.672  25.862  31.261  1.00  0.00     0.031 C 
ATOM     60  C   UNL A   1      44.238  27.290  33.242  1.00  0.00     0.034 A 
BRANCH  47  61
ATOM     61  C   UNL A   1      40.629  31.851  35.354  1.00  0.00     0.023 A 
ATOM     62  C   UNL A   1      41.439  32.993  35.522  1.00  0.00     0.012 A 
ATOM     63  C   UNL A   1      39.509  31.672  36.191  1.00  0.00     0.148 A 
ATOM     64  C   UNL A   1      41.165  33.921  36.526  1.00  0.00     0.002 A 
ATOM     65  C   UNL A   1      39.213  32.627  37.156  1.00  0.00     0.091 A 
ATOM     66  F   UNL A   1      38.763  30.569  36.034  1.00  0.00    -0.205 F 
ATOM     67  C   UNL A   1      40.046  33.743  37.335  1.00  0.00     0.022 A 
BRANCH  65  68
ATOM     68  S   UNL A   1      37.748  32.536  38.193  1.00  0.00     0.127 S 
ATOM     69  O   UNL A   1      38.014  33.591  39.170  1.00  0.00    -0.237 OA
ATOM     70  O   UNL A   1      36.680  32.843  37.241  1.00  0.00    -0.237 OA
ATOM     71  O   UNL A   1      37.717  31.183  38.728  1.00  0.00    -0.744 OA
ENDBRANCH  65  68
ENDBRANCH  47  61
BRANCH  48  72
ATOM     72  C   UNL A   1      42.577  25.829  27.596  1.00  0.00     0.023 A 
ATOM     73  C   UNL A   1      43.396  26.312  26.557  1.00  0.00     0.012 A 
ATOM     74  C   UNL A   1      42.089  24.510  27.530  1.00  0.00     0.148 A 
ATOM     75  C   UNL A   1      43.692  25.511  25.454  1.00  0.00     0.002 A 
ATOM     76  C   UNL A   1      42.435  23.698  26.457  1.00  0.00     0.091 A 
ATOM     77  F   UNL A   1      41.307  24.072  28.527  1.00  0.00    -0.205 F 
ATOM     78  C   UNL A   1      43.219  24.201  25.408  1.00  0.00     0.022 A 
BRANCH  76  79
ATOM     79  S   UNL A   1      41.987  21.960  26.384  1.00  0.00     0.127 S 
ATOM     80  O   UNL A   1      42.376  21.495  27.711  1.00  0.00    -0.237 OA
ATOM     81  O   UNL A   1      40.544  22.032  26.152  1.00  0.00    -0.237 OA
ATOM     82  O   UNL A   1      42.746  21.405  25.271  1.00  0.00    -0.744 OA
ENDBRANCH  76  79
ENDBRANCH  48  72
BRANCH  60  83
ATOM     83  C   UNL A   1      45.374  26.588  33.939  1.00  0.00     0.023 A 
ATOM     84  C   UNL A   1      46.692  27.070  33.805  1.00  0.00     0.012 A 
ATOM     85  C   UNL A   1      45.129  25.464  34.751  1.00  0.00     0.148 A 
ATOM     86  C   UNL A   1      47.754  26.410  34.422  1.00  0.00     0.002 A 
ATOM     87  C   UNL A   1      46.185  24.847  35.411  1.00  0.00     0.091 A 
ATOM     88  F   UNL A   1      43.872  25.008  34.854  1.00  0.00    -0.205 F 
ATOM     89  C   UNL A   1      47.500  25.306  35.232  1.00  0.00     0.022 A 
BRANCH  87  90
ATOM     90  S   UNL A   1      45.933  23.485  36.552  1.00  0.00     0.127 S 
ATOM     91  O   UNL A   1      45.028  24.079  37.533  1.00  0.00    -0.237 OA
ATOM     92  O   UNL A   1      45.322  22.469  35.694  1.00  0.00    -0.237 OA
ATOM     93  O   UNL A   1      47.257  23.133  37.049  1.00  0.00    -0.744 OA
ENDBRANCH  87  90
ENDBRANCH  60  83
ENDBRANCH  34  35
ENDBRANCH  26  29
ENDBRANCH  24  25
ENDBRANCH  23  24
ENDBRANCH   1  23
TORSDOF 17
ENDMDL
MODEL 3
REMARK VINA RESULT:     -10.2      6.032     11.828
REMARK SMILES C[C@H](NC(=O)[C@@H](C)Oc1ccc(Cl)cc1Br)C(=O)NCCCNC(=O)c1ccc(-c2c3nc(c(-c4cccc(S(=O)(=O)[O-])c4F)c4ccc([nH]4)c(-c4cccc(S(=O)(=O)[O-])c4F)c4nc(c(-c5cccc(S(=O)(=O)[O-])c5F)c5ccc2[nH]5)C=C4)C=C3)cc1
REMARK SMILES IDX 20 1 19 2 17 3 18 4 2 6 1 7 3 8 4 9 5 11 6 12 7 13 8 14 9 15
REMARK SMILES IDX 10 16 15 17 11 18 14 19 16 20 12 21 13 22 21 23 22 24 23 25
REMARK SMILES IDX 24 26 25 28 26 29 27 30 88 31 28 32 87 33 29 34 30 35 31 36
REMARK SMILES IDX 81 37 32 38 86 39 80 40 82 41 33 42 85 43 79 44 78 45 34 47
REMARK SMILES IDX 66 48 46 49 65 50 47 51 50 52 64 53 83 54 48 55 49 56 63 58
REMARK SMILES IDX 84 59 51 60 35 61 36 62 44 63 37 64 39 65 45 66 38 67 40 68
REMARK SMILES IDX 41 69 42 70 43 71 67 72 68 73 76 74 69 75 71 76 77 77 70 78
REMARK SMILES IDX 72 79 73 80 74 81 75 82 52 83 53 84 61 85 54 86 56 87 62 88
REMARK SMILES IDX 55 89 57 90 58 91 59 92 60 93
REMARK H PARENT 19 5 3 10 23 27 82 46 50 57
REMARK Flexibility Score: inf
ROOT
ATOM      1  C   UNL A   1      31.449  27.890  25.918  1.00  0.00     0.117 C 
ENDROOT
BRANCH   1   2
ATOM      2  N   UNL A   1      31.154  28.521  24.643  1.00  0.00    -0.354 N 
ATOM      3  C   UNL A   1      31.631  28.210  23.404  1.00  0.00     0.242 C 
ATOM      4  O   UNL A   1      31.321  28.923  22.450  1.00  0.00    -0.273 OA
ATOM      5  H   UNL A   1      30.522  29.276  24.679  1.00  0.00     0.163 HD
BRANCH   3   6
ATOM      6  C   UNL A   1      32.406  26.895  23.216  1.00  0.00     0.168 C 
ATOM      7  C   UNL A   1      33.469  27.174  22.165  1.00  0.00     0.041 C 
BRANCH   6   8
ATOM      8  N   UNL A   1      31.447  25.803  22.993  1.00  0.00    -0.341 N 
ATOM      9  C   UNL A   1      31.224  24.540  23.413  1.00  0.00     0.261 C 
ATOM     10  H   UNL A   1      30.762  26.075  22.341  1.00  0.00     0.164 HD
ATOM     11  O   UNL A   1      30.097  24.108  23.126  1.00  0.00    -0.271 OA
BRANCH   9  12
ATOM     12  C   UNL A   1      32.232  23.578  24.113  1.00  0.00     0.258 C 
ATOM     13  C   UNL A   1      31.986  23.530  25.625  1.00  0.00     0.064 C 
BRANCH  12  14
ATOM     14  O   UNL A   1      32.740  22.327  23.680  1.00  0.00    -0.480 OA
BRANCH  14  15
ATOM     15  C   UNL A   1      33.997  21.962  24.039  1.00  0.00     0.134 A 
ATOM     16  C   UNL A   1      35.088  22.809  23.858  1.00  0.00     0.049 A 
ATOM     17  C   UNL A   1      34.182  20.728  24.681  1.00  0.00     0.061 A 
ATOM     18  C   UNL A   1      36.376  22.362  24.170  1.00  0.00     0.024 A 
ATOM     19  C   UNL A   1      35.465  20.282  25.002  1.00  0.00     0.040 A 
ATOM     20  Br  UNL A   1      32.717  19.582  25.066  1.00  0.00    -0.047 Br
ATOM     21  C   UNL A   1      36.560  21.091  24.712  1.00  0.00     0.042 A 
ATOM     22  Cl  UNL A   1      38.152  20.508  25.002  1.00  0.00    -0.084 Cl
ENDBRANCH  14  15
ENDBRANCH  12  14
ENDBRANCH   9  12
ENDBRANCH   6   8
ENDBRANCH   3   6
ENDBRANCH   1   2
BRANCH   1  23
ATOM     23  C   UNL A   1      31.810  28.932  26.963  1.00  0.00     0.042 C 
BRANCH  23  24
ATOM     24  C   UNL A   1      33.121  29.635  26.647  1.00  0.00     0.118 C 
BRANCH  24  25
ATOM     25  N   UNL A   1      33.023  31.078  26.831  1.00  0.00    -0.352 N 
ATOM     26  C   UNL A   1      33.783  31.895  27.620  1.00  0.00     0.251 C 
ATOM     27  H   UNL A   1      32.312  31.525  26.318  1.00  0.00     0.163 HD
ATOM     28  O   UNL A   1      33.408  33.043  27.857  1.00  0.00    -0.269 OA
BRANCH  26  29
ATOM     29  C   UNL A   1      35.046  31.383  28.173  1.00  0.00     0.039 A 
ATOM     30  C   UNL A   1      36.180  32.191  28.137  1.00  0.00     0.014 A 
ATOM     31  C   UNL A   1      35.095  30.105  28.740  1.00  0.00     0.014 A 
ATOM     32  C   UNL A   1      37.361  31.726  28.706  1.00  0.00     0.010 A 
ATOM     33  C   UNL A   1      36.241  29.689  29.399  1.00  0.00     0.010 A 
ATOM     34  C   UNL A   1      37.393  30.483  29.365  1.00  0.00    -0.014 A 
BRANCH  34  35
ATOM     35  C   UNL A   1      38.633  30.013  30.022  1.00  0.00     0.031 A 
ATOM     36  C   UNL A   1      38.999  30.502  31.397  1.00  0.00     0.074 A 
ATOM     37  C   UNL A   1      39.448  29.176  29.352  1.00  0.00     0.049 A 
ATOM     38  N   UNL A   1      40.009  30.151  32.148  1.00  0.00    -0.248 NA
ATOM     39  C   UNL A   1      38.139  31.536  31.998  1.00  0.00     0.031 C 
ATOM     40  C   UNL A   1      39.248  28.726  27.973  1.00  0.00     0.029 A 
ATOM     41  N   UNL A   1      40.609  28.560  29.738  1.00  0.00    -0.354 N 
ATOM     42  C   UNL A   1      39.923  30.936  33.291  1.00  0.00     0.074 A 
ATOM     43  C   UNL A   1      38.791  31.817  33.116  1.00  0.00     0.031 C 
ATOM     44  C   UNL A   1      40.234  27.877  27.640  1.00  0.00     0.029 A 
ATOM     45  C   UNL A   1      41.146  27.746  28.770  1.00  0.00     0.049 A 
ATOM     46  H   UNL A   1      41.019  28.689  30.623  1.00  0.00     0.167 HD
ATOM     47  C   UNL A   1      40.695  30.901  34.403  1.00  0.00     0.034 A 
ATOM     48  C   UNL A   1      42.246  26.972  28.797  1.00  0.00     0.034 A 
ATOM     49  C   UNL A   1      41.798  29.997  34.578  1.00  0.00     0.049 A 
ATOM     50  C   UNL A   1      43.046  26.901  30.068  1.00  0.00     0.074 A 
ATOM     51  C   UNL A   1      42.595  29.818  35.695  1.00  0.00     0.029 A 
ATOM     52  N   UNL A   1      42.268  29.127  33.607  1.00  0.00    -0.354 N 
ATOM     53  N   UNL A   1      42.849  27.526  31.204  1.00  0.00    -0.248 NA
ATOM     54  C   UNL A   1      44.191  25.982  30.077  1.00  0.00     0.031 C 
ATOM     55  C   UNL A   1      43.568  28.859  35.387  1.00  0.00     0.029 A 
ATOM     56  C   UNL A   1      43.350  28.412  34.092  1.00  0.00     0.049 A 
ATOM     57  H   UNL A   1      41.889  29.031  32.704  1.00  0.00     0.167 HD
ATOM     58  C   UNL A   1      43.823  27.051  32.073  1.00  0.00     0.074 A 
ATOM     59  C   UNL A   1      44.588  26.062  31.338  1.00  0.00     0.031 C 
ATOM     60  C   UNL A   1      44.074  27.406  33.358  1.00  0.00     0.034 A 
BRANCH  47  61
ATOM     61  C   UNL A   1      40.339  31.835  35.531  1.00  0.00     0.023 A 
ATOM     62  C   UNL A   1      41.100  33.005  35.739  1.00  0.00     0.012 A 
ATOM     63  C   UNL A   1      39.224  31.585  36.355  1.00  0.00     0.148 A 
ATOM     64  C   UNL A   1      40.782  33.890  36.769  1.00  0.00     0.002 A 
ATOM     65  C   UNL A   1      38.882  32.497  37.346  1.00  0.00     0.091 A 
ATOM     66  F   UNL A   1      38.525  30.457  36.160  1.00  0.00    -0.205 F 
ATOM     67  C   UNL A   1      39.667  33.641  37.564  1.00  0.00     0.022 A 
BRANCH  65  68
ATOM     68  S   UNL A   1      37.417  32.314  38.370  1.00  0.00     0.127 S 
ATOM     69  O   UNL A   1      36.423  33.058  37.596  1.00  0.00    -0.237 OA
ATOM     70  O   UNL A   1      37.225  30.865  38.373  1.00  0.00    -0.237 OA
ATOM     71  O   UNL A   1      37.756  32.888  39.664  1.00  0.00    -0.744 OA
ENDBRANCH  65  68
ENDBRANCH  47  61
BRANCH  48  72
ATOM     72  C   UNL A   1      42.605  26.144  27.612  1.00  0.00     0.023 A 
ATOM     73  C   UNL A   1      43.425  26.687  26.604  1.00  0.00     0.012 A 
ATOM     74  C   UNL A   1      42.161  24.813  27.494  1.00  0.00     0.148 A 
ATOM     75  C   UNL A   1      43.765  25.933  25.480  1.00  0.00     0.002 A 
ATOM     76  C   UNL A   1      42.551  24.049  26.401  1.00  0.00     0.091 A 
ATOM     77  F   UNL A   1      41.377  24.318  28.462  1.00  0.00    -0.205 F 
ATOM     78  C   UNL A   1      43.335  24.611  25.384  1.00  0.00     0.022 A 
BRANCH  76  79
ATOM     79  S   UNL A   1      42.160  22.301  26.262  1.00  0.00     0.127 S 
ATOM     80  O   UNL A   1      42.943  21.912  25.094  1.00  0.00    -0.237 OA
ATOM     81  O   UNL A   1      42.654  21.781  27.538  1.00  0.00    -0.237 OA
ATOM     82  O   UNL A   1      40.713  22.233  26.107  1.00  0.00    -0.744 OA
ENDBRANCH  76  79
ENDBRANCH  48  72
BRANCH  60  83
ATOM     83  C   UNL A   1      45.198  26.692  34.063  1.00  0.00     0.023 A 
ATOM     84  C   UNL A   1      46.510  27.202  33.999  1.00  0.00     0.012 A 
ATOM     85  C   UNL A   1      44.946  25.527  34.813  1.00  0.00     0.148 A 
ATOM     86  C   UNL A   1      47.562  26.533  34.623  1.00  0.00     0.002 A 
ATOM     87  C   UNL A   1      45.989  24.898  35.480  1.00  0.00     0.091 A 
ATOM     88  F   UNL A   1      43.694  25.044  34.848  1.00  0.00    -0.205 F 
ATOM     89  C   UNL A   1      47.300  25.388  35.371  1.00  0.00     0.022 A 
BRANCH  87  90
ATOM     90  S   UNL A   1      45.724  23.479  36.547  1.00  0.00     0.127 S 
ATOM     91  O   UNL A   1      44.911  24.056  37.616  1.00  0.00    -0.237 OA
ATOM     92  O   UNL A   1      45.007  22.556  35.666  1.00  0.00    -0.237 OA
ATOM     93  O   UNL A   1      47.050  23.024  36.942  1.00  0.00    -0.744 OA
ENDBRANCH  87  90
ENDBRANCH  60  83
ENDBRANCH  34  35
ENDBRANCH  26  29
ENDBRANCH  24  25
ENDBRANCH  23  24
ENDBRANCH   1  23
TORSDOF 17
ENDMDL
