MODEL 1
REMARK VINA RESULT:     -11.7      0.000      0.000
REMARK SMILES Nc1ccc(C(=O)NC[C@@H]2CC[C@@H](C(=O)NCCCNC(=O)c3ccc(-c4c5nc(c(-c6cccc(S(=O)(=O)[O-])c6F)c6ccc([nH]6)c(-c6cccc(S(=O)(=O)[O-])c6F)c6nc(c(-c7cccc(S(=O)(=O)[O-])c7F)c7ccc4[nH]7)C=C6)C=C5)cc3)O2)cc1Cl
REMARK SMILES IDX 17 1 16 2 14 3 15 4 13 6 10 7 11 8 86 9 12 10 9 11 8 12 6 13
REMARK SMILES IDX 7 14 5 16 2 17 3 18 88 19 4 20 87 21 89 22 1 23 18 26 19 27
REMARK SMILES IDX 20 28 21 29 22 31 23 32 24 33 85 34 25 35 84 36 26 37 27 38
REMARK SMILES IDX 28 39 78 40 29 41 83 42 77 43 79 44 30 45 82 46 76 47 75 48
REMARK SMILES IDX 31 50 63 51 43 52 62 53 44 54 47 55 61 56 80 57 45 58 46 59
REMARK SMILES IDX 60 61 81 62 48 63 32 64 33 65 41 66 34 67 36 68 42 69 35 70
REMARK SMILES IDX 37 71 38 72 39 73 40 74 64 75 65 76 73 77 66 78 68 79 74 80
REMARK SMILES IDX 67 81 69 82 70 83 71 84 72 85 49 86 50 87 58 88 51 89 53 90
REMARK SMILES IDX 59 91 52 92 54 93 55 94 56 95 57 96
REMARK H PARENT 16 5 8 15 1 24 1 25 20 30 79 49 47 60
REMARK Flexibility Score: inf
ROOT
ATOM      1  C   UNL A   1      31.489  29.775  25.206  1.00  0.00     0.117 C 
ENDROOT
BRANCH   1   2
ATOM      2  N   UNL A   1      30.890  29.646  23.890  1.00  0.00    -0.354 N 
ATOM      3  C   UNL A   1      30.838  28.562  23.061  1.00  0.00     0.249 C 
ATOM      4  O   UNL A   1      30.233  28.688  21.993  1.00  0.00    -0.272 OA
ATOM      5  H   UNL A   1      30.457  30.460  23.544  1.00  0.00     0.163 HD
BRANCH   3   6
ATOM      6  C   UNL A   1      31.576  27.264  23.443  1.00  0.00     0.207 C 
ATOM      7  C   UNL A   1      31.028  25.050  22.919  1.00  0.00     0.138 C 
ATOM      8  C   UNL A   1      32.465  25.283  22.487  1.00  0.00     0.037 C 
ATOM      9  O   UNL A   1      30.702  26.167  23.755  1.00  0.00    -0.363 OA
ATOM     10  C   UNL A   1      32.485  26.781  22.314  1.00  0.00     0.045 C 
BRANCH   7  11
ATOM     11  C   UNL A   1      30.711  23.725  23.637  1.00  0.00     0.148 C 
BRANCH  11  12
ATOM     12  N   UNL A   1      30.693  23.810  25.086  1.00  0.00    -0.349 N 
ATOM     13  C   UNL A   1      31.575  23.575  26.102  1.00  0.00     0.251 C 
ATOM     14  O   UNL A   1      31.106  23.726  27.234  1.00  0.00    -0.269 OA
ATOM     15  H   UNL A   1      29.820  24.116  25.423  1.00  0.00     0.163 HD
BRANCH  13  16
ATOM     16  C   UNL A   1      33.011  23.183  25.967  1.00  0.00     0.041 A 
ATOM     17  C   UNL A   1      35.658  22.158  25.655  1.00  0.00     0.050 A 
ATOM     18  C   UNL A   1      35.426  23.453  26.133  1.00  0.00     0.028 A 
ATOM     19  C   UNL A   1      34.540  21.371  25.356  1.00  0.00     0.064 A 
ATOM     20  C   UNL A   1      34.123  23.968  26.270  1.00  0.00     0.016 A 
ATOM     21  C   UNL A   1      33.244  21.878  25.495  1.00  0.00     0.036 A 
ATOM     22  Cl  UNL A   1      34.717  19.743  24.796  1.00  0.00    -0.082 Cl
BRANCH  17  23
ATOM     23  N   UNL A   1      36.950  21.650  25.643  1.00  0.00    -0.398 N 
ATOM     24  H   UNL A   1      37.443  21.578  24.795  1.00  0.00     0.156 HD
ATOM     25  H   UNL A   1      37.371  21.360  26.484  1.00  0.00     0.156 HD
ENDBRANCH  17  23
ENDBRANCH  13  16
ENDBRANCH  11  12
ENDBRANCH   7  11
ENDBRANCH   3   6
ENDBRANCH   1   2
BRANCH   1  26
ATOM     26  C   UNL A   1      32.994  29.548  25.195  1.00  0.00     0.042 C 
BRANCH  26  27
ATOM     27  C   UNL A   1      33.640  29.489  26.574  1.00  0.00     0.118 C 
BRANCH  27  28
ATOM     28  N   UNL A   1      33.711  30.788  27.231  1.00  0.00    -0.352 N 
ATOM     29  C   UNL A   1      34.627  31.284  28.132  1.00  0.00     0.251 C 
ATOM     30  H   UNL A   1      32.988  31.411  26.993  1.00  0.00     0.163 HD
ATOM     31  O   UNL A   1      34.415  32.359  28.679  1.00  0.00    -0.269 OA
BRANCH  29  32
ATOM     32  C   UNL A   1      35.845  30.510  28.467  1.00  0.00     0.039 A 
ATOM     33  C   UNL A   1      36.964  30.626  27.636  1.00  0.00     0.014 A 
ATOM     34  C   UNL A   1      35.893  29.682  29.590  1.00  0.00     0.014 A 
ATOM     35  C   UNL A   1      38.159  29.993  27.989  1.00  0.00     0.010 A 
ATOM     36  C   UNL A   1      37.104  29.117  29.983  1.00  0.00     0.010 A 
ATOM     37  C   UNL A   1      38.254  29.279  29.195  1.00  0.00    -0.014 A 
BRANCH  37  38
ATOM     38  C   UNL A   1      39.556  28.757  29.687  1.00  0.00     0.031 A 
ATOM     39  C   UNL A   1      40.311  29.474  30.771  1.00  0.00     0.074 A 
ATOM     40  C   UNL A   1      40.114  27.696  29.070  1.00  0.00     0.049 A 
ATOM     41  N   UNL A   1      41.500  29.221  31.252  1.00  0.00    -0.248 NA
ATOM     42  C   UNL A   1      39.654  30.642  31.381  1.00  0.00     0.031 C 
ATOM     43  C   UNL A   1      39.518  26.957  27.954  1.00  0.00     0.029 A 
ATOM     44  N   UNL A   1      41.324  27.076  29.266  1.00  0.00    -0.354 N 
ATOM     45  C   UNL A   1      41.751  30.213  32.192  1.00  0.00     0.074 A 
ATOM     46  C   UNL A   1      40.599  31.088  32.196  1.00  0.00     0.031 C 
ATOM     47  C   UNL A   1      40.364  25.994  27.561  1.00  0.00     0.029 A 
ATOM     48  C   UNL A   1      41.580  26.068  28.364  1.00  0.00     0.049 A 
ATOM     49  H   UNL A   1      41.950  27.329  29.983  1.00  0.00     0.167 HD
ATOM     50  C   UNL A   1      42.832  30.368  32.994  1.00  0.00     0.034 A 
ATOM     51  C   UNL A   1      42.675  25.304  28.186  1.00  0.00     0.034 A 
ATOM     52  C   UNL A   1      43.962  29.478  33.011  1.00  0.00     0.049 A 
ATOM     53  C   UNL A   1      43.856  25.490  29.098  1.00  0.00     0.074 A 
ATOM     54  C   UNL A   1      45.057  29.496  33.856  1.00  0.00     0.029 A 
ATOM     55  N   UNL A   1      44.153  28.421  32.135  1.00  0.00    -0.354 N 
ATOM     56  N   UNL A   1      44.002  26.327  30.096  1.00  0.00    -0.248 NA
ATOM     57  C   UNL A   1      45.011  24.608  28.881  1.00  0.00     0.031 C 
ATOM     58  C   UNL A   1      45.925  28.470  33.470  1.00  0.00     0.029 A 
ATOM     59  C   UNL A   1      45.358  27.794  32.402  1.00  0.00     0.049 A 
ATOM     60  H   UNL A   1      43.524  28.155  31.425  1.00  0.00     0.167 HD
ATOM     61  C   UNL A   1      45.252  26.056  30.640  1.00  0.00     0.074 A 
ATOM     62  C   UNL A   1      45.810  24.958  29.879  1.00  0.00     0.031 C 
ATOM     63  C   UNL A   1      45.888  26.675  31.666  1.00  0.00     0.034 A 
BRANCH  50  64
ATOM     64  C   UNL A   1      42.827  31.524  33.961  1.00  0.00     0.023 A 
ATOM     65  C   UNL A   1      43.372  32.762  33.566  1.00  0.00     0.012 A 
ATOM     66  C   UNL A   1      42.225  31.407  35.229  1.00  0.00     0.148 A 
ATOM     67  C   UNL A   1      43.346  33.858  34.428  1.00  0.00     0.002 A 
ATOM     68  C   UNL A   1      42.164  32.515  36.066  1.00  0.00     0.091 A 
ATOM     69  F   UNL A   1      41.730  30.216  35.596  1.00  0.00    -0.205 F 
ATOM     70  C   UNL A   1      42.733  33.737  35.671  1.00  0.00     0.022 A 
BRANCH  68  71
ATOM     71  S   UNL A   1      41.328  32.485  37.657  1.00  0.00     0.127 S 
ATOM     72  O   UNL A   1      42.164  31.551  38.410  1.00  0.00    -0.237 OA
ATOM     73  O   UNL A   1      41.434  33.880  38.086  1.00  0.00    -0.237 OA
ATOM     74  O   UNL A   1      39.970  32.033  37.388  1.00  0.00    -0.744 OA
ENDBRANCH  68  71
ENDBRANCH  50  64
BRANCH  51  75
ATOM     75  C   UNL A   1      42.687  24.265  27.116  1.00  0.00     0.023 A 
ATOM     76  C   UNL A   1      43.400  24.503  25.926  1.00  0.00     0.012 A 
ATOM     77  C   UNL A   1      42.029  23.031  27.288  1.00  0.00     0.148 A 
ATOM     78  C   UNL A   1      43.433  23.543  24.914  1.00  0.00     0.002 A 
ATOM     79  C   UNL A   1      42.119  22.055  26.303  1.00  0.00     0.091 A 
ATOM     80  F   UNL A   1      41.343  22.828  28.421  1.00  0.00    -0.205 F 
ATOM     81  C   UNL A   1      42.804  22.315  25.106  1.00  0.00     0.022 A 
BRANCH  79  82
ATOM     82  S   UNL A   1      41.467  20.396  26.535  1.00  0.00     0.127 S 
ATOM     83  O   UNL A   1      40.027  20.631  26.490  1.00  0.00    -0.237 OA
ATOM     84  O   UNL A   1      42.016  19.688  25.377  1.00  0.00    -0.237 OA
ATOM     85  O   UNL A   1      42.000  19.937  27.811  1.00  0.00    -0.744 OA
ENDBRANCH  79  82
ENDBRANCH  51  75
BRANCH  63  86
ATOM     86  C   UNL A   1      47.259  26.175  32.042  1.00  0.00     0.023 A 
ATOM     87  C   UNL A   1      48.393  26.685  31.379  1.00  0.00     0.012 A 
ATOM     88  C   UNL A   1      47.429  25.255  33.097  1.00  0.00     0.148 A 
ATOM     89  C   UNL A   1      49.673  26.265  31.740  1.00  0.00     0.002 A 
ATOM     90  C   UNL A   1      48.710  24.879  33.482  1.00  0.00     0.091 A 
ATOM     91  F   UNL A   1      46.336  24.769  33.703  1.00  0.00    -0.205 F 
ATOM     92  C   UNL A   1      49.833  25.374  32.797  1.00  0.00     0.022 A 
BRANCH  90  93
ATOM     93  S   UNL A   1      49.020  23.808  34.891  1.00  0.00     0.127 S 
ATOM     94  O   UNL A   1      48.438  24.581  35.986  1.00  0.00    -0.237 OA
ATOM     95  O   UNL A   1      48.274  22.601  34.531  1.00  0.00    -0.237 OA
ATOM     96  O   UNL A   1      50.465  23.631  34.952  1.00  0.00    -0.744 OA
ENDBRANCH  90  93
ENDBRANCH  63  86
ENDBRANCH  37  38
ENDBRANCH  29  32
ENDBRANCH  27  28
ENDBRANCH  26  27
ENDBRANCH   1  26
TORSDOF 17
ENDMDL
MODEL 2
REMARK VINA RESULT:     -11.7      4.999     10.052
REMARK SMILES Nc1ccc(C(=O)NC[C@@H]2CC[C@@H](C(=O)NCCCNC(=O)c3ccc(-c4c5nc(c(-c6cccc(S(=O)(=O)[O-])c6F)c6ccc([nH]6)c(-c6cccc(S(=O)(=O)[O-])c6F)c6nc(c(-c7cccc(S(=O)(=O)[O-])c7F)c7ccc4[nH]7)C=C6)C=C5)cc3)O2)cc1Cl
REMARK SMILES IDX 17 1 16 2 14 3 15 4 13 6 10 7 11 8 86 9 12 10 9 11 8 12 6 13
REMARK SMILES IDX 7 14 5 16 2 17 3 18 88 19 4 20 87 21 89 22 1 23 18 26 19 27
REMARK SMILES IDX 20 28 21 29 22 31 23 32 24 33 85 34 25 35 84 36 26 37 27 38
REMARK SMILES IDX 28 39 78 40 29 41 83 42 77 43 79 44 30 45 82 46 76 47 75 48
REMARK SMILES IDX 31 50 63 51 43 52 62 53 44 54 47 55 61 56 80 57 45 58 46 59
REMARK SMILES IDX 60 61 81 62 48 63 32 64 33 65 41 66 34 67 36 68 42 69 35 70
REMARK SMILES IDX 37 71 38 72 39 73 40 74 64 75 65 76 73 77 66 78 68 79 74 80
REMARK SMILES IDX 67 81 69 82 70 83 71 84 72 85 49 86 50 87 58 88 51 89 53 90
REMARK SMILES IDX 59 91 52 92 54 93 55 94 56 95 57 96
REMARK H PARENT 16 5 8 15 1 24 1 25 20 30 79 49 47 60
REMARK Flexibility Score: inf
ROOT
ATOM      1  C   UNL A   1      36.483  20.648  24.954  1.00  0.00     0.117 C 
ENDROOT
BRANCH   1   2
ATOM      2  N   UNL A   1      35.230  19.959  25.214  1.00  0.00    -0.354 N 
ATOM      3  C   UNL A   1      33.949  20.419  25.115  1.00  0.00     0.249 C 
ATOM      4  O   UNL A   1      33.036  19.624  25.356  1.00  0.00    -0.272 OA
ATOM      5  H   UNL A   1      35.319  19.022  25.503  1.00  0.00     0.163 HD
BRANCH   3   6
ATOM      6  C   UNL A   1      33.686  21.900  24.780  1.00  0.00     0.207 C 
ATOM      7  C   UNL A   1      31.650  22.975  24.359  1.00  0.00     0.138 C 
ATOM      8  C   UNL A   1      32.362  23.750  25.453  1.00  0.00     0.037 C 
ATOM      9  O   UNL A   1      32.645  22.102  23.810  1.00  0.00    -0.363 OA
ATOM     10  C   UNL A   1      33.277  22.693  26.020  1.00  0.00     0.045 C 
BRANCH   7  11
ATOM     11  C   UNL A   1      30.969  23.790  23.243  1.00  0.00     0.148 C 
BRANCH  11  12
ATOM     12  N   UNL A   1      31.877  24.328  22.246  1.00  0.00    -0.349 N 
ATOM     13  C   UNL A   1      32.562  25.494  22.059  1.00  0.00     0.251 C 
ATOM     14  O   UNL A   1      33.197  25.552  21.001  1.00  0.00    -0.269 OA
ATOM     15  H   UNL A   1      32.040  23.687  21.516  1.00  0.00     0.163 HD
BRANCH  13  16
ATOM     16  C   UNL A   1      32.623  26.656  22.996  1.00  0.00     0.041 A 
ATOM     17  C   UNL A   1      32.501  28.983  24.648  1.00  0.00     0.050 A 
ATOM     18  C   UNL A   1      33.594  28.110  24.693  1.00  0.00     0.028 A 
ATOM     19  C   UNL A   1      31.475  28.686  23.743  1.00  0.00     0.064 A 
ATOM     20  C   UNL A   1      33.649  26.952  23.893  1.00  0.00     0.016 A 
ATOM     21  C   UNL A   1      31.529  27.538  22.945  1.00  0.00     0.036 A 
ATOM     22  Cl  UNL A   1      30.098  29.721  23.581  1.00  0.00    -0.082 Cl
BRANCH  17  23
ATOM     23  N   UNL A   1      32.538  30.170  25.366  1.00  0.00    -0.398 N 
ATOM     24  H   UNL A   1      32.558  31.032  24.892  1.00  0.00     0.156 HD
ATOM     25  H   UNL A   1      32.545  30.149  26.350  1.00  0.00     0.156 HD
ENDBRANCH  17  23
ENDBRANCH  13  16
ENDBRANCH  11  12
ENDBRANCH   7  11
ENDBRANCH   3   6
ENDBRANCH   1   2
BRANCH   1  26
ATOM     26  C   UNL A   1      37.699  19.753  25.144  1.00  0.00     0.042 C 
BRANCH  26  27
ATOM     27  C   UNL A   1      39.016  20.498  25.329  1.00  0.00     0.118 C 
BRANCH  27  28
ATOM     28  N   UNL A   1      39.979  19.770  26.145  1.00  0.00    -0.352 N 
ATOM     29  C   UNL A   1      40.977  20.232  26.973  1.00  0.00     0.251 C 
ATOM     30  H   UNL A   1      39.905  18.790  26.095  1.00  0.00     0.163 HD
ATOM     31  O   UNL A   1      41.776  19.440  27.456  1.00  0.00    -0.269 OA
BRANCH  29  32
ATOM     32  C   UNL A   1      41.107  21.681  27.256  1.00  0.00     0.039 A 
ATOM     33  C   UNL A   1      41.736  22.080  28.439  1.00  0.00     0.014 A 
ATOM     34  C   UNL A   1      40.622  22.641  26.366  1.00  0.00     0.014 A 
ATOM     35  C   UNL A   1      41.968  23.437  28.678  1.00  0.00     0.010 A 
ATOM     36  C   UNL A   1      40.923  23.985  26.566  1.00  0.00     0.010 A 
ATOM     37  C   UNL A   1      41.613  24.397  27.717  1.00  0.00    -0.014 A 
BRANCH  37  38
ATOM     38  C   UNL A   1      42.015  25.821  27.856  1.00  0.00     0.031 A 
ATOM     39  C   UNL A   1      43.389  26.275  27.448  1.00  0.00     0.074 A 
ATOM     40  C   UNL A   1      41.176  26.685  28.464  1.00  0.00     0.049 A 
ATOM     41  N   UNL A   1      43.943  27.451  27.591  1.00  0.00    -0.248 NA
ATOM     42  C   UNL A   1      44.263  25.273  26.818  1.00  0.00     0.031 C 
ATOM     43  C   UNL A   1      39.844  26.351  28.974  1.00  0.00     0.029 A 
ATOM     44  N   UNL A   1      41.331  28.010  28.790  1.00  0.00    -0.354 N 
ATOM     45  C   UNL A   1      45.238  27.324  27.104  1.00  0.00     0.074 A 
ATOM     46  C   UNL A   1      45.396  25.948  26.683  1.00  0.00     0.031 C 
ATOM     47  C   UNL A   1      39.309  27.435  29.553  1.00  0.00     0.029 A 
ATOM     48  C   UNL A   1      40.271  28.531  29.496  1.00  0.00     0.049 A 
ATOM     49  H   UNL A   1      42.125  28.537  28.543  1.00  0.00     0.167 HD
ATOM     50  C   UNL A   1      46.201  28.271  26.994  1.00  0.00     0.034 A 
ATOM     51  C   UNL A   1      40.098  29.745  30.056  1.00  0.00     0.034 A 
ATOM     52  C   UNL A   1      46.031  29.646  27.383  1.00  0.00     0.049 A 
ATOM     53  C   UNL A   1      41.178  30.781  29.910  1.00  0.00     0.074 A 
ATOM     54  C   UNL A   1      46.913  30.700  27.219  1.00  0.00     0.029 A 
ATOM     55  N   UNL A   1      44.915  30.157  28.026  1.00  0.00    -0.354 N 
ATOM     56  N   UNL A   1      42.330  30.688  29.292  1.00  0.00    -0.248 NA
ATOM     57  C   UNL A   1      40.923  32.098  30.510  1.00  0.00     0.031 C 
ATOM     58  C   UNL A   1      46.342  31.841  27.793  1.00  0.00     0.029 A 
ATOM     59  C   UNL A   1      45.094  31.505  28.289  1.00  0.00     0.049 A 
ATOM     60  H   UNL A   1      44.113  29.638  28.263  1.00  0.00     0.167 HD
ATOM     61  C   UNL A   1      42.927  31.938  29.408  1.00  0.00     0.074 A 
ATOM     62  C   UNL A   1      41.995  32.779  30.130  1.00  0.00     0.031 C 
ATOM     63  C   UNL A   1      44.144  32.346  28.972  1.00  0.00     0.034 A 
BRANCH  50  64
ATOM     64  C   UNL A   1      47.518  27.866  26.386  1.00  0.00     0.023 A 
ATOM     65  C   UNL A   1      48.571  27.448  27.224  1.00  0.00     0.012 A 
ATOM     66  C   UNL A   1      47.692  27.831  24.988  1.00  0.00     0.148 A 
ATOM     67  C   UNL A   1      49.788  27.032  26.684  1.00  0.00     0.002 A 
ATOM     68  C   UNL A   1      48.892  27.373  24.456  1.00  0.00     0.091 A 
ATOM     69  F   UNL A   1      46.686  28.250  24.207  1.00  0.00    -0.205 F 
ATOM     70  C   UNL A   1      49.943  26.983  25.302  1.00  0.00     0.022 A 
BRANCH  68  71
ATOM     71  S   UNL A   1      49.166  27.200  22.688  1.00  0.00     0.127 S 
ATOM     72  O   UNL A   1      50.617  27.026  22.631  1.00  0.00    -0.237 OA
ATOM     73  O   UNL A   1      48.395  25.996  22.374  1.00  0.00    -0.237 OA
ATOM     74  O   UNL A   1      48.658  28.423  22.082  1.00  0.00    -0.744 OA
ENDBRANCH  68  71
ENDBRANCH  50  64
BRANCH  51  75
ATOM     75  C   UNL A   1      38.830  30.054  30.777  1.00  0.00     0.023 A 
ATOM     76  C   UNL A   1      38.640  29.572  32.086  1.00  0.00     0.012 A 
ATOM     77  C   UNL A   1      37.830  30.853  30.187  1.00  0.00     0.148 A 
ATOM     78  C   UNL A   1      37.465  29.854  32.783  1.00  0.00     0.002 A 
ATOM     79  C   UNL A   1      36.691  31.184  30.911  1.00  0.00     0.091 A 
ATOM     80  F   UNL A   1      38.021  31.291  28.935  1.00  0.00    -0.205 F 
ATOM     81  C   UNL A   1      36.496  30.669  32.203  1.00  0.00     0.022 A 
BRANCH  79  82
ATOM     82  S   UNL A   1      35.468  32.348  30.296  1.00  0.00     0.127 S 
ATOM     83  O   UNL A   1      35.117  31.762  29.007  1.00  0.00    -0.237 OA
ATOM     84  O   UNL A   1      34.425  32.265  31.320  1.00  0.00    -0.237 OA
ATOM     85  O   UNL A   1      36.142  33.639  30.248  1.00  0.00    -0.744 OA
ENDBRANCH  79  82
ENDBRANCH  51  75
BRANCH  63  86
ATOM     86  C   UNL A   1      44.543  33.773  29.249  1.00  0.00     0.023 A 
ATOM     87  C   UNL A   1      45.255  34.081  30.425  1.00  0.00     0.012 A 
ATOM     88  C   UNL A   1      44.277  34.793  28.313  1.00  0.00     0.148 A 
ATOM     89  C   UNL A   1      45.670  35.388  30.680  1.00  0.00     0.002 A 
ATOM     90  C   UNL A   1      44.736  36.082  28.552  1.00  0.00     0.091 A 
ATOM     91  F   UNL A   1      43.584  34.481  27.208  1.00  0.00    -0.205 F 
ATOM     92  C   UNL A   1      45.422  36.385  29.740  1.00  0.00     0.022 A 
BRANCH  90  93
ATOM     93  S   UNL A   1      44.545  37.412  27.359  1.00  0.00     0.127 S 
ATOM     94  O   UNL A   1      44.694  38.594  28.205  1.00  0.00    -0.237 OA
ATOM     95  O   UNL A   1      45.663  37.170  26.445  1.00  0.00    -0.237 OA
ATOM     96  O   UNL A   1      43.227  37.233  26.763  1.00  0.00    -0.744 OA
ENDBRANCH  90  93
ENDBRANCH  63  86
ENDBRANCH  37  38
ENDBRANCH  29  32
ENDBRANCH  27  28
ENDBRANCH  26  27
ENDBRANCH   1  26
TORSDOF 17
ENDMDL
MODEL 3
REMARK VINA RESULT:     -11.7      2.651      8.197
REMARK SMILES Nc1ccc(C(=O)NC[C@@H]2CC[C@@H](C(=O)NCCCNC(=O)c3ccc(-c4c5nc(c(-c6cccc(S(=O)(=O)[O-])c6F)c6ccc([nH]6)c(-c6cccc(S(=O)(=O)[O-])c6F)c6nc(c(-c7cccc(S(=O)(=O)[O-])c7F)c7ccc4[nH]7)C=C6)C=C5)cc3)O2)cc1Cl
REMARK SMILES IDX 17 1 16 2 14 3 15 4 13 6 10 7 11 8 86 9 12 10 9 11 8 12 6 13
REMARK SMILES IDX 7 14 5 16 2 17 3 18 88 19 4 20 87 21 89 22 1 23 18 26 19 27
REMARK SMILES IDX 20 28 21 29 22 31 23 32 24 33 85 34 25 35 84 36 26 37 27 38
REMARK SMILES IDX 28 39 78 40 29 41 83 42 77 43 79 44 30 45 82 46 76 47 75 48
REMARK SMILES IDX 31 50 63 51 43 52 62 53 44 54 47 55 61 56 80 57 45 58 46 59
REMARK SMILES IDX 60 61 81 62 48 63 32 64 33 65 41 66 34 67 36 68 42 69 35 70
REMARK SMILES IDX 37 71 38 72 39 73 40 74 64 75 65 76 73 77 66 78 68 79 74 80
REMARK SMILES IDX 67 81 69 82 70 83 71 84 72 85 49 86 50 87 58 88 51 89 53 90
REMARK SMILES IDX 59 91 52 92 54 93 55 94 56 95 57 96
REMARK H PARENT 16 5 8 15 1 24 1 25 20 30 79 49 47 60
REMARK Flexibility Score: inf
ROOT
ATOM      1  C   UNL A   1      31.064  30.956  25.912  1.00  0.00     0.117 C 
ENDROOT
BRANCH   1   2
ATOM      2  N   UNL A   1      32.371  30.385  25.634  1.00  0.00    -0.354 N 
ATOM      3  C   UNL A   1      32.708  29.102  25.311  1.00  0.00     0.249 C 
ATOM      4  O   UNL A   1      33.897  28.864  25.082  1.00  0.00    -0.272 OA
ATOM      5  H   UNL A   1      33.125  31.016  25.687  1.00  0.00     0.163 HD
BRANCH   3   6
ATOM      6  C   UNL A   1      31.630  28.000  25.307  1.00  0.00     0.207 C 
ATOM      7  C   UNL A   1      31.732  25.843  24.403  1.00  0.00     0.138 C 
ATOM      8  C   UNL A   1      31.309  25.714  25.855  1.00  0.00     0.037 C 
ATOM      9  O   UNL A   1      31.583  27.234  24.092  1.00  0.00    -0.363 OA
ATOM     10  C   UNL A   1      31.848  26.996  26.438  1.00  0.00     0.045 C 
BRANCH   7  11
ATOM     11  C   UNL A   1      30.991  24.975  23.370  1.00  0.00     0.148 C 
BRANCH  11  12
ATOM     12  N   UNL A   1      31.799  24.555  22.239  1.00  0.00    -0.349 N 
ATOM     13  C   UNL A   1      33.022  23.974  22.059  1.00  0.00     0.251 C 
ATOM     14  O   UNL A   1      33.359  23.844  20.878  1.00  0.00    -0.269 OA
ATOM     15  H   UNL A   1      31.351  24.737  21.382  1.00  0.00     0.163 HD
BRANCH  13  16
ATOM     16  C   UNL A   1      33.946  23.485  23.127  1.00  0.00     0.041 A 
ATOM     17  C   UNL A   1      35.505  22.345  25.230  1.00  0.00     0.050 A 
ATOM     18  C   UNL A   1      35.875  23.545  24.613  1.00  0.00     0.028 A 
ATOM     19  C   UNL A   1      34.325  21.732  24.793  1.00  0.00     0.064 A 
ATOM     20  C   UNL A   1      35.118  24.100  23.563  1.00  0.00     0.016 A 
ATOM     21  C   UNL A   1      33.569  22.283  23.753  1.00  0.00     0.036 A 
ATOM     22  Cl  UNL A   1      33.759  20.266  25.517  1.00  0.00    -0.082 Cl
BRANCH  17  23
ATOM     23  N   UNL A   1      36.213  21.892  26.335  1.00  0.00    -0.398 N 
ATOM     24  H   UNL A   1      36.760  21.077  26.269  1.00  0.00     0.156 HD
ATOM     25  H   UNL A   1      36.166  22.387  27.185  1.00  0.00     0.156 HD
ENDBRANCH  17  23
ENDBRANCH  13  16
ENDBRANCH  11  12
ENDBRANCH   7  11
ENDBRANCH   3   6
ENDBRANCH   1   2
BRANCH   1  26
ATOM     26  C   UNL A   1      31.144  32.373  26.459  1.00  0.00     0.042 C 
BRANCH  26  27
ATOM     27  C   UNL A   1      32.543  32.822  26.865  1.00  0.00     0.118 C 
BRANCH  27  28
ATOM     28  N   UNL A   1      32.548  34.057  27.640  1.00  0.00    -0.352 N 
ATOM     29  C   UNL A   1      33.377  34.467  28.659  1.00  0.00     0.251 C 
ATOM     30  H   UNL A   1      31.845  34.701  27.396  1.00  0.00     0.163 HD
ATOM     31  O   UNL A   1      33.112  35.489  29.279  1.00  0.00    -0.269 OA
BRANCH  29  32
ATOM     32  C   UNL A   1      34.566  33.664  29.031  1.00  0.00     0.039 A 
ATOM     33  C   UNL A   1      35.829  34.108  28.630  1.00  0.00     0.014 A 
ATOM     34  C   UNL A   1      34.443  32.486  29.771  1.00  0.00     0.014 A 
ATOM     35  C   UNL A   1      36.972  33.429  29.059  1.00  0.00     0.010 A 
ATOM     36  C   UNL A   1      35.583  31.855  30.262  1.00  0.00     0.010 A 
ATOM     37  C   UNL A   1      36.860  32.329  29.925  1.00  0.00    -0.014 A 
BRANCH  37  38
ATOM     38  C   UNL A   1      38.058  31.705  30.547  1.00  0.00     0.031 A 
ATOM     39  C   UNL A   1      38.797  30.598  29.848  1.00  0.00     0.074 A 
ATOM     40  C   UNL A   1      38.407  32.059  31.800  1.00  0.00     0.049 A 
ATOM     41  N   UNL A   1      39.795  29.873  30.283  1.00  0.00    -0.248 NA
ATOM     42  C   UNL A   1      38.343  30.243  28.494  1.00  0.00     0.031 C 
ATOM     43  C   UNL A   1      37.724  33.066  32.615  1.00  0.00     0.029 A 
ATOM     44  N   UNL A   1      39.400  31.587  32.624  1.00  0.00    -0.354 N 
ATOM     45  C   UNL A   1      40.067  28.956  29.276  1.00  0.00     0.074 A 
ATOM     46  C   UNL A   1      39.111  29.199  28.216  1.00  0.00     0.031 C 
ATOM     47  C   UNL A   1      38.310  33.131  33.819  1.00  0.00     0.029 A 
ATOM     48  C   UNL A   1      39.383  32.144  33.883  1.00  0.00     0.049 A 
ATOM     49  H   UNL A   1      40.061  30.914  32.341  1.00  0.00     0.167 HD
ATOM     50  C   UNL A   1      41.038  28.012  29.226  1.00  0.00     0.034 A 
ATOM     51  C   UNL A   1      40.128  31.877  34.973  1.00  0.00     0.034 A 
ATOM     52  C   UNL A   1      42.007  27.794  30.266  1.00  0.00     0.049 A 
ATOM     53  C   UNL A   1      41.207  30.832  34.887  1.00  0.00     0.074 A 
ATOM     54  C   UNL A   1      43.089  26.930  30.265  1.00  0.00     0.029 A 
ATOM     55  N   UNL A   1      42.007  28.429  31.498  1.00  0.00    -0.354 N 
ATOM     56  N   UNL A   1      41.558  30.093  33.863  1.00  0.00    -0.248 NA
ATOM     57  C   UNL A   1      42.011  30.605  36.095  1.00  0.00     0.031 C 
ATOM     58  C   UNL A   1      43.723  27.021  31.508  1.00  0.00     0.029 A 
ATOM     59  C   UNL A   1      43.054  27.961  32.274  1.00  0.00     0.049 A 
ATOM     60  H   UNL A   1      41.357  29.113  31.780  1.00  0.00     0.167 HD
ATOM     61  C   UNL A   1      42.637  29.332  34.295  1.00  0.00     0.074 A 
ATOM     62  C   UNL A   1      42.901  29.721  35.664  1.00  0.00     0.031 C 
ATOM     63  C   UNL A   1      43.335  28.383  33.622  1.00  0.00     0.034 A 
BRANCH  50  64
ATOM     64  C   UNL A   1      41.133  27.168  27.982  1.00  0.00     0.023 A 
ATOM     65  C   UNL A   1      41.780  27.684  26.840  1.00  0.00     0.012 A 
ATOM     66  C   UNL A   1      40.649  25.845  27.963  1.00  0.00     0.148 A 
ATOM     67  C   UNL A   1      41.915  26.909  25.689  1.00  0.00     0.002 A 
ATOM     68  C   UNL A   1      40.826  25.064  26.826  1.00  0.00     0.091 A 
ATOM     69  F   UNL A   1      40.019  25.378  29.051  1.00  0.00    -0.205 F 
ATOM     70  C   UNL A   1      41.449  25.598  25.686  1.00  0.00     0.022 A 
BRANCH  68  71
ATOM     71  S   UNL A   1      40.330  23.339  26.748  1.00  0.00     0.127 S 
ATOM     72  O   UNL A   1      38.918  23.455  26.385  1.00  0.00    -0.237 OA
ATOM     73  O   UNL A   1      41.191  22.820  25.685  1.00  0.00    -0.237 OA
ATOM     74  O   UNL A   1      40.593  22.785  28.069  1.00  0.00    -0.744 OA
ENDBRANCH  68  71
ENDBRANCH  50  64
BRANCH  51  75
ATOM     75  C   UNL A   1      39.900  32.642  36.232  1.00  0.00     0.023 A 
ATOM     76  C   UNL A   1      40.621  33.829  36.464  1.00  0.00     0.012 A 
ATOM     77  C   UNL A   1      38.946  32.222  37.181  1.00  0.00     0.148 A 
ATOM     78  C   UNL A   1      40.419  34.567  37.630  1.00  0.00     0.002 A 
ATOM     79  C   UNL A   1      38.704  32.996  38.309  1.00  0.00     0.091 A 
ATOM     80  F   UNL A   1      38.280  31.082  36.950  1.00  0.00    -0.205 F 
ATOM     81  C   UNL A   1      39.453  34.159  38.547  1.00  0.00     0.022 A 
BRANCH  79  82
ATOM     82  S   UNL A   1      37.375  32.623  39.461  1.00  0.00     0.127 S 
ATOM     83  O   UNL A   1      37.760  31.300  39.944  1.00  0.00    -0.237 OA
ATOM     84  O   UNL A   1      37.507  33.704  40.439  1.00  0.00    -0.237 OA
ATOM     85  O   UNL A   1      36.147  32.684  38.679  1.00  0.00    -0.744 OA
ENDBRANCH  79  82
ENDBRANCH  51  75
BRANCH  63  86
ATOM     86  C   UNL A   1      44.465  27.701  34.350  1.00  0.00     0.023 A 
ATOM     87  C   UNL A   1      45.755  28.268  34.322  1.00  0.00     0.012 A 
ATOM     88  C   UNL A   1      44.236  26.541  35.117  1.00  0.00     0.148 A 
ATOM     89  C   UNL A   1      46.805  27.675  35.022  1.00  0.00     0.002 A 
ATOM     90  C   UNL A   1      45.276  25.984  35.850  1.00  0.00     0.091 A 
ATOM     91  F   UNL A   1      43.005  26.008  35.116  1.00  0.00    -0.205 F 
ATOM     92  C   UNL A   1      46.564  26.542  35.795  1.00  0.00     0.022 A 
BRANCH  90  93
ATOM     93  S   UNL A   1      45.042  24.580  36.947  1.00  0.00     0.127 S 
ATOM     94  O   UNL A   1      46.300  24.570  37.690  1.00  0.00    -0.237 OA
ATOM     95  O   UNL A   1      43.873  24.989  37.728  1.00  0.00    -0.237 OA
ATOM     96  O   UNL A   1      44.819  23.427  36.083  1.00  0.00    -0.744 OA
ENDBRANCH  90  93
ENDBRANCH  63  86
ENDBRANCH  37  38
ENDBRANCH  29  32
ENDBRANCH  27  28
ENDBRANCH  26  27
ENDBRANCH   1  26
TORSDOF 17
ENDMDL
