MODEL 1
REMARK VINA RESULT:     -12.6      0.000      0.000
REMARK SMILES CC1=C[C@H](C)[C@@H](C(=O)NCCCNC(=O)c2ccc(-c3c4nc(c(-c5cccc(S(=O)(=O)[O-])c5F)c5ccc([nH]5)c(-c5cccc(S(=O)(=O)[O-])c5F)c5nc(c(-c6cccc(S(=O)(=O)[O-])c6F)c6ccc3[nH]6)C=C5)C=C4)cc2)[C@H](C(=O)Nc2cccnc2)C1
REMARK SMILES IDX 11 1 10 2 9 3 7 4 8 5 6 7 1 8 2 9 3 10 89 11 4 12 79 13 5 14
REMARK SMILES IDX 80 15 81 16 82 17 83 19 84 20 88 21 85 22 87 23 86 24 12 25
REMARK SMILES IDX 13 26 14 27 15 29 16 30 17 31 78 32 18 33 77 34 19 35 20 36
REMARK SMILES IDX 21 37 71 38 22 39 76 40 70 41 72 42 23 43 75 44 69 45 68 46
REMARK SMILES IDX 24 48 56 49 36 50 55 51 37 52 40 53 54 54 73 55 38 56 39 57
REMARK SMILES IDX 53 59 74 60 41 61 25 62 26 63 34 64 27 65 29 66 35 67 28 68
REMARK SMILES IDX 30 69 31 70 32 71 33 72 57 73 58 74 66 75 59 76 61 77 67 78
REMARK SMILES IDX 60 79 62 80 63 81 64 82 65 83 42 84 43 85 51 86 44 87 46 88
REMARK SMILES IDX 52 89 45 90 47 91 48 92 49 93 50 94
REMARK H PARENT 9 6 82 18 13 28 72 47 40 58
REMARK Flexibility Score: inf
ROOT
ATOM      1  C   UNL A   1      36.745  21.114  24.536  1.00  0.00     0.042 C 
ENDROOT
BRANCH   1   2
ATOM      2  C   UNL A   1      35.454  20.773  25.246  1.00  0.00     0.117 C 
BRANCH   2   3
ATOM      3  N   UNL A   1      35.279  21.478  26.499  1.00  0.00    -0.356 N 
ATOM      4  C   UNL A   1      34.458  22.520  26.816  1.00  0.00     0.224 C 
ATOM      5  O   UNL A   1      34.385  22.839  28.005  1.00  0.00    -0.275 OA
ATOM      6  H   UNL A   1      35.840  21.153  27.239  1.00  0.00     0.163 HD
BRANCH   4   7
ATOM      7  C   UNL A   1      33.636  23.272  25.757  1.00  0.00     0.098 C 
ATOM      8  C   UNL A   1      32.416  27.533  26.295  1.00  0.00     0.039 C 
ATOM      9  C   UNL A   1      32.824  26.111  26.019  1.00  0.00    -0.076 C 
ATOM     10  C   UNL A   1      33.901  25.801  25.272  1.00  0.00    -0.024 C 
ATOM     11  C   UNL A   1      31.991  25.077  26.727  1.00  0.00     0.044 C 
ATOM     12  C   UNL A   1      34.492  24.414  25.146  1.00  0.00     0.022 C 
ATOM     13  C   UNL A   1      32.231  23.627  26.298  1.00  0.00     0.096 C 
ATOM     14  C   UNL A   1      35.002  24.064  23.736  1.00  0.00     0.013 C 
BRANCH  13  15
ATOM     15  C   UNL A   1      31.057  23.015  25.493  1.00  0.00     0.228 C 
ATOM     16  O   UNL A   1      30.700  21.855  25.721  1.00  0.00    -0.274 OA
ATOM     17  N   UNL A   1      30.290  23.746  24.623  1.00  0.00    -0.324 N 
ATOM     18  H   UNL A   1      29.349  23.464  24.559  1.00  0.00     0.169 HD
BRANCH  17  19
ATOM     19  C   UNL A   1      30.641  24.832  23.814  1.00  0.00     0.059 A 
ATOM     20  C   UNL A   1      31.577  24.700  22.802  1.00  0.00     0.029 A 
ATOM     21  C   UNL A   1      30.022  26.067  23.947  1.00  0.00     0.137 A 
ATOM     22  C   UNL A   1      31.983  25.813  22.070  1.00  0.00     0.022 A 
ATOM     23  N   UNL A   1      30.379  27.172  23.244  1.00  0.00    -0.263 NA
ATOM     24  C   UNL A   1      31.381  27.026  22.349  1.00  0.00     0.111 A 
ENDBRANCH  17  19
ENDBRANCH  13  15
ENDBRANCH   4   7
ENDBRANCH   2   3
ENDBRANCH   1   2
BRANCH   1  25
ATOM     25  C   UNL A   1      37.750  21.746  25.471  1.00  0.00     0.118 C 
BRANCH  25  26
ATOM     26  N   UNL A   1      38.748  20.785  25.939  1.00  0.00    -0.352 N 
ATOM     27  C   UNL A   1      39.963  21.006  26.536  1.00  0.00     0.251 C 
ATOM     28  H   UNL A   1      38.514  19.839  25.806  1.00  0.00     0.163 HD
ATOM     29  O   UNL A   1      40.752  20.074  26.681  1.00  0.00    -0.269 OA
BRANCH  27  30
ATOM     30  C   UNL A   1      40.319  22.367  26.977  1.00  0.00     0.039 A 
ATOM     31  C   UNL A   1      41.185  22.530  28.059  1.00  0.00     0.014 A 
ATOM     32  C   UNL A   1      39.823  23.480  26.295  1.00  0.00     0.014 A 
ATOM     33  C   UNL A   1      41.604  23.813  28.409  1.00  0.00     0.010 A 
ATOM     34  C   UNL A   1      40.346  24.735  26.555  1.00  0.00     0.010 A 
ATOM     35  C   UNL A   1      41.221  24.920  27.632  1.00  0.00    -0.014 A 
BRANCH  35  36
ATOM     36  C   UNL A   1      41.718  26.282  27.936  1.00  0.00     0.031 A 
ATOM     37  C   UNL A   1      43.121  26.675  27.562  1.00  0.00     0.074 A 
ATOM     38  C   UNL A   1      40.932  27.134  28.622  1.00  0.00     0.049 A 
ATOM     39  N   UNL A   1      43.739  27.808  27.766  1.00  0.00    -0.248 NA
ATOM     40  C   UNL A   1      43.952  25.652  26.905  1.00  0.00     0.031 C 
ATOM     41  C   UNL A   1      39.596  26.824  29.136  1.00  0.00     0.029 A 
ATOM     42  N   UNL A   1      41.153  28.425  29.025  1.00  0.00    -0.354 N 
ATOM     43  C   UNL A   1      45.034  27.623  27.296  1.00  0.00     0.074 A 
ATOM     44  C   UNL A   1      45.131  26.251  26.853  1.00  0.00     0.031 C 
ATOM     45  C   UNL A   1      39.110  27.901  29.773  1.00  0.00     0.029 A 
ATOM     46  C   UNL A   1      40.110  28.962  29.741  1.00  0.00     0.049 A 
ATOM     47  H   UNL A   1      41.979  28.920  28.823  1.00  0.00     0.167 HD
ATOM     48  C   UNL A   1      46.040  28.523  27.200  1.00  0.00     0.034 A 
ATOM     49  C   UNL A   1      39.977  30.174  30.313  1.00  0.00     0.034 A 
ATOM     50  C   UNL A   1      45.924  29.893  27.617  1.00  0.00     0.049 A 
ATOM     51  C   UNL A   1      41.085  31.176  30.154  1.00  0.00     0.074 A 
ATOM     52  C   UNL A   1      46.848  30.915  27.487  1.00  0.00     0.029 A 
ATOM     53  N   UNL A   1      44.819  30.432  28.258  1.00  0.00    -0.354 N 
ATOM     54  N   UNL A   1      42.242  31.036  29.552  1.00  0.00    -0.248 NA
ATOM     55  C   UNL A   1      40.856  32.513  30.716  1.00  0.00     0.031 C 
ATOM     56  C   UNL A   1      46.312  32.062  28.081  1.00  0.00     0.029 A 
ATOM     57  C   UNL A   1      45.041  31.768  28.546  1.00  0.00     0.049 A 
ATOM     58  H   UNL A   1      43.997  29.937  28.478  1.00  0.00     0.167 HD
ATOM     59  C   UNL A   1      42.870  32.272  29.641  1.00  0.00     0.074 A 
ATOM     60  C   UNL A   1      41.949  33.156  30.329  1.00  0.00     0.031 C 
ATOM     61  C   UNL A   1      44.101  32.639  29.207  1.00  0.00     0.034 A 
BRANCH  48  62
ATOM     62  C   UNL A   1      47.332  28.052  26.578  1.00  0.00     0.023 A 
ATOM     63  C   UNL A   1      48.409  27.676  27.408  1.00  0.00     0.012 A 
ATOM     64  C   UNL A   1      47.477  27.966  25.181  1.00  0.00     0.148 A 
ATOM     65  C   UNL A   1      49.626  27.275  26.860  1.00  0.00     0.002 A 
ATOM     66  C   UNL A   1      48.677  27.514  24.642  1.00  0.00     0.091 A 
ATOM     67  F   UNL A   1      46.454  28.348  24.405  1.00  0.00    -0.205 F 
ATOM     68  C   UNL A   1      49.756  27.185  25.478  1.00  0.00     0.022 A 
BRANCH  66  69
ATOM     69  S   UNL A   1      48.918  27.282  22.877  1.00  0.00     0.127 S 
ATOM     70  O   UNL A   1      50.373  27.375  22.763  1.00  0.00    -0.237 OA
ATOM     71  O   UNL A   1      48.375  25.940  22.667  1.00  0.00    -0.237 OA
ATOM     72  O   UNL A   1      48.169  28.348  22.227  1.00  0.00    -0.744 OA
ENDBRANCH  66  69
ENDBRANCH  48  62
BRANCH  49  73
ATOM     73  C   UNL A   1      38.719  30.509  31.036  1.00  0.00     0.023 A 
ATOM     74  C   UNL A   1      38.598  30.208  32.406  1.00  0.00     0.012 A 
ATOM     75  C   UNL A   1      37.669  31.187  30.385  1.00  0.00     0.148 A 
ATOM     76  C   UNL A   1      37.443  30.553  33.110  1.00  0.00     0.002 A 
ATOM     77  C   UNL A   1      36.548  31.580  31.105  1.00  0.00     0.091 A 
ATOM     78  F   UNL A   1      37.805  31.459  29.079  1.00  0.00    -0.205 F 
ATOM     79  C   UNL A   1      36.424  31.248  32.463  1.00  0.00     0.022 A 
BRANCH  77  80
ATOM     80  S   UNL A   1      35.254  32.602  30.393  1.00  0.00     0.127 S 
ATOM     81  O   UNL A   1      35.978  33.833  30.089  1.00  0.00    -0.237 OA
ATOM     82  O   UNL A   1      34.858  31.813  29.226  1.00  0.00    -0.237 OA
ATOM     83  O   UNL A   1      34.227  32.713  31.421  1.00  0.00    -0.744 OA
ENDBRANCH  77  80
ENDBRANCH  49  73
BRANCH  61  84
ATOM     84  C   UNL A   1      44.521  34.066  29.446  1.00  0.00     0.023 A 
ATOM     85  C   UNL A   1      45.077  34.438  30.686  1.00  0.00     0.012 A 
ATOM     86  C   UNL A   1      44.415  35.026  28.420  1.00  0.00     0.148 A 
ATOM     87  C   UNL A   1      45.482  35.752  30.917  1.00  0.00     0.002 A 
ATOM     88  C   UNL A   1      44.871  36.321  28.639  1.00  0.00     0.091 A 
ATOM     89  F   UNL A   1      43.868  34.659  27.253  1.00  0.00    -0.205 F 
ATOM     90  C   UNL A   1      45.389  36.689  29.891  1.00  0.00     0.022 A 
BRANCH  88  91
ATOM     91  S   UNL A   1      44.883  37.568  27.347  1.00  0.00     0.127 S 
ATOM     92  O   UNL A   1      45.810  36.984  26.379  1.00  0.00    -0.237 OA
ATOM     93  O   UNL A   1      43.484  37.582  26.919  1.00  0.00    -0.237 OA
ATOM     94  O   UNL A   1      45.334  38.800  27.980  1.00  0.00    -0.744 OA
ENDBRANCH  88  91
ENDBRANCH  61  84
ENDBRANCH  35  36
ENDBRANCH  27  30
ENDBRANCH  25  26
ENDBRANCH   1  25
TORSDOF 15
ENDMDL
MODEL 2
REMARK VINA RESULT:     -12.6      4.910     10.122
REMARK SMILES CC1=C[C@H](C)[C@@H](C(=O)NCCCNC(=O)c2ccc(-c3c4nc(c(-c5cccc(S(=O)(=O)[O-])c5F)c5ccc([nH]5)c(-c5cccc(S(=O)(=O)[O-])c5F)c5nc(c(-c6cccc(S(=O)(=O)[O-])c6F)c6ccc3[nH]6)C=C5)C=C4)cc2)[C@H](C(=O)Nc2cccnc2)C1
REMARK SMILES IDX 11 1 10 2 9 3 7 4 8 5 6 7 1 8 2 9 3 10 89 11 4 12 79 13 5 14
REMARK SMILES IDX 80 15 81 16 82 17 83 19 84 20 88 21 85 22 87 23 86 24 12 25
REMARK SMILES IDX 13 26 14 27 15 29 16 30 17 31 78 32 18 33 77 34 19 35 20 36
REMARK SMILES IDX 21 37 71 38 22 39 76 40 70 41 72 42 23 43 75 44 69 45 68 46
REMARK SMILES IDX 24 48 56 49 36 50 55 51 37 52 40 53 54 54 73 55 38 56 39 57
REMARK SMILES IDX 53 59 74 60 41 61 25 62 26 63 34 64 27 65 29 66 35 67 28 68
REMARK SMILES IDX 30 69 31 70 32 71 33 72 57 73 58 74 66 75 59 76 61 77 67 78
REMARK SMILES IDX 60 79 62 80 63 81 64 82 65 83 42 84 43 85 51 86 44 87 46 88
REMARK SMILES IDX 52 89 45 90 47 91 48 92 49 93 50 94
REMARK H PARENT 9 6 82 18 13 28 72 47 40 58
REMARK Flexibility Score: inf
ROOT
ATOM      1  C   UNL A   1      31.713  28.768  27.201  1.00  0.00     0.042 C 
ENDROOT
BRANCH   1   2
ATOM      2  C   UNL A   1      31.425  27.400  26.628  1.00  0.00     0.117 C 
BRANCH   2   3
ATOM      3  N   UNL A   1      31.328  27.386  25.182  1.00  0.00    -0.356 N 
ATOM      4  C   UNL A   1      31.579  26.383  24.293  1.00  0.00     0.224 C 
ATOM      5  O   UNL A   1      31.268  26.582  23.116  1.00  0.00    -0.275 OA
ATOM      6  H   UNL A   1      31.035  28.234  24.778  1.00  0.00     0.163 HD
BRANCH   4   7
ATOM      7  C   UNL A   1      32.208  25.045  24.716  1.00  0.00     0.098 C 
ATOM      8  C   UNL A   1      32.065  21.430  22.101  1.00  0.00     0.039 C 
ATOM      9  C   UNL A   1      32.194  22.614  23.021  1.00  0.00    -0.076 C 
ATOM     10  C   UNL A   1      33.296  23.387  23.053  1.00  0.00    -0.024 C 
ATOM     11  C   UNL A   1      30.955  22.915  23.821  1.00  0.00     0.044 C 
ATOM     12  C   UNL A   1      33.400  24.709  23.781  1.00  0.00     0.022 C 
ATOM     13  C   UNL A   1      31.120  23.965  24.923  1.00  0.00     0.096 C 
ATOM     14  C   UNL A   1      34.758  24.957  24.462  1.00  0.00     0.013 C 
BRANCH  13  15
ATOM     15  C   UNL A   1      31.062  23.376  26.356  1.00  0.00     0.228 C 
ATOM     16  O   UNL A   1      30.304  23.879  27.192  1.00  0.00    -0.274 OA
ATOM     17  N   UNL A   1      31.710  22.223  26.713  1.00  0.00    -0.324 N 
ATOM     18  H   UNL A   1      31.257  21.685  27.402  1.00  0.00     0.169 HD
BRANCH  17  19
ATOM     19  C   UNL A   1      32.920  21.694  26.249  1.00  0.00     0.059 A 
ATOM     20  C   UNL A   1      34.129  22.297  26.551  1.00  0.00     0.029 A 
ATOM     21  C   UNL A   1      32.964  20.513  25.522  1.00  0.00     0.137 A 
ATOM     22  C   UNL A   1      35.314  21.811  26.001  1.00  0.00     0.022 A 
ATOM     23  N   UNL A   1      34.098  20.000  24.980  1.00  0.00    -0.263 NA
ATOM     24  C   UNL A   1      35.242  20.686  25.201  1.00  0.00     0.111 A 
ENDBRANCH  17  19
ENDBRANCH  13  15
ENDBRANCH   4   7
ENDBRANCH   2   3
ENDBRANCH   1   2
BRANCH   1  25
ATOM     25  C   UNL A   1      32.629  29.570  26.306  1.00  0.00     0.118 C 
BRANCH  25  26
ATOM     26  N   UNL A   1      32.495  31.009  26.526  1.00  0.00    -0.352 N 
ATOM     27  C   UNL A   1      33.275  31.857  27.271  1.00  0.00     0.251 C 
ATOM     28  H   UNL A   1      31.731  31.434  26.073  1.00  0.00     0.163 HD
ATOM     29  O   UNL A   1      32.890  33.003  27.496  1.00  0.00    -0.269 OA
BRANCH  27  30
ATOM     30  C   UNL A   1      34.559  31.375  27.813  1.00  0.00     0.039 A 
ATOM     31  C   UNL A   1      35.587  32.288  28.048  1.00  0.00     0.014 A 
ATOM     32  C   UNL A   1      34.728  30.024  28.122  1.00  0.00     0.014 A 
ATOM     33  C   UNL A   1      36.761  31.850  28.658  1.00  0.00     0.010 A 
ATOM     34  C   UNL A   1      35.835  29.620  28.850  1.00  0.00     0.010 A 
ATOM     35  C   UNL A   1      36.876  30.521  29.102  1.00  0.00    -0.014 A 
BRANCH  35  36
ATOM     36  C   UNL A   1      38.081  30.052  29.824  1.00  0.00     0.031 A 
ATOM     37  C   UNL A   1      38.360  30.536  31.222  1.00  0.00     0.074 A 
ATOM     38  C   UNL A   1      38.964  29.258  29.189  1.00  0.00     0.049 A 
ATOM     39  N   UNL A   1      39.371  30.257  32.001  1.00  0.00    -0.248 NA
ATOM     40  C   UNL A   1      37.399  31.485  31.808  1.00  0.00     0.031 C 
ATOM     41  C   UNL A   1      38.856  28.817  27.797  1.00  0.00     0.029 A 
ATOM     42  N   UNL A   1      40.137  28.700  29.625  1.00  0.00    -0.354 N 
ATOM     43  C   UNL A   1      39.184  31.018  33.149  1.00  0.00     0.074 A 
ATOM     44  C   UNL A   1      37.999  31.816  32.940  1.00  0.00     0.031 C 
ATOM     45  C   UNL A   1      39.911  28.044  27.498  1.00  0.00     0.029 A 
ATOM     46  C   UNL A   1      40.785  27.962  28.663  1.00  0.00     0.049 A 
ATOM     47  H   UNL A   1      40.484  28.816  30.539  1.00  0.00     0.167 HD
ATOM     48  C   UNL A   1      39.909  31.021  34.292  1.00  0.00     0.034 A 
ATOM     49  C   UNL A   1      41.955  27.299  28.713  1.00  0.00     0.034 A 
ATOM     50  C   UNL A   1      41.071  30.202  34.501  1.00  0.00     0.049 A 
ATOM     51  C   UNL A   1      42.721  27.275  30.005  1.00  0.00     0.074 A 
ATOM     52  C   UNL A   1      41.830  30.060  35.648  1.00  0.00     0.029 A 
ATOM     53  N   UNL A   1      41.651  29.395  33.534  1.00  0.00    -0.354 N 
ATOM     54  N   UNL A   1      42.437  27.866  31.142  1.00  0.00    -0.248 NA
ATOM     55  C   UNL A   1      43.943  26.463  30.038  1.00  0.00     0.031 C 
ATOM     56  C   UNL A   1      42.889  29.192  35.364  1.00  0.00     0.029 A 
ATOM     57  C   UNL A   1      42.768  28.762  34.051  1.00  0.00     0.049 A 
ATOM     58  H   UNL A   1      41.318  29.288  32.614  1.00  0.00     0.167 HD
ATOM     59  C   UNL A   1      43.431  27.480  32.031  1.00  0.00     0.074 A 
ATOM     60  C   UNL A   1      44.307  26.579  31.308  1.00  0.00     0.031 C 
ATOM     61  C   UNL A   1      43.612  27.847  33.324  1.00  0.00     0.034 A 
BRANCH  48  62
ATOM     62  C   UNL A   1      39.427  31.910  35.413  1.00  0.00     0.023 A 
ATOM     63  C   UNL A   1      38.500  31.409  36.352  1.00  0.00     0.012 A 
ATOM     64  C   UNL A   1      39.898  33.230  35.549  1.00  0.00     0.148 A 
ATOM     65  C   UNL A   1      38.010  32.221  37.373  1.00  0.00     0.002 A 
ATOM     66  C   UNL A   1      39.444  34.016  36.602  1.00  0.00     0.091 A 
ATOM     67  F   UNL A   1      40.760  33.700  34.636  1.00  0.00    -0.205 F 
ATOM     68  C   UNL A   1      38.489  33.520  37.503  1.00  0.00     0.022 A 
BRANCH  66  69
ATOM     69  S   UNL A   1      40.063  35.675  36.906  1.00  0.00     0.127 S 
ATOM     70  O   UNL A   1      39.376  36.021  38.151  1.00  0.00    -0.237 OA
ATOM     71  O   UNL A   1      41.500  35.446  37.047  1.00  0.00    -0.237 OA
ATOM     72  O   UNL A   1      39.684  36.464  35.742  1.00  0.00    -0.744 OA
ENDBRANCH  66  69
ENDBRANCH  48  62
BRANCH  49  73
ATOM     73  C   UNL A   1      42.432  26.561  27.510  1.00  0.00     0.023 A 
ATOM     74  C   UNL A   1      43.257  27.212  26.572  1.00  0.00     0.012 A 
ATOM     75  C   UNL A   1      42.125  25.199  27.329  1.00  0.00     0.148 A 
ATOM     76  C   UNL A   1      43.747  26.524  25.461  1.00  0.00     0.002 A 
ATOM     77  C   UNL A   1      42.665  24.505  26.252  1.00  0.00     0.091 A 
ATOM     78  F   UNL A   1      41.335  24.601  28.232  1.00  0.00    -0.205 F 
ATOM     79  C   UNL A   1      43.462  25.170  25.307  1.00  0.00     0.022 A 
BRANCH  77  80
ATOM     80  S   UNL A   1      42.471  22.731  26.053  1.00  0.00     0.127 S 
ATOM     81  O   UNL A   1      43.129  22.500  24.770  1.00  0.00    -0.237 OA
ATOM     82  O   UNL A   1      43.192  22.219  27.219  1.00  0.00    -0.237 OA
ATOM     83  O   UNL A   1      41.036  22.485  26.078  1.00  0.00    -0.744 OA
ENDBRANCH  77  80
ENDBRANCH  49  73
BRANCH  61  84
ATOM     84  C   UNL A   1      44.795  27.260  34.050  1.00  0.00     0.023 A 
ATOM     85  C   UNL A   1      46.039  27.922  34.019  1.00  0.00     0.012 A 
ATOM     86  C   UNL A   1      44.658  26.082  34.810  1.00  0.00     0.148 A 
ATOM     87  C   UNL A   1      47.138  27.398  34.696  1.00  0.00     0.002 A 
ATOM     88  C   UNL A   1      45.744  25.594  35.527  1.00  0.00     0.091 A 
ATOM     89  F   UNL A   1      43.472  25.457  34.814  1.00  0.00    -0.205 F 
ATOM     90  C   UNL A   1      46.989  26.242  35.458  1.00  0.00     0.022 A 
BRANCH  88  91
ATOM     91  S   UNL A   1      45.619  24.170  36.612  1.00  0.00     0.127 S 
ATOM     92  O   UNL A   1      45.113  23.145  35.701  1.00  0.00    -0.237 OA
ATOM     93  O   UNL A   1      47.007  23.979  37.034  1.00  0.00    -0.237 OA
ATOM     94  O   UNL A   1      44.710  24.558  37.683  1.00  0.00    -0.744 OA
ENDBRANCH  88  91
ENDBRANCH  61  84
ENDBRANCH  35  36
ENDBRANCH  27  30
ENDBRANCH  25  26
ENDBRANCH   1  25
TORSDOF 15
ENDMDL
MODEL 3
REMARK VINA RESULT:     -12.6      5.124     10.358
REMARK SMILES CC1=C[C@H](C)[C@@H](C(=O)NCCCNC(=O)c2ccc(-c3c4nc(c(-c5cccc(S(=O)(=O)[O-])c5F)c5ccc([nH]5)c(-c5cccc(S(=O)(=O)[O-])c5F)c5nc(c(-c6cccc(S(=O)(=O)[O-])c6F)c6ccc3[nH]6)C=C5)C=C4)cc2)[C@H](C(=O)Nc2cccnc2)C1
REMARK SMILES IDX 11 1 10 2 9 3 7 4 8 5 6 7 1 8 2 9 3 10 89 11 4 12 79 13 5 14
REMARK SMILES IDX 80 15 81 16 82 17 83 19 84 20 88 21 85 22 87 23 86 24 12 25
REMARK SMILES IDX 13 26 14 27 15 29 16 30 17 31 78 32 18 33 77 34 19 35 20 36
REMARK SMILES IDX 21 37 71 38 22 39 76 40 70 41 72 42 23 43 75 44 69 45 68 46
REMARK SMILES IDX 24 48 56 49 36 50 55 51 37 52 40 53 54 54 73 55 38 56 39 57
REMARK SMILES IDX 53 59 74 60 41 61 25 62 26 63 34 64 27 65 29 66 35 67 28 68
REMARK SMILES IDX 30 69 31 70 32 71 33 72 57 73 58 74 66 75 59 76 61 77 67 78
REMARK SMILES IDX 60 79 62 80 63 81 64 82 65 83 42 84 43 85 51 86 44 87 46 88
REMARK SMILES IDX 52 89 45 90 47 91 48 92 49 93 50 94
REMARK H PARENT 9 6 82 18 13 28 72 47 40 58
REMARK Flexibility Score: inf
ROOT
ATOM      1  C   UNL A   1      31.453  30.058  26.461  1.00  0.00     0.042 C 
ENDROOT
BRANCH   1   2
ATOM      2  C   UNL A   1      31.409  29.859  24.964  1.00  0.00     0.117 C 
BRANCH   2   3
ATOM      3  N   UNL A   1      32.717  29.699  24.362  1.00  0.00    -0.356 N 
ATOM      4  C   UNL A   1      33.347  28.577  23.910  1.00  0.00     0.224 C 
ATOM      5  O   UNL A   1      34.403  28.733  23.293  1.00  0.00    -0.275 OA
ATOM      6  H   UNL A   1      33.232  30.532  24.262  1.00  0.00     0.163 HD
BRANCH   4   7
ATOM      7  C   UNL A   1      32.778  27.166  24.134  1.00  0.00     0.098 C 
ATOM      8  C   UNL A   1      35.400  23.557  24.310  1.00  0.00     0.039 C 
ATOM      9  C   UNL A   1      34.453  24.728  24.307  1.00  0.00    -0.076 C 
ATOM     10  C   UNL A   1      34.025  25.313  25.441  1.00  0.00    -0.024 C 
ATOM     11  C   UNL A   1      34.111  25.245  22.936  1.00  0.00     0.044 C 
ATOM     12  C   UNL A   1      33.264  26.619  25.503  1.00  0.00     0.022 C 
ATOM     13  C   UNL A   1      32.986  26.282  22.882  1.00  0.00     0.096 C 
ATOM     14  C   UNL A   1      32.155  26.661  26.569  1.00  0.00     0.013 C 
BRANCH  13  15
ATOM     15  C   UNL A   1      31.678  25.746  22.247  1.00  0.00     0.228 C 
ATOM     16  O   UNL A   1      31.030  26.470  21.484  1.00  0.00    -0.274 OA
ATOM     17  N   UNL A   1      31.266  24.446  22.377  1.00  0.00    -0.324 N 
ATOM     18  H   UNL A   1      30.771  24.085  21.606  1.00  0.00     0.169 HD
BRANCH  17  19
ATOM     19  C   UNL A   1      31.440  23.552  23.440  1.00  0.00     0.059 A 
ATOM     20  C   UNL A   1      30.905  23.812  24.691  1.00  0.00     0.029 A 
ATOM     21  C   UNL A   1      32.099  22.343  23.270  1.00  0.00     0.137 A 
ATOM     22  C   UNL A   1      31.170  22.958  25.759  1.00  0.00     0.022 A 
ATOM     23  N   UNL A   1      32.365  21.478  24.283  1.00  0.00    -0.263 NA
ATOM     24  C   UNL A   1      31.927  21.828  25.512  1.00  0.00     0.111 A 
ENDBRANCH  17  19
ENDBRANCH  13  15
ENDBRANCH   4   7
ENDBRANCH   2   3
ENDBRANCH   1   2
BRANCH   1  25
ATOM     25  C   UNL A   1      32.822  30.494  26.930  1.00  0.00     0.118 C 
BRANCH  25  26
ATOM     26  N   UNL A   1      32.908  31.942  27.111  1.00  0.00    -0.352 N 
ATOM     27  C   UNL A   1      33.845  32.687  27.781  1.00  0.00     0.251 C 
ATOM     28  H   UNL A   1      32.187  32.461  26.688  1.00  0.00     0.163 HD
ATOM     29  O   UNL A   1      33.642  33.881  27.991  1.00  0.00    -0.269 OA
BRANCH  27  30
ATOM     30  C   UNL A   1      35.078  32.038  28.265  1.00  0.00     0.039 A 
ATOM     31  C   UNL A   1      36.263  32.772  28.312  1.00  0.00     0.014 A 
ATOM     32  C   UNL A   1      35.048  30.714  28.707  1.00  0.00     0.014 A 
ATOM     33  C   UNL A   1      37.402  32.192  28.867  1.00  0.00     0.010 A 
ATOM     34  C   UNL A   1      36.139  30.191  29.381  1.00  0.00     0.010 A 
ATOM     35  C   UNL A   1      37.336  30.912  29.445  1.00  0.00    -0.014 A 
BRANCH  35  36
ATOM     36  C   UNL A   1      38.512  30.307  30.112  1.00  0.00     0.031 A 
ATOM     37  C   UNL A   1      38.913  30.757  31.491  1.00  0.00     0.074 A 
ATOM     38  C   UNL A   1      39.265  29.414  29.442  1.00  0.00     0.049 A 
ATOM     39  N   UNL A   1      39.921  30.364  32.224  1.00  0.00    -0.248 NA
ATOM     40  C   UNL A   1      38.098  31.813  32.116  1.00  0.00     0.031 C 
ATOM     41  C   UNL A   1      39.040  28.987  28.059  1.00  0.00     0.029 A 
ATOM     42  N   UNL A   1      40.386  28.725  29.825  1.00  0.00    -0.354 N 
ATOM     43  C   UNL A   1      39.879  31.144  33.374  1.00  0.00     0.074 A 
ATOM     44  C   UNL A   1      38.786  32.074  33.216  1.00  0.00     0.031 C 
ATOM     45  C   UNL A   1      39.982  28.096  27.716  1.00  0.00     0.029 A 
ATOM     46  C   UNL A   1      40.896  27.915  28.838  1.00  0.00     0.049 A 
ATOM     47  H   UNL A   1      40.787  28.801  30.720  1.00  0.00     0.167 HD
ATOM     48  C   UNL A   1      40.654  31.065  34.481  1.00  0.00     0.034 A 
ATOM     49  C   UNL A   1      41.982  27.120  28.837  1.00  0.00     0.034 A 
ATOM     50  C   UNL A   1      41.721  30.116  34.640  1.00  0.00     0.049 A 
ATOM     51  C   UNL A   1      42.801  27.010  30.092  1.00  0.00     0.074 A 
ATOM     52  C   UNL A   1      42.513  29.889  35.751  1.00  0.00     0.029 A 
ATOM     53  N   UNL A   1      42.156  29.245  33.652  1.00  0.00    -0.354 N 
ATOM     54  N   UNL A   1      42.643  27.631  31.236  1.00  0.00    -0.248 NA
ATOM     55  C   UNL A   1      43.921  26.060  30.072  1.00  0.00     0.031 C 
ATOM     56  C   UNL A   1      43.449  28.902  35.422  1.00  0.00     0.029 A 
ATOM     57  C   UNL A   1      43.216  28.488  34.120  1.00  0.00     0.049 A 
ATOM     58  H   UNL A   1      41.769  29.176  32.750  1.00  0.00     0.167 HD
ATOM     59  C   UNL A   1      43.627  27.133  32.080  1.00  0.00     0.074 A 
ATOM     60  C   UNL A   1      44.356  26.135  31.323  1.00  0.00     0.031 C 
ATOM     61  C   UNL A   1      43.912  27.480  33.360  1.00  0.00     0.034 A 
BRANCH  48  62
ATOM     62  C   UNL A   1      40.333  32.005  35.616  1.00  0.00     0.023 A 
ATOM     63  C   UNL A   1      41.162  33.123  35.852  1.00  0.00     0.012 A 
ATOM     64  C   UNL A   1      39.209  31.797  36.439  1.00  0.00     0.148 A 
ATOM     65  C   UNL A   1      40.910  33.985  36.918  1.00  0.00     0.002 A 
ATOM     66  C   UNL A   1      38.935  32.692  37.467  1.00  0.00     0.091 A 
ATOM     67  F   UNL A   1      38.445  30.719  36.218  1.00  0.00    -0.205 F 
ATOM     68  C   UNL A   1      39.792  33.774  37.719  1.00  0.00     0.022 A 
BRANCH  66  69
ATOM     69  S   UNL A   1      37.473  32.557  38.502  1.00  0.00     0.127 S 
ATOM     70  O   UNL A   1      36.433  33.075  37.613  1.00  0.00    -0.237 OA
ATOM     71  O   UNL A   1      37.403  31.116  38.747  1.00  0.00    -0.237 OA
ATOM     72  O   UNL A   1      37.744  33.362  39.685  1.00  0.00    -0.744 OA
ENDBRANCH  66  69
ENDBRANCH  48  62
BRANCH  49  73
ATOM     73  C   UNL A   1      42.311  26.330  27.619  1.00  0.00     0.023 A 
ATOM     74  C   UNL A   1      43.088  26.911  26.597  1.00  0.00     0.012 A 
ATOM     75  C   UNL A   1      41.914  24.984  27.500  1.00  0.00     0.148 A 
ATOM     76  C   UNL A   1      43.441  26.172  25.467  1.00  0.00     0.002 A 
ATOM     77  C   UNL A   1      42.320  24.237  26.401  1.00  0.00     0.091 A 
ATOM     78  F   UNL A   1      41.173  24.453  28.483  1.00  0.00    -0.205 F 
ATOM     79  C   UNL A   1      43.068  24.834  25.374  1.00  0.00     0.022 A 
BRANCH  77  80
ATOM     80  S   UNL A   1      42.010  22.473  26.266  1.00  0.00     0.127 S 
ATOM     81  O   UNL A   1      40.551  22.426  26.231  1.00  0.00    -0.237 OA
ATOM     82  O   UNL A   1      42.670  22.150  25.000  1.00  0.00    -0.237 OA
ATOM     83  O   UNL A   1      42.631  21.872  27.438  1.00  0.00    -0.744 OA
ENDBRANCH  77  80
ENDBRANCH  49  73
BRANCH  61  84
ATOM     84  C   UNL A   1      45.052  26.760  34.033  1.00  0.00     0.023 A 
ATOM     85  C   UNL A   1      46.372  27.229  33.874  1.00  0.00     0.012 A 
ATOM     86  C   UNL A   1      44.808  25.653  34.869  1.00  0.00     0.148 A 
ATOM     87  C   UNL A   1      47.435  26.581  34.501  1.00  0.00     0.002 A 
ATOM     88  C   UNL A   1      45.867  25.045  35.535  1.00  0.00     0.091 A 
ATOM     89  F   UNL A   1      43.549  25.211  34.996  1.00  0.00    -0.205 F 
ATOM     90  C   UNL A   1      47.182  25.498  35.339  1.00  0.00     0.022 A 
BRANCH  88  91
ATOM     91  S   UNL A   1      45.625  23.709  36.709  1.00  0.00     0.127 S 
ATOM     92  O   UNL A   1      45.054  22.666  35.858  1.00  0.00    -0.237 OA
ATOM     93  O   UNL A   1      46.991  23.446  37.163  1.00  0.00    -0.237 OA
ATOM     94  O   UNL A   1      44.736  24.232  37.737  1.00  0.00    -0.744 OA
ENDBRANCH  88  91
ENDBRANCH  61  84
ENDBRANCH  35  36
ENDBRANCH  27  30
ENDBRANCH  25  26
ENDBRANCH   1  25
TORSDOF 15
ENDMDL
