MODEL 1
REMARK VINA RESULT:     -12.5      0.000      0.000
REMARK SMILES CC(C)C(=O)Nc1ccc2[nH]cc([C@@H](C(=O)NCCCNC(=O)c3ccc(-c4c5nc(c(-c6cccc(S(=O)(=O)[O-])c6F)c6ccc([nH]6)c(-c6cccc(S(=O)(=O)[O-])c6F)c6nc(c(-c7cccc(S(=O)(=O)[O-])c7F)c7ccc4[nH]7)C=C6)C=C5)cc3)[NH+]3CC[NH+](CCC#N)CC3)c2c1
REMARK SMILES IDX 18 1 17 2 15 3 16 4 14 6 13 7 7 8 8 9 98 10 9 11 97 12 10 13
REMARK SMILES IDX 11 14 12 15 6 17 4 18 5 19 2 21 1 22 3 23 87 24 88 25 96 26
REMARK SMILES IDX 89 28 95 29 90 30 91 32 92 33 93 34 94 35 19 36 20 37 21 38
REMARK SMILES IDX 22 39 23 41 24 42 25 43 86 44 26 45 85 46 27 47 28 48 29 49
REMARK SMILES IDX 79 50 30 51 84 52 78 53 80 54 31 55 83 56 77 57 76 58 32 60
REMARK SMILES IDX 64 61 44 62 63 63 45 64 48 65 62 66 81 67 46 68 47 69 61 71
REMARK SMILES IDX 82 72 49 73 33 74 34 75 42 76 35 77 37 78 43 79 36 80 38 81
REMARK SMILES IDX 39 82 40 83 41 84 65 85 66 86 74 87 67 88 69 89 75 90 68 91
REMARK SMILES IDX 70 92 71 93 72 94 73 95 50 96 51 97 59 98 52 99 54 100
REMARK SMILES IDX 60 101 53 102 55 103 56 104 57 105 58 106
REMARK H PARENT 17 5 11 16 6 20 87 27 90 31 21 40 80 59 48 70
REMARK Flexibility Score: inf
ROOT
ATOM      1  C   UNL A   1      32.991  26.800  26.622  1.00  0.00     0.118 C 
ENDROOT
BRANCH   1   2
ATOM      2  N   UNL A   1      31.873  25.988  27.055  1.00  0.00    -0.351 N 
ATOM      3  C   UNL A   1      31.238  25.003  26.347  1.00  0.00     0.283 C 
ATOM      4  O   UNL A   1      30.130  24.654  26.763  1.00  0.00    -0.268 OA
ATOM      5  H   UNL A   1      31.529  26.165  27.960  1.00  0.00     0.163 HD
BRANCH   3   6
ATOM      6  C   UNL A   1      32.002  24.343  25.178  1.00  0.00     0.308 C 
BRANCH   6   7
ATOM      7  C   UNL A   1      32.308  25.214  23.991  1.00  0.00     0.044 A 
ATOM      8  C   UNL A   1      29.481  27.614  23.218  1.00  0.00     0.041 A 
ATOM      9  C   UNL A   1      30.291  28.603  22.668  1.00  0.00     0.028 A 
ATOM     10  C   UNL A   1      30.027  26.431  23.707  1.00  0.00     0.037 A 
ATOM     11  C   UNL A   1      31.640  28.361  22.400  1.00  0.00     0.029 A 
ATOM     12  C   UNL A   1      31.391  26.181  23.475  1.00  0.00     0.011 A 
ATOM     13  C   UNL A   1      32.145  27.111  22.763  1.00  0.00     0.046 A 
ATOM     14  N   UNL A   1      33.394  26.566  22.585  1.00  0.00    -0.361 N 
ATOM     15  C   UNL A   1      33.495  25.395  23.299  1.00  0.00     0.094 A 
ATOM     16  H   UNL A   1      34.108  26.954  22.031  1.00  0.00     0.166 HD
BRANCH   8  17
ATOM     17  N   UNL A   1      28.099  27.762  23.276  1.00  0.00    -0.326 N 
ATOM     18  C   UNL A   1      27.407  28.913  23.012  1.00  0.00     0.226 C 
ATOM     19  O   UNL A   1      26.174  28.828  22.955  1.00  0.00    -0.274 OA
ATOM     20  H   UNL A   1      27.573  26.969  23.527  1.00  0.00     0.169 HD
BRANCH  18  21
ATOM     21  C   UNL A   1      28.103  30.247  22.697  1.00  0.00     0.072 C 
ATOM     22  C   UNL A   1      27.996  30.692  21.244  1.00  0.00     0.018 C 
ATOM     23  C   UNL A   1      27.749  31.366  23.678  1.00  0.00     0.018 C 
ENDBRANCH  18  21
ENDBRANCH   8  17
ENDBRANCH   6   7
BRANCH   6  24
ATOM     24  N   UNL A   1      31.308  23.119  24.740  1.00  0.00    -0.312 N 
ATOM     25  C   UNL A   1      31.410  22.862  23.301  1.00  0.00     0.325 C 
ATOM     26  C   UNL A   1      31.562  21.941  25.558  1.00  0.00     0.325 C 
ATOM     27  H   UNL A   1      30.324  23.329  24.908  1.00  0.00     0.349 HD
ATOM     28  C   UNL A   1      32.469  21.830  22.815  1.00  0.00     0.324 C 
ATOM     29  C   UNL A   1      32.731  21.024  25.139  1.00  0.00     0.324 C 
ATOM     30  N   UNL A   1      32.887  20.739  23.712  1.00  0.00    -0.325 N 
ATOM     31  H   UNL A   1      33.895  20.689  23.559  1.00  0.00     0.348 HD
BRANCH  30  32
ATOM     32  C   UNL A   1      32.360  19.439  23.348  1.00  0.00     0.278 C 
BRANCH  32  33
ATOM     33  C   UNL A   1      32.846  18.345  24.264  1.00  0.00     0.181 C 
BRANCH  33  34
ATOM     34  C   UNL A   1      33.551  17.251  23.480  1.00  0.00     0.068 C 
ATOM     35  N   UNL A   1      34.136  16.343  22.830  1.00  0.00    -0.198 NA
ENDBRANCH  33  34
ENDBRANCH  32  33
ENDBRANCH  30  32
ENDBRANCH   6  24
ENDBRANCH   3   6
ENDBRANCH   1   2
BRANCH   1  36
ATOM     36  C   UNL A   1      32.573  28.238  26.332  1.00  0.00     0.042 C 
BRANCH  36  37
ATOM     37  C   UNL A   1      33.737  29.104  25.874  1.00  0.00     0.118 C 
BRANCH  37  38
ATOM     38  N   UNL A   1      33.415  30.502  26.101  1.00  0.00    -0.352 N 
ATOM     39  C   UNL A   1      33.781  31.238  27.202  1.00  0.00     0.251 C 
ATOM     40  H   UNL A   1      32.889  30.962  25.407  1.00  0.00     0.163 HD
ATOM     41  O   UNL A   1      33.095  32.176  27.582  1.00  0.00    -0.269 OA
BRANCH  39  42
ATOM     42  C   UNL A   1      35.025  30.862  27.903  1.00  0.00     0.039 A 
ATOM     43  C   UNL A   1      36.136  31.704  27.859  1.00  0.00     0.014 A 
ATOM     44  C   UNL A   1      35.077  29.647  28.596  1.00  0.00     0.014 A 
ATOM     45  C   UNL A   1      37.307  31.322  28.517  1.00  0.00     0.010 A 
ATOM     46  C   UNL A   1      36.206  29.318  29.329  1.00  0.00     0.010 A 
ATOM     47  C   UNL A   1      37.348  30.126  29.254  1.00  0.00    -0.014 A 
BRANCH  47  48
ATOM     48  C   UNL A   1      38.597  29.641  29.887  1.00  0.00     0.031 A 
ATOM     49  C   UNL A   1      39.035  30.242  31.198  1.00  0.00     0.074 A 
ATOM     50  C   UNL A   1      39.371  28.746  29.248  1.00  0.00     0.049 A 
ATOM     51  N   UNL A   1      40.132  30.032  31.876  1.00  0.00    -0.248 NA
ATOM     52  C   UNL A   1      38.143  31.248  31.808  1.00  0.00     0.031 C 
ATOM     53  C   UNL A   1      39.093  28.168  27.931  1.00  0.00     0.029 A 
ATOM     54  N   UNL A   1      40.571  28.188  29.608  1.00  0.00    -0.354 N 
ATOM     55  C   UNL A   1      40.086  30.912  32.952  1.00  0.00     0.074 A 
ATOM     56  C   UNL A   1      38.874  31.686  32.821  1.00  0.00     0.031 C 
ATOM     57  C   UNL A   1      40.093  27.337  27.595  1.00  0.00     0.029 A 
ATOM     58  C   UNL A   1      41.091  27.338  28.660  1.00  0.00     0.049 A 
ATOM     59  H   UNL A   1      41.018  28.379  30.464  1.00  0.00     0.167 HD
ATOM     60  C   UNL A   1      40.958  31.037  33.979  1.00  0.00     0.034 A 
ATOM     61  C   UNL A   1      42.244  26.640  28.657  1.00  0.00     0.034 A 
ATOM     62  C   UNL A   1      42.110  30.198  34.149  1.00  0.00     0.049 A 
ATOM     63  C   UNL A   1      43.142  26.723  29.863  1.00  0.00     0.074 A 
ATOM     64  C   UNL A   1      42.990  30.151  35.214  1.00  0.00     0.029 A 
ATOM     65  N   UNL A   1      42.534  29.249  33.232  1.00  0.00    -0.354 N 
ATOM     66  N   UNL A   1      42.991  27.432  30.956  1.00  0.00    -0.248 NA
ATOM     67  C   UNL A   1      44.345  25.879  29.857  1.00  0.00     0.031 C 
ATOM     68  C   UNL A   1      43.954  29.178  34.936  1.00  0.00     0.029 A 
ATOM     69  C   UNL A   1      43.664  28.611  33.704  1.00  0.00     0.049 A 
ATOM     70  H   UNL A   1      42.093  29.058  32.372  1.00  0.00     0.167 HD
ATOM     71  C   UNL A   1      44.057  27.092  31.782  1.00  0.00     0.074 A 
ATOM     72  C   UNL A   1      44.833  26.097  31.072  1.00  0.00     0.031 C 
ATOM     73  C   UNL A   1      44.379  27.573  33.007  1.00  0.00     0.034 A 
BRANCH  60  74
ATOM     74  C   UNL A   1      40.660  32.063  35.040  1.00  0.00     0.023 A 
ATOM     75  C   UNL A   1      41.400  33.263  35.073  1.00  0.00     0.012 A 
ATOM     76  C   UNL A   1      39.603  31.876  35.952  1.00  0.00     0.148 A 
ATOM     77  C   UNL A   1      41.110  34.250  36.014  1.00  0.00     0.002 A 
ATOM     78  C   UNL A   1      39.291  32.883  36.858  1.00  0.00     0.091 A 
ATOM     79  F   UNL A   1      38.926  30.720  35.916  1.00  0.00    -0.205 F 
ATOM     80  C   UNL A   1      40.049  34.066  36.896  1.00  0.00     0.022 A 
BRANCH  78  81
ATOM     81  S   UNL A   1      37.897  32.781  37.985  1.00  0.00     0.127 S 
ATOM     82  O   UNL A   1      38.143  33.922  38.865  1.00  0.00    -0.237 OA
ATOM     83  O   UNL A   1      36.759  32.943  37.080  1.00  0.00    -0.237 OA
ATOM     84  O   UNL A   1      37.988  31.473  38.622  1.00  0.00    -0.744 OA
ENDBRANCH  78  81
ENDBRANCH  60  74
BRANCH  61  85
ATOM     85  C   UNL A   1      42.571  25.741  27.515  1.00  0.00     0.023 A 
ATOM     86  C   UNL A   1      43.381  26.223  26.468  1.00  0.00     0.012 A 
ATOM     87  C   UNL A   1      42.109  24.412  27.467  1.00  0.00     0.148 A 
ATOM     88  C   UNL A   1      43.693  25.410  25.377  1.00  0.00     0.002 A 
ATOM     89  C   UNL A   1      42.470  23.590  26.404  1.00  0.00     0.091 A 
ATOM     90  F   UNL A   1      41.328  23.971  28.464  1.00  0.00    -0.205 F 
ATOM     91  C   UNL A   1      43.246  24.092  25.349  1.00  0.00     0.022 A 
BRANCH  89  92
ATOM     92  S   UNL A   1      42.051  21.843  26.375  1.00  0.00     0.127 S 
ATOM     93  O   UNL A   1      42.377  21.432  27.737  1.00  0.00    -0.237 OA
ATOM     94  O   UNL A   1      40.620  21.871  26.066  1.00  0.00    -0.237 OA
ATOM     95  O   UNL A   1      42.872  21.270  25.316  1.00  0.00    -0.744 OA
ENDBRANCH  89  92
ENDBRANCH  61  85
BRANCH  73  96
ATOM     96  C   UNL A   1      45.599  27.010  33.680  1.00  0.00     0.023 A 
ATOM     97  C   UNL A   1      46.842  27.654  33.519  1.00  0.00     0.012 A 
ATOM     98  C   UNL A   1      45.497  25.901  34.542  1.00  0.00     0.148 A 
ATOM     99  C   UNL A   1      47.972  27.185  34.185  1.00  0.00     0.002 A 
ATOM    100  C   UNL A   1      46.618  25.468  35.239  1.00  0.00     0.091 A 
ATOM    101  F   UNL A   1      44.309  25.293  34.666  1.00  0.00    -0.205 F 
ATOM    102  C   UNL A   1      47.858  26.101  35.054  1.00  0.00     0.022 A 
BRANCH 100 103
ATOM    103  S   UNL A   1      46.538  24.145  36.451  1.00  0.00     0.127 S 
ATOM    104  O   UNL A   1      47.955  23.858  36.672  1.00  0.00    -0.237 OA
ATOM    105  O   UNL A   1      45.864  24.791  37.577  1.00  0.00    -0.237 OA
ATOM    106  O   UNL A   1      45.772  23.076  35.823  1.00  0.00    -0.744 OA
ENDBRANCH 100 103
ENDBRANCH  73  96
ENDBRANCH  47  48
ENDBRANCH  39  42
ENDBRANCH  37  38
ENDBRANCH  36  37
ENDBRANCH   1  36
TORSDOF 20
ENDMDL
MODEL 2
REMARK VINA RESULT:     -12.3      2.127      5.240
REMARK SMILES CC(C)C(=O)Nc1ccc2[nH]cc([C@@H](C(=O)NCCCNC(=O)c3ccc(-c4c5nc(c(-c6cccc(S(=O)(=O)[O-])c6F)c6ccc([nH]6)c(-c6cccc(S(=O)(=O)[O-])c6F)c6nc(c(-c7cccc(S(=O)(=O)[O-])c7F)c7ccc4[nH]7)C=C6)C=C5)cc3)[NH+]3CC[NH+](CCC#N)CC3)c2c1
REMARK SMILES IDX 18 1 17 2 15 3 16 4 14 6 13 7 7 8 8 9 98 10 9 11 97 12 10 13
REMARK SMILES IDX 11 14 12 15 6 17 4 18 5 19 2 21 1 22 3 23 87 24 88 25 96 26
REMARK SMILES IDX 89 28 95 29 90 30 91 32 92 33 93 34 94 35 19 36 20 37 21 38
REMARK SMILES IDX 22 39 23 41 24 42 25 43 86 44 26 45 85 46 27 47 28 48 29 49
REMARK SMILES IDX 79 50 30 51 84 52 78 53 80 54 31 55 83 56 77 57 76 58 32 60
REMARK SMILES IDX 64 61 44 62 63 63 45 64 48 65 62 66 81 67 46 68 47 69 61 71
REMARK SMILES IDX 82 72 49 73 33 74 34 75 42 76 35 77 37 78 43 79 36 80 38 81
REMARK SMILES IDX 39 82 40 83 41 84 65 85 66 86 74 87 67 88 69 89 75 90 68 91
REMARK SMILES IDX 70 92 71 93 72 94 73 95 50 96 51 97 59 98 52 99 54 100
REMARK SMILES IDX 60 101 53 102 55 103 56 104 57 105 58 106
REMARK H PARENT 17 5 11 16 6 20 87 27 90 31 21 40 80 59 48 70
REMARK Flexibility Score: inf
ROOT
ATOM      1  C   UNL A   1      33.702  28.139  25.064  1.00  0.00     0.118 C 
ENDROOT
BRANCH   1   2
ATOM      2  N   UNL A   1      33.897  27.566  23.748  1.00  0.00    -0.351 N 
ATOM      3  C   UNL A   1      33.284  26.459  23.224  1.00  0.00     0.283 C 
ATOM      4  O   UNL A   1      33.810  25.962  22.225  1.00  0.00    -0.268 OA
ATOM      5  H   UNL A   1      34.543  28.024  23.164  1.00  0.00     0.163 HD
BRANCH   3   6
ATOM      6  C   UNL A   1      31.946  26.007  23.849  1.00  0.00     0.308 C 
BRANCH   6   7
ATOM      7  C   UNL A   1      31.846  24.565  24.264  1.00  0.00     0.044 A 
ATOM      8  C   UNL A   1      34.800  23.478  26.371  1.00  0.00     0.041 A 
ATOM      9  C   UNL A   1      34.104  22.511  27.090  1.00  0.00     0.028 A 
ATOM     10  C   UNL A   1      34.164  24.244  25.399  1.00  0.00     0.037 A 
ATOM     11  C   UNL A   1      32.810  22.135  26.723  1.00  0.00     0.029 A 
ATOM     12  C   UNL A   1      32.849  23.902  25.037  1.00  0.00     0.011 A 
ATOM     13  C   UNL A   1      32.233  22.813  25.648  1.00  0.00     0.046 A 
ATOM     14  N   UNL A   1      31.018  22.638  25.030  1.00  0.00    -0.361 N 
ATOM     15  C   UNL A   1      30.786  23.678  24.160  1.00  0.00     0.094 A 
ATOM     16  H   UNL A   1      30.407  21.883  25.185  1.00  0.00     0.166 HD
BRANCH   8  17
ATOM     17  N   UNL A   1      36.159  23.694  26.580  1.00  0.00    -0.326 N 
ATOM     18  C   UNL A   1      37.178  23.112  25.877  1.00  0.00     0.226 C 
ATOM     19  O   UNL A   1      38.321  23.536  26.086  1.00  0.00    -0.274 OA
ATOM     20  H   UNL A   1      36.408  24.323  27.295  1.00  0.00     0.169 HD
BRANCH  18  21
ATOM     21  C   UNL A   1      36.938  22.045  24.797  1.00  0.00     0.072 C 
ATOM     22  C   UNL A   1      36.812  22.592  23.381  1.00  0.00     0.018 C 
ATOM     23  C   UNL A   1      37.905  20.863  24.882  1.00  0.00     0.018 C 
ENDBRANCH  18  21
ENDBRANCH   8  17
ENDBRANCH   6   7
BRANCH   6  24
ATOM     24  N   UNL A   1      30.823  26.356  22.962  1.00  0.00    -0.312 N 
ATOM     25  C   UNL A   1      29.546  26.523  23.661  1.00  0.00     0.325 C 
ATOM     26  C   UNL A   1      31.102  27.417  22.004  1.00  0.00     0.325 C 
ATOM     27  H   UNL A   1      30.709  25.524  22.383  1.00  0.00     0.349 HD
ATOM     28  C   UNL A   1      29.075  27.970  23.991  1.00  0.00     0.324 C 
ATOM     29  C   UNL A   1      30.775  28.864  22.431  1.00  0.00     0.324 C 
ATOM     30  N   UNL A   1      29.515  29.089  23.140  1.00  0.00    -0.325 N 
ATOM     31  H   UNL A   1      29.718  29.826  23.817  1.00  0.00     0.348 HD
BRANCH  30  32
ATOM     32  C   UNL A   1      28.479  29.615  22.272  1.00  0.00     0.278 C 
BRANCH  32  33
ATOM     33  C   UNL A   1      28.987  30.713  21.373  1.00  0.00     0.181 C 
BRANCH  33  34
ATOM     34  C   UNL A   1      28.609  32.080  21.918  1.00  0.00     0.068 C 
ATOM     35  N   UNL A   1      28.294  33.215  22.370  1.00  0.00    -0.198 NA
ENDBRANCH  33  34
ENDBRANCH  32  33
ENDBRANCH  30  32
ENDBRANCH   6  24
ENDBRANCH   3   6
ENDBRANCH   1   2
BRANCH   1  36
ATOM     36  C   UNL A   1      32.933  29.454  25.006  1.00  0.00     0.042 C 
BRANCH  36  37
ATOM     37  C   UNL A   1      32.557  29.973  26.386  1.00  0.00     0.118 C 
BRANCH  37  38
ATOM     38  N   UNL A   1      32.616  31.425  26.386  1.00  0.00    -0.352 N 
ATOM     39  C   UNL A   1      33.302  32.196  27.293  1.00  0.00     0.251 C 
ATOM     40  H   UNL A   1      32.123  31.896  25.677  1.00  0.00     0.163 HD
ATOM     41  O   UNL A   1      32.924  33.327  27.563  1.00  0.00    -0.269 OA
BRANCH  39  42
ATOM     42  C   UNL A   1      34.507  31.618  27.922  1.00  0.00     0.039 A 
ATOM     43  C   UNL A   1      34.541  30.265  28.257  1.00  0.00     0.014 A 
ATOM     44  C   UNL A   1      35.603  32.446  28.187  1.00  0.00     0.014 A 
ATOM     45  C   UNL A   1      35.685  29.742  28.864  1.00  0.00     0.010 A 
ATOM     46  C   UNL A   1      36.771  31.905  28.698  1.00  0.00     0.010 A 
ATOM     47  C   UNL A   1      36.805  30.560  29.089  1.00  0.00    -0.014 A 
BRANCH  47  48
ATOM     48  C   UNL A   1      38.000  30.067  29.813  1.00  0.00     0.031 A 
ATOM     49  C   UNL A   1      38.239  30.524  31.230  1.00  0.00     0.074 A 
ATOM     50  C   UNL A   1      38.903  29.300  29.176  1.00  0.00     0.049 A 
ATOM     51  N   UNL A   1      39.261  30.290  32.010  1.00  0.00    -0.248 NA
ATOM     52  C   UNL A   1      37.216  31.398  31.836  1.00  0.00     0.031 C 
ATOM     53  C   UNL A   1      38.821  28.875  27.777  1.00  0.00     0.029 A 
ATOM     54  N   UNL A   1      40.087  28.766  29.615  1.00  0.00    -0.354 N 
ATOM     55  C   UNL A   1      39.030  31.026  33.166  1.00  0.00     0.074 A 
ATOM     56  C   UNL A   1      37.791  31.745  32.977  1.00  0.00     0.031 C 
ATOM     57  C   UNL A   1      39.908  28.146  27.474  1.00  0.00     0.029 A 
ATOM     58  C   UNL A   1      40.771  28.068  28.647  1.00  0.00     0.049 A 
ATOM     59  H   UNL A   1      40.416  28.873  30.537  1.00  0.00     0.167 HD
ATOM     60  C   UNL A   1      39.764  31.069  34.302  1.00  0.00     0.034 A 
ATOM     61  C   UNL A   1      41.961  27.438  28.707  1.00  0.00     0.034 A 
ATOM     62  C   UNL A   1      40.942  30.278  34.516  1.00  0.00     0.049 A 
ATOM     63  C   UNL A   1      42.703  27.418  30.018  1.00  0.00     0.074 A 
ATOM     64  C   UNL A   1      41.692  30.147  35.669  1.00  0.00     0.029 A 
ATOM     65  N   UNL A   1      41.534  29.474  33.555  1.00  0.00    -0.354 N 
ATOM     66  N   UNL A   1      42.377  27.978  31.159  1.00  0.00    -0.248 NA
ATOM     67  C   UNL A   1      43.953  26.646  30.064  1.00  0.00     0.031 C 
ATOM     68  C   UNL A   1      42.745  29.267  35.403  1.00  0.00     0.029 A 
ATOM     69  C   UNL A   1      42.642  28.842  34.087  1.00  0.00     0.049 A 
ATOM     70  H   UNL A   1      41.212  29.367  32.630  1.00  0.00     0.167 HD
ATOM     71  C   UNL A   1      43.359  27.596  32.065  1.00  0.00     0.074 A 
ATOM     72  C   UNL A   1      44.278  26.739  31.347  1.00  0.00     0.031 C 
ATOM     73  C   UNL A   1      43.502  27.938  33.369  1.00  0.00     0.034 A 
BRANCH  60  74
ATOM     74  C   UNL A   1      39.275  31.939  35.429  1.00  0.00     0.023 A 
ATOM     75  C   UNL A   1      38.385  31.405  36.383  1.00  0.00     0.012 A 
ATOM     76  C   UNL A   1      39.754  33.254  35.591  1.00  0.00     0.148 A 
ATOM     77  C   UNL A   1      37.957  32.173  37.464  1.00  0.00     0.002 A 
ATOM     78  C   UNL A   1      39.359  33.999  36.696  1.00  0.00     0.091 A 
ATOM     79  F   UNL A   1      40.585  33.749  34.663  1.00  0.00    -0.205 F 
ATOM     80  C   UNL A   1      38.453  33.464  37.627  1.00  0.00     0.022 A 
BRANCH  78  81
ATOM     81  S   UNL A   1      39.997  35.641  37.042  1.00  0.00     0.127 S 
ATOM     82  O   UNL A   1      39.551  36.386  35.867  1.00  0.00    -0.237 OA
ATOM     83  O   UNL A   1      39.302  35.984  38.283  1.00  0.00    -0.237 OA
ATOM     84  O   UNL A   1      41.441  35.494  37.174  1.00  0.00    -0.744 OA
ENDBRANCH  78  81
ENDBRANCH  60  74
BRANCH  61  85
ATOM     85  C   UNL A   1      42.479  26.706  27.519  1.00  0.00     0.023 A 
ATOM     86  C   UNL A   1      43.182  27.415  26.525  1.00  0.00     0.012 A 
ATOM     87  C   UNL A   1      42.305  25.316  27.375  1.00  0.00     0.148 A 
ATOM     88  C   UNL A   1      43.668  26.760  25.392  1.00  0.00     0.002 A 
ATOM     89  C   UNL A   1      42.840  24.661  26.270  1.00  0.00     0.091 A 
ATOM     90  F   UNL A   1      41.622  24.657  28.321  1.00  0.00    -0.205 F 
ATOM     91  C   UNL A   1      43.506  25.383  25.269  1.00  0.00     0.022 A 
BRANCH  89  92
ATOM     92  S   UNL A   1      42.793  22.871  26.118  1.00  0.00     0.127 S 
ATOM     93  O   UNL A   1      42.932  22.687  24.676  1.00  0.00    -0.237 OA
ATOM     94  O   UNL A   1      43.957  22.461  26.905  1.00  0.00    -0.237 OA
ATOM     95  O   UNL A   1      41.517  22.470  26.697  1.00  0.00    -0.744 OA
ENDBRANCH  89  92
ENDBRANCH  61  85
BRANCH  73  96
ATOM     96  C   UNL A   1      44.670  27.361  34.119  1.00  0.00     0.023 A 
ATOM     97  C   UNL A   1      45.910  28.029  34.094  1.00  0.00     0.012 A 
ATOM     98  C   UNL A   1      44.514  26.213  34.919  1.00  0.00     0.148 A 
ATOM     99  C   UNL A   1      46.987  27.546  34.834  1.00  0.00     0.002 A 
ATOM    100  C   UNL A   1      45.578  25.764  35.690  1.00  0.00     0.091 A 
ATOM    101  F   UNL A   1      43.330  25.584  34.913  1.00  0.00    -0.205 F 
ATOM    102  C   UNL A   1      46.818  26.422  35.640  1.00  0.00     0.022 A 
BRANCH 100 103
ATOM    103  S   UNL A   1      45.418  24.386  36.831  1.00  0.00     0.127 S 
ATOM    104  O   UNL A   1      45.132  23.278  35.921  1.00  0.00    -0.237 OA
ATOM    105  O   UNL A   1      46.742  24.338  37.453  1.00  0.00    -0.237 OA
ATOM    106  O   UNL A   1      44.339  24.746  37.741  1.00  0.00    -0.744 OA
ENDBRANCH 100 103
ENDBRANCH  73  96
ENDBRANCH  47  48
ENDBRANCH  39  42
ENDBRANCH  37  38
ENDBRANCH  36  37
ENDBRANCH   1  36
TORSDOF 20
ENDMDL
MODEL 3
REMARK VINA RESULT:     -12.0      2.059      5.216
REMARK SMILES CC(C)C(=O)Nc1ccc2[nH]cc([C@@H](C(=O)NCCCNC(=O)c3ccc(-c4c5nc(c(-c6cccc(S(=O)(=O)[O-])c6F)c6ccc([nH]6)c(-c6cccc(S(=O)(=O)[O-])c6F)c6nc(c(-c7cccc(S(=O)(=O)[O-])c7F)c7ccc4[nH]7)C=C6)C=C5)cc3)[NH+]3CC[NH+](CCC#N)CC3)c2c1
REMARK SMILES IDX 18 1 17 2 15 3 16 4 14 6 13 7 7 8 8 9 98 10 9 11 97 12 10 13
REMARK SMILES IDX 11 14 12 15 6 17 4 18 5 19 2 21 1 22 3 23 87 24 88 25 96 26
REMARK SMILES IDX 89 28 95 29 90 30 91 32 92 33 93 34 94 35 19 36 20 37 21 38
REMARK SMILES IDX 22 39 23 41 24 42 25 43 86 44 26 45 85 46 27 47 28 48 29 49
REMARK SMILES IDX 79 50 30 51 84 52 78 53 80 54 31 55 83 56 77 57 76 58 32 60
REMARK SMILES IDX 64 61 44 62 63 63 45 64 48 65 62 66 81 67 46 68 47 69 61 71
REMARK SMILES IDX 82 72 49 73 33 74 34 75 42 76 35 77 37 78 43 79 36 80 38 81
REMARK SMILES IDX 39 82 40 83 41 84 65 85 66 86 74 87 67 88 69 89 75 90 68 91
REMARK SMILES IDX 70 92 71 93 72 94 73 95 50 96 51 97 59 98 52 99 54 100
REMARK SMILES IDX 60 101 53 102 55 103 56 104 57 105 58 106
REMARK H PARENT 17 5 11 16 6 20 87 27 90 31 21 40 80 59 48 70
REMARK Flexibility Score: inf
ROOT
ATOM      1  C   UNL A   1      32.684  27.153  26.394  1.00  0.00     0.118 C 
ENDROOT
BRANCH   1   2
ATOM      2  N   UNL A   1      33.325  27.138  25.095  1.00  0.00    -0.351 N 
ATOM      3  C   UNL A   1      33.202  26.186  24.119  1.00  0.00     0.283 C 
ATOM      4  O   UNL A   1      34.058  26.196  23.230  1.00  0.00    -0.268 OA
ATOM      5  H   UNL A   1      33.916  27.898  24.891  1.00  0.00     0.163 HD
BRANCH   3   6
ATOM      6  C   UNL A   1      31.958  25.271  24.150  1.00  0.00     0.308 C 
BRANCH   6   7
ATOM      7  C   UNL A   1      32.198  23.795  23.994  1.00  0.00     0.044 A 
ATOM      8  C   UNL A   1      35.123  22.598  26.082  1.00  0.00     0.041 A 
ATOM      9  C   UNL A   1      34.639  21.306  26.265  1.00  0.00     0.028 A 
ATOM     10  C   UNL A   1      34.403  23.536  25.350  1.00  0.00     0.037 A 
ATOM     11  C   UNL A   1      33.527  20.848  25.553  1.00  0.00     0.029 A 
ATOM     12  C   UNL A   1      33.262  23.103  24.651  1.00  0.00     0.011 A 
ATOM     13  C   UNL A   1      32.896  21.760  24.705  1.00  0.00     0.046 A 
ATOM     14  N   UNL A   1      31.833  21.597  23.851  1.00  0.00    -0.361 N 
ATOM     15  C   UNL A   1      31.420  22.823  23.385  1.00  0.00     0.094 A 
ATOM     16  H   UNL A   1      31.427  20.734  23.609  1.00  0.00     0.166 HD
BRANCH   8  17
ATOM     17  N   UNL A   1      36.353  22.988  26.604  1.00  0.00    -0.326 N 
ATOM     18  C   UNL A   1      37.569  22.809  26.003  1.00  0.00     0.226 C 
ATOM     19  O   UNL A   1      38.544  23.358  26.530  1.00  0.00    -0.274 OA
ATOM     20  H   UNL A   1      36.347  23.434  27.482  1.00  0.00     0.169 HD
BRANCH  18  21
ATOM     21  C   UNL A   1      37.735  22.050  24.676  1.00  0.00     0.072 C 
ATOM     22  C   UNL A   1      37.639  20.535  24.795  1.00  0.00     0.018 C 
ATOM     23  C   UNL A   1      36.866  22.603  23.545  1.00  0.00     0.018 C 
ENDBRANCH  18  21
ENDBRANCH   8  17
ENDBRANCH   6   7
BRANCH   6  24
ATOM     24  N   UNL A   1      30.963  25.727  23.164  1.00  0.00    -0.312 N 
ATOM     25  C   UNL A   1      29.685  26.135  23.756  1.00  0.00     0.325 C 
ATOM     26  C   UNL A   1      31.466  26.666  22.170  1.00  0.00     0.325 C 
ATOM     27  H   UNL A   1      30.756  24.886  22.627  1.00  0.00     0.349 HD
ATOM     28  C   UNL A   1      29.429  27.656  23.967  1.00  0.00     0.324 C 
ATOM     29  C   UNL A   1      31.344  28.171  22.489  1.00  0.00     0.324 C 
ATOM     30  N   UNL A   1      30.093  28.635  23.089  1.00  0.00    -0.325 N 
ATOM     31  H   UNL A   1      30.365  29.375  23.735  1.00  0.00     0.348 HD
BRANCH  30  32
ATOM     32  C   UNL A   1      29.211  29.253  22.118  1.00  0.00     0.278 C 
BRANCH  32  33
ATOM     33  C   UNL A   1      27.786  29.328  22.604  1.00  0.00     0.181 C 
BRANCH  33  34
ATOM     34  C   UNL A   1      27.491  30.688  23.215  1.00  0.00     0.068 C 
ATOM     35  N   UNL A   1      27.246  31.816  23.724  1.00  0.00    -0.198 NA
ENDBRANCH  33  34
ENDBRANCH  32  33
ENDBRANCH  30  32
ENDBRANCH   6  24
ENDBRANCH   3   6
ENDBRANCH   1   2
BRANCH   1  36
ATOM     36  C   UNL A   1      33.242  28.252  27.293  1.00  0.00     0.042 C 
BRANCH  36  37
ATOM     37  C   UNL A   1      34.325  29.073  26.608  1.00  0.00     0.118 C 
BRANCH  37  38
ATOM     38  N   UNL A   1      34.141  30.477  26.932  1.00  0.00    -0.352 N 
ATOM     39  C   UNL A   1      34.710  31.133  27.997  1.00  0.00     0.251 C 
ATOM     40  H   UNL A   1      33.559  31.004  26.339  1.00  0.00     0.163 HD
ATOM     41  O   UNL A   1      34.155  32.096  28.507  1.00  0.00    -0.269 OA
BRANCH  39  42
ATOM     42  C   UNL A   1      36.009  30.640  28.498  1.00  0.00     0.039 A 
ATOM     43  C   UNL A   1      37.199  31.191  28.021  1.00  0.00     0.014 A 
ATOM     44  C   UNL A   1      36.029  29.609  29.443  1.00  0.00     0.014 A 
ATOM     45  C   UNL A   1      38.416  30.700  28.498  1.00  0.00     0.010 A 
ATOM     46  C   UNL A   1      37.234  29.193  29.987  1.00  0.00     0.010 A 
ATOM     47  C   UNL A   1      38.439  29.698  29.482  1.00  0.00    -0.014 A 
BRANCH  47  48
ATOM     48  C   UNL A   1      39.707  29.087  29.946  1.00  0.00     0.031 A 
ATOM     49  C   UNL A   1      40.452  29.724  31.091  1.00  0.00     0.074 A 
ATOM     50  C   UNL A   1      40.227  28.036  29.286  1.00  0.00     0.049 A 
ATOM     51  N   UNL A   1      41.617  29.411  31.593  1.00  0.00    -0.248 NA
ATOM     52  C   UNL A   1      39.827  30.899  31.728  1.00  0.00     0.031 C 
ATOM     53  C   UNL A   1      39.640  27.398  28.107  1.00  0.00     0.029 A 
ATOM     54  N   UNL A   1      41.389  27.337  29.498  1.00  0.00    -0.354 N 
ATOM     55  C   UNL A   1      41.884  30.375  32.559  1.00  0.00     0.074 A 
ATOM     56  C   UNL A   1      40.781  31.307  32.551  1.00  0.00     0.031 C 
ATOM     57  C   UNL A   1      40.444  26.401  27.700  1.00  0.00     0.029 A 
ATOM     58  C   UNL A   1      41.611  26.343  28.574  1.00  0.00     0.049 A 
ATOM     59  H   UNL A   1      42.005  27.531  30.241  1.00  0.00     0.167 HD
ATOM     60  C   UNL A   1      42.937  30.454  33.404  1.00  0.00     0.034 A 
ATOM     61  C   UNL A   1      42.642  25.484  28.454  1.00  0.00     0.034 A 
ATOM     62  C   UNL A   1      43.980  29.470  33.469  1.00  0.00     0.049 A 
ATOM     63  C   UNL A   1      43.747  25.532  29.476  1.00  0.00     0.074 A 
ATOM     64  C   UNL A   1      45.026  29.383  34.369  1.00  0.00     0.029 A 
ATOM     65  N   UNL A   1      44.101  28.395  32.603  1.00  0.00    -0.354 N 
ATOM     66  N   UNL A   1      43.893  26.345  30.495  1.00  0.00    -0.248 NA
ATOM     67  C   UNL A   1      44.807  24.521  29.359  1.00  0.00     0.031 C 
ATOM     68  C   UNL A   1      45.785  28.257  34.041  1.00  0.00     0.029 A 
ATOM     69  C   UNL A   1      45.204  27.638  32.944  1.00  0.00     0.049 A 
ATOM     70  H   UNL A   1      43.490  28.201  31.855  1.00  0.00     0.167 HD
ATOM     71  C   UNL A   1      45.036  25.921  31.161  1.00  0.00     0.074 A 
ATOM     72  C   UNL A   1      45.532  24.765  30.443  1.00  0.00     0.031 C 
ATOM     73  C   UNL A   1      45.637  26.450  32.255  1.00  0.00     0.034 A 
BRANCH  60  74
ATOM     74  C   UNL A   1      42.976  31.599  34.382  1.00  0.00     0.023 A 
ATOM     75  C   UNL A   1      43.584  32.814  34.006  1.00  0.00     0.012 A 
ATOM     76  C   UNL A   1      42.345  31.500  35.638  1.00  0.00     0.148 A 
ATOM     77  C   UNL A   1      43.589  33.904  34.875  1.00  0.00     0.002 A 
ATOM     78  C   UNL A   1      42.314  32.606  36.480  1.00  0.00     0.091 A 
ATOM     79  F   UNL A   1      41.789  30.330  35.983  1.00  0.00    -0.205 F 
ATOM     80  C   UNL A   1      42.944  33.804  36.104  1.00  0.00     0.022 A 
BRANCH  78  81
ATOM     81  S   UNL A   1      41.444  32.609  38.051  1.00  0.00     0.127 S 
ATOM     82  O   UNL A   1      40.111  32.163  37.653  1.00  0.00    -0.237 OA
ATOM     83  O   UNL A   1      42.209  31.633  38.826  1.00  0.00    -0.237 OA
ATOM     84  O   UNL A   1      41.518  33.977  38.551  1.00  0.00    -0.744 OA
ENDBRANCH  78  81
ENDBRANCH  60  74
BRANCH  61  85
ATOM     85  C   UNL A   1      42.633  24.453  27.378  1.00  0.00     0.023 A 
ATOM     86  C   UNL A   1      43.238  24.744  26.140  1.00  0.00     0.012 A 
ATOM     87  C   UNL A   1      42.056  23.185  27.576  1.00  0.00     0.148 A 
ATOM     88  C   UNL A   1      43.235  23.805  25.107  1.00  0.00     0.002 A 
ATOM     89  C   UNL A   1      42.105  22.234  26.561  1.00  0.00     0.091 A 
ATOM     90  F   UNL A   1      41.471  22.926  28.755  1.00  0.00    -0.205 F 
ATOM     91  C   UNL A   1      42.677  22.548  25.320  1.00  0.00     0.022 A 
BRANCH  89  92
ATOM     92  S   UNL A   1      41.535  20.549  26.816  1.00  0.00     0.127 S 
ATOM     93  O   UNL A   1      41.650  19.986  25.473  1.00  0.00    -0.237 OA
ATOM     94  O   UNL A   1      42.505  20.035  27.784  1.00  0.00    -0.237 OA
ATOM     95  O   UNL A   1      40.183  20.677  27.345  1.00  0.00    -0.744 OA
ENDBRANCH  89  92
ENDBRANCH  61  85
BRANCH  73  96
ATOM     96  C   UNL A   1      46.874  25.770  32.770  1.00  0.00     0.023 A 
ATOM     97  C   UNL A   1      48.141  26.221  32.351  1.00  0.00     0.012 A 
ATOM     98  C   UNL A   1      46.784  24.749  33.736  1.00  0.00     0.148 A 
ATOM     99  C   UNL A   1      49.301  25.646  32.866  1.00  0.00     0.002 A 
ATOM    100  C   UNL A   1      47.944  24.213  34.279  1.00  0.00     0.091 A 
ATOM    101  F   UNL A   1      45.568  24.323  34.106  1.00  0.00    -0.205 F 
ATOM    102  C   UNL A   1      49.203  24.652  33.837  1.00  0.00     0.022 A 
BRANCH 100 103
ATOM    103  S   UNL A   1      47.909  23.001  35.604  1.00  0.00     0.127 S 
ATOM    104  O   UNL A   1      49.334  22.793  35.854  1.00  0.00    -0.237 OA
ATOM    105  O   UNL A   1      47.202  23.718  36.666  1.00  0.00    -0.237 OA
ATOM    106  O   UNL A   1      47.190  21.851  35.072  1.00  0.00    -0.744 OA
ENDBRANCH 100 103
ENDBRANCH  73  96
ENDBRANCH  47  48
ENDBRANCH  39  42
ENDBRANCH  37  38
ENDBRANCH  36  37
ENDBRANCH   1  36
TORSDOF 20
ENDMDL
