MODEL 1
REMARK VINA RESULT:     -12.8      0.000      0.000
REMARK SMILES Cc1ccnc(C(=O)c2[nH]c3ccc(OC(F)(F)F)cc3c2CC(=O)NCCCNC(=O)c2ccc(-c3c4nc(c(-c5cccc(S(=O)(=O)[O-])c5F)c5ccc([nH]5)c(-c5cccc(S(=O)(=O)[O-])c5F)c5nc(c(-c6cccc(S(=O)(=O)[O-])c6F)c6ccc3[nH]6)C=C5)C=C4)cc2)c1
REMARK SMILES IDX 28 1 27 2 26 3 24 4 25 5 23 7 22 8 9 9 10 10 11 11 21 13
REMARK SMILES IDX 12 14 20 15 13 16 14 17 7 18 8 19 6 20 1 21 2 22 3 23 96 24
REMARK SMILES IDX 4 25 5 26 15 27 16 28 17 29 18 30 19 31 29 32 30 33 31 34
REMARK SMILES IDX 32 36 33 37 34 38 95 39 35 40 94 41 36 42 37 43 38 44 88 45
REMARK SMILES IDX 39 46 93 47 87 48 89 49 40 50 92 51 86 52 85 53 41 55 73 56
REMARK SMILES IDX 53 57 72 58 54 59 57 60 71 61 90 62 55 63 56 64 70 66 91 67
REMARK SMILES IDX 58 68 42 69 43 70 51 71 44 72 46 73 52 74 45 75 47 76 48 77
REMARK SMILES IDX 49 78 50 79 74 80 75 81 83 82 76 83 78 84 84 85 77 86 79 87
REMARK SMILES IDX 80 88 81 89 82 90 59 91 60 92 68 93 61 94 63 95 69 96 62 97
REMARK SMILES IDX 64 98 65 99 66 100 67 101
REMARK H PARENT 26 6 10 12 30 35 89 54 57 65
REMARK Flexibility Score: inf
ROOT
ATOM      1  C   UNL A   1      32.396  27.978  26.350  1.00  0.00     0.042 C 
ENDROOT
BRANCH   1   2
ATOM      2  C   UNL A   1      33.016  26.619  26.037  1.00  0.00     0.117 C 
BRANCH   2   3
ATOM      3  N   UNL A   1      32.232  25.500  26.521  1.00  0.00    -0.356 N 
ATOM      4  C   UNL A   1      32.413  24.161  26.323  1.00  0.00     0.224 C 
ATOM      5  O   UNL A   1      31.740  23.384  27.008  1.00  0.00    -0.275 OA
ATOM      6  H   UNL A   1      31.453  25.742  27.072  1.00  0.00     0.163 HD
BRANCH   4   7
ATOM      7  C   UNL A   1      33.508  23.640  25.405  1.00  0.00     0.138 C 
BRANCH   7   8
ATOM      8  C   UNL A   1      33.033  22.991  24.135  1.00  0.00    -0.002 A 
ATOM      9  C   UNL A   1      32.734  23.614  22.926  1.00  0.00     0.093 A 
ATOM     10  N   UNL A   1      32.438  22.623  22.016  1.00  0.00    -0.352 N 
ATOM     11  C   UNL A   1      32.384  21.399  22.636  1.00  0.00     0.046 A 
ATOM     12  H   UNL A   1      32.287  22.772  21.054  1.00  0.00     0.167 HD
ATOM     13  C   UNL A   1      32.738  21.597  23.966  1.00  0.00     0.008 A 
ATOM     14  C   UNL A   1      32.071  20.139  22.117  1.00  0.00     0.030 A 
ATOM     15  C   UNL A   1      32.765  20.475  24.821  1.00  0.00     0.057 A 
ATOM     16  C   UNL A   1      32.112  19.041  22.988  1.00  0.00     0.049 A 
ATOM     17  C   UNL A   1      32.456  19.199  24.329  1.00  0.00     0.130 A 
BRANCH   9  18
ATOM     18  C   UNL A   1      32.793  25.026  22.588  1.00  0.00     0.227 C 
ATOM     19  O   UNL A   1      33.803  25.509  22.080  1.00  0.00    -0.285 OA
BRANCH  18  20
ATOM     20  C   UNL A   1      31.595  25.899  22.893  1.00  0.00     0.113 A 
ATOM     21  C   UNL A   1      30.237  29.407  22.373  1.00  0.00     0.044 C 
ATOM     22  C   UNL A   1      30.368  27.972  22.787  1.00  0.00    -0.047 A 
ATOM     23  C   UNL A   1      29.357  27.362  23.528  1.00  0.00     0.023 A 
ATOM     24  C   UNL A   1      31.501  27.220  22.453  1.00  0.00     0.036 A 
ATOM     25  C   UNL A   1      29.520  26.042  23.911  1.00  0.00     0.112 A 
ATOM     26  N   UNL A   1      30.609  25.305  23.616  1.00  0.00    -0.253 NA
ENDBRANCH  18  20
ENDBRANCH   9  18
BRANCH  17  27
ATOM     27  O   UNL A   1      32.539  18.211  25.270  1.00  0.00    -0.406 OA
BRANCH  27  28
ATOM     28  C   UNL A   1      33.378  17.102  24.993  1.00  0.00     0.573 C 
ATOM     29  F   UNL A   1      32.814  16.279  24.085  1.00  0.00    -0.132 F 
ATOM     30  F   UNL A   1      34.593  17.499  24.566  1.00  0.00    -0.132 F 
ATOM     31  F   UNL A   1      33.545  16.402  26.139  1.00  0.00    -0.132 F 
ENDBRANCH  27  28
ENDBRANCH  17  27
ENDBRANCH   7   8
ENDBRANCH   4   7
ENDBRANCH   2   3
ENDBRANCH   1   2
BRANCH   1  32
ATOM     32  C   UNL A   1      32.856  29.114  25.440  1.00  0.00     0.118 C 
BRANCH  32  33
ATOM     33  N   UNL A   1      32.426  30.426  25.911  1.00  0.00    -0.352 N 
ATOM     34  C   UNL A   1      32.951  31.245  26.880  1.00  0.00     0.251 C 
ATOM     35  H   UNL A   1      31.628  30.783  25.459  1.00  0.00     0.163 HD
ATOM     36  O   UNL A   1      32.318  32.241  27.225  1.00  0.00    -0.269 OA
BRANCH  34  37
ATOM     37  C   UNL A   1      34.252  30.946  27.523  1.00  0.00     0.039 A 
ATOM     38  C   UNL A   1      35.204  31.968  27.617  1.00  0.00     0.014 A 
ATOM     39  C   UNL A   1      34.565  29.665  27.985  1.00  0.00     0.014 A 
ATOM     40  C   UNL A   1      36.438  31.724  28.229  1.00  0.00     0.010 A 
ATOM     41  C   UNL A   1      35.772  29.438  28.648  1.00  0.00     0.010 A 
ATOM     42  C   UNL A   1      36.720  30.465  28.777  1.00  0.00    -0.014 A 
BRANCH  42  43
ATOM     43  C   UNL A   1      37.983  30.204  29.515  1.00  0.00     0.031 A 
ATOM     44  C   UNL A   1      39.015  29.264  28.953  1.00  0.00     0.074 A 
ATOM     45  C   UNL A   1      38.153  30.730  30.744  1.00  0.00     0.049 A 
ATOM     46  N   UNL A   1      40.128  28.844  29.496  1.00  0.00    -0.248 NA
ATOM     47  C   UNL A   1      38.751  28.707  27.617  1.00  0.00     0.031 C 
ATOM     48  C   UNL A   1      37.193  31.597  31.430  1.00  0.00     0.029 A 
ATOM     49  N   UNL A   1      39.176  30.586  31.648  1.00  0.00    -0.354 N 
ATOM     50  C   UNL A   1      40.678  27.945  28.591  1.00  0.00     0.074 A 
ATOM     51  C   UNL A   1      39.767  27.867  27.468  1.00  0.00     0.031 C 
ATOM     52  C   UNL A   1      37.666  31.898  32.649  1.00  0.00     0.029 A 
ATOM     53  C   UNL A   1      38.949  31.228  32.843  1.00  0.00     0.049 A 
ATOM     54  H   UNL A   1      39.993  30.071  31.460  1.00  0.00     0.167 HD
ATOM     55  C   UNL A   1      41.848  27.267  28.671  1.00  0.00     0.034 A 
ATOM     56  C   UNL A   1      39.686  31.269  33.971  1.00  0.00     0.034 A 
ATOM     57  C   UNL A   1      42.783  27.393  29.756  1.00  0.00     0.049 A 
ATOM     58  C   UNL A   1      41.007  30.551  34.013  1.00  0.00     0.074 A 
ATOM     59  C   UNL A   1      44.040  26.826  29.879  1.00  0.00     0.029 A 
ATOM     60  N   UNL A   1      42.566  28.136  30.906  1.00  0.00    -0.354 N 
ATOM     61  N   UNL A   1      41.585  29.838  33.077  1.00  0.00    -0.248 NA
ATOM     62  C   UNL A   1      41.792  30.669  35.250  1.00  0.00     0.031 C 
ATOM     63  C   UNL A   1      44.583  27.226  31.104  1.00  0.00     0.029 A 
ATOM     64  C   UNL A   1      43.662  28.040  31.745  1.00  0.00     0.049 A 
ATOM     65  H   UNL A   1      41.752  28.656  31.096  1.00  0.00     0.167 HD
ATOM     66  C   UNL A   1      42.811  29.445  33.601  1.00  0.00     0.074 A 
ATOM     67  C   UNL A   1      42.903  30.017  34.928  1.00  0.00     0.031 C 
ATOM     68  C   UNL A   1      43.766  28.664  33.039  1.00  0.00     0.034 A 
BRANCH  55  69
ATOM     69  C   UNL A   1      42.223  26.380  27.514  1.00  0.00     0.023 A 
ATOM     70  C   UNL A   1      42.982  26.920  26.456  1.00  0.00     0.012 A 
ATOM     71  C   UNL A   1      41.884  25.015  27.498  1.00  0.00     0.148 A 
ATOM     72  C   UNL A   1      43.378  26.119  25.386  1.00  0.00     0.002 A 
ATOM     73  C   UNL A   1      42.311  24.213  26.444  1.00  0.00     0.091 A 
ATOM     74  F   UNL A   1      41.138  24.525  28.499  1.00  0.00    -0.205 F 
ATOM     75  C   UNL A   1      43.052  24.765  25.385  1.00  0.00     0.022 A 
BRANCH  73  76
ATOM     76  S   UNL A   1      41.996  22.445  26.395  1.00  0.00     0.127 S 
ATOM     77  O   UNL A   1      40.539  22.409  26.264  1.00  0.00    -0.237 OA
ATOM     78  O   UNL A   1      42.724  22.029  25.194  1.00  0.00    -0.237 OA
ATOM     79  O   UNL A   1      42.532  21.914  27.638  1.00  0.00    -0.744 OA
ENDBRANCH  73  76
ENDBRANCH  55  69
BRANCH  56  80
ATOM     80  C   UNL A   1      39.219  32.088  35.124  1.00  0.00     0.023 A 
ATOM     81  C   UNL A   1      38.322  31.519  36.050  1.00  0.00     0.012 A 
ATOM     82  C   UNL A   1      39.696  33.395  35.345  1.00  0.00     0.148 A 
ATOM     83  C   UNL A   1      37.893  32.242  37.163  1.00  0.00     0.002 A 
ATOM     84  C   UNL A   1      39.305  34.092  36.484  1.00  0.00     0.091 A 
ATOM     85  F   UNL A   1      40.532  33.931  34.445  1.00  0.00    -0.205 F 
ATOM     86  C   UNL A   1      38.394  33.522  37.387  1.00  0.00     0.022 A 
BRANCH  84  87
ATOM     87  S   UNL A   1      40.020  35.686  36.907  1.00  0.00     0.127 S 
ATOM     88  O   UNL A   1      39.625  36.508  35.767  1.00  0.00    -0.237 OA
ATOM     89  O   UNL A   1      39.344  36.011  38.164  1.00  0.00    -0.237 OA
ATOM     90  O   UNL A   1      41.449  35.437  37.056  1.00  0.00    -0.744 OA
ENDBRANCH  84  87
ENDBRANCH  56  80
BRANCH  68  91
ATOM     91  C   UNL A   1      45.005  28.383  33.847  1.00  0.00     0.023 A 
ATOM     92  C   UNL A   1      46.088  29.282  33.781  1.00  0.00     0.012 A 
ATOM     93  C   UNL A   1      45.065  27.289  34.731  1.00  0.00     0.148 A 
ATOM     94  C   UNL A   1      47.220  29.085  34.569  1.00  0.00     0.002 A 
ATOM     95  C   UNL A   1      46.182  27.119  35.541  1.00  0.00     0.091 A 
ATOM     96  F   UNL A   1      44.033  26.432  34.761  1.00  0.00    -0.205 F 
ATOM     97  C   UNL A   1      47.263  28.012  35.457  1.00  0.00     0.022 A 
BRANCH  95  98
ATOM     98  S   UNL A   1      46.281  25.812  36.769  1.00  0.00     0.127 S 
ATOM     99  O   UNL A   1      47.584  26.069  37.377  1.00  0.00    -0.237 OA
ATOM    100  O   UNL A   1      45.136  26.103  37.635  1.00  0.00    -0.237 OA
ATOM    101  O   UNL A   1      46.166  24.563  36.025  1.00  0.00    -0.744 OA
ENDBRANCH  95  98
ENDBRANCH  68  91
ENDBRANCH  42  43
ENDBRANCH  34  37
ENDBRANCH  32  33
ENDBRANCH   1  32
TORSDOF 18
ENDMDL
MODEL 2
REMARK VINA RESULT:     -12.7      3.814      5.627
REMARK SMILES Cc1ccnc(C(=O)c2[nH]c3ccc(OC(F)(F)F)cc3c2CC(=O)NCCCNC(=O)c2ccc(-c3c4nc(c(-c5cccc(S(=O)(=O)[O-])c5F)c5ccc([nH]5)c(-c5cccc(S(=O)(=O)[O-])c5F)c5nc(c(-c6cccc(S(=O)(=O)[O-])c6F)c6ccc3[nH]6)C=C5)C=C4)cc2)c1
REMARK SMILES IDX 28 1 27 2 26 3 24 4 25 5 23 7 22 8 9 9 10 10 11 11 21 13
REMARK SMILES IDX 12 14 20 15 13 16 14 17 7 18 8 19 6 20 1 21 2 22 3 23 96 24
REMARK SMILES IDX 4 25 5 26 15 27 16 28 17 29 18 30 19 31 29 32 30 33 31 34
REMARK SMILES IDX 32 36 33 37 34 38 95 39 35 40 94 41 36 42 37 43 38 44 88 45
REMARK SMILES IDX 39 46 93 47 87 48 89 49 40 50 92 51 86 52 85 53 41 55 73 56
REMARK SMILES IDX 53 57 72 58 54 59 57 60 71 61 90 62 55 63 56 64 70 66 91 67
REMARK SMILES IDX 58 68 42 69 43 70 51 71 44 72 46 73 52 74 45 75 47 76 48 77
REMARK SMILES IDX 49 78 50 79 74 80 75 81 83 82 76 83 78 84 84 85 77 86 79 87
REMARK SMILES IDX 80 88 81 89 82 90 59 91 60 92 68 93 61 94 63 95 69 96 62 97
REMARK SMILES IDX 64 98 65 99 66 100 67 101
REMARK H PARENT 26 6 10 12 30 35 89 54 57 65
REMARK Flexibility Score: inf
ROOT
ATOM      1  C   UNL A   1      31.450  31.960  26.635  1.00  0.00     0.042 C 
ENDROOT
BRANCH   1   2
ATOM      2  C   UNL A   1      31.696  30.659  25.878  1.00  0.00     0.117 C 
BRANCH   2   3
ATOM      3  N   UNL A   1      32.500  29.704  26.614  1.00  0.00    -0.356 N 
ATOM      4  C   UNL A   1      33.069  28.537  26.191  1.00  0.00     0.224 C 
ATOM      5  O   UNL A   1      33.887  27.993  26.940  1.00  0.00    -0.275 OA
ATOM      6  H   UNL A   1      32.658  29.930  27.559  1.00  0.00     0.163 HD
BRANCH   4   7
ATOM      7  C   UNL A   1      32.822  28.001  24.789  1.00  0.00     0.138 C 
BRANCH   7   8
ATOM      8  C   UNL A   1      31.440  27.469  24.533  1.00  0.00    -0.002 A 
ATOM      9  C   UNL A   1      30.921  26.236  24.918  1.00  0.00     0.093 A 
ATOM     10  N   UNL A   1      29.591  26.220  24.560  1.00  0.00    -0.352 N 
ATOM     11  C   UNL A   1      29.277  27.334  23.821  1.00  0.00     0.046 A 
ATOM     12  H   UNL A   1      28.953  25.509  24.802  1.00  0.00     0.167 HD
ATOM     13  C   UNL A   1      30.416  28.130  23.774  1.00  0.00     0.008 A 
ATOM     14  C   UNL A   1      28.073  27.702  23.214  1.00  0.00     0.030 A 
ATOM     15  C   UNL A   1      30.347  29.350  23.069  1.00  0.00     0.057 A 
ATOM     16  C   UNL A   1      28.030  28.923  22.526  1.00  0.00     0.049 A 
ATOM     17  C   UNL A   1      29.152  29.746  22.450  1.00  0.00     0.130 A 
BRANCH   9  18
ATOM     18  C   UNL A   1      31.572  25.160  25.646  1.00  0.00     0.227 C 
ATOM     19  O   UNL A   1      31.144  24.791  26.737  1.00  0.00    -0.285 OA
BRANCH  18  20
ATOM     20  C   UNL A   1      32.801  24.514  25.046  1.00  0.00     0.113 A 
ATOM     21  C   UNL A   1      36.490  23.908  25.712  1.00  0.00     0.044 C 
ATOM     22  C   UNL A   1      35.134  23.905  25.072  1.00  0.00    -0.047 A 
ATOM     23  C   UNL A   1      34.948  23.303  23.828  1.00  0.00     0.023 A 
ATOM     24  C   UNL A   1      34.036  24.508  25.697  1.00  0.00     0.036 A 
ATOM     25  C   UNL A   1      33.687  23.337  23.258  1.00  0.00     0.112 A 
ATOM     26  N   UNL A   1      32.620  23.927  23.833  1.00  0.00    -0.253 NA
ENDBRANCH  18  20
ENDBRANCH   9  18
BRANCH  17  27
ATOM     27  O   UNL A   1      29.233  30.956  21.820  1.00  0.00    -0.406 OA
BRANCH  27  28
ATOM     28  C   UNL A   1      28.486  32.034  22.357  1.00  0.00     0.573 C 
ATOM     29  F   UNL A   1      29.272  33.108  22.580  1.00  0.00    -0.132 F 
ATOM     30  F   UNL A   1      27.459  32.370  21.552  1.00  0.00    -0.132 F 
ATOM     31  F   UNL A   1      27.974  31.642  23.547  1.00  0.00    -0.132 F 
ENDBRANCH  27  28
ENDBRANCH  17  27
ENDBRANCH   7   8
ENDBRANCH   4   7
ENDBRANCH   2   3
ENDBRANCH   1   2
BRANCH   1  32
ATOM     32  C   UNL A   1      32.685  32.547  27.314  1.00  0.00     0.118 C 
BRANCH  32  33
ATOM     33  N   UNL A   1      32.521  33.951  27.673  1.00  0.00    -0.352 N 
ATOM     34  C   UNL A   1      33.164  34.716  28.615  1.00  0.00     0.251 C 
ATOM     35  H   UNL A   1      31.836  34.430  27.153  1.00  0.00     0.163 HD
ATOM     36  O   UNL A   1      32.739  35.843  28.857  1.00  0.00    -0.269 OA
BRANCH  34  37
ATOM     37  C   UNL A   1      34.344  34.204  29.350  1.00  0.00     0.039 A 
ATOM     38  C   UNL A   1      34.136  33.366  30.452  1.00  0.00     0.014 A 
ATOM     39  C   UNL A   1      35.645  34.580  29.004  1.00  0.00     0.014 A 
ATOM     40  C   UNL A   1      35.227  32.854  31.162  1.00  0.00     0.010 A 
ATOM     41  C   UNL A   1      36.734  34.023  29.675  1.00  0.00     0.010 A 
ATOM     42  C   UNL A   1      36.536  33.155  30.759  1.00  0.00    -0.014 A 
BRANCH  42  43
ATOM     43  C   UNL A   1      37.714  32.552  31.436  1.00  0.00     0.031 A 
ATOM     44  C   UNL A   1      38.445  31.396  30.810  1.00  0.00     0.074 A 
ATOM     45  C   UNL A   1      38.059  32.976  32.668  1.00  0.00     0.049 A 
ATOM     46  N   UNL A   1      39.429  30.684  31.295  1.00  0.00    -0.248 NA
ATOM     47  C   UNL A   1      37.997  30.969  29.474  1.00  0.00     0.031 C 
ATOM     48  C   UNL A   1      37.383  34.039  33.413  1.00  0.00     0.029 A 
ATOM     49  N   UNL A   1      39.041  32.542  33.523  1.00  0.00    -0.354 N 
ATOM     50  C   UNL A   1      39.693  29.703  30.347  1.00  0.00     0.074 A 
ATOM     51  C   UNL A   1      38.753  29.900  29.264  1.00  0.00     0.031 C 
ATOM     52  C   UNL A   1      37.962  34.167  34.618  1.00  0.00     0.029 A 
ATOM     53  C   UNL A   1      39.033  33.183  34.741  1.00  0.00     0.049 A 
ATOM     54  H   UNL A   1      39.689  31.840  33.288  1.00  0.00     0.167 HD
ATOM     55  C   UNL A   1      40.648  28.743  30.361  1.00  0.00     0.034 A 
ATOM     56  C   UNL A   1      39.795  32.994  35.837  1.00  0.00     0.034 A 
ATOM     57  C   UNL A   1      41.623  28.587  31.407  1.00  0.00     0.049 A 
ATOM     58  C   UNL A   1      40.884  31.958  35.806  1.00  0.00     0.074 A 
ATOM     59  C   UNL A   1      42.693  27.710  31.464  1.00  0.00     0.029 A 
ATOM     60  N   UNL A   1      41.649  29.323  32.582  1.00  0.00    -0.354 N 
ATOM     61  N   UNL A   1      41.223  31.149  34.830  1.00  0.00    -0.248 NA
ATOM     62  C   UNL A   1      41.717  31.828  37.009  1.00  0.00     0.031 C 
ATOM     63  C   UNL A   1      43.364  27.915  32.673  1.00  0.00     0.029 A 
ATOM     64  C   UNL A   1      42.711  28.920  33.371  1.00  0.00     0.049 A 
ATOM     65  H   UNL A   1      41.005  30.030  32.818  1.00  0.00     0.167 HD
ATOM     66  C   UNL A   1      42.323  30.436  35.292  1.00  0.00     0.074 A 
ATOM     67  C   UNL A   1      42.607  30.922  36.626  1.00  0.00     0.031 C 
ATOM     68  C   UNL A   1      43.021  29.453  34.673  1.00  0.00     0.034 A 
BRANCH  55  69
ATOM     69  C   UNL A   1      40.738  27.827  29.170  1.00  0.00     0.023 A 
ATOM     70  C   UNL A   1      39.890  26.704  29.105  1.00  0.00     0.012 A 
ATOM     71  C   UNL A   1      41.604  28.104  28.096  1.00  0.00     0.148 A 
ATOM     72  C   UNL A   1      39.919  25.854  28.000  1.00  0.00     0.002 A 
ATOM     73  C   UNL A   1      41.605  27.272  26.982  1.00  0.00     0.091 A 
ATOM     74  F   UNL A   1      42.423  29.163  28.187  1.00  0.00    -0.205 F 
ATOM     75  C   UNL A   1      40.768  26.144  26.935  1.00  0.00     0.022 A 
BRANCH  73  76
ATOM     76  S   UNL A   1      42.616  27.608  25.535  1.00  0.00     0.127 S 
ATOM     77  O   UNL A   1      42.344  26.433  24.705  1.00  0.00    -0.237 OA
ATOM     78  O   UNL A   1      42.038  28.855  25.030  1.00  0.00    -0.237 OA
ATOM     79  O   UNL A   1      43.979  27.732  26.027  1.00  0.00    -0.744 OA
ENDBRANCH  73  76
ENDBRANCH  55  69
BRANCH  56  80
ATOM     80  C   UNL A   1      39.599  33.869  37.027  1.00  0.00     0.023 A 
ATOM     81  C   UNL A   1      40.003  35.216  36.960  1.00  0.00     0.012 A 
ATOM     82  C   UNL A   1      38.966  33.399  38.194  1.00  0.00     0.148 A 
ATOM     83  C   UNL A   1      39.800  36.075  38.040  1.00  0.00     0.002 A 
ATOM     84  C   UNL A   1      38.719  34.273  39.249  1.00  0.00     0.091 A 
ATOM     85  F   UNL A   1      38.605  32.109  38.252  1.00  0.00    -0.205 F 
ATOM     86  C   UNL A   1      39.147  35.608  39.178  1.00  0.00     0.022 A 
BRANCH  84  87
ATOM     87  S   UNL A   1      37.759  33.774  40.683  1.00  0.00     0.127 S 
ATOM     88  O   UNL A   1      36.569  33.196  40.066  1.00  0.00    -0.237 OA
ATOM     89  O   UNL A   1      38.646  32.809  41.336  1.00  0.00    -0.237 OA
ATOM     90  O   UNL A   1      37.555  34.996  41.452  1.00  0.00    -0.744 OA
ENDBRANCH  84  87
ENDBRANCH  56  80
BRANCH  68  91
ATOM     91  C   UNL A   1      44.172  28.835  35.420  1.00  0.00     0.023 A 
ATOM     92  C   UNL A   1      45.462  29.380  35.269  1.00  0.00     0.012 A 
ATOM     93  C   UNL A   1      43.966  27.781  36.330  1.00  0.00     0.148 A 
ATOM     94  C   UNL A   1      46.534  28.872  35.999  1.00  0.00     0.002 A 
ATOM     95  C   UNL A   1      45.034  27.304  37.083  1.00  0.00     0.091 A 
ATOM     96  F   UNL A   1      42.735  27.260  36.442  1.00  0.00    -0.205 F 
ATOM     97  C   UNL A   1      46.319  27.844  36.915  1.00  0.00     0.022 A 
BRANCH  95  98
ATOM     98  S   UNL A   1      44.824  26.039  38.342  1.00  0.00     0.127 S 
ATOM     99  O   UNL A   1      46.193  25.869  38.826  1.00  0.00    -0.237 OA
ATOM    100  O   UNL A   1      43.918  26.685  39.292  1.00  0.00    -0.237 OA
ATOM    101  O   UNL A   1      44.250  24.890  37.653  1.00  0.00    -0.744 OA
ENDBRANCH  95  98
ENDBRANCH  68  91
ENDBRANCH  42  43
ENDBRANCH  34  37
ENDBRANCH  32  33
ENDBRANCH   1  32
TORSDOF 18
ENDMDL
MODEL 3
REMARK VINA RESULT:     -12.7      2.473      7.834
REMARK SMILES Cc1ccnc(C(=O)c2[nH]c3ccc(OC(F)(F)F)cc3c2CC(=O)NCCCNC(=O)c2ccc(-c3c4nc(c(-c5cccc(S(=O)(=O)[O-])c5F)c5ccc([nH]5)c(-c5cccc(S(=O)(=O)[O-])c5F)c5nc(c(-c6cccc(S(=O)(=O)[O-])c6F)c6ccc3[nH]6)C=C5)C=C4)cc2)c1
REMARK SMILES IDX 28 1 27 2 26 3 24 4 25 5 23 7 22 8 9 9 10 10 11 11 21 13
REMARK SMILES IDX 12 14 20 15 13 16 14 17 7 18 8 19 6 20 1 21 2 22 3 23 96 24
REMARK SMILES IDX 4 25 5 26 15 27 16 28 17 29 18 30 19 31 29 32 30 33 31 34
REMARK SMILES IDX 32 36 33 37 34 38 95 39 35 40 94 41 36 42 37 43 38 44 88 45
REMARK SMILES IDX 39 46 93 47 87 48 89 49 40 50 92 51 86 52 85 53 41 55 73 56
REMARK SMILES IDX 53 57 72 58 54 59 57 60 71 61 90 62 55 63 56 64 70 66 91 67
REMARK SMILES IDX 58 68 42 69 43 70 51 71 44 72 46 73 52 74 45 75 47 76 48 77
REMARK SMILES IDX 49 78 50 79 74 80 75 81 83 82 76 83 78 84 84 85 77 86 79 87
REMARK SMILES IDX 80 88 81 89 82 90 59 91 60 92 68 93 61 94 63 95 69 96 62 97
REMARK SMILES IDX 64 98 65 99 66 100 67 101
REMARK H PARENT 26 6 10 12 30 35 89 54 57 65
REMARK Flexibility Score: inf
ROOT
ATOM      1  C   UNL A   1      33.137  27.965  26.612  1.00  0.00     0.042 C 
ENDROOT
BRANCH   1   2
ATOM      2  C   UNL A   1      33.396  26.576  26.037  1.00  0.00     0.117 C 
BRANCH   2   3
ATOM      3  N   UNL A   1      32.460  25.573  26.506  1.00  0.00    -0.356 N 
ATOM      4  C   UNL A   1      32.486  24.217  26.347  1.00  0.00     0.224 C 
ATOM      5  O   UNL A   1      31.692  23.545  27.014  1.00  0.00    -0.275 OA
ATOM      6  H   UNL A   1      31.691  25.921  27.013  1.00  0.00     0.163 HD
BRANCH   4   7
ATOM      7  C   UNL A   1      33.550  23.542  25.495  1.00  0.00     0.138 C 
BRANCH   7   8
ATOM      8  C   UNL A   1      33.061  22.923  24.216  1.00  0.00    -0.002 A 
ATOM      9  C   UNL A   1      32.769  23.571  23.019  1.00  0.00     0.093 A 
ATOM     10  N   UNL A   1      32.452  22.601  22.094  1.00  0.00    -0.352 N 
ATOM     11  C   UNL A   1      32.378  21.368  22.694  1.00  0.00     0.046 A 
ATOM     12  H   UNL A   1      32.301  22.768  21.135  1.00  0.00     0.167 HD
ATOM     13  C   UNL A   1      32.740  21.537  24.025  1.00  0.00     0.008 A 
ATOM     14  C   UNL A   1      32.041  20.123  22.155  1.00  0.00     0.030 A 
ATOM     15  C   UNL A   1      32.750  20.401  24.862  1.00  0.00     0.057 A 
ATOM     16  C   UNL A   1      32.065  19.010  23.007  1.00  0.00     0.049 A 
ATOM     17  C   UNL A   1      32.416  19.139  24.350  1.00  0.00     0.130 A 
BRANCH   9  18
ATOM     18  C   UNL A   1      32.852  24.987  22.704  1.00  0.00     0.227 C 
ATOM     19  O   UNL A   1      33.896  25.475  22.276  1.00  0.00    -0.285 OA
BRANCH  18  20
ATOM     20  C   UNL A   1      31.636  25.857  22.933  1.00  0.00     0.113 A 
ATOM     21  C   UNL A   1      30.284  29.345  22.279  1.00  0.00     0.044 C 
ATOM     22  C   UNL A   1      30.403  27.919  22.727  1.00  0.00    -0.047 A 
ATOM     23  C   UNL A   1      29.360  27.317  23.429  1.00  0.00     0.023 A 
ATOM     24  C   UNL A   1      31.555  27.169  22.463  1.00  0.00     0.036 A 
ATOM     25  C   UNL A   1      29.512  26.005  23.845  1.00  0.00     0.112 A 
ATOM     26  N   UNL A   1      30.619  25.271  23.617  1.00  0.00    -0.253 NA
ENDBRANCH  18  20
ENDBRANCH   9  18
BRANCH  17  27
ATOM     27  O   UNL A   1      32.484  18.134  25.273  1.00  0.00    -0.406 OA
BRANCH  27  28
ATOM     28  C   UNL A   1      33.376  17.062  25.021  1.00  0.00     0.573 C 
ATOM     29  F   UNL A   1      33.685  16.407  26.159  1.00  0.00    -0.132 F 
ATOM     30  F   UNL A   1      32.869  16.203  24.115  1.00  0.00    -0.132 F 
ATOM     31  F   UNL A   1      34.522  17.575  24.514  1.00  0.00    -0.132 F 
ENDBRANCH  27  28
ENDBRANCH  17  27
ENDBRANCH   7   8
ENDBRANCH   4   7
ENDBRANCH   2   3
ENDBRANCH   1   2
BRANCH   1  32
ATOM     32  C   UNL A   1      33.968  29.081  25.982  1.00  0.00     0.118 C 
BRANCH  32  33
ATOM     33  N   UNL A   1      33.817  30.357  26.671  1.00  0.00    -0.352 N 
ATOM     34  C   UNL A   1      34.545  30.915  27.693  1.00  0.00     0.251 C 
ATOM     35  H   UNL A   1      33.069  30.910  26.349  1.00  0.00     0.163 HD
ATOM     36  O   UNL A   1      34.127  31.938  28.232  1.00  0.00    -0.269 OA
BRANCH  34  37
ATOM     37  C   UNL A   1      35.809  30.303  28.165  1.00  0.00     0.039 A 
ATOM     38  C   UNL A   1      36.941  30.388  27.346  1.00  0.00     0.014 A 
ATOM     39  C   UNL A   1      35.880  29.603  29.372  1.00  0.00     0.014 A 
ATOM     40  C   UNL A   1      38.154  29.833  27.765  1.00  0.00     0.010 A 
ATOM     41  C   UNL A   1      37.103  29.101  29.817  1.00  0.00     0.010 A 
ATOM     42  C   UNL A   1      38.252  29.211  29.018  1.00  0.00    -0.014 A 
BRANCH  42  43
ATOM     43  C   UNL A   1      39.549  28.695  29.529  1.00  0.00     0.031 A 
ATOM     44  C   UNL A   1      40.279  29.418  30.628  1.00  0.00     0.074 A 
ATOM     45  C   UNL A   1      40.122  27.633  28.929  1.00  0.00     0.049 A 
ATOM     46  N   UNL A   1      41.459  29.170  31.134  1.00  0.00    -0.248 NA
ATOM     47  C   UNL A   1      39.604  30.584  31.221  1.00  0.00     0.031 C 
ATOM     48  C   UNL A   1      39.550  26.890  27.805  1.00  0.00     0.029 A 
ATOM     49  N   UNL A   1      41.328  27.017  29.156  1.00  0.00    -0.354 N 
ATOM     50  C   UNL A   1      41.688  30.169  32.073  1.00  0.00     0.074 A 
ATOM     51  C   UNL A   1      40.530  31.037  32.056  1.00  0.00     0.031 C 
ATOM     52  C   UNL A   1      40.408  25.927  27.433  1.00  0.00     0.029 A 
ATOM     53  C   UNL A   1      41.599  25.997  28.273  1.00  0.00     0.049 A 
ATOM     54  H   UNL A   1      41.940  27.280  29.880  1.00  0.00     0.167 HD
ATOM     55  C   UNL A   1      42.751  30.334  32.895  1.00  0.00     0.034 A 
ATOM     56  C   UNL A   1      42.687  25.211  28.149  1.00  0.00     0.034 A 
ATOM     57  C   UNL A   1      43.873  29.436  32.958  1.00  0.00     0.049 A 
ATOM     58  C   UNL A   1      43.831  25.380  29.111  1.00  0.00     0.074 A 
ATOM     59  C   UNL A   1      44.949  29.462  33.828  1.00  0.00     0.029 A 
ATOM     60  N   UNL A   1      44.066  28.351  32.117  1.00  0.00    -0.354 N 
ATOM     61  N   UNL A   1      43.953  26.230  30.102  1.00  0.00    -0.248 NA
ATOM     62  C   UNL A   1      44.970  24.464  28.961  1.00  0.00     0.031 C 
ATOM     63  C   UNL A   1      45.793  28.392  33.513  1.00  0.00     0.029 A 
ATOM     64  C   UNL A   1      45.243  27.702  32.444  1.00  0.00     0.049 A 
ATOM     65  H   UNL A   1      43.454  28.082  31.394  1.00  0.00     0.167 HD
ATOM     66  C   UNL A   1      45.167  25.934  30.709  1.00  0.00     0.074 A 
ATOM     67  C   UNL A   1      45.734  24.813  29.989  1.00  0.00     0.031 C 
ATOM     68  C   UNL A   1      45.768  26.549  31.757  1.00  0.00     0.034 A 
BRANCH  55  69
ATOM     69  C   UNL A   1      42.720  31.493  33.855  1.00  0.00     0.023 A 
ATOM     70  C   UNL A   1      43.230  32.739  33.440  1.00  0.00     0.012 A 
ATOM     71  C   UNL A   1      42.137  31.373  35.130  1.00  0.00     0.148 A 
ATOM     72  C   UNL A   1      43.184  33.844  34.289  1.00  0.00     0.002 A 
ATOM     73  C   UNL A   1      42.064  32.487  35.960  1.00  0.00     0.091 A 
ATOM     74  F   UNL A   1      41.680  30.173  35.518  1.00  0.00    -0.205 F 
ATOM     75  C   UNL A   1      42.592  33.720  35.543  1.00  0.00     0.022 A 
BRANCH  73  76
ATOM     76  S   UNL A   1      41.257  32.436  37.564  1.00  0.00     0.127 S 
ATOM     77  O   UNL A   1      39.952  31.869  37.221  1.00  0.00    -0.237 OA
ATOM     78  O   UNL A   1      42.128  31.538  38.326  1.00  0.00    -0.237 OA
ATOM     79  O   UNL A   1      41.243  33.810  38.043  1.00  0.00    -0.744 OA
ENDBRANCH  73  76
ENDBRANCH  55  69
BRANCH  56  80
ATOM     80  C   UNL A   1      42.704  24.138  27.115  1.00  0.00     0.023 A 
ATOM     81  C   UNL A   1      43.411  24.353  25.916  1.00  0.00     0.012 A 
ATOM     82  C   UNL A   1      42.081  22.893  27.331  1.00  0.00     0.148 A 
ATOM     83  C   UNL A   1      43.481  23.357  24.942  1.00  0.00     0.002 A 
ATOM     84  C   UNL A   1      42.197  21.885  26.379  1.00  0.00     0.091 A 
ATOM     85  F   UNL A   1      41.394  22.710  28.468  1.00  0.00    -0.205 F 
ATOM     86  C   UNL A   1      42.886  22.120  25.179  1.00  0.00     0.022 A 
BRANCH  84  87
ATOM     87  S   UNL A   1      41.578  20.225  26.680  1.00  0.00     0.127 S 
ATOM     88  O   UNL A   1      41.949  19.534  25.449  1.00  0.00    -0.237 OA
ATOM     89  O   UNL A   1      42.333  19.819  27.867  1.00  0.00    -0.237 OA
ATOM     90  O   UNL A   1      40.149  20.387  26.921  1.00  0.00    -0.744 OA
ENDBRANCH  84  87
ENDBRANCH  56  80
BRANCH  68  91
ATOM     91  C   UNL A   1      47.105  26.025  32.204  1.00  0.00     0.023 A 
ATOM     92  C   UNL A   1      47.168  25.153  33.309  1.00  0.00     0.012 A 
ATOM     93  C   UNL A   1      48.280  26.320  31.486  1.00  0.00     0.148 A 
ATOM     94  C   UNL A   1      48.384  24.597  33.704  1.00  0.00     0.002 A 
ATOM     95  C   UNL A   1      49.483  25.733  31.863  1.00  0.00     0.091 A 
ATOM     96  F   UNL A   1      48.202  27.171  30.452  1.00  0.00    -0.205 F 
ATOM     97  C   UNL A   1      49.538  24.876  32.975  1.00  0.00     0.022 A 
BRANCH  95  98
ATOM     98  S   UNL A   1      50.998  25.975  30.928  1.00  0.00     0.127 S 
ATOM     99  O   UNL A   1      50.596  25.545  29.590  1.00  0.00    -0.237 OA
ATOM    100  O   UNL A   1      51.226  27.415  31.063  1.00  0.00    -0.237 OA
ATOM    101  O   UNL A   1      52.002  25.146  31.583  1.00  0.00    -0.744 OA
ENDBRANCH  95  98
ENDBRANCH  68  91
ENDBRANCH  42  43
ENDBRANCH  34  37
ENDBRANCH  32  33
ENDBRANCH   1  32
TORSDOF 18
ENDMDL
