MODEL 1
REMARK VINA RESULT:     -11.1      0.000      0.000
REMARK SMILES COC[C@@H](C)CC(=O)N1[C@@H](C2CC2)SC[C@H]1C(=O)NCCCNC(=O)c1ccc(-c2c3nc(c(-c4cccc(S(=O)(=O)[O-])c4F)c4ccc([nH]4)c(-c4cccc(S(=O)(=O)[O-])c4F)c4nc(c(-c5cccc(S(=O)(=O)[O-])c5F)c5ccc2[nH]5)C=C4)C=C3)cc1
REMARK SMILES IDX 20 1 19 2 17 3 18 4 16 6 9 7 10 8 14 9 15 10 7 11 8 12 6 13
REMARK SMILES IDX 4 14 5 15 3 16 2 17 1 18 11 19 12 20 13 21 21 22 22 23 23 24
REMARK SMILES IDX 24 25 25 27 26 28 27 29 88 30 28 31 87 32 29 33 30 34 31 35
REMARK SMILES IDX 81 36 32 37 86 38 80 39 82 40 33 41 85 42 79 43 78 44 34 46
REMARK SMILES IDX 66 47 46 48 65 49 47 50 50 51 64 52 83 53 48 54 49 55 63 57
REMARK SMILES IDX 84 58 51 59 35 60 36 61 44 62 37 63 39 64 45 65 38 66 40 67
REMARK SMILES IDX 41 68 42 69 43 70 67 71 68 72 76 73 69 74 71 75 77 76 70 77
REMARK SMILES IDX 72 78 73 79 74 80 75 81 52 82 53 83 61 84 54 85 56 86 62 87
REMARK SMILES IDX 55 88 57 89 58 90 59 91 60 92
REMARK H PARENT 19 5 23 26 82 45 50 56
REMARK Flexibility Score: inf
ROOT
ATOM      1  C   UNL A   1      32.140  26.783  26.241  1.00  0.00     0.117 C 
ENDROOT
BRANCH   1   2
ATOM      2  N   UNL A   1      31.177  25.763  26.567  1.00  0.00    -0.354 N 
ATOM      3  C   UNL A   1      31.121  24.468  26.148  1.00  0.00     0.243 C 
ATOM      4  O   UNL A   1      30.448  23.690  26.836  1.00  0.00    -0.273 OA
ATOM      5  H   UNL A   1      30.457  26.040  27.179  1.00  0.00     0.163 HD
BRANCH   3   6
ATOM      6  C   UNL A   1      32.025  23.911  25.026  1.00  0.00     0.185 C 
ATOM      7  N   UNL A   1      32.916  22.769  25.298  1.00  0.00    -0.318 N 
ATOM      8  C   UNL A   1      32.910  21.720  24.280  1.00  0.00     0.147 C 
ATOM      9  S   UNL A   1      32.081  22.404  22.840  1.00  0.00    -0.134 SA
ATOM     10  C   UNL A   1      31.160  23.620  23.801  1.00  0.00     0.107 C 
BRANCH   7  11
ATOM     11  C   UNL A   1      33.913  22.990  26.239  1.00  0.00     0.224 C 
ATOM     12  O   UNL A   1      33.682  22.823  27.438  1.00  0.00    -0.275 OA
BRANCH  11  13
ATOM     13  C   UNL A   1      35.215  23.673  25.821  1.00  0.00     0.106 C 
BRANCH  13  14
ATOM     14  C   UNL A   1      36.537  22.915  26.019  1.00  0.00     0.021 C 
ATOM     15  C   UNL A   1      37.719  23.840  25.674  1.00  0.00     0.010 C 
BRANCH  14  16
ATOM     16  C   UNL A   1      36.600  21.664  25.138  1.00  0.00     0.163 C 
BRANCH  16  17
ATOM     17  O   UNL A   1      37.936  21.249  24.921  1.00  0.00    -0.384 OA
ATOM     18  C   UNL A   1      38.124  19.842  24.919  1.00  0.00     0.194 C 
ENDBRANCH  16  17
ENDBRANCH  14  16
ENDBRANCH  13  14
ENDBRANCH  11  13
ENDBRANCH   7  11
BRANCH   8  19
ATOM     19  C   UNL A   1      32.278  20.477  24.862  1.00  0.00     0.022 C 
ATOM     20  C   UNL A   1      32.386  19.058  24.330  1.00  0.00     0.007 C 
ATOM     21  C   UNL A   1      33.073  19.429  25.610  1.00  0.00     0.007 C 
ENDBRANCH   8  19
ENDBRANCH   3   6
ENDBRANCH   1   2
BRANCH   1  22
ATOM     22  C   UNL A   1      31.595  28.196  26.370  1.00  0.00     0.042 C 
BRANCH  22  23
ATOM     23  C   UNL A   1      32.490  29.243  25.730  1.00  0.00     0.118 C 
BRANCH  23  24
ATOM     24  N   UNL A   1      32.151  30.610  26.130  1.00  0.00    -0.352 N 
ATOM     25  C   UNL A   1      32.791  31.495  26.963  1.00  0.00     0.251 C 
ATOM     26  H   UNL A   1      31.319  30.955  25.734  1.00  0.00     0.163 HD
ATOM     27  O   UNL A   1      32.237  32.565  27.224  1.00  0.00    -0.269 OA
BRANCH  25  28
ATOM     28  C   UNL A   1      34.103  31.175  27.569  1.00  0.00     0.039 A 
ATOM     29  C   UNL A   1      35.040  32.200  27.741  1.00  0.00     0.014 A 
ATOM     30  C   UNL A   1      34.424  29.880  27.972  1.00  0.00     0.014 A 
ATOM     31  C   UNL A   1      36.253  31.938  28.385  1.00  0.00     0.010 A 
ATOM     32  C   UNL A   1      35.564  29.650  28.728  1.00  0.00     0.010 A 
ATOM     33  C   UNL A   1      36.504  30.669  28.929  1.00  0.00    -0.014 A 
BRANCH  33  34
ATOM     34  C   UNL A   1      37.741  30.365  29.697  1.00  0.00     0.031 A 
ATOM     35  C   UNL A   1      38.779  29.439  29.111  1.00  0.00     0.074 A 
ATOM     36  C   UNL A   1      37.881  30.832  30.954  1.00  0.00     0.049 A 
ATOM     37  N   UNL A   1      39.859  28.954  29.665  1.00  0.00    -0.248 NA
ATOM     38  C   UNL A   1      38.553  28.965  27.733  1.00  0.00     0.031 C 
ATOM     39  C   UNL A   1      36.911  31.670  31.664  1.00  0.00     0.029 A 
ATOM     40  N   UNL A   1      38.883  30.643  31.873  1.00  0.00    -0.354 N 
ATOM     41  C   UNL A   1      40.413  28.090  28.726  1.00  0.00     0.074 A 
ATOM     42  C   UNL A   1      39.523  28.076  27.587  1.00  0.00     0.031 C 
ATOM     43  C   UNL A   1      37.372  31.935  32.896  1.00  0.00     0.029 A 
ATOM     44  C   UNL A   1      38.647  31.252  33.083  1.00  0.00     0.049 A 
ATOM     45  H   UNL A   1      39.696  30.120  31.682  1.00  0.00     0.167 HD
ATOM     46  C   UNL A   1      41.576  27.401  28.785  1.00  0.00     0.034 A 
ATOM     47  C   UNL A   1      39.371  31.251  34.220  1.00  0.00     0.034 A 
ATOM     48  C   UNL A   1      42.483  27.459  29.898  1.00  0.00     0.049 A 
ATOM     49  C   UNL A   1      40.676  30.499  34.247  1.00  0.00     0.074 A 
ATOM     50  C   UNL A   1      43.723  26.860  30.031  1.00  0.00     0.029 A 
ATOM     51  N   UNL A   1      42.250  28.160  31.071  1.00  0.00    -0.354 N 
ATOM     52  N   UNL A   1      41.247  29.800  33.297  1.00  0.00    -0.248 NA
ATOM     53  C   UNL A   1      41.453  30.566  35.493  1.00  0.00     0.031 C 
ATOM     54  C   UNL A   1      44.229  27.181  31.294  1.00  0.00     0.029 A 
ATOM     55  C   UNL A   1      43.321  28.010  31.933  1.00  0.00     0.049 A 
ATOM     56  H   UNL A   1      41.441  28.689  31.262  1.00  0.00     0.167 HD
ATOM     57  C   UNL A   1      42.469  29.383  33.813  1.00  0.00     0.074 A 
ATOM     58  C   UNL A   1      42.562  29.925  35.152  1.00  0.00     0.031 C 
ATOM     59  C   UNL A   1      43.422  28.609  33.238  1.00  0.00     0.034 A 
BRANCH  46  60
ATOM     60  C   UNL A   1      41.966  26.575  27.585  1.00  0.00     0.023 A 
ATOM     61  C   UNL A   1      42.570  27.204  26.477  1.00  0.00     0.012 A 
ATOM     62  C   UNL A   1      41.792  25.177  27.575  1.00  0.00     0.148 A 
ATOM     63  C   UNL A   1      42.959  26.463  25.361  1.00  0.00     0.002 A 
ATOM     64  C   UNL A   1      42.229  24.439  26.480  1.00  0.00     0.091 A 
ATOM     65  F   UNL A   1      41.201  24.597  28.628  1.00  0.00    -0.205 F 
ATOM     66  C   UNL A   1      42.800  25.081  25.369  1.00  0.00     0.022 A 
BRANCH  64  67
ATOM     67  S   UNL A   1      42.147  22.645  26.420  1.00  0.00     0.127 S 
ATOM     68  O   UNL A   1      40.712  22.410  26.569  1.00  0.00    -0.237 OA
ATOM     69  O   UNL A   1      42.677  22.359  25.087  1.00  0.00    -0.237 OA
ATOM     70  O   UNL A   1      42.972  22.166  27.520  1.00  0.00    -0.744 OA
ENDBRANCH  64  67
ENDBRANCH  46  60
BRANCH  47  71
ATOM     71  C   UNL A   1      38.922  32.037  35.405  1.00  0.00     0.023 A 
ATOM     72  C   UNL A   1      39.133  33.430  35.428  1.00  0.00     0.012 A 
ATOM     73  C   UNL A   1      38.296  31.422  36.507  1.00  0.00     0.148 A 
ATOM     74  C   UNL A   1      38.775  34.188  36.542  1.00  0.00     0.002 A 
ATOM     75  C   UNL A   1      37.888  32.193  37.591  1.00  0.00     0.091 A 
ATOM     76  F   UNL A   1      38.109  30.095  36.473  1.00  0.00    -0.205 F 
ATOM     77  C   UNL A   1      38.146  33.573  37.620  1.00  0.00     0.022 A 
BRANCH  75  78
ATOM     78  S   UNL A   1      36.963  31.508  38.969  1.00  0.00     0.127 S 
ATOM     79  O   UNL A   1      36.718  30.141  38.515  1.00  0.00    -0.237 OA
ATOM     80  O   UNL A   1      37.923  31.629  40.068  1.00  0.00    -0.237 OA
ATOM     81  O   UNL A   1      35.783  32.350  39.107  1.00  0.00    -0.744 OA
ENDBRANCH  75  78
ENDBRANCH  47  71
BRANCH  59  82
ATOM     82  C   UNL A   1      44.679  28.350  34.026  1.00  0.00     0.023 A 
ATOM     83  C   UNL A   1      45.766  29.240  33.936  1.00  0.00     0.012 A 
ATOM     84  C   UNL A   1      44.751  27.256  34.912  1.00  0.00     0.148 A 
ATOM     85  C   UNL A   1      46.921  29.025  34.687  1.00  0.00     0.002 A 
ATOM     86  C   UNL A   1      45.883  27.079  35.697  1.00  0.00     0.091 A 
ATOM     87  F   UNL A   1      43.710  26.411  34.971  1.00  0.00    -0.205 F 
ATOM     88  C   UNL A   1      46.974  27.953  35.576  1.00  0.00     0.022 A 
BRANCH  86  89
ATOM     89  S   UNL A   1      46.000  25.789  36.941  1.00  0.00     0.127 S 
ATOM     90  O   UNL A   1      47.331  26.030  37.496  1.00  0.00    -0.237 OA
ATOM     91  O   UNL A   1      44.894  26.125  37.839  1.00  0.00    -0.237 OA
ATOM     92  O   UNL A   1      45.841  24.527  36.231  1.00  0.00    -0.744 OA
ENDBRANCH  86  89
ENDBRANCH  59  82
ENDBRANCH  33  34
ENDBRANCH  25  28
ENDBRANCH  23  24
ENDBRANCH  22  23
ENDBRANCH   1  22
TORSDOF 19
ENDMDL
MODEL 2
REMARK VINA RESULT:     -11.0      2.396      8.686
REMARK SMILES COC[C@@H](C)CC(=O)N1[C@@H](C2CC2)SC[C@H]1C(=O)NCCCNC(=O)c1ccc(-c2c3nc(c(-c4cccc(S(=O)(=O)[O-])c4F)c4ccc([nH]4)c(-c4cccc(S(=O)(=O)[O-])c4F)c4nc(c(-c5cccc(S(=O)(=O)[O-])c5F)c5ccc2[nH]5)C=C4)C=C3)cc1
REMARK SMILES IDX 20 1 19 2 17 3 18 4 16 6 9 7 10 8 14 9 15 10 7 11 8 12 6 13
REMARK SMILES IDX 4 14 5 15 3 16 2 17 1 18 11 19 12 20 13 21 21 22 22 23 23 24
REMARK SMILES IDX 24 25 25 27 26 28 27 29 88 30 28 31 87 32 29 33 30 34 31 35
REMARK SMILES IDX 81 36 32 37 86 38 80 39 82 40 33 41 85 42 79 43 78 44 34 46
REMARK SMILES IDX 66 47 46 48 65 49 47 50 50 51 64 52 83 53 48 54 49 55 63 57
REMARK SMILES IDX 84 58 51 59 35 60 36 61 44 62 37 63 39 64 45 65 38 66 40 67
REMARK SMILES IDX 41 68 42 69 43 70 67 71 68 72 76 73 69 74 71 75 77 76 70 77
REMARK SMILES IDX 72 78 73 79 74 80 75 81 52 82 53 83 61 84 54 85 56 86 62 87
REMARK SMILES IDX 55 88 57 89 58 90 59 91 60 92
REMARK H PARENT 19 5 23 26 82 45 50 56
REMARK Flexibility Score: inf
ROOT
ATOM      1  C   UNL A   1      31.993  27.545  26.269  1.00  0.00     0.117 C 
ENDROOT
BRANCH   1   2
ATOM      2  N   UNL A   1      30.956  26.620  26.651  1.00  0.00    -0.354 N 
ATOM      3  C   UNL A   1      30.310  25.693  25.890  1.00  0.00     0.243 C 
ATOM      4  O   UNL A   1      29.746  24.773  26.496  1.00  0.00    -0.273 OA
ATOM      5  H   UNL A   1      30.675  26.664  27.593  1.00  0.00     0.163 HD
BRANCH   3   6
ATOM      6  C   UNL A   1      30.454  25.622  24.354  1.00  0.00     0.185 C 
ATOM      7  N   UNL A   1      30.471  26.863  23.557  1.00  0.00    -0.318 N 
ATOM      8  C   UNL A   1      31.511  26.928  22.532  1.00  0.00     0.147 C 
ATOM      9  S   UNL A   1      32.166  25.264  22.355  1.00  0.00    -0.134 SA
ATOM     10  C   UNL A   1      31.675  24.768  24.017  1.00  0.00     0.107 C 
BRANCH   7  11
ATOM     11  C   UNL A   1      29.309  27.620  23.593  1.00  0.00     0.224 C 
ATOM     12  O   UNL A   1      28.207  27.070  23.520  1.00  0.00    -0.275 OA
BRANCH  11  13
ATOM     13  C   UNL A   1      29.388  29.143  23.475  1.00  0.00     0.106 C 
BRANCH  13  14
ATOM     14  C   UNL A   1      28.234  29.886  22.786  1.00  0.00     0.021 C 
ATOM     15  C   UNL A   1      28.616  30.191  21.326  1.00  0.00     0.010 C 
BRANCH  14  16
ATOM     16  C   UNL A   1      27.903  31.195  23.507  1.00  0.00     0.163 C 
BRANCH  16  17
ATOM     17  O   UNL A   1      27.921  32.296  22.617  1.00  0.00    -0.384 OA
ATOM     18  C   UNL A   1      28.795  33.348  22.998  1.00  0.00     0.194 C 
ENDBRANCH  16  17
ENDBRANCH  14  16
ENDBRANCH  13  14
ENDBRANCH  11  13
ENDBRANCH   7  11
BRANCH   8  19
ATOM     19  C   UNL A   1      32.519  27.984  22.923  1.00  0.00     0.022 C 
ATOM     20  C   UNL A   1      33.923  27.758  23.458  1.00  0.00     0.007 C 
ATOM     21  C   UNL A   1      33.730  28.310  22.077  1.00  0.00     0.007 C 
ENDBRANCH   8  19
ENDBRANCH   3   6
ENDBRANCH   1   2
BRANCH   1  22
ATOM     22  C   UNL A   1      31.610  29.002  26.472  1.00  0.00     0.042 C 
BRANCH  22  23
ATOM     23  C   UNL A   1      32.617  29.973  25.881  1.00  0.00     0.118 C 
BRANCH  23  24
ATOM     24  N   UNL A   1      32.462  31.339  26.385  1.00  0.00    -0.352 N 
ATOM     25  C   UNL A   1      33.204  32.063  27.285  1.00  0.00     0.251 C 
ATOM     26  H   UNL A   1      31.690  31.823  26.013  1.00  0.00     0.163 HD
ATOM     27  O   UNL A   1      32.797  33.175  27.626  1.00  0.00    -0.269 OA
BRANCH  25  28
ATOM     28  C   UNL A   1      34.452  31.521  27.869  1.00  0.00     0.039 A 
ATOM     29  C   UNL A   1      35.529  32.387  28.091  1.00  0.00     0.014 A 
ATOM     30  C   UNL A   1      34.577  30.174  28.202  1.00  0.00     0.014 A 
ATOM     31  C   UNL A   1      36.688  31.915  28.717  1.00  0.00     0.010 A 
ATOM     32  C   UNL A   1      35.668  29.738  28.941  1.00  0.00     0.010 A 
ATOM     33  C   UNL A   1      36.747  30.596  29.192  1.00  0.00    -0.014 A 
BRANCH  33  34
ATOM     34  C   UNL A   1      37.922  30.074  29.938  1.00  0.00     0.031 A 
ATOM     35  C   UNL A   1      38.200  30.564  31.338  1.00  0.00     0.074 A 
ATOM     36  C   UNL A   1      38.791  29.246  29.325  1.00  0.00     0.049 A 
ATOM     37  N   UNL A   1      39.232  30.328  32.106  1.00  0.00    -0.248 NA
ATOM     38  C   UNL A   1      37.207  31.472  31.940  1.00  0.00     0.031 C 
ATOM     39  C   UNL A   1      38.678  28.762  27.946  1.00  0.00     0.029 A 
ATOM     40  N   UNL A   1      39.963  28.686  29.772  1.00  0.00    -0.354 N 
ATOM     41  C   UNL A   1      39.033  31.087  33.255  1.00  0.00     0.074 A 
ATOM     42  C   UNL A   1      37.810  31.832  33.062  1.00  0.00     0.031 C 
ATOM     43  C   UNL A   1      39.724  27.968  27.668  1.00  0.00     0.029 A 
ATOM     44  C   UNL A   1      40.606  27.920  28.827  1.00  0.00     0.049 A 
ATOM     45  H   UNL A   1      40.309  28.820  30.684  1.00  0.00     0.167 HD
ATOM     46  C   UNL A   1      39.776  31.132  34.385  1.00  0.00     0.034 A 
ATOM     47  C   UNL A   1      41.781  27.261  28.887  1.00  0.00     0.034 A 
ATOM     48  C   UNL A   1      40.963  30.349  34.591  1.00  0.00     0.049 A 
ATOM     49  C   UNL A   1      42.573  27.306  30.167  1.00  0.00     0.074 A 
ATOM     50  C   UNL A   1      41.751  30.262  35.725  1.00  0.00     0.029 A 
ATOM     51  N   UNL A   1      41.534  29.515  33.643  1.00  0.00    -0.354 N 
ATOM     52  N   UNL A   1      42.294  27.921  31.291  1.00  0.00    -0.248 NA
ATOM     53  C   UNL A   1      43.823  26.535  30.200  1.00  0.00     0.031 C 
ATOM     54  C   UNL A   1      42.811  29.392  35.454  1.00  0.00     0.029 A 
ATOM     55  C   UNL A   1      42.663  28.909  34.164  1.00  0.00     0.049 A 
ATOM     56  H   UNL A   1      41.186  29.374  32.732  1.00  0.00     0.167 HD
ATOM     57  C   UNL A   1      43.309  27.575  32.177  1.00  0.00     0.074 A 
ATOM     58  C   UNL A   1      44.196  26.681  31.463  1.00  0.00     0.031 C 
ATOM     59  C   UNL A   1      43.499  27.973  33.458  1.00  0.00     0.034 A 
BRANCH  46  60
ATOM     60  C   UNL A   1      39.291  32.009  35.511  1.00  0.00     0.023 A 
ATOM     61  C   UNL A   1      38.381  31.487  36.454  1.00  0.00     0.012 A 
ATOM     62  C   UNL A   1      39.775  33.322  35.673  1.00  0.00     0.148 A 
ATOM     63  C   UNL A   1      37.931  32.268  37.518  1.00  0.00     0.002 A 
ATOM     64  C   UNL A   1      39.360  34.077  36.764  1.00  0.00     0.091 A 
ATOM     65  F   UNL A   1      40.625  33.808  34.758  1.00  0.00    -0.205 F 
ATOM     66  C   UNL A   1      38.429  33.558  37.679  1.00  0.00     0.022 A 
BRANCH  64  67
ATOM     67  S   UNL A   1      40.002  35.719  37.113  1.00  0.00     0.127 S 
ATOM     68  O   UNL A   1      41.429  35.449  37.277  1.00  0.00    -0.237 OA
ATOM     69  O   UNL A   1      39.656  36.447  35.892  1.00  0.00    -0.237 OA
ATOM     70  O   UNL A   1      39.314  36.176  38.311  1.00  0.00    -0.744 OA
ENDBRANCH  64  67
ENDBRANCH  46  60
BRANCH  47  71
ATOM     71  C   UNL A   1      42.253  26.449  27.729  1.00  0.00     0.023 A 
ATOM     72  C   UNL A   1      43.044  27.060  26.736  1.00  0.00     0.012 A 
ATOM     73  C   UNL A   1      41.923  25.086  27.598  1.00  0.00     0.148 A 
ATOM     74  C   UNL A   1      43.458  26.344  25.612  1.00  0.00     0.002 A 
ATOM     75  C   UNL A   1      42.387  24.363  26.505  1.00  0.00     0.091 A 
ATOM     76  F   UNL A   1      41.163  24.522  28.548  1.00  0.00    -0.205 F 
ATOM     77  C   UNL A   1      43.137  24.996  25.500  1.00  0.00     0.022 A 
BRANCH  75  78
ATOM     78  S   UNL A   1      42.127  22.594  26.335  1.00  0.00     0.127 S 
ATOM     79  O   UNL A   1      42.631  22.346  24.986  1.00  0.00    -0.237 OA
ATOM     80  O   UNL A   1      42.963  22.060  27.412  1.00  0.00    -0.237 OA
ATOM     81  O   UNL A   1      40.698  22.388  26.524  1.00  0.00    -0.744 OA
ENDBRANCH  75  78
ENDBRANCH  47  71
BRANCH  59  82
ATOM     82  C   UNL A   1      44.677  27.398  34.200  1.00  0.00     0.023 A 
ATOM     83  C   UNL A   1      45.935  28.026  34.125  1.00  0.00     0.012 A 
ATOM     84  C   UNL A   1      44.514  26.270  35.029  1.00  0.00     0.148 A 
ATOM     85  C   UNL A   1      47.022  27.519  34.833  1.00  0.00     0.002 A 
ATOM     86  C   UNL A   1      45.589  25.803  35.775  1.00  0.00     0.091 A 
ATOM     87  F   UNL A   1      43.312  25.677  35.075  1.00  0.00    -0.205 F 
ATOM     88  C   UNL A   1      46.847  26.417  35.667  1.00  0.00     0.022 A 
BRANCH  86  89
ATOM     89  S   UNL A   1      45.432  24.455  36.951  1.00  0.00     0.127 S 
ATOM     90  O   UNL A   1      46.642  24.619  37.756  1.00  0.00    -0.237 OA
ATOM     91  O   UNL A   1      44.188  24.793  37.643  1.00  0.00    -0.237 OA
ATOM     92  O   UNL A   1      45.372  23.233  36.160  1.00  0.00    -0.744 OA
ENDBRANCH  86  89
ENDBRANCH  59  82
ENDBRANCH  33  34
ENDBRANCH  25  28
ENDBRANCH  23  24
ENDBRANCH  22  23
ENDBRANCH   1  22
TORSDOF 19
ENDMDL
MODEL 3
REMARK VINA RESULT:     -10.9      5.292      7.596
REMARK SMILES COC[C@@H](C)CC(=O)N1[C@@H](C2CC2)SC[C@H]1C(=O)NCCCNC(=O)c1ccc(-c2c3nc(c(-c4cccc(S(=O)(=O)[O-])c4F)c4ccc([nH]4)c(-c4cccc(S(=O)(=O)[O-])c4F)c4nc(c(-c5cccc(S(=O)(=O)[O-])c5F)c5ccc2[nH]5)C=C4)C=C3)cc1
REMARK SMILES IDX 20 1 19 2 17 3 18 4 16 6 9 7 10 8 14 9 15 10 7 11 8 12 6 13
REMARK SMILES IDX 4 14 5 15 3 16 2 17 1 18 11 19 12 20 13 21 21 22 22 23 23 24
REMARK SMILES IDX 24 25 25 27 26 28 27 29 88 30 28 31 87 32 29 33 30 34 31 35
REMARK SMILES IDX 81 36 32 37 86 38 80 39 82 40 33 41 85 42 79 43 78 44 34 46
REMARK SMILES IDX 66 47 46 48 65 49 47 50 50 51 64 52 83 53 48 54 49 55 63 57
REMARK SMILES IDX 84 58 51 59 35 60 36 61 44 62 37 63 39 64 45 65 38 66 40 67
REMARK SMILES IDX 41 68 42 69 43 70 67 71 68 72 76 73 69 74 71 75 77 76 70 77
REMARK SMILES IDX 72 78 73 79 74 80 75 81 52 82 53 83 61 84 54 85 56 86 62 87
REMARK SMILES IDX 55 88 57 89 58 90 59 91 60 92
REMARK H PARENT 19 5 23 26 82 45 50 56
REMARK Flexibility Score: inf
ROOT
ATOM      1  C   UNL A   1      35.882  23.676  23.949  1.00  0.00     0.117 C 
ENDROOT
BRANCH   1   2
ATOM      2  N   UNL A   1      35.319  24.279  25.130  1.00  0.00    -0.354 N 
ATOM      3  C   UNL A   1      34.367  25.247  25.230  1.00  0.00     0.243 C 
ATOM      4  O   UNL A   1      33.777  25.336  26.315  1.00  0.00    -0.273 OA
ATOM      5  H   UNL A   1      35.673  23.944  25.986  1.00  0.00     0.163 HD
BRANCH   3   6
ATOM      6  C   UNL A   1      33.852  26.045  24.012  1.00  0.00     0.185 C 
ATOM      7  N   UNL A   1      32.622  25.620  23.319  1.00  0.00    -0.318 N 
ATOM      8  C   UNL A   1      31.681  26.694  23.009  1.00  0.00     0.147 C 
ATOM      9  S   UNL A   1      32.564  28.241  23.251  1.00  0.00    -0.134 SA
ATOM     10  C   UNL A   1      33.749  27.519  24.403  1.00  0.00     0.107 C 
BRANCH   7  11
ATOM     11  C   UNL A   1      32.673  24.374  22.709  1.00  0.00     0.224 C 
ATOM     12  O   UNL A   1      33.127  24.261  21.568  1.00  0.00    -0.275 OA
BRANCH  11  13
ATOM     13  C   UNL A   1      31.947  23.187  23.341  1.00  0.00     0.106 C 
BRANCH  13  14
ATOM     14  C   UNL A   1      32.666  21.830  23.391  1.00  0.00     0.021 C 
ATOM     15  C   UNL A   1      31.927  20.822  22.492  1.00  0.00     0.010 C 
BRANCH  14  16
ATOM     16  C   UNL A   1      32.729  21.284  24.819  1.00  0.00     0.163 C 
BRANCH  16  17
ATOM     17  O   UNL A   1      31.982  20.089  24.951  1.00  0.00    -0.384 OA
ATOM     18  C   UNL A   1      32.741  18.960  25.355  1.00  0.00     0.194 C 
ENDBRANCH  16  17
ENDBRANCH  14  16
ENDBRANCH  13  14
ENDBRANCH  11  13
ENDBRANCH   7  11
BRANCH   8  19
ATOM     19  C   UNL A   1      30.440  26.517  23.853  1.00  0.00     0.022 C 
ATOM     20  C   UNL A   1      29.098  27.203  23.667  1.00  0.00     0.007 C 
ATOM     21  C   UNL A   1      29.232  25.738  23.379  1.00  0.00     0.007 C 
ENDBRANCH   8  19
ENDBRANCH   3   6
ENDBRANCH   1   2
BRANCH   1  22
ATOM     22  C   UNL A   1      36.254  22.215  24.132  1.00  0.00     0.042 C 
BRANCH  22  23
ATOM     23  C   UNL A   1      36.581  21.856  25.571  1.00  0.00     0.118 C 
BRANCH  23  24
ATOM     24  N   UNL A   1      37.700  20.920  25.690  1.00  0.00    -0.352 N 
ATOM     25  C   UNL A   1      39.008  21.114  26.060  1.00  0.00     0.251 C 
ATOM     26  H   UNL A   1      37.476  19.989  25.465  1.00  0.00     0.163 HD
ATOM     27  O   UNL A   1      39.792  20.167  25.976  1.00  0.00    -0.269 OA
BRANCH  25  28
ATOM     28  C   UNL A   1      39.493  22.435  26.521  1.00  0.00     0.039 A 
ATOM     29  C   UNL A   1      40.511  22.488  27.480  1.00  0.00     0.014 A 
ATOM     30  C   UNL A   1      38.960  23.622  26.022  1.00  0.00     0.014 A 
ATOM     31  C   UNL A   1      41.040  23.722  27.869  1.00  0.00     0.010 A 
ATOM     32  C   UNL A   1      39.575  24.834  26.306  1.00  0.00     0.010 A 
ATOM     33  C   UNL A   1      40.609  24.904  27.247  1.00  0.00    -0.014 A 
BRANCH  33  34
ATOM     34  C   UNL A   1      41.202  26.230  27.566  1.00  0.00     0.031 A 
ATOM     35  C   UNL A   1      42.628  26.528  27.173  1.00  0.00     0.074 A 
ATOM     36  C   UNL A   1      40.500  27.120  28.296  1.00  0.00     0.049 A 
ATOM     37  N   UNL A   1      43.365  27.568  27.465  1.00  0.00    -0.248 NA
ATOM     38  C   UNL A   1      43.334  25.504  26.381  1.00  0.00     0.031 C 
ATOM     39  C   UNL A   1      39.141  26.920  28.806  1.00  0.00     0.029 A 
ATOM     40  N   UNL A   1      40.844  28.365  28.764  1.00  0.00    -0.354 N 
ATOM     41  C   UNL A   1      44.623  27.305  26.933  1.00  0.00     0.074 A 
ATOM     42  C   UNL A   1      44.566  25.985  26.347  1.00  0.00     0.031 C 
ATOM     43  C   UNL A   1      38.763  28.005  29.498  1.00  0.00     0.029 A 
ATOM     44  C   UNL A   1      39.863  28.961  29.522  1.00  0.00     0.049 A 
ATOM     45  H   UNL A   1      41.711  28.790  28.573  1.00  0.00     0.167 HD
ATOM     46  C   UNL A   1      45.716  28.102  26.897  1.00  0.00     0.034 A 
ATOM     47  C   UNL A   1      39.857  30.142  30.173  1.00  0.00     0.034 A 
ATOM     48  C   UNL A   1      45.751  29.434  27.435  1.00  0.00     0.049 A 
ATOM     49  C   UNL A   1      41.077  31.021  30.091  1.00  0.00     0.074 A 
ATOM     50  C   UNL A   1      46.782  30.355  27.387  1.00  0.00     0.029 A 
ATOM     51  N   UNL A   1      44.707  30.037  28.118  1.00  0.00    -0.354 N 
ATOM     52  N   UNL A   1      42.209  30.808  29.464  1.00  0.00    -0.248 NA
ATOM     53  C   UNL A   1      41.005  32.318  30.777  1.00  0.00     0.031 C 
ATOM     54  C   UNL A   1      46.368  31.508  28.061  1.00  0.00     0.029 A 
ATOM     55  C   UNL A   1      45.067  31.318  28.497  1.00  0.00     0.049 A 
ATOM     56  H   UNL A   1      43.836  29.617  28.304  1.00  0.00     0.167 HD
ATOM     57  C   UNL A   1      42.965  31.962  29.642  1.00  0.00     0.074 A 
ATOM     58  C   UNL A   1      42.153  32.876  30.417  1.00  0.00     0.031 C 
ATOM     59  C   UNL A   1      44.222  32.235  29.215  1.00  0.00     0.034 A 
BRANCH  46  60
ATOM     60  C   UNL A   1      46.945  27.579  26.197  1.00  0.00     0.023 A 
ATOM     61  C   UNL A   1      47.834  26.735  26.894  1.00  0.00     0.012 A 
ATOM     62  C   UNL A   1      47.190  27.871  24.840  1.00  0.00     0.148 A 
ATOM     63  C   UNL A   1      48.968  26.221  26.266  1.00  0.00     0.002 A 
ATOM     64  C   UNL A   1      48.296  27.313  24.207  1.00  0.00     0.091 A 
ATOM     65  F   UNL A   1      46.345  28.689  24.198  1.00  0.00    -0.205 F 
ATOM     66  C   UNL A   1      49.192  26.500  24.921  1.00  0.00     0.022 A 
BRANCH  64  67
ATOM     67  S   UNL A   1      48.633  27.541  22.457  1.00  0.00     0.127 S 
ATOM     68  O   UNL A   1      48.687  26.158  21.985  1.00  0.00    -0.237 OA
ATOM     69  O   UNL A   1      47.457  28.290  22.015  1.00  0.00    -0.237 OA
ATOM     70  O   UNL A   1      49.888  28.274  22.379  1.00  0.00    -0.744 OA
ENDBRANCH  64  67
ENDBRANCH  46  60
BRANCH  47  71
ATOM     71  C   UNL A   1      38.638  30.598  30.901  1.00  0.00     0.023 A 
ATOM     72  C   UNL A   1      38.507  30.307  32.274  1.00  0.00     0.012 A 
ATOM     73  C   UNL A   1      37.610  31.308  30.251  1.00  0.00     0.148 A 
ATOM     74  C   UNL A   1      37.358  30.671  32.975  1.00  0.00     0.002 A 
ATOM     75  C   UNL A   1      36.492  31.719  30.970  1.00  0.00     0.091 A 
ATOM     76  F   UNL A   1      37.746  31.570  28.944  1.00  0.00    -0.205 F 
ATOM     77  C   UNL A   1      36.354  31.383  32.326  1.00  0.00     0.022 A 
BRANCH  75  78
ATOM     78  S   UNL A   1      35.205  32.744  30.250  1.00  0.00     0.127 S 
ATOM     79  O   UNL A   1      35.968  33.902  29.787  1.00  0.00    -0.237 OA
ATOM     80  O   UNL A   1      34.690  31.881  29.185  1.00  0.00    -0.237 OA
ATOM     81  O   UNL A   1      34.259  33.000  31.327  1.00  0.00    -0.744 OA
ENDBRANCH  75  78
ENDBRANCH  47  71
BRANCH  59  82
ATOM     82  C   UNL A   1      44.780  33.600  29.521  1.00  0.00     0.023 A 
ATOM     83  C   UNL A   1      45.519  33.814  30.701  1.00  0.00     0.012 A 
ATOM     84  C   UNL A   1      44.631  34.654  28.598  1.00  0.00     0.148 A 
ATOM     85  C   UNL A   1      46.066  35.065  30.977  1.00  0.00     0.002 A 
ATOM     86  C   UNL A   1      45.226  35.883  28.853  1.00  0.00     0.091 A 
ATOM     87  F   UNL A   1      43.911  34.435  27.487  1.00  0.00    -0.205 F 
ATOM     88  C   UNL A   1      45.931  36.095  30.048  1.00  0.00     0.022 A 
BRANCH  86  89
ATOM     89  S   UNL A   1      45.191  37.234  27.670  1.00  0.00     0.127 S 
ATOM     90  O   UNL A   1      45.866  38.298  28.413  1.00  0.00    -0.237 OA
ATOM     91  O   UNL A   1      45.962  36.686  26.554  1.00  0.00    -0.237 OA
ATOM     92  O   UNL A   1      43.786  37.476  27.374  1.00  0.00    -0.744 OA
ENDBRANCH  86  89
ENDBRANCH  59  82
ENDBRANCH  33  34
ENDBRANCH  25  28
ENDBRANCH  23  24
ENDBRANCH  22  23
ENDBRANCH   1  22
TORSDOF 19
ENDMDL
