MODEL 1
REMARK VINA RESULT:     -12.3      0.000      0.000
REMARK SMILES CC(C)n1c(CCC(=O)NCCCNC(=O)c2ccc(-c3c4nc(c(-c5cccc(S(=O)(=O)[O-])c5F)c5ccc([nH]5)c(-c5cccc(S(=O)(=O)[O-])c5F)c5nc(c(-c6cccc(S(=O)(=O)[O-])c6F)c6ccc3[nH]6)C=C5)C=C4)cc2)ccc1-c1ccc(F)cc1
REMARK SMILES IDX 12 1 11 2 10 3 8 4 9 5 7 7 6 8 5 9 4 10 82 11 80 12 81 13
REMARK SMILES IDX 2 14 1 15 3 16 83 17 84 18 89 19 85 20 88 21 86 22 87 23
REMARK SMILES IDX 13 24 14 25 15 26 16 28 17 29 18 30 79 31 19 32 78 33 20 34
REMARK SMILES IDX 21 35 22 36 72 37 23 38 77 39 71 40 73 41 24 42 76 43 70 44
REMARK SMILES IDX 69 45 25 47 57 48 37 49 56 50 38 51 41 52 55 53 74 54 39 55
REMARK SMILES IDX 40 56 54 58 75 59 42 60 26 61 27 62 35 63 28 64 30 65 36 66
REMARK SMILES IDX 29 67 31 68 32 69 33 70 34 71 58 72 59 73 67 74 60 75 62 76
REMARK SMILES IDX 68 77 61 78 63 79 64 80 65 81 66 82 43 83 44 84 52 85 45 86
REMARK SMILES IDX 47 87 53 88 46 89 48 90 49 91 50 92 51 93
REMARK H PARENT 10 6 14 27 73 46 41 57
REMARK Flexibility Score: inf
ROOT
ATOM      1  C   UNL A   1      33.295  29.299  26.278  1.00  0.00     0.042 C 
ENDROOT
BRANCH   1   2
ATOM      2  C   UNL A   1      33.329  29.275  24.730  1.00  0.00     0.117 C 
BRANCH   2   3
ATOM      3  N   UNL A   1      32.003  29.358  24.092  1.00  0.00    -0.356 N 
ATOM      4  C   UNL A   1      30.882  28.573  24.126  1.00  0.00     0.220 C 
ATOM      5  O   UNL A   1      29.867  29.026  23.588  1.00  0.00    -0.275 OA
ATOM      6  H   UNL A   1      31.903  30.150  23.516  1.00  0.00     0.163 HD
BRANCH   4   7
ATOM      7  C   UNL A   1      30.798  27.242  24.863  1.00  0.00     0.106 C 
BRANCH   7   8
ATOM      8  C   UNL A   1      31.234  25.991  24.072  1.00  0.00     0.064 C 
BRANCH   8   9
ATOM      9  C   UNL A   1      32.019  24.997  24.872  1.00  0.00     0.019 A 
ATOM     10  N   UNL A   1      32.521  23.759  24.443  1.00  0.00    -0.342 N 
ATOM     11  C   UNL A   1      33.526  23.426  25.399  1.00  0.00     0.048 A 
ATOM     12  C   UNL A   1      32.410  25.190  26.189  1.00  0.00     0.024 A 
ATOM     13  C   UNL A   1      33.314  24.180  26.539  1.00  0.00     0.029 A 
BRANCH  10  14
ATOM     14  C   UNL A   1      32.412  23.177  23.072  1.00  0.00     0.081 C 
ATOM     15  C   UNL A   1      33.588  23.443  22.096  1.00  0.00     0.031 C 
ATOM     16  C   UNL A   1      32.112  21.685  22.907  1.00  0.00     0.031 C 
ENDBRANCH  10  14
BRANCH  11  17
ATOM     17  C   UNL A   1      34.836  22.873  25.060  1.00  0.00    -0.002 A 
ATOM     18  C   UNL A   1      35.181  21.528  24.942  1.00  0.00     0.013 A 
ATOM     19  C   UNL A   1      35.855  23.802  25.104  1.00  0.00     0.013 A 
ATOM     20  C   UNL A   1      36.532  21.174  25.001  1.00  0.00     0.040 A 
ATOM     21  C   UNL A   1      37.166  23.485  24.952  1.00  0.00     0.040 A 
ATOM     22  C   UNL A   1      37.497  22.159  25.076  1.00  0.00     0.123 A 
ATOM     23  F   UNL A   1      38.727  21.807  25.461  1.00  0.00    -0.207 F 
ENDBRANCH  11  17
ENDBRANCH   8   9
ENDBRANCH   7   8
ENDBRANCH   4   7
ENDBRANCH   2   3
ENDBRANCH   1   2
BRANCH   1  24
ATOM     24  C   UNL A   1      34.408  28.708  27.191  1.00  0.00     0.118 C 
BRANCH  24  25
ATOM     25  N   UNL A   1      34.734  29.613  28.333  1.00  0.00    -0.352 N 
ATOM     26  C   UNL A   1      35.899  30.044  28.968  1.00  0.00     0.251 C 
ATOM     27  H   UNL A   1      33.926  30.001  28.740  1.00  0.00     0.163 HD
ATOM     28  O   UNL A   1      35.809  31.000  29.742  1.00  0.00    -0.269 OA
BRANCH  26  29
ATOM     29  C   UNL A   1      37.235  29.417  28.763  1.00  0.00     0.039 A 
ATOM     30  C   UNL A   1      38.067  29.648  27.667  1.00  0.00     0.014 A 
ATOM     31  C   UNL A   1      37.837  28.808  29.844  1.00  0.00     0.014 A 
ATOM     32  C   UNL A   1      39.363  29.088  27.657  1.00  0.00     0.010 A 
ATOM     33  C   UNL A   1      38.901  27.952  29.727  1.00  0.00     0.010 A 
ATOM     34  C   UNL A   1      39.767  28.221  28.696  1.00  0.00    -0.014 A 
BRANCH  34  35
ATOM     35  C   UNL A   1      41.073  27.537  28.755  1.00  0.00     0.031 A 
ATOM     36  C   UNL A   1      41.031  26.066  28.210  1.00  0.00     0.074 A 
ATOM     37  C   UNL A   1      42.061  28.345  29.259  1.00  0.00     0.049 A 
ATOM     38  N   UNL A   1      41.437  24.962  28.774  1.00  0.00    -0.248 NA
ATOM     39  C   UNL A   1      40.332  25.738  26.931  1.00  0.00     0.031 C 
ATOM     40  C   UNL A   1      41.915  29.807  29.508  1.00  0.00     0.029 A 
ATOM     41  N   UNL A   1      43.370  28.162  29.638  1.00  0.00    -0.354 N 
ATOM     42  C   UNL A   1      41.297  23.906  27.821  1.00  0.00     0.074 A 
ATOM     43  C   UNL A   1      40.425  24.407  26.809  1.00  0.00     0.031 C 
ATOM     44  C   UNL A   1      43.012  30.321  30.108  1.00  0.00     0.029 A 
ATOM     45  C   UNL A   1      43.987  29.266  30.295  1.00  0.00     0.049 A 
ATOM     46  H   UNL A   1      43.851  27.320  29.468  1.00  0.00     0.167 HD
ATOM     47  C   UNL A   1      42.124  22.808  27.787  1.00  0.00     0.034 A 
ATOM     48  C   UNL A   1      45.173  29.297  30.983  1.00  0.00     0.034 A 
ATOM     49  C   UNL A   1      43.168  23.043  28.731  1.00  0.00     0.049 A 
ATOM     50  C   UNL A   1      45.766  27.986  30.732  1.00  0.00     0.074 A 
ATOM     51  C   UNL A   1      43.201  23.137  30.097  1.00  0.00     0.029 A 
ATOM     52  N   UNL A   1      44.273  23.663  28.187  1.00  0.00    -0.354 N 
ATOM     53  N   UNL A   1      46.314  27.638  29.609  1.00  0.00    -0.248 NA
ATOM     54  C   UNL A   1      45.654  26.954  31.770  1.00  0.00     0.031 C 
ATOM     55  C   UNL A   1      44.036  24.254  30.292  1.00  0.00     0.029 A 
ATOM     56  C   UNL A   1      44.721  24.558  29.108  1.00  0.00     0.049 A 
ATOM     57  H   UNL A   1      44.663  23.489  27.300  1.00  0.00     0.167 HD
ATOM     58  C   UNL A   1      46.223  26.274  29.681  1.00  0.00     0.074 A 
ATOM     59  C   UNL A   1      46.169  25.933  31.091  1.00  0.00     0.031 C 
ATOM     60  C   UNL A   1      45.592  25.617  28.672  1.00  0.00     0.034 A 
BRANCH  47  61
ATOM     61  C   UNL A   1      42.436  21.674  26.809  1.00  0.00     0.023 A 
ATOM     62  C   UNL A   1      41.733  20.454  27.074  1.00  0.00     0.012 A 
ATOM     63  C   UNL A   1      43.508  21.594  25.906  1.00  0.00     0.148 A 
ATOM     64  C   UNL A   1      42.168  19.209  26.621  1.00  0.00     0.002 A 
ATOM     65  C   UNL A   1      43.904  20.343  25.401  1.00  0.00     0.091 A 
ATOM     66  F   UNL A   1      44.183  22.698  25.584  1.00  0.00    -0.205 F 
ATOM     67  C   UNL A   1      43.270  19.154  25.796  1.00  0.00     0.022 A 
BRANCH  65  68
ATOM     68  S   UNL A   1      45.247  20.148  24.219  1.00  0.00     0.127 S 
ATOM     69  O   UNL A   1      44.761  20.943  23.081  1.00  0.00    -0.237 OA
ATOM     70  O   UNL A   1      46.368  20.773  24.941  1.00  0.00    -0.237 OA
ATOM     71  O   UNL A   1      45.391  18.733  24.005  1.00  0.00    -0.744 OA
ENDBRANCH  65  68
ENDBRANCH  47  61
BRANCH  48  72
ATOM     72  C   UNL A   1      45.941  30.167  31.957  1.00  0.00     0.023 A 
ATOM     73  C   UNL A   1      45.582  30.400  33.288  1.00  0.00     0.012 A 
ATOM     74  C   UNL A   1      47.215  30.693  31.556  1.00  0.00     0.148 A 
ATOM     75  C   UNL A   1      46.484  31.025  34.182  1.00  0.00     0.002 A 
ATOM     76  C   UNL A   1      48.153  31.163  32.463  1.00  0.00     0.091 A 
ATOM     77  F   UNL A   1      47.528  30.764  30.257  1.00  0.00    -0.205 F 
ATOM     78  C   UNL A   1      47.785  31.353  33.787  1.00  0.00     0.022 A 
BRANCH  76  79
ATOM     79  S   UNL A   1      49.890  31.369  32.008  1.00  0.00     0.127 S 
ATOM     80  O   UNL A   1      50.507  31.726  33.282  1.00  0.00    -0.237 OA
ATOM     81  O   UNL A   1      50.220  30.030  31.518  1.00  0.00    -0.237 OA
ATOM     82  O   UNL A   1      49.931  32.410  30.989  1.00  0.00    -0.744 OA
ENDBRANCH  76  79
ENDBRANCH  48  72
BRANCH  60  83
ATOM     83  C   UNL A   1      45.633  26.312  27.303  1.00  0.00     0.023 A 
ATOM     84  C   UNL A   1      44.394  26.715  26.758  1.00  0.00     0.012 A 
ATOM     85  C   UNL A   1      46.774  26.480  26.480  1.00  0.00     0.148 A 
ATOM     86  C   UNL A   1      44.279  27.229  25.462  1.00  0.00     0.002 A 
ATOM     87  C   UNL A   1      46.661  26.986  25.173  1.00  0.00     0.091 A 
ATOM     88  F   UNL A   1      47.967  26.138  26.962  1.00  0.00    -0.205 F 
ATOM     89  C   UNL A   1      45.410  27.364  24.669  1.00  0.00     0.022 A 
BRANCH  87  90
ATOM     90  S   UNL A   1      48.045  27.121  24.014  1.00  0.00     0.127 S 
ATOM     91  O   UNL A   1      48.321  25.720  23.681  1.00  0.00    -0.237 OA
ATOM     92  O   UNL A   1      47.460  27.888  22.919  1.00  0.00    -0.237 OA
ATOM     93  O   UNL A   1      49.131  27.779  24.731  1.00  0.00    -0.744 OA
ENDBRANCH  87  90
ENDBRANCH  60  83
ENDBRANCH  34  35
ENDBRANCH  26  29
ENDBRANCH  24  25
ENDBRANCH   1  24
TORSDOF 17
ENDMDL
MODEL 2
REMARK VINA RESULT:     -12.1      1.557      1.781
REMARK SMILES CC(C)n1c(CCC(=O)NCCCNC(=O)c2ccc(-c3c4nc(c(-c5cccc(S(=O)(=O)[O-])c5F)c5ccc([nH]5)c(-c5cccc(S(=O)(=O)[O-])c5F)c5nc(c(-c6cccc(S(=O)(=O)[O-])c6F)c6ccc3[nH]6)C=C5)C=C4)cc2)ccc1-c1ccc(F)cc1
REMARK SMILES IDX 12 1 11 2 10 3 8 4 9 5 7 7 6 8 5 9 4 10 82 11 80 12 81 13
REMARK SMILES IDX 2 14 1 15 3 16 83 17 84 18 89 19 85 20 88 21 86 22 87 23
REMARK SMILES IDX 13 24 14 25 15 26 16 28 17 29 18 30 79 31 19 32 78 33 20 34
REMARK SMILES IDX 21 35 22 36 72 37 23 38 77 39 71 40 73 41 24 42 76 43 70 44
REMARK SMILES IDX 69 45 25 47 57 48 37 49 56 50 38 51 41 52 55 53 74 54 39 55
REMARK SMILES IDX 40 56 54 58 75 59 42 60 26 61 27 62 35 63 28 64 30 65 36 66
REMARK SMILES IDX 29 67 31 68 32 69 33 70 34 71 58 72 59 73 67 74 60 75 62 76
REMARK SMILES IDX 68 77 61 78 63 79 64 80 65 81 66 82 43 83 44 84 52 85 45 86
REMARK SMILES IDX 47 87 53 88 46 89 48 90 49 91 50 92 51 93
REMARK H PARENT 10 6 14 27 73 46 41 57
REMARK Flexibility Score: inf
ROOT
ATOM      1  C   UNL A   1      33.152  29.033  26.577  1.00  0.00     0.042 C 
ENDROOT
BRANCH   1   2
ATOM      2  C   UNL A   1      32.805  29.171  25.075  1.00  0.00     0.117 C 
BRANCH   2   3
ATOM      3  N   UNL A   1      31.556  28.499  24.675  1.00  0.00    -0.356 N 
ATOM      4  C   UNL A   1      31.141  27.194  24.663  1.00  0.00     0.220 C 
ATOM      5  O   UNL A   1      29.949  26.990  24.411  1.00  0.00    -0.275 OA
ATOM      6  H   UNL A   1      30.871  29.125  24.345  1.00  0.00     0.163 HD
BRANCH   4   7
ATOM      7  C   UNL A   1      32.032  26.015  25.033  1.00  0.00     0.106 C 
BRANCH   7   8
ATOM      8  C   UNL A   1      31.315  24.738  25.517  1.00  0.00     0.064 C 
BRANCH   8   9
ATOM      9  C   UNL A   1      32.235  23.627  25.922  1.00  0.00     0.019 A 
ATOM     10  N   UNL A   1      32.917  22.733  25.084  1.00  0.00    -0.342 N 
ATOM     11  C   UNL A   1      33.956  22.194  25.900  1.00  0.00     0.048 A 
ATOM     12  C   UNL A   1      32.586  23.345  27.234  1.00  0.00     0.024 A 
ATOM     13  C   UNL A   1      33.629  22.411  27.226  1.00  0.00     0.029 A 
BRANCH  10  14
ATOM     14  C   UNL A   1      32.903  22.720  23.590  1.00  0.00     0.081 C 
ATOM     15  C   UNL A   1      31.515  22.721  22.897  1.00  0.00     0.031 C 
ATOM     16  C   UNL A   1      33.714  23.764  22.818  1.00  0.00     0.031 C 
ENDBRANCH  10  14
BRANCH  11  17
ATOM     17  C   UNL A   1      35.336  21.999  25.456  1.00  0.00    -0.002 A 
ATOM     18  C   UNL A   1      35.916  20.819  24.993  1.00  0.00     0.013 A 
ATOM     19  C   UNL A   1      36.170  23.051  25.771  1.00  0.00     0.013 A 
ATOM     20  C   UNL A   1      37.310  20.714  24.987  1.00  0.00     0.040 A 
ATOM     21  C   UNL A   1      37.512  23.030  25.571  1.00  0.00     0.040 A 
ATOM     22  C   UNL A   1      38.081  21.802  25.346  1.00  0.00     0.123 A 
ATOM     23  F   UNL A   1      39.365  21.590  25.652  1.00  0.00    -0.207 F 
ENDBRANCH  11  17
ENDBRANCH   8   9
ENDBRANCH   7   8
ENDBRANCH   4   7
ENDBRANCH   2   3
ENDBRANCH   1   2
BRANCH   1  24
ATOM     24  C   UNL A   1      34.583  28.771  27.130  1.00  0.00     0.118 C 
BRANCH  24  25
ATOM     25  N   UNL A   1      34.889  29.624  28.317  1.00  0.00    -0.352 N 
ATOM     26  C   UNL A   1      36.042  30.012  29.000  1.00  0.00     0.251 C 
ATOM     27  H   UNL A   1      34.076  30.006  28.718  1.00  0.00     0.163 HD
ATOM     28  O   UNL A   1      35.943  30.936  29.810  1.00  0.00    -0.269 OA
BRANCH  26  29
ATOM     29  C   UNL A   1      37.375  29.376  28.805  1.00  0.00     0.039 A 
ATOM     30  C   UNL A   1      38.229  29.622  27.728  1.00  0.00     0.014 A 
ATOM     31  C   UNL A   1      37.951  28.737  29.882  1.00  0.00     0.014 A 
ATOM     32  C   UNL A   1      39.519  29.049  27.729  1.00  0.00     0.010 A 
ATOM     33  C   UNL A   1      39.009  27.873  29.765  1.00  0.00     0.010 A 
ATOM     34  C   UNL A   1      39.896  28.155  28.756  1.00  0.00    -0.014 A 
BRANCH  34  35
ATOM     35  C   UNL A   1      41.193  27.457  28.822  1.00  0.00     0.031 A 
ATOM     36  C   UNL A   1      41.136  25.984  28.284  1.00  0.00     0.074 A 
ATOM     37  C   UNL A   1      42.189  28.255  29.326  1.00  0.00     0.049 A 
ATOM     38  N   UNL A   1      41.528  24.878  28.854  1.00  0.00    -0.248 NA
ATOM     39  C   UNL A   1      40.439  25.658  27.003  1.00  0.00     0.031 C 
ATOM     40  C   UNL A   1      42.059  29.720  29.568  1.00  0.00     0.029 A 
ATOM     41  N   UNL A   1      43.494  28.060  29.711  1.00  0.00    -0.354 N 
ATOM     42  C   UNL A   1      41.379  23.820  27.905  1.00  0.00     0.074 A 
ATOM     43  C   UNL A   1      40.517  24.326  26.888  1.00  0.00     0.031 C 
ATOM     44  C   UNL A   1      43.159  30.224  30.169  1.00  0.00     0.029 A 
ATOM     45  C   UNL A   1      44.121  29.159  30.364  1.00  0.00     0.049 A 
ATOM     46  H   UNL A   1      43.966  27.211  29.546  1.00  0.00     0.167 HD
ATOM     47  C   UNL A   1      42.194  22.712  27.879  1.00  0.00     0.034 A 
ATOM     48  C   UNL A   1      45.305  29.180  31.057  1.00  0.00     0.034 A 
ATOM     49  C   UNL A   1      43.237  22.939  28.826  1.00  0.00     0.049 A 
ATOM     50  C   UNL A   1      45.885  27.861  30.814  1.00  0.00     0.074 A 
ATOM     51  C   UNL A   1      43.266  23.038  30.191  1.00  0.00     0.029 A 
ATOM     52  N   UNL A   1      44.351  23.544  28.283  1.00  0.00    -0.354 N 
ATOM     53  N   UNL A   1      46.432  27.501  29.694  1.00  0.00    -0.248 NA
ATOM     54  C   UNL A   1      45.756  26.835  31.856  1.00  0.00     0.031 C 
ATOM     55  C   UNL A   1      44.113  24.147  30.385  1.00  0.00     0.029 A 
ATOM     56  C   UNL A   1      44.806  24.438  29.202  1.00  0.00     0.049 A 
ATOM     57  H   UNL A   1      44.742  23.362  27.398  1.00  0.00     0.167 HD
ATOM     58  C   UNL A   1      46.325  26.139  29.772  1.00  0.00     0.074 A 
ATOM     59  C   UNL A   1      46.262  25.806  31.184  1.00  0.00     0.031 C 
ATOM     60  C   UNL A   1      45.691  25.485  28.764  1.00  0.00     0.034 A 
BRANCH  47  61
ATOM     61  C   UNL A   1      42.496  21.570  26.907  1.00  0.00     0.023 A 
ATOM     62  C   UNL A   1      41.886  20.320  27.254  1.00  0.00     0.012 A 
ATOM     63  C   UNL A   1      43.500  21.524  25.928  1.00  0.00     0.148 A 
ATOM     64  C   UNL A   1      42.357  19.090  26.799  1.00  0.00     0.002 A 
ATOM     65  C   UNL A   1      43.929  20.284  25.423  1.00  0.00     0.091 A 
ATOM     66  F   UNL A   1      44.085  22.655  25.528  1.00  0.00    -0.205 F 
ATOM     67  C   UNL A   1      43.395  19.073  25.894  1.00  0.00     0.022 A 
BRANCH  65  68
ATOM     68  S   UNL A   1      45.189  20.130  24.148  1.00  0.00     0.127 S 
ATOM     69  O   UNL A   1      44.654  21.005  23.094  1.00  0.00    -0.237 OA
ATOM     70  O   UNL A   1      46.370  20.682  24.832  1.00  0.00    -0.237 OA
ATOM     71  O   UNL A   1      45.279  18.728  23.840  1.00  0.00    -0.744 OA
ENDBRANCH  65  68
ENDBRANCH  47  61
BRANCH  48  72
ATOM     72  C   UNL A   1      46.080  30.046  32.030  1.00  0.00     0.023 A 
ATOM     73  C   UNL A   1      47.381  30.518  31.831  1.00  0.00     0.012 A 
ATOM     74  C   UNL A   1      45.405  30.554  33.190  1.00  0.00     0.148 A 
ATOM     75  C   UNL A   1      47.927  31.511  32.678  1.00  0.00     0.002 A 
ATOM     76  C   UNL A   1      45.879  31.632  33.923  1.00  0.00     0.091 A 
ATOM     77  F   UNL A   1      44.280  29.968  33.618  1.00  0.00    -0.205 F 
ATOM     78  C   UNL A   1      47.160  32.108  33.684  1.00  0.00     0.022 A 
BRANCH  76  79
ATOM     79  S   UNL A   1      44.812  32.547  35.059  1.00  0.00     0.127 S 
ATOM     80  O   UNL A   1      45.567  33.778  35.275  1.00  0.00    -0.237 OA
ATOM     81  O   UNL A   1      43.600  32.701  34.255  1.00  0.00    -0.237 OA
ATOM     82  O   UNL A   1      44.649  31.709  36.240  1.00  0.00    -0.744 OA
ENDBRANCH  76  79
ENDBRANCH  48  72
BRANCH  60  83
ATOM     83  C   UNL A   1      45.744  26.173  27.393  1.00  0.00     0.023 A 
ATOM     84  C   UNL A   1      44.526  26.678  26.886  1.00  0.00     0.012 A 
ATOM     85  C   UNL A   1      46.868  26.245  26.531  1.00  0.00     0.148 A 
ATOM     86  C   UNL A   1      44.412  27.199  25.593  1.00  0.00     0.002 A 
ATOM     87  C   UNL A   1      46.755  26.757  25.228  1.00  0.00     0.091 A 
ATOM     88  F   UNL A   1      48.043  25.804  26.976  1.00  0.00    -0.205 F 
ATOM     89  C   UNL A   1      45.524  27.238  24.764  1.00  0.00     0.022 A 
BRANCH  87  90
ATOM     90  S   UNL A   1      48.107  26.776  24.024  1.00  0.00     0.127 S 
ATOM     91  O   UNL A   1      48.097  25.402  23.512  1.00  0.00    -0.237 OA
ATOM     92  O   UNL A   1      47.650  27.772  23.059  1.00  0.00    -0.237 OA
ATOM     93  O   UNL A   1      49.318  27.122  24.758  1.00  0.00    -0.744 OA
ENDBRANCH  87  90
ENDBRANCH  60  83
ENDBRANCH  34  35
ENDBRANCH  26  29
ENDBRANCH  24  25
ENDBRANCH   1  24
TORSDOF 17
ENDMDL
MODEL 3
REMARK VINA RESULT:     -12.1      2.023      2.639
REMARK SMILES CC(C)n1c(CCC(=O)NCCCNC(=O)c2ccc(-c3c4nc(c(-c5cccc(S(=O)(=O)[O-])c5F)c5ccc([nH]5)c(-c5cccc(S(=O)(=O)[O-])c5F)c5nc(c(-c6cccc(S(=O)(=O)[O-])c6F)c6ccc3[nH]6)C=C5)C=C4)cc2)ccc1-c1ccc(F)cc1
REMARK SMILES IDX 12 1 11 2 10 3 8 4 9 5 7 7 6 8 5 9 4 10 82 11 80 12 81 13
REMARK SMILES IDX 2 14 1 15 3 16 83 17 84 18 89 19 85 20 88 21 86 22 87 23
REMARK SMILES IDX 13 24 14 25 15 26 16 28 17 29 18 30 79 31 19 32 78 33 20 34
REMARK SMILES IDX 21 35 22 36 72 37 23 38 77 39 71 40 73 41 24 42 76 43 70 44
REMARK SMILES IDX 69 45 25 47 57 48 37 49 56 50 38 51 41 52 55 53 74 54 39 55
REMARK SMILES IDX 40 56 54 58 75 59 42 60 26 61 27 62 35 63 28 64 30 65 36 66
REMARK SMILES IDX 29 67 31 68 32 69 33 70 34 71 58 72 59 73 67 74 60 75 62 76
REMARK SMILES IDX 68 77 61 78 63 79 64 80 65 81 66 82 43 83 44 84 52 85 45 86
REMARK SMILES IDX 47 87 53 88 46 89 48 90 49 91 50 92 51 93
REMARK H PARENT 10 6 14 27 73 46 41 57
REMARK Flexibility Score: inf
ROOT
ATOM      1  C   UNL A   1      33.508  29.700  26.284  1.00  0.00     0.042 C 
ENDROOT
BRANCH   1   2
ATOM      2  C   UNL A   1      32.510  28.932  25.382  1.00  0.00     0.117 C 
BRANCH   2   3
ATOM      3  N   UNL A   1      31.841  27.799  26.045  1.00  0.00    -0.356 N 
ATOM      4  C   UNL A   1      32.159  26.478  26.220  1.00  0.00     0.220 C 
ATOM      5  O   UNL A   1      31.435  25.826  26.978  1.00  0.00    -0.275 OA
ATOM      6  H   UNL A   1      30.977  28.044  26.447  1.00  0.00     0.163 HD
BRANCH   4   7
ATOM      7  C   UNL A   1      33.392  25.813  25.619  1.00  0.00     0.106 C 
BRANCH   7   8
ATOM      8  C   UNL A   1      33.659  24.354  26.042  1.00  0.00     0.064 C 
BRANCH   8   9
ATOM      9  C   UNL A   1      33.123  23.328  25.091  1.00  0.00     0.019 A 
ATOM     10  N   UNL A   1      33.851  22.382  24.354  1.00  0.00    -0.342 N 
ATOM     11  C   UNL A   1      32.888  21.401  23.973  1.00  0.00     0.048 A 
ATOM     12  C   UNL A   1      31.775  23.136  24.829  1.00  0.00     0.024 A 
ATOM     13  C   UNL A   1      31.627  21.958  24.086  1.00  0.00     0.029 A 
BRANCH  10  14
ATOM     14  C   UNL A   1      35.329  22.167  24.388  1.00  0.00     0.081 C 
ATOM     15  C   UNL A   1      36.189  23.014  23.412  1.00  0.00     0.031 C 
ATOM     16  C   UNL A   1      36.074  22.253  25.723  1.00  0.00     0.031 C 
ENDBRANCH  10  14
BRANCH  11  17
ATOM     17  C   UNL A   1      33.114  19.958  24.029  1.00  0.00    -0.002 A 
ATOM     18  C   UNL A   1      34.094  19.283  24.754  1.00  0.00     0.013 A 
ATOM     19  C   UNL A   1      32.418  19.253  23.069  1.00  0.00     0.013 A 
ATOM     20  C   UNL A   1      34.412  17.970  24.393  1.00  0.00     0.040 A 
ATOM     21  C   UNL A   1      32.575  17.922  22.854  1.00  0.00     0.040 A 
ATOM     22  C   UNL A   1      33.691  17.339  23.399  1.00  0.00     0.123 A 
ATOM     23  F   UNL A   1      34.209  16.237  22.849  1.00  0.00    -0.207 F 
ENDBRANCH  11  17
ENDBRANCH   8   9
ENDBRANCH   7   8
ENDBRANCH   4   7
ENDBRANCH   2   3
ENDBRANCH   1   2
BRANCH   1  24
ATOM     24  C   UNL A   1      34.667  29.034  27.080  1.00  0.00     0.118 C 
BRANCH  24  25
ATOM     25  N   UNL A   1      34.959  29.757  28.354  1.00  0.00    -0.352 N 
ATOM     26  C   UNL A   1      36.100  30.047  29.102  1.00  0.00     0.251 C 
ATOM     27  H   UNL A   1      34.143  30.118  28.769  1.00  0.00     0.163 HD
ATOM     28  O   UNL A   1      35.999  30.888  29.997  1.00  0.00    -0.269 OA
BRANCH  26  29
ATOM     29  C   UNL A   1      37.424  29.400  28.879  1.00  0.00     0.039 A 
ATOM     30  C   UNL A   1      38.256  29.637  27.784  1.00  0.00     0.014 A 
ATOM     31  C   UNL A   1      38.018  28.759  29.945  1.00  0.00     0.014 A 
ATOM     32  C   UNL A   1      39.541  29.054  27.758  1.00  0.00     0.010 A 
ATOM     33  C   UNL A   1      39.066  27.886  29.807  1.00  0.00     0.010 A 
ATOM     34  C   UNL A   1      39.933  28.159  28.778  1.00  0.00    -0.014 A 
BRANCH  34  35
ATOM     35  C   UNL A   1      41.226  27.451  28.817  1.00  0.00     0.031 A 
ATOM     36  C   UNL A   1      41.153  25.990  28.250  1.00  0.00     0.074 A 
ATOM     37  C   UNL A   1      42.232  28.232  29.328  1.00  0.00     0.049 A 
ATOM     38  N   UNL A   1      41.543  24.869  28.793  1.00  0.00    -0.248 NA
ATOM     39  C   UNL A   1      40.442  25.695  26.969  1.00  0.00     0.031 C 
ATOM     40  C   UNL A   1      42.115  29.692  29.602  1.00  0.00     0.029 A 
ATOM     41  N   UNL A   1      43.539  28.019  29.697  1.00  0.00    -0.354 N 
ATOM     42  C   UNL A   1      41.377  23.832  27.824  1.00  0.00     0.074 A 
ATOM     43  C   UNL A   1      40.509  24.365  26.826  1.00  0.00     0.031 C 
ATOM     44  C   UNL A   1      43.224  30.176  30.203  1.00  0.00     0.029 A 
ATOM     45  C   UNL A   1      44.180  29.100  30.367  1.00  0.00     0.049 A 
ATOM     46  H   UNL A   1      44.004  27.170  29.510  1.00  0.00     0.167 HD
ATOM     47  C   UNL A   1      42.184  22.719  27.768  1.00  0.00     0.034 A 
ATOM     48  C   UNL A   1      45.371  29.099  31.049  1.00  0.00     0.034 A 
ATOM     49  C   UNL A   1      43.238  22.920  28.709  1.00  0.00     0.049 A 
ATOM     50  C   UNL A   1      45.939  27.781  30.773  1.00  0.00     0.074 A 
ATOM     51  C   UNL A   1      43.280  22.991  30.076  1.00  0.00     0.029 A 
ATOM     52  N   UNL A   1      44.351  23.528  28.168  1.00  0.00    -0.354 N 
ATOM     53  N   UNL A   1      46.473  27.441  29.641  1.00  0.00    -0.248 NA
ATOM     54  C   UNL A   1      45.813  26.735  31.795  1.00  0.00     0.031 C 
ATOM     55  C   UNL A   1      44.137  24.089  30.284  1.00  0.00     0.029 A 
ATOM     56  C   UNL A   1      44.821  24.400  29.101  1.00  0.00     0.049 A 
ATOM     57  H   UNL A   1      44.732  23.361  27.276  1.00  0.00     0.167 HD
ATOM     58  C   UNL A   1      46.357  26.078  29.692  1.00  0.00     0.074 A 
ATOM     59  C   UNL A   1      46.305  25.716  31.097  1.00  0.00     0.031 C 
ATOM     60  C   UNL A   1      45.709  25.449  28.677  1.00  0.00     0.034 A 
BRANCH  47  61
ATOM     61  C   UNL A   1      42.469  21.596  26.770  1.00  0.00     0.023 A 
ATOM     62  C   UNL A   1      41.709  20.401  26.989  1.00  0.00     0.012 A 
ATOM     63  C   UNL A   1      43.557  21.490  25.889  1.00  0.00     0.148 A 
ATOM     64  C   UNL A   1      42.100  19.150  26.517  1.00  0.00     0.002 A 
ATOM     65  C   UNL A   1      43.911  20.235  25.363  1.00  0.00     0.091 A 
ATOM     66  F   UNL A   1      44.287  22.571  25.608  1.00  0.00    -0.205 F 
ATOM     67  C   UNL A   1      43.217  19.066  25.715  1.00  0.00     0.022 A 
BRANCH  65  68
ATOM     68  S   UNL A   1      45.271  20.008  24.206  1.00  0.00     0.127 S 
ATOM     69  O   UNL A   1      45.773  18.682  24.594  1.00  0.00    -0.237 OA
ATOM     70  O   UNL A   1      44.564  20.018  22.914  1.00  0.00    -0.237 OA
ATOM     71  O   UNL A   1      46.160  21.121  24.409  1.00  0.00    -0.744 OA
ENDBRANCH  65  68
ENDBRANCH  47  61
BRANCH  48  72
ATOM     72  C   UNL A   1      46.161  29.939  32.032  1.00  0.00     0.023 A 
ATOM     73  C   UNL A   1      47.343  30.625  31.740  1.00  0.00     0.012 A 
ATOM     74  C   UNL A   1      45.604  30.185  33.333  1.00  0.00     0.148 A 
ATOM     75  C   UNL A   1      47.873  31.571  32.648  1.00  0.00     0.002 A 
ATOM     76  C   UNL A   1      46.036  31.218  34.151  1.00  0.00     0.091 A 
ATOM     77  F   UNL A   1      44.643  29.385  33.809  1.00  0.00    -0.205 F 
ATOM     78  C   UNL A   1      47.193  31.909  33.822  1.00  0.00     0.022 A 
BRANCH  76  79
ATOM     79  S   UNL A   1      45.039  31.806  35.538  1.00  0.00     0.127 S 
ATOM     80  O   UNL A   1      43.712  31.930  34.940  1.00  0.00    -0.237 OA
ATOM     81  O   UNL A   1      45.185  30.702  36.488  1.00  0.00    -0.237 OA
ATOM     82  O   UNL A   1      45.637  33.060  35.977  1.00  0.00    -0.744 OA
ENDBRANCH  76  79
ENDBRANCH  48  72
BRANCH  60  83
ATOM     83  C   UNL A   1      45.754  26.165  27.319  1.00  0.00     0.023 A 
ATOM     84  C   UNL A   1      44.514  26.529  26.750  1.00  0.00     0.012 A 
ATOM     85  C   UNL A   1      46.907  26.388  26.525  1.00  0.00     0.148 A 
ATOM     86  C   UNL A   1      44.409  27.058  25.460  1.00  0.00     0.002 A 
ATOM     87  C   UNL A   1      46.805  26.908  25.223  1.00  0.00     0.091 A 
ATOM     88  F   UNL A   1      48.100  26.084  27.031  1.00  0.00    -0.205 F 
ATOM     89  C   UNL A   1      45.552  27.247  24.695  1.00  0.00     0.022 A 
BRANCH  87  90
ATOM     90  S   UNL A   1      48.209  27.113  24.099  1.00  0.00     0.127 S 
ATOM     91  O   UNL A   1      48.601  25.727  23.822  1.00  0.00    -0.237 OA
ATOM     92  O   UNL A   1      47.600  27.796  22.961  1.00  0.00    -0.237 OA
ATOM     93  O   UNL A   1      49.219  27.877  24.822  1.00  0.00    -0.744 OA
ENDBRANCH  87  90
ENDBRANCH  60  83
ENDBRANCH  34  35
ENDBRANCH  26  29
ENDBRANCH  24  25
ENDBRANCH   1  24
TORSDOF 17
ENDMDL
