MODEL 1
REMARK VINA RESULT:     -11.5      0.000      0.000
REMARK SMILES CC(C)[N@@H+](Cc1cccs1)[C@@H](C)c1ccc(C(=O)NCCCNC(=O)c2ccc(-c3c4nc(c(-c5cccc(S(=O)(=O)[O-])c5F)c5ccc([nH]5)c(-c5cccc(S(=O)(=O)[O-])c5F)c5nc(c(-c6cccc(S(=O)(=O)[O-])c6F)c6ccc3[nH]6)C=C5)C=C4)cc2)o1
REMARK SMILES IDX 20 1 19 2 17 3 18 4 16 6 13 7 14 8 89 9 15 10 11 11 12 12
REMARK SMILES IDX 4 13 2 15 1 16 3 17 5 18 6 19 7 20 10 21 8 22 9 23 21 24
REMARK SMILES IDX 22 25 23 26 24 27 25 29 26 30 27 31 88 32 28 33 87 34 29 35
REMARK SMILES IDX 30 36 31 37 81 38 32 39 86 40 80 41 82 42 33 43 85 44 79 45
REMARK SMILES IDX 78 46 34 48 66 49 46 50 65 51 47 52 50 53 64 54 83 55 48 56
REMARK SMILES IDX 49 57 63 59 84 60 51 61 35 62 36 63 44 64 37 65 39 66 45 67
REMARK SMILES IDX 38 68 40 69 41 70 42 71 43 72 67 73 68 74 76 75 69 76 71 77
REMARK SMILES IDX 77 78 70 79 72 80 73 81 74 82 75 83 52 84 53 85 61 86 54 87
REMARK SMILES IDX 56 88 62 89 55 90 57 91 58 92 59 93 60 94
REMARK H PARENT 19 5 4 14 23 28 82 47 50 58
REMARK Flexibility Score: inf
ROOT
ATOM      1  C   UNL A   1      34.515  21.828  24.242  1.00  0.00     0.118 C 
ENDROOT
BRANCH   1   2
ATOM      2  N   UNL A   1      34.020  22.505  23.062  1.00  0.00    -0.349 N 
ATOM      3  C   UNL A   1      33.592  23.797  22.895  1.00  0.00     0.287 C 
ATOM      4  O   UNL A   1      33.327  24.131  21.736  1.00  0.00    -0.266 OA
ATOM      5  H   UNL A   1      33.982  21.948  22.251  1.00  0.00     0.163 HD
BRANCH   3   6
ATOM      6  C   UNL A   1      33.529  24.712  24.014  1.00  0.00     0.191 A 
ATOM      7  C   UNL A   1      32.396  26.123  25.297  1.00  0.00     0.162 A 
ATOM      8  C   UNL A   1      33.694  26.129  25.763  1.00  0.00     0.053 A 
ATOM      9  O   UNL A   1      32.294  25.223  24.282  1.00  0.00    -0.450 OA
ATOM     10  C   UNL A   1      34.425  25.239  24.928  1.00  0.00     0.057 A 
BRANCH   7  11
ATOM     11  C   UNL A   1      31.131  26.872  25.642  1.00  0.00     0.248 C 
ATOM     12  C   UNL A   1      29.900  25.985  25.388  1.00  0.00     0.084 C 
BRANCH  11  13
ATOM     13  N   UNL A   1      31.086  28.218  25.040  1.00  0.00    -0.320 N 
ATOM     14  H   UNL A   1      30.193  28.490  25.452  1.00  0.00     0.349 HD
BRANCH  13  15
ATOM     15  C   UNL A   1      31.776  29.374  25.635  1.00  0.00     0.178 C 
ATOM     16  C   UNL A   1      31.047  30.706  25.399  1.00  0.00     0.075 C 
ATOM     17  C   UNL A   1      32.152  29.307  27.120  1.00  0.00     0.075 C 
ENDBRANCH  13  15
BRANCH  13  18
ATOM     18  C   UNL A   1      30.941  28.227  23.573  1.00  0.00     0.310 C 
BRANCH  18  19
ATOM     19  C   UNL A   1      29.651  28.795  23.039  1.00  0.00     0.059 A 
ATOM     20  C   UNL A   1      28.358  28.366  23.286  1.00  0.00     0.021 A 
ATOM     21  S   UNL A   1      29.650  30.089  21.907  1.00  0.00    -0.143 S 
ATOM     22  C   UNL A   1      27.380  29.259  22.760  1.00  0.00     0.012 A 
ATOM     23  C   UNL A   1      27.953  30.275  22.032  1.00  0.00     0.065 A 
ENDBRANCH  18  19
ENDBRANCH  13  18
ENDBRANCH  11  13
ENDBRANCH   7  11
ENDBRANCH   3   6
ENDBRANCH   1   2
BRANCH   1  24
ATOM     24  C   UNL A   1      36.035  21.877  24.314  1.00  0.00     0.042 C 
BRANCH  24  25
ATOM     25  C   UNL A   1      36.577  21.827  25.740  1.00  0.00     0.118 C 
BRANCH  25  26
ATOM     26  N   UNL A   1      37.612  20.816  25.903  1.00  0.00    -0.352 N 
ATOM     27  C   UNL A   1      38.959  20.959  26.132  1.00  0.00     0.251 C 
ATOM     28  H   UNL A   1      37.299  19.885  25.838  1.00  0.00     0.163 HD
ATOM     29  O   UNL A   1      39.695  19.982  26.015  1.00  0.00    -0.269 OA
BRANCH  27  30
ATOM     30  C   UNL A   1      39.524  22.272  26.512  1.00  0.00     0.039 A 
ATOM     31  C   UNL A   1      40.618  22.311  27.382  1.00  0.00     0.014 A 
ATOM     32  C   UNL A   1      38.957  23.464  26.052  1.00  0.00     0.014 A 
ATOM     33  C   UNL A   1      41.172  23.539  27.748  1.00  0.00     0.010 A 
ATOM     34  C   UNL A   1      39.559  24.682  26.352  1.00  0.00     0.010 A 
ATOM     35  C   UNL A   1      40.664  24.735  27.215  1.00  0.00    -0.014 A 
BRANCH  35  36
ATOM     36  C   UNL A   1      41.274  26.048  27.543  1.00  0.00     0.031 A 
ATOM     37  C   UNL A   1      42.685  26.358  27.122  1.00  0.00     0.074 A 
ATOM     38  C   UNL A   1      40.587  26.929  28.297  1.00  0.00     0.049 A 
ATOM     39  N   UNL A   1      43.397  27.433  27.347  1.00  0.00    -0.248 NA
ATOM     40  C   UNL A   1      43.403  25.312  26.375  1.00  0.00     0.031 C 
ATOM     41  C   UNL A   1      39.241  26.715  28.831  1.00  0.00     0.029 A 
ATOM     42  N   UNL A   1      40.934  28.173  28.760  1.00  0.00    -0.354 N 
ATOM     43  C   UNL A   1      44.653  27.177  26.810  1.00  0.00     0.074 A 
ATOM     44  C   UNL A   1      44.617  25.832  26.277  1.00  0.00     0.031 C 
ATOM     45  C   UNL A   1      38.869  27.797  29.531  1.00  0.00     0.029 A 
ATOM     46  C   UNL A   1      39.957  28.769  29.523  1.00  0.00     0.049 A 
ATOM     47  H   UNL A   1      41.800  28.598  28.567  1.00  0.00     0.167 HD
ATOM     48  C   UNL A   1      45.731  27.996  26.738  1.00  0.00     0.034 A 
ATOM     49  C   UNL A   1      39.938  29.966  30.141  1.00  0.00     0.034 A 
ATOM     50  C   UNL A   1      45.744  29.349  27.226  1.00  0.00     0.049 A 
ATOM     51  C   UNL A   1      41.132  30.872  30.014  1.00  0.00     0.074 A 
ATOM     52  C   UNL A   1      46.745  30.297  27.109  1.00  0.00     0.029 A 
ATOM     53  N   UNL A   1      44.711  29.944  27.933  1.00  0.00    -0.354 N 
ATOM     54  N   UNL A   1      42.249  30.679  29.354  1.00  0.00    -0.248 NA
ATOM     55  C   UNL A   1      41.049  32.175  30.687  1.00  0.00     0.031 C 
ATOM     56  C   UNL A   1      46.326  31.458  27.768  1.00  0.00     0.029 A 
ATOM     57  C   UNL A   1      45.054  31.241  28.274  1.00  0.00     0.049 A 
ATOM     58  H   UNL A   1      43.858  29.508  28.161  1.00  0.00     0.167 HD
ATOM     59  C   UNL A   1      42.985  31.849  29.500  1.00  0.00     0.074 A 
ATOM     60  C   UNL A   1      42.178  32.752  30.297  1.00  0.00     0.031 C 
ATOM     61  C   UNL A   1      44.221  32.146  29.028  1.00  0.00     0.034 A 
BRANCH  48  62
ATOM     62  C   UNL A   1      46.968  27.459  26.064  1.00  0.00     0.023 A 
ATOM     63  C   UNL A   1      47.133  27.627  24.673  1.00  0.00     0.012 A 
ATOM     64  C   UNL A   1      47.979  26.815  26.803  1.00  0.00     0.148 A 
ATOM     65  C   UNL A   1      48.258  27.120  24.022  1.00  0.00     0.002 A 
ATOM     66  C   UNL A   1      49.120  26.355  26.154  1.00  0.00     0.091 A 
ATOM     67  F   UNL A   1      47.800  26.642  28.121  1.00  0.00    -0.205 F 
ATOM     68  C   UNL A   1      49.254  26.494  24.763  1.00  0.00     0.022 A 
BRANCH  66  69
ATOM     69  S   UNL A   1      50.493  25.606  27.039  1.00  0.00     0.127 S 
ATOM     70  O   UNL A   1      49.863  24.418  27.612  1.00  0.00    -0.237 OA
ATOM     71  O   UNL A   1      51.444  25.329  25.961  1.00  0.00    -0.237 OA
ATOM     72  O   UNL A   1      50.940  26.607  27.996  1.00  0.00    -0.744 OA
ENDBRANCH  66  69
ENDBRANCH  48  62
BRANCH  49  73
ATOM     73  C   UNL A   1      38.706  30.414  30.849  1.00  0.00     0.023 A 
ATOM     74  C   UNL A   1      38.605  30.206  32.238  1.00  0.00     0.012 A 
ATOM     75  C   UNL A   1      37.663  31.081  30.176  1.00  0.00     0.148 A 
ATOM     76  C   UNL A   1      37.478  30.629  32.942  1.00  0.00     0.002 A 
ATOM     77  C   UNL A   1      36.566  31.547  30.893  1.00  0.00     0.091 A 
ATOM     78  F   UNL A   1      37.777  31.262  28.853  1.00  0.00    -0.205 F 
ATOM     79  C   UNL A   1      36.464  31.308  32.272  1.00  0.00     0.022 A 
BRANCH  77  80
ATOM     80  S   UNL A   1      35.273  32.542  30.142  1.00  0.00     0.127 S 
ATOM     81  O   UNL A   1      34.773  31.647  29.101  1.00  0.00    -0.237 OA
ATOM     82  O   UNL A   1      34.362  32.749  31.267  1.00  0.00    -0.237 OA
ATOM     83  O   UNL A   1      35.929  33.753  29.670  1.00  0.00    -0.744 OA
ENDBRANCH  77  80
ENDBRANCH  49  73
BRANCH  61  84
ATOM     84  C   UNL A   1      44.773  33.514  29.332  1.00  0.00     0.023 A 
ATOM     85  C   UNL A   1      45.476  33.735  30.532  1.00  0.00     0.012 A 
ATOM     86  C   UNL A   1      44.651  34.563  28.400  1.00  0.00     0.148 A 
ATOM     87  C   UNL A   1      46.019  34.988  30.815  1.00  0.00     0.002 A 
ATOM     88  C   UNL A   1      45.238  35.795  28.666  1.00  0.00     0.091 A 
ATOM     89  F   UNL A   1      43.960  34.341  27.272  1.00  0.00    -0.205 F 
ATOM     90  C   UNL A   1      45.911  36.012  29.878  1.00  0.00     0.022 A 
BRANCH  88  91
ATOM     91  S   UNL A   1      45.231  37.139  27.474  1.00  0.00     0.127 S 
ATOM     92  O   UNL A   1      43.804  37.285  27.197  1.00  0.00    -0.237 OA
ATOM     93  O   UNL A   1      45.819  38.239  28.241  1.00  0.00    -0.237 OA
ATOM     94  O   UNL A   1      46.045  36.685  26.355  1.00  0.00    -0.744 OA
ENDBRANCH  88  91
ENDBRANCH  61  84
ENDBRANCH  35  36
ENDBRANCH  27  30
ENDBRANCH  25  26
ENDBRANCH  24  25
ENDBRANCH   1  24
TORSDOF 18
ENDMDL
MODEL 2
REMARK VINA RESULT:     -11.1      1.559      1.949
REMARK SMILES CC(C)[N@@H+](Cc1cccs1)[C@@H](C)c1ccc(C(=O)NCCCNC(=O)c2ccc(-c3c4nc(c(-c5cccc(S(=O)(=O)[O-])c5F)c5ccc([nH]5)c(-c5cccc(S(=O)(=O)[O-])c5F)c5nc(c(-c6cccc(S(=O)(=O)[O-])c6F)c6ccc3[nH]6)C=C5)C=C4)cc2)o1
REMARK SMILES IDX 20 1 19 2 17 3 18 4 16 6 13 7 14 8 89 9 15 10 11 11 12 12
REMARK SMILES IDX 4 13 2 15 1 16 3 17 5 18 6 19 7 20 10 21 8 22 9 23 21 24
REMARK SMILES IDX 22 25 23 26 24 27 25 29 26 30 27 31 88 32 28 33 87 34 29 35
REMARK SMILES IDX 30 36 31 37 81 38 32 39 86 40 80 41 82 42 33 43 85 44 79 45
REMARK SMILES IDX 78 46 34 48 66 49 46 50 65 51 47 52 50 53 64 54 83 55 48 56
REMARK SMILES IDX 49 57 63 59 84 60 51 61 35 62 36 63 44 64 37 65 39 66 45 67
REMARK SMILES IDX 38 68 40 69 41 70 42 71 43 72 67 73 68 74 76 75 69 76 71 77
REMARK SMILES IDX 77 78 70 79 72 80 73 81 74 82 75 83 52 84 53 85 61 86 54 87
REMARK SMILES IDX 56 88 62 89 55 90 57 91 58 92 59 93 60 94
REMARK H PARENT 19 5 4 14 23 28 82 47 50 58
REMARK Flexibility Score: inf
ROOT
ATOM      1  C   UNL A   1      35.261  21.466  26.163  1.00  0.00     0.118 C 
ENDROOT
BRANCH   1   2
ATOM      2  N   UNL A   1      33.959  20.861  25.978  1.00  0.00    -0.349 N 
ATOM      3  C   UNL A   1      32.861  21.314  25.293  1.00  0.00     0.287 C 
ATOM      4  O   UNL A   1      31.914  20.526  25.211  1.00  0.00    -0.266 OA
ATOM      5  H   UNL A   1      33.844  19.987  26.415  1.00  0.00     0.163 HD
BRANCH   3   6
ATOM      6  C   UNL A   1      32.863  22.613  24.656  1.00  0.00     0.191 A 
ATOM      7  C   UNL A   1      32.341  24.769  24.660  1.00  0.00     0.162 A 
ATOM      8  C   UNL A   1      32.939  24.515  23.443  1.00  0.00     0.053 A 
ATOM      9  O   UNL A   1      32.353  23.632  25.405  1.00  0.00    -0.450 OA
ATOM     10  C   UNL A   1      33.256  23.128  23.433  1.00  0.00     0.057 A 
BRANCH   7  11
ATOM     11  C   UNL A   1      31.695  25.972  25.305  1.00  0.00     0.248 C 
ATOM     12  C   UNL A   1      30.245  25.650  25.703  1.00  0.00     0.084 C 
BRANCH  11  13
ATOM     13  N   UNL A   1      31.886  27.208  24.521  1.00  0.00    -0.320 N 
ATOM     14  H   UNL A   1      31.494  27.840  25.219  1.00  0.00     0.349 HD
BRANCH  13  15
ATOM     15  C   UNL A   1      33.162  27.938  24.493  1.00  0.00     0.178 C 
ATOM     16  C   UNL A   1      33.726  28.127  23.076  1.00  0.00     0.075 C 
ATOM     17  C   UNL A   1      33.236  29.293  25.206  1.00  0.00     0.075 C 
ENDBRANCH  13  15
BRANCH  13  18
ATOM     18  C   UNL A   1      31.056  27.293  23.304  1.00  0.00     0.310 C 
BRANCH  18  19
ATOM     19  C   UNL A   1      29.961  28.327  23.321  1.00  0.00     0.059 A 
ATOM     20  C   UNL A   1      30.079  29.700  23.456  1.00  0.00     0.021 A 
ATOM     21  S   UNL A   1      28.304  27.870  23.255  1.00  0.00    -0.143 S 
ATOM     22  C   UNL A   1      28.844  30.376  23.239  1.00  0.00     0.012 A 
ATOM     23  C   UNL A   1      27.802  29.495  23.062  1.00  0.00     0.065 A 
ENDBRANCH  18  19
ENDBRANCH  13  18
ENDBRANCH  11  13
ENDBRANCH   7  11
ENDBRANCH   3   6
ENDBRANCH   1   2
BRANCH   1  24
ATOM     24  C   UNL A   1      36.189  21.158  24.996  1.00  0.00     0.042 C 
BRANCH  24  25
ATOM     25  C   UNL A   1      37.597  21.720  25.175  1.00  0.00     0.118 C 
BRANCH  25  26
ATOM     26  N   UNL A   1      38.509  20.748  25.762  1.00  0.00    -0.352 N 
ATOM     27  C   UNL A   1      39.723  20.935  26.376  1.00  0.00     0.251 C 
ATOM     28  H   UNL A   1      38.209  19.813  25.711  1.00  0.00     0.163 HD
ATOM     29  O   UNL A   1      40.437  19.962  26.603  1.00  0.00    -0.269 OA
BRANCH  27  30
ATOM     30  C   UNL A   1      40.175  22.291  26.757  1.00  0.00     0.039 A 
ATOM     31  C   UNL A   1      41.131  22.426  27.769  1.00  0.00     0.014 A 
ATOM     32  C   UNL A   1      39.633  23.430  26.155  1.00  0.00     0.014 A 
ATOM     33  C   UNL A   1      41.577  23.696  28.140  1.00  0.00     0.010 A 
ATOM     34  C   UNL A   1      40.136  24.689  26.469  1.00  0.00     0.010 A 
ATOM     35  C   UNL A   1      41.103  24.838  27.474  1.00  0.00    -0.014 A 
BRANCH  35  36
ATOM     36  C   UNL A   1      41.607  26.193  27.811  1.00  0.00     0.031 A 
ATOM     37  C   UNL A   1      43.013  26.592  27.455  1.00  0.00     0.074 A 
ATOM     38  C   UNL A   1      40.825  27.035  28.516  1.00  0.00     0.049 A 
ATOM     39  N   UNL A   1      43.639  27.715  27.698  1.00  0.00    -0.248 NA
ATOM     40  C   UNL A   1      43.836  25.588  26.761  1.00  0.00     0.031 C 
ATOM     41  C   UNL A   1      39.471  26.737  28.986  1.00  0.00     0.029 A 
ATOM     42  N   UNL A   1      41.064  28.306  28.976  1.00  0.00    -0.354 N 
ATOM     43  C   UNL A   1      44.935  27.539  27.227  1.00  0.00     0.074 A 
ATOM     44  C   UNL A   1      45.016  26.188  26.715  1.00  0.00     0.031 C 
ATOM     45  C   UNL A   1      38.993  27.800  29.650  1.00  0.00     0.029 A 
ATOM     46  C   UNL A   1      40.013  28.843  29.680  1.00  0.00     0.049 A 
ATOM     47  H   UNL A   1      41.909  28.786  28.818  1.00  0.00     0.167 HD
ATOM     48  C   UNL A   1      45.958  28.428  27.195  1.00  0.00     0.034 A 
ATOM     49  C   UNL A   1      39.883  30.044  30.277  1.00  0.00     0.034 A 
ATOM     50  C   UNL A   1      45.856  29.785  27.662  1.00  0.00     0.049 A 
ATOM     51  C   UNL A   1      41.018  31.028  30.194  1.00  0.00     0.074 A 
ATOM     52  C   UNL A   1      46.796  30.796  27.579  1.00  0.00     0.029 A 
ATOM     53  N   UNL A   1      44.751  30.317  28.307  1.00  0.00    -0.354 N 
ATOM     54  N   UNL A   1      42.177  30.902  29.593  1.00  0.00    -0.248 NA
ATOM     55  C   UNL A   1      40.814  32.330  30.842  1.00  0.00     0.031 C 
ATOM     56  C   UNL A   1      46.267  31.935  28.198  1.00  0.00     0.029 A 
ATOM     57  C   UNL A   1      44.989  31.639  28.644  1.00  0.00     0.049 A 
ATOM     58  H   UNL A   1      43.919  29.827  28.500  1.00  0.00     0.167 HD
ATOM     59  C   UNL A   1      42.825  32.120  29.756  1.00  0.00     0.074 A 
ATOM     60  C   UNL A   1      41.921  32.977  30.499  1.00  0.00     0.031 C 
ATOM     61  C   UNL A   1      44.061  32.495  29.341  1.00  0.00     0.034 A 
BRANCH  48  62
ATOM     62  C   UNL A   1      47.260  27.967  26.591  1.00  0.00     0.023 A 
ATOM     63  C   UNL A   1      48.316  27.564  27.436  1.00  0.00     0.012 A 
ATOM     64  C   UNL A   1      47.435  27.907  25.195  1.00  0.00     0.148 A 
ATOM     65  C   UNL A   1      49.539  27.154  26.903  1.00  0.00     0.002 A 
ATOM     66  C   UNL A   1      48.641  27.453  24.671  1.00  0.00     0.091 A 
ATOM     67  F   UNL A   1      46.433  28.315  24.404  1.00  0.00    -0.205 F 
ATOM     68  C   UNL A   1      49.698  27.090  25.523  1.00  0.00     0.022 A 
BRANCH  66  69
ATOM     69  S   UNL A   1      48.909  27.260  22.904  1.00  0.00     0.127 S 
ATOM     70  O   UNL A   1      50.369  27.264  22.825  1.00  0.00    -0.237 OA
ATOM     71  O   UNL A   1      48.289  25.962  22.635  1.00  0.00    -0.237 OA
ATOM     72  O   UNL A   1      48.239  28.390  22.277  1.00  0.00    -0.744 OA
ENDBRANCH  66  69
ENDBRANCH  48  62
BRANCH  49  73
ATOM     73  C   UNL A   1      38.590  30.417  30.916  1.00  0.00     0.023 A 
ATOM     74  C   UNL A   1      38.376  30.081  32.267  1.00  0.00     0.012 A 
ATOM     75  C   UNL A   1      37.597  31.136  30.221  1.00  0.00     0.148 A 
ATOM     76  C   UNL A   1      37.188  30.430  32.908  1.00  0.00     0.002 A 
ATOM     77  C   UNL A   1      36.438  31.526  30.882  1.00  0.00     0.091 A 
ATOM     78  F   UNL A   1      37.818  31.439  28.935  1.00  0.00    -0.205 F 
ATOM     79  C   UNL A   1      36.224  31.161  32.220  1.00  0.00     0.022 A 
BRANCH  77  80
ATOM     80  S   UNL A   1      35.197  32.578  30.118  1.00  0.00     0.127 S 
ATOM     81  O   UNL A   1      35.987  33.746  29.740  1.00  0.00    -0.237 OA
ATOM     82  O   UNL A   1      34.747  31.749  29.000  1.00  0.00    -0.237 OA
ATOM     83  O   UNL A   1      34.187  32.805  31.142  1.00  0.00    -0.744 OA
ENDBRANCH  77  80
ENDBRANCH  49  73
BRANCH  61  84
ATOM     84  C   UNL A   1      44.504  33.901  29.650  1.00  0.00     0.023 A 
ATOM     85  C   UNL A   1      45.190  34.172  30.850  1.00  0.00     0.012 A 
ATOM     86  C   UNL A   1      44.298  34.941  28.722  1.00  0.00     0.148 A 
ATOM     87  C   UNL A   1      45.634  35.462  31.137  1.00  0.00     0.002 A 
ATOM     88  C   UNL A   1      44.787  36.214  28.993  1.00  0.00     0.091 A 
ATOM     89  F   UNL A   1      43.624  34.669  27.594  1.00  0.00    -0.205 F 
ATOM     90  C   UNL A   1      45.443  36.479  30.205  1.00  0.00     0.022 A 
BRANCH  88  91
ATOM     91  S   UNL A   1      44.672  37.558  27.807  1.00  0.00     0.127 S 
ATOM     92  O   UNL A   1      43.234  37.610  27.552  1.00  0.00    -0.237 OA
ATOM     93  O   UNL A   1      45.198  38.692  28.569  1.00  0.00    -0.237 OA
ATOM     94  O   UNL A   1      45.497  37.163  26.673  1.00  0.00    -0.744 OA
ENDBRANCH  88  91
ENDBRANCH  61  84
ENDBRANCH  35  36
ENDBRANCH  27  30
ENDBRANCH  25  26
ENDBRANCH  24  25
ENDBRANCH   1  24
TORSDOF 18
ENDMDL
MODEL 3
REMARK VINA RESULT:     -11.1      2.502      8.164
REMARK SMILES CC(C)[N@@H+](Cc1cccs1)[C@@H](C)c1ccc(C(=O)NCCCNC(=O)c2ccc(-c3c4nc(c(-c5cccc(S(=O)(=O)[O-])c5F)c5ccc([nH]5)c(-c5cccc(S(=O)(=O)[O-])c5F)c5nc(c(-c6cccc(S(=O)(=O)[O-])c6F)c6ccc3[nH]6)C=C5)C=C4)cc2)o1
REMARK SMILES IDX 20 1 19 2 17 3 18 4 16 6 13 7 14 8 89 9 15 10 11 11 12 12
REMARK SMILES IDX 4 13 2 15 1 16 3 17 5 18 6 19 7 20 10 21 8 22 9 23 21 24
REMARK SMILES IDX 22 25 23 26 24 27 25 29 26 30 27 31 88 32 28 33 87 34 29 35
REMARK SMILES IDX 30 36 31 37 81 38 32 39 86 40 80 41 82 42 33 43 85 44 79 45
REMARK SMILES IDX 78 46 34 48 66 49 46 50 65 51 47 52 50 53 64 54 83 55 48 56
REMARK SMILES IDX 49 57 63 59 84 60 51 61 35 62 36 63 44 64 37 65 39 66 45 67
REMARK SMILES IDX 38 68 40 69 41 70 42 71 43 72 67 73 68 74 76 75 69 76 71 77
REMARK SMILES IDX 77 78 70 79 72 80 73 81 74 82 75 83 52 84 53 85 61 86 54 87
REMARK SMILES IDX 56 88 62 89 55 90 57 91 58 92 59 93 60 94
REMARK H PARENT 19 5 4 14 23 28 82 47 50 58
REMARK Flexibility Score: inf
ROOT
ATOM      1  C   UNL A   1      37.039  20.653  24.952  1.00  0.00     0.118 C 
ENDROOT
BRANCH   1   2
ATOM      2  N   UNL A   1      35.751  19.995  25.014  1.00  0.00    -0.349 N 
ATOM      3  C   UNL A   1      34.486  20.524  25.056  1.00  0.00     0.287 C 
ATOM      4  O   UNL A   1      33.560  19.711  24.991  1.00  0.00    -0.266 OA
ATOM      5  H   UNL A   1      35.790  19.011  25.031  1.00  0.00     0.163 HD
BRANCH   3   6
ATOM      6  C   UNL A   1      34.278  21.955  25.103  1.00  0.00     0.191 A 
ATOM      7  C   UNL A   1      32.943  23.720  24.960  1.00  0.00     0.162 A 
ATOM      8  C   UNL A   1      34.215  24.210  25.168  1.00  0.00     0.053 A 
ATOM      9  O   UNL A   1      32.982  22.361  24.981  1.00  0.00    -0.450 OA
ATOM     10  C   UNL A   1      35.074  23.078  25.241  1.00  0.00     0.057 A 
BRANCH   7  11
ATOM     11  C   UNL A   1      31.586  24.335  24.711  1.00  0.00     0.248 C 
ATOM     12  C   UNL A   1      30.912  23.669  23.500  1.00  0.00     0.084 C 
BRANCH  11  13
ATOM     13  N   UNL A   1      31.626  25.810  24.692  1.00  0.00    -0.320 N 
ATOM     14  H   UNL A   1      32.616  25.888  24.461  1.00  0.00     0.349 HD
BRANCH  13  15
ATOM     15  C   UNL A   1      31.231  26.598  23.514  1.00  0.00     0.178 C 
ATOM     16  C   UNL A   1      29.922  27.378  23.714  1.00  0.00     0.075 C 
ATOM     17  C   UNL A   1      32.259  27.561  22.910  1.00  0.00     0.075 C 
ENDBRANCH  13  15
BRANCH  13  18
ATOM     18  C   UNL A   1      31.408  26.444  26.006  1.00  0.00     0.310 C 
BRANCH  18  19
ATOM     19  C   UNL A   1      32.389  27.521  26.392  1.00  0.00     0.059 A 
ATOM     20  C   UNL A   1      33.765  27.522  26.242  1.00  0.00     0.021 A 
ATOM     21  S   UNL A   1      31.871  28.946  27.203  1.00  0.00    -0.143 S 
ATOM     22  C   UNL A   1      34.344  28.787  26.549  1.00  0.00     0.012 A 
ATOM     23  C   UNL A   1      33.410  29.675  27.031  1.00  0.00     0.065 A 
ENDBRANCH  18  19
ENDBRANCH  13  18
ENDBRANCH  11  13
ENDBRANCH   7  11
ENDBRANCH   3   6
ENDBRANCH   1   2
BRANCH   1  24
ATOM     24  C   UNL A   1      38.181  19.649  25.022  1.00  0.00     0.042 C 
BRANCH  24  25
ATOM     25  C   UNL A   1      39.297  20.064  25.978  1.00  0.00     0.118 C 
BRANCH  25  26
ATOM     26  N   UNL A   1      40.395  19.109  25.993  1.00  0.00    -0.352 N 
ATOM     27  C   UNL A   1      41.752  19.323  26.031  1.00  0.00     0.251 C 
ATOM     28  H   UNL A   1      40.125  18.163  25.972  1.00  0.00     0.163 HD
ATOM     29  O   UNL A   1      42.514  18.385  25.811  1.00  0.00    -0.269 OA
BRANCH  27  30
ATOM     30  C   UNL A   1      42.296  20.666  26.327  1.00  0.00     0.039 A 
ATOM     31  C   UNL A   1      42.801  21.438  25.276  1.00  0.00     0.014 A 
ATOM     32  C   UNL A   1      42.352  21.151  27.637  1.00  0.00     0.014 A 
ATOM     33  C   UNL A   1      43.313  22.712  25.532  1.00  0.00     0.010 A 
ATOM     34  C   UNL A   1      42.787  22.450  27.880  1.00  0.00     0.010 A 
ATOM     35  C   UNL A   1      43.286  23.240  26.834  1.00  0.00    -0.014 A 
BRANCH  35  36
ATOM     36  C   UNL A   1      43.770  24.613  27.120  1.00  0.00     0.031 A 
ATOM     37  C   UNL A   1      42.824  25.660  27.643  1.00  0.00     0.074 A 
ATOM     38  C   UNL A   1      45.044  24.942  26.827  1.00  0.00     0.049 A 
ATOM     39  N   UNL A   1      43.056  26.919  27.917  1.00  0.00    -0.248 NA
ATOM     40  C   UNL A   1      41.428  25.249  27.858  1.00  0.00     0.031 C 
ATOM     41  C   UNL A   1      46.038  24.038  26.245  1.00  0.00     0.029 A 
ATOM     42  N   UNL A   1      45.716  26.132  26.960  1.00  0.00    -0.354 N 
ATOM     43  C   UNL A   1      41.831  27.458  28.295  1.00  0.00     0.074 A 
ATOM     44  C   UNL A   1      40.852  26.398  28.182  1.00  0.00     0.031 C 
ATOM     45  C   UNL A   1      47.195  24.698  26.090  1.00  0.00     0.029 A 
ATOM     46  C   UNL A   1      47.021  26.078  26.531  1.00  0.00     0.049 A 
ATOM     47  H   UNL A   1      45.302  26.946  27.325  1.00  0.00     0.167 HD
ATOM     48  C   UNL A   1      41.550  28.711  28.726  1.00  0.00     0.034 A 
ATOM     49  C   UNL A   1      47.972  27.032  26.502  1.00  0.00     0.034 A 
ATOM     50  C   UNL A   1      42.536  29.746  28.883  1.00  0.00     0.049 A 
ATOM     51  C   UNL A   1      47.645  28.405  27.022  1.00  0.00     0.074 A 
ATOM     52  C   UNL A   1      42.377  31.015  29.411  1.00  0.00     0.029 A 
ATOM     53  N   UNL A   1      43.865  29.635  28.503  1.00  0.00    -0.354 N 
ATOM     54  N   UNL A   1      46.523  28.848  27.537  1.00  0.00    -0.248 NA
ATOM     55  C   UNL A   1      48.726  29.400  26.990  1.00  0.00     0.031 C 
ATOM     56  C   UNL A   1      43.605  31.681  29.327  1.00  0.00     0.029 A 
ATOM     57  C   UNL A   1      44.535  30.817  28.770  1.00  0.00     0.049 A 
ATOM     58  H   UNL A   1      44.272  28.834  28.102  1.00  0.00     0.167 HD
ATOM     59  C   UNL A   1      46.772  30.159  27.924  1.00  0.00     0.074 A 
ATOM     60  C   UNL A   1      48.158  30.432  27.600  1.00  0.00     0.031 C 
ATOM     61  C   UNL A   1      45.928  31.060  28.486  1.00  0.00     0.034 A 
BRANCH  48  62
ATOM     62  C   UNL A   1      40.121  29.012  29.103  1.00  0.00     0.023 A 
ATOM     63  C   UNL A   1      39.176  29.284  28.091  1.00  0.00     0.012 A 
ATOM     64  C   UNL A   1      39.704  29.001  30.448  1.00  0.00     0.148 A 
ATOM     65  C   UNL A   1      37.853  29.587  28.414  1.00  0.00     0.002 A 
ATOM     66  C   UNL A   1      38.373  29.258  30.759  1.00  0.00     0.091 A 
ATOM     67  F   UNL A   1      40.617  28.765  31.401  1.00  0.00    -0.205 F 
ATOM     68  C   UNL A   1      37.450  29.565  29.745  1.00  0.00     0.022 A 
BRANCH  66  69
ATOM     69  S   UNL A   1      37.745  29.173  32.441  1.00  0.00     0.127 S 
ATOM     70  O   UNL A   1      38.665  30.063  33.145  1.00  0.00    -0.237 OA
ATOM     71  O   UNL A   1      36.386  29.696  32.292  1.00  0.00    -0.237 OA
ATOM     72  O   UNL A   1      37.812  27.768  32.816  1.00  0.00    -0.744 OA
ENDBRANCH  66  69
ENDBRANCH  48  62
BRANCH  49  73
ATOM     73  C   UNL A   1      49.352  26.688  26.057  1.00  0.00     0.023 A 
ATOM     74  C   UNL A   1      50.149  25.870  26.880  1.00  0.00     0.012 A 
ATOM     75  C   UNL A   1      49.861  27.120  24.817  1.00  0.00     0.148 A 
ATOM     76  C   UNL A   1      51.438  25.508  26.490  1.00  0.00     0.002 A 
ATOM     77  C   UNL A   1      51.127  26.713  24.411  1.00  0.00     0.091 A 
ATOM     78  F   UNL A   1      49.088  27.903  24.052  1.00  0.00    -0.205 F 
ATOM     79  C   UNL A   1      51.923  25.920  25.252  1.00  0.00     0.022 A 
BRANCH  77  80
ATOM     80  S   UNL A   1      51.787  27.085  22.782  1.00  0.00     0.127 S 
ATOM     81  O   UNL A   1      50.690  26.669  21.912  1.00  0.00    -0.237 OA
ATOM     82  O   UNL A   1      51.994  28.531  22.865  1.00  0.00    -0.237 OA
ATOM     83  O   UNL A   1      53.013  26.308  22.664  1.00  0.00    -0.744 OA
ENDBRANCH  77  80
ENDBRANCH  49  73
BRANCH  61  84
ATOM     84  C   UNL A   1      46.482  32.420  28.818  1.00  0.00     0.023 A 
ATOM     85  C   UNL A   1      47.086  32.644  30.071  1.00  0.00     0.012 A 
ATOM     86  C   UNL A   1      46.463  33.458  27.866  1.00  0.00     0.148 A 
ATOM     87  C   UNL A   1      47.632  33.889  30.383  1.00  0.00     0.002 A 
ATOM     88  C   UNL A   1      47.053  34.681  28.165  1.00  0.00     0.091 A 
ATOM     89  F   UNL A   1      45.864  33.234  26.686  1.00  0.00    -0.205 F 
ATOM     90  C   UNL A   1      47.626  34.901  29.427  1.00  0.00     0.022 A 
BRANCH  88  91
ATOM     91  S   UNL A   1      47.176  36.007  26.961  1.00  0.00     0.127 S 
ATOM     92  O   UNL A   1      45.770  36.293  26.685  1.00  0.00    -0.237 OA
ATOM     93  O   UNL A   1      47.874  37.050  27.715  1.00  0.00    -0.237 OA
ATOM     94  O   UNL A   1      47.936  35.463  25.843  1.00  0.00    -0.744 OA
ENDBRANCH  88  91
ENDBRANCH  61  84
ENDBRANCH  35  36
ENDBRANCH  27  30
ENDBRANCH  25  26
ENDBRANCH  24  25
ENDBRANCH   1  24
TORSDOF 18
ENDMDL
