MODEL 1
REMARK VINA RESULT:     -10.9      0.000      0.000
REMARK SMILES CC(C)(C)N(CC(=O)NCCCNC(=O)c1ccc(-c2c3nc(c(-c4cccc(S(=O)(=O)[O-])c4F)c4ccc([nH]4)c(-c4cccc(S(=O)(=O)[O-])c4F)c4nc(c(-c5cccc(S(=O)(=O)[O-])c5F)c5ccc2[nH]5)C=C4)C=C3)cc1)C(=O)NCCc1cnc[nH]1
REMARK SMILES IDX 10 1 9 2 7 3 8 4 6 6 5 7 2 8 1 9 3 10 4 11 79 12 80 13 81 14
REMARK SMILES IDX 82 16 83 17 84 18 85 19 88 20 86 21 87 22 11 24 12 25 13 26
REMARK SMILES IDX 14 27 15 29 16 30 17 31 78 32 18 33 77 34 19 35 20 36 21 37
REMARK SMILES IDX 71 38 22 39 76 40 70 41 72 42 23 43 75 44 69 45 68 46 24 48
REMARK SMILES IDX 56 49 36 50 55 51 37 52 40 53 54 54 73 55 38 56 39 57 53 59
REMARK SMILES IDX 74 60 41 61 25 62 26 63 34 64 27 65 29 66 35 67 28 68 30 69
REMARK SMILES IDX 31 70 32 71 33 72 57 73 58 74 66 75 59 76 61 77 67 78 60 79
REMARK SMILES IDX 62 80 63 81 64 82 65 83 42 84 43 85 51 86 44 87 46 88 52 89
REMARK SMILES IDX 45 90 47 91 48 92 49 93 50 94
REMARK H PARENT 9 5 81 15 88 23 13 28 72 47 40 58
REMARK Flexibility Score: inf
ROOT
ATOM      1  C   UNL A   1      33.490  29.510  26.992  1.00  0.00     0.117 C 
ENDROOT
BRANCH   1   2
ATOM      2  N   UNL A   1      32.289  28.717  27.131  1.00  0.00    -0.354 N 
ATOM      3  C   UNL A   1      32.019  27.491  26.605  1.00  0.00     0.239 C 
ATOM      4  O   UNL A   1      31.126  26.835  27.156  1.00  0.00    -0.273 OA
ATOM      5  H   UNL A   1      31.574  29.115  27.677  1.00  0.00     0.163 HD
BRANCH   3   6
ATOM      6  C   UNL A   1      32.892  26.857  25.505  1.00  0.00     0.221 C 
BRANCH   6   7
ATOM      7  N   UNL A   1      32.541  27.123  24.103  1.00  0.00    -0.311 N 
BRANCH   7   8
ATOM      8  C   UNL A   1      31.741  26.076  23.319  1.00  0.00     0.037 C 
ATOM      9  C   UNL A   1      31.642  26.345  21.792  1.00  0.00     0.034 C 
ATOM     10  C   UNL A   1      30.277  25.962  23.812  1.00  0.00     0.034 C 
ATOM     11  C   UNL A   1      32.422  24.689  23.436  1.00  0.00     0.034 C 
ENDBRANCH   7   8
BRANCH   7  12
ATOM     12  C   UNL A   1      32.667  28.369  23.525  1.00  0.00     0.318 C 
ATOM     13  O   UNL A   1      33.675  28.712  22.902  1.00  0.00    -0.249 OA
ATOM     14  N   UNL A   1      31.736  29.334  23.553  1.00  0.00    -0.338 N 
ATOM     15  H   UNL A   1      32.113  30.170  23.194  1.00  0.00     0.165 HD
BRANCH  14  16
ATOM     16  C   UNL A   1      30.347  29.550  23.938  1.00  0.00     0.124 C 
BRANCH  16  17
ATOM     17  C   UNL A   1      29.451  29.789  22.715  1.00  0.00     0.077 C 
BRANCH  17  18
ATOM     18  C   UNL A   1      29.048  31.219  22.558  1.00  0.00     0.036 A 
ATOM     19  C   UNL A   1      28.237  31.844  21.635  1.00  0.00     0.134 A 
ATOM     20  N   UNL A   1      29.426  32.221  23.418  1.00  0.00    -0.348 N 
ATOM     21  N   UNL A   1      28.102  33.176  21.919  1.00  0.00    -0.245 NA
ATOM     22  C   UNL A   1      28.825  33.374  22.998  1.00  0.00     0.196 A 
ATOM     23  H   UNL A   1      30.022  32.125  24.197  1.00  0.00     0.167 HD
ENDBRANCH  17  18
ENDBRANCH  16  17
ENDBRANCH  14  16
ENDBRANCH   7  12
ENDBRANCH   6   7
ENDBRANCH   3   6
ENDBRANCH   1   2
BRANCH   1  24
ATOM     24  C   UNL A   1      33.230  30.921  26.486  1.00  0.00     0.042 C 
BRANCH  24  25
ATOM     25  C   UNL A   1      32.084  31.632  27.194  1.00  0.00     0.118 C 
BRANCH  25  26
ATOM     26  N   UNL A   1      32.310  33.069  27.324  1.00  0.00    -0.352 N 
ATOM     27  C   UNL A   1      33.282  33.773  27.993  1.00  0.00     0.251 C 
ATOM     28  H   UNL A   1      31.653  33.629  26.851  1.00  0.00     0.163 HD
ATOM     29  O   UNL A   1      33.132  34.980  28.166  1.00  0.00    -0.269 OA
BRANCH  27  30
ATOM     30  C   UNL A   1      34.493  33.099  28.513  1.00  0.00     0.039 A 
ATOM     31  C   UNL A   1      35.741  33.429  27.971  1.00  0.00     0.014 A 
ATOM     32  C   UNL A   1      34.404  32.118  29.501  1.00  0.00     0.014 A 
ATOM     33  C   UNL A   1      36.901  32.841  28.485  1.00  0.00     0.010 A 
ATOM     34  C   UNL A   1      35.564  31.597  30.069  1.00  0.00     0.010 A 
ATOM     35  C   UNL A   1      36.826  31.959  29.574  1.00  0.00    -0.014 A 
BRANCH  35  36
ATOM     36  C   UNL A   1      38.042  31.436  30.249  1.00  0.00     0.031 A 
ATOM     37  C   UNL A   1      38.870  30.356  29.605  1.00  0.00     0.074 A 
ATOM     38  C   UNL A   1      38.325  31.844  31.503  1.00  0.00     0.049 A 
ATOM     39  N   UNL A   1      39.877  29.684  30.099  1.00  0.00    -0.248 NA
ATOM     40  C   UNL A   1      38.499  29.960  28.237  1.00  0.00     0.031 C 
ATOM     41  C   UNL A   1      37.558  32.831  32.264  1.00  0.00     0.029 A 
ATOM     42  N   UNL A   1      39.310  31.447  32.375  1.00  0.00    -0.354 N 
ATOM     43  C   UNL A   1      40.233  28.760  29.124  1.00  0.00     0.074 A 
ATOM     44  C   UNL A   1      39.319  28.941  28.018  1.00  0.00     0.031 C 
ATOM     45  C   UNL A   1      38.092  32.958  33.489  1.00  0.00     0.029 A 
ATOM     46  C   UNL A   1      39.212  32.032  33.617  1.00  0.00     0.049 A 
ATOM     47  H   UNL A   1      40.017  30.806  32.135  1.00  0.00     0.167 HD
ATOM     48  C   UNL A   1      41.245  27.859  29.139  1.00  0.00     0.034 A 
ATOM     49  C   UNL A   1      39.924  31.828  34.743  1.00  0.00     0.034 A 
ATOM     50  C   UNL A   1      42.178  27.712  30.223  1.00  0.00     0.049 A 
ATOM     51  C   UNL A   1      41.046  30.827  34.729  1.00  0.00     0.074 A 
ATOM     52  C   UNL A   1      43.300  26.904  30.289  1.00  0.00     0.029 A 
ATOM     53  N   UNL A   1      42.092  28.374  31.438  1.00  0.00    -0.354 N 
ATOM     54  N   UNL A   1      41.475  30.084  33.737  1.00  0.00    -0.248 NA
ATOM     55  C   UNL A   1      41.799  30.653  35.979  1.00  0.00     0.031 C 
ATOM     56  C   UNL A   1      43.874  27.055  31.555  1.00  0.00     0.029 A 
ATOM     57  C   UNL A   1      43.124  27.974  32.270  1.00  0.00     0.049 A 
ATOM     58  H   UNL A   1      41.399  29.032  31.676  1.00  0.00     0.167 HD
ATOM     59  C   UNL A   1      42.557  29.369  34.238  1.00  0.00     0.074 A 
ATOM     60  C   UNL A   1      42.739  29.792  35.611  1.00  0.00     0.031 C 
ATOM     61  C   UNL A   1      43.319  28.432  33.622  1.00  0.00     0.034 A 
BRANCH  48  62
ATOM     62  C   UNL A   1      41.431  26.992  27.921  1.00  0.00     0.023 A 
ATOM     63  C   UNL A   1      42.080  27.519  26.785  1.00  0.00     0.012 A 
ATOM     64  C   UNL A   1      41.028  25.642  27.922  1.00  0.00     0.148 A 
ATOM     65  C   UNL A   1      42.294  26.727  25.658  1.00  0.00     0.002 A 
ATOM     66  C   UNL A   1      41.283  24.847  26.810  1.00  0.00     0.091 A 
ATOM     67  F   UNL A   1      40.395  25.163  29.003  1.00  0.00    -0.205 F 
ATOM     68  C   UNL A   1      41.905  25.391  25.674  1.00  0.00     0.022 A 
BRANCH  66  69
ATOM     69  S   UNL A   1      40.890  23.095  26.759  1.00  0.00     0.127 S 
ATOM     70  O   UNL A   1      41.436  22.635  28.035  1.00  0.00    -0.237 OA
ATOM     71  O   UNL A   1      39.429  23.110  26.692  1.00  0.00    -0.237 OA
ATOM     72  O   UNL A   1      41.549  22.569  25.572  1.00  0.00    -0.744 OA
ENDBRANCH  66  69
ENDBRANCH  48  62
BRANCH  49  73
ATOM     73  C   UNL A   1      39.619  32.619  35.969  1.00  0.00     0.023 A 
ATOM     74  C   UNL A   1      40.228  33.877  36.147  1.00  0.00     0.012 A 
ATOM     75  C   UNL A   1      38.712  32.152  36.941  1.00  0.00     0.148 A 
ATOM     76  C   UNL A   1      39.961  34.644  37.282  1.00  0.00     0.002 A 
ATOM     77  C   UNL A   1      38.407  32.947  38.040  1.00  0.00     0.091 A 
ATOM     78  F   UNL A   1      38.154  30.947  36.759  1.00  0.00    -0.205 F 
ATOM     79  C   UNL A   1      39.044  34.184  38.221  1.00  0.00     0.022 A 
BRANCH  77  80
ATOM     80  S   UNL A   1      37.138  32.497  39.229  1.00  0.00     0.127 S 
ATOM     81  O   UNL A   1      37.517  31.125  39.565  1.00  0.00    -0.237 OA
ATOM     82  O   UNL A   1      37.365  33.477  40.295  1.00  0.00    -0.237 OA
ATOM     83  O   UNL A   1      35.874  32.653  38.532  1.00  0.00    -0.744 OA
ENDBRANCH  77  80
ENDBRANCH  49  73
BRANCH  61  84
ATOM     84  C   UNL A   1      44.428  27.798  34.421  1.00  0.00     0.023 A 
ATOM     85  C   UNL A   1      45.694  28.416  34.463  1.00  0.00     0.012 A 
ATOM     86  C   UNL A   1      44.195  26.644  35.194  1.00  0.00     0.148 A 
ATOM     87  C   UNL A   1      46.719  27.880  35.240  1.00  0.00     0.002 A 
ATOM     88  C   UNL A   1      45.206  26.142  36.004  1.00  0.00     0.091 A 
ATOM     89  F   UNL A   1      42.988  26.065  35.129  1.00  0.00    -0.205 F 
ATOM     90  C   UNL A   1      46.473  26.753  36.019  1.00  0.00     0.022 A 
BRANCH  88  91
ATOM     91  S   UNL A   1      44.960  24.751  37.113  1.00  0.00     0.127 S 
ATOM     92  O   UNL A   1      44.637  23.676  36.175  1.00  0.00    -0.237 OA
ATOM     93  O   UNL A   1      46.271  24.629  37.752  1.00  0.00    -0.237 OA
ATOM     94  O   UNL A   1      43.880  25.135  38.011  1.00  0.00    -0.744 OA
ENDBRANCH  88  91
ENDBRANCH  61  84
ENDBRANCH  35  36
ENDBRANCH  27  30
ENDBRANCH  25  26
ENDBRANCH  24  25
ENDBRANCH   1  24
TORSDOF 19
ENDMDL
MODEL 2
REMARK VINA RESULT:     -10.9      6.292     11.517
REMARK SMILES CC(C)(C)N(CC(=O)NCCCNC(=O)c1ccc(-c2c3nc(c(-c4cccc(S(=O)(=O)[O-])c4F)c4ccc([nH]4)c(-c4cccc(S(=O)(=O)[O-])c4F)c4nc(c(-c5cccc(S(=O)(=O)[O-])c5F)c5ccc2[nH]5)C=C4)C=C3)cc1)C(=O)NCCc1cnc[nH]1
REMARK SMILES IDX 10 1 9 2 7 3 8 4 6 6 5 7 2 8 1 9 3 10 4 11 79 12 80 13 81 14
REMARK SMILES IDX 82 16 83 17 84 18 85 19 88 20 86 21 87 22 11 24 12 25 13 26
REMARK SMILES IDX 14 27 15 29 16 30 17 31 78 32 18 33 77 34 19 35 20 36 21 37
REMARK SMILES IDX 71 38 22 39 76 40 70 41 72 42 23 43 75 44 69 45 68 46 24 48
REMARK SMILES IDX 56 49 36 50 55 51 37 52 40 53 54 54 73 55 38 56 39 57 53 59
REMARK SMILES IDX 74 60 41 61 25 62 26 63 34 64 27 65 29 66 35 67 28 68 30 69
REMARK SMILES IDX 31 70 32 71 33 72 57 73 58 74 66 75 59 76 61 77 67 78 60 79
REMARK SMILES IDX 62 80 63 81 64 82 65 83 42 84 43 85 51 86 44 87 46 88 52 89
REMARK SMILES IDX 45 90 47 91 48 92 49 93 50 94
REMARK H PARENT 9 5 81 15 88 23 13 28 72 47 40 58
REMARK Flexibility Score: inf
ROOT
ATOM      1  C   UNL A   1      36.480  21.001  24.872  1.00  0.00     0.117 C 
ENDROOT
BRANCH   1   2
ATOM      2  N   UNL A   1      35.856  21.340  26.132  1.00  0.00    -0.354 N 
ATOM      3  C   UNL A   1      35.082  22.420  26.429  1.00  0.00     0.239 C 
ATOM      4  O   UNL A   1      34.342  22.318  27.415  1.00  0.00    -0.273 OA
ATOM      5  H   UNL A   1      36.009  20.708  26.870  1.00  0.00     0.163 HD
BRANCH   3   6
ATOM      6  C   UNL A   1      34.979  23.641  25.494  1.00  0.00     0.221 C 
BRANCH   6   7
ATOM      7  N   UNL A   1      33.840  23.709  24.568  1.00  0.00    -0.311 N 
BRANCH   7   8
ATOM      8  C   UNL A   1      32.749  24.760  24.801  1.00  0.00     0.037 C 
ATOM      9  C   UNL A   1      32.253  25.477  23.514  1.00  0.00     0.034 C 
ATOM     10  C   UNL A   1      33.213  25.893  25.750  1.00  0.00     0.034 C 
ATOM     11  C   UNL A   1      31.484  24.092  25.396  1.00  0.00     0.034 C 
ENDBRANCH   7   8
BRANCH   7  12
ATOM     12  C   UNL A   1      33.823  23.054  23.354  1.00  0.00     0.318 C 
ATOM     13  O   UNL A   1      34.559  23.375  22.418  1.00  0.00    -0.249 OA
ATOM     14  N   UNL A   1      33.041  22.009  23.049  1.00  0.00    -0.338 N 
ATOM     15  H   UNL A   1      33.114  21.811  22.087  1.00  0.00     0.165 HD
BRANCH  14  16
ATOM     16  C   UNL A   1      32.119  21.070  23.674  1.00  0.00     0.124 C 
BRANCH  16  17
ATOM     17  C   UNL A   1      32.826  20.187  24.711  1.00  0.00     0.077 C 
BRANCH  17  18
ATOM     18  C   UNL A   1      33.210  18.847  24.174  1.00  0.00     0.036 A 
ATOM     19  C   UNL A   1      32.704  18.100  23.131  1.00  0.00     0.134 A 
ATOM     20  N   UNL A   1      34.258  18.100  24.655  1.00  0.00    -0.348 N 
ATOM     21  N   UNL A   1      33.418  16.945  22.960  1.00  0.00    -0.245 NA
ATOM     22  C   UNL A   1      34.347  16.973  23.888  1.00  0.00     0.196 A 
ATOM     23  H   UNL A   1      34.839  18.335  25.415  1.00  0.00     0.167 HD
ENDBRANCH  17  18
ENDBRANCH  16  17
ENDBRANCH  14  16
ENDBRANCH   7  12
ENDBRANCH   6   7
ENDBRANCH   3   6
ENDBRANCH   1   2
BRANCH   1  24
ATOM     24  C   UNL A   1      37.598  19.978  25.007  1.00  0.00     0.042 C 
BRANCH  24  25
ATOM     25  C   UNL A   1      38.836  20.502  25.723  1.00  0.00     0.118 C 
BRANCH  25  26
ATOM     26  N   UNL A   1      39.868  19.481  25.882  1.00  0.00    -0.352 N 
ATOM     27  C   UNL A   1      41.222  19.590  26.084  1.00  0.00     0.251 C 
ATOM     28  H   UNL A   1      39.535  18.555  25.835  1.00  0.00     0.163 HD
ATOM     29  O   UNL A   1      41.929  18.595  25.942  1.00  0.00    -0.269 OA
BRANCH  27  30
ATOM     30  C   UNL A   1      41.838  20.884  26.456  1.00  0.00     0.039 A 
ATOM     31  C   UNL A   1      42.122  21.816  25.451  1.00  0.00     0.014 A 
ATOM     32  C   UNL A   1      42.173  21.170  27.780  1.00  0.00     0.014 A 
ATOM     33  C   UNL A   1      42.656  23.064  25.788  1.00  0.00     0.010 A 
ATOM     34  C   UNL A   1      42.624  22.441  28.123  1.00  0.00     0.010 A 
ATOM     35  C   UNL A   1      42.863  23.406  27.134  1.00  0.00    -0.014 A 
BRANCH  35  36
ATOM     36  C   UNL A   1      43.277  24.773  27.543  1.00  0.00     0.031 A 
ATOM     37  C   UNL A   1      42.269  25.744  28.096  1.00  0.00     0.074 A 
ATOM     38  C   UNL A   1      44.538  25.181  27.293  1.00  0.00     0.049 A 
ATOM     39  N   UNL A   1      42.414  27.013  28.375  1.00  0.00    -0.248 NA
ATOM     40  C   UNL A   1      40.911  25.228  28.339  1.00  0.00     0.031 C 
ATOM     41  C   UNL A   1      45.589  24.358  26.693  1.00  0.00     0.029 A 
ATOM     42  N   UNL A   1      45.138  26.403  27.472  1.00  0.00    -0.354 N 
ATOM     43  C   UNL A   1      41.163  27.458  28.786  1.00  0.00     0.074 A 
ATOM     44  C   UNL A   1      40.263  26.329  28.697  1.00  0.00     0.031 C 
ATOM     45  C   UNL A   1      46.700  25.097  26.546  1.00  0.00     0.029 A 
ATOM     46  C   UNL A   1      46.429  26.456  26.999  1.00  0.00     0.049 A 
ATOM     47  H   UNL A   1      44.687  27.169  27.897  1.00  0.00     0.167 HD
ATOM     48  C   UNL A   1      40.802  28.689  29.221  1.00  0.00     0.034 A 
ATOM     49  C   UNL A   1      47.292  27.488  26.913  1.00  0.00     0.034 A 
ATOM     50  C   UNL A   1      41.708  29.798  29.350  1.00  0.00     0.049 A 
ATOM     51  C   UNL A   1      46.867  28.842  27.411  1.00  0.00     0.074 A 
ATOM     52  C   UNL A   1      41.463  31.052  29.881  1.00  0.00     0.029 A 
ATOM     53  N   UNL A   1      43.029  29.793  28.929  1.00  0.00    -0.354 N 
ATOM     54  N   UNL A   1      45.729  29.200  27.954  1.00  0.00    -0.248 NA
ATOM     55  C   UNL A   1      47.850  29.930  27.305  1.00  0.00     0.031 C 
ATOM     56  C   UNL A   1      42.628  31.816  29.753  1.00  0.00     0.029 A 
ATOM     57  C   UNL A   1      43.605  31.031  29.164  1.00  0.00     0.049 A 
ATOM     58  H   UNL A   1      43.491  29.025  28.523  1.00  0.00     0.167 HD
ATOM     59  C   UNL A   1      45.866  30.546  28.273  1.00  0.00     0.074 A 
ATOM     60  C   UNL A   1      47.209  30.932  27.891  1.00  0.00     0.031 C 
ATOM     61  C   UNL A   1      44.955  31.392  28.816  1.00  0.00     0.034 A 
BRANCH  48  62
ATOM     62  C   UNL A   1      39.369  28.892  29.643  1.00  0.00     0.023 A 
ATOM     63  C   UNL A   1      38.958  28.482  30.928  1.00  0.00     0.012 A 
ATOM     64  C   UNL A   1      38.450  29.548  28.800  1.00  0.00     0.148 A 
ATOM     65  C   UNL A   1      37.646  28.689  31.354  1.00  0.00     0.002 A 
ATOM     66  C   UNL A   1      37.155  29.789  29.249  1.00  0.00     0.091 A 
ATOM     67  F   UNL A   1      38.853  29.914  27.575  1.00  0.00    -0.205 F 
ATOM     68  C   UNL A   1      36.750  29.350  30.520  1.00  0.00     0.022 A 
BRANCH  66  69
ATOM     69  S   UNL A   1      35.947  30.699  28.281  1.00  0.00     0.127 S 
ATOM     70  O   UNL A   1      36.756  31.801  27.762  1.00  0.00    -0.237 OA
ATOM     71  O   UNL A   1      35.550  29.711  27.278  1.00  0.00    -0.237 OA
ATOM     72  O   UNL A   1      34.893  31.082  29.210  1.00  0.00    -0.744 OA
ENDBRANCH  66  69
ENDBRANCH  48  62
BRANCH  49  73
ATOM     73  C   UNL A   1      48.661  27.269  26.366  1.00  0.00     0.023 A 
ATOM     74  C   UNL A   1      49.668  26.764  27.211  1.00  0.00     0.012 A 
ATOM     75  C   UNL A   1      48.964  27.526  25.014  1.00  0.00     0.148 A 
ATOM     76  C   UNL A   1      50.959  26.544  26.729  1.00  0.00     0.002 A 
ATOM     77  C   UNL A   1      50.237  27.250  24.527  1.00  0.00     0.091 A 
ATOM     78  F   UNL A   1      47.996  28.018  24.230  1.00  0.00    -0.205 F 
ATOM     79  C   UNL A   1      51.240  26.777  25.387  1.00  0.00     0.022 A 
BRANCH  77  80
ATOM     80  S   UNL A   1      50.651  27.389  22.785  1.00  0.00     0.127 S 
ATOM     81  O   UNL A   1      49.548  26.662  22.157  1.00  0.00    -0.237 OA
ATOM     82  O   UNL A   1      50.623  28.840  22.585  1.00  0.00    -0.237 OA
ATOM     83  O   UNL A   1      51.966  26.790  22.645  1.00  0.00    -0.744 OA
ENDBRANCH  77  80
ENDBRANCH  49  73
BRANCH  61  84
ATOM     84  C   UNL A   1      45.376  32.822  29.037  1.00  0.00     0.023 A 
ATOM     85  C   UNL A   1      46.087  33.163  30.204  1.00  0.00     0.012 A 
ATOM     86  C   UNL A   1      45.141  33.806  28.056  1.00  0.00     0.148 A 
ATOM     87  C   UNL A   1      46.536  34.467  30.405  1.00  0.00     0.002 A 
ATOM     88  C   UNL A   1      45.633  35.092  28.240  1.00  0.00     0.091 A 
ATOM     89  F   UNL A   1      44.451  33.462  26.960  1.00  0.00    -0.205 F 
ATOM     90  C   UNL A   1      46.321  35.427  29.419  1.00  0.00     0.022 A 
BRANCH  88  91
ATOM     91  S   UNL A   1      45.487  36.373  26.990  1.00  0.00     0.127 S 
ATOM     92  O   UNL A   1      46.180  37.492  27.629  1.00  0.00    -0.237 OA
ATOM     93  O   UNL A   1      46.199  35.782  25.857  1.00  0.00    -0.237 OA
ATOM     94  O   UNL A   1      44.060  36.568  26.776  1.00  0.00    -0.744 OA
ENDBRANCH  88  91
ENDBRANCH  61  84
ENDBRANCH  35  36
ENDBRANCH  27  30
ENDBRANCH  25  26
ENDBRANCH  24  25
ENDBRANCH   1  24
TORSDOF 19
ENDMDL
MODEL 3
REMARK VINA RESULT:     -10.9      5.717     10.814
REMARK SMILES CC(C)(C)N(CC(=O)NCCCNC(=O)c1ccc(-c2c3nc(c(-c4cccc(S(=O)(=O)[O-])c4F)c4ccc([nH]4)c(-c4cccc(S(=O)(=O)[O-])c4F)c4nc(c(-c5cccc(S(=O)(=O)[O-])c5F)c5ccc2[nH]5)C=C4)C=C3)cc1)C(=O)NCCc1cnc[nH]1
REMARK SMILES IDX 10 1 9 2 7 3 8 4 6 6 5 7 2 8 1 9 3 10 4 11 79 12 80 13 81 14
REMARK SMILES IDX 82 16 83 17 84 18 85 19 88 20 86 21 87 22 11 24 12 25 13 26
REMARK SMILES IDX 14 27 15 29 16 30 17 31 78 32 18 33 77 34 19 35 20 36 21 37
REMARK SMILES IDX 71 38 22 39 76 40 70 41 72 42 23 43 75 44 69 45 68 46 24 48
REMARK SMILES IDX 56 49 36 50 55 51 37 52 40 53 54 54 73 55 38 56 39 57 53 59
REMARK SMILES IDX 74 60 41 61 25 62 26 63 34 64 27 65 29 66 35 67 28 68 30 69
REMARK SMILES IDX 31 70 32 71 33 72 57 73 58 74 66 75 59 76 61 77 67 78 60 79
REMARK SMILES IDX 62 80 63 81 64 82 65 83 42 84 43 85 51 86 44 87 46 88 52 89
REMARK SMILES IDX 45 90 47 91 48 92 49 93 50 94
REMARK H PARENT 9 5 81 15 88 23 13 28 72 47 40 58
REMARK Flexibility Score: inf
ROOT
ATOM      1  C   UNL A   1      34.485  23.038  26.906  1.00  0.00     0.117 C 
ENDROOT
BRANCH   1   2
ATOM      2  N   UNL A   1      33.120  22.833  27.336  1.00  0.00    -0.354 N 
ATOM      3  C   UNL A   1      31.998  23.488  26.929  1.00  0.00     0.239 C 
ATOM      4  O   UNL A   1      30.920  22.909  27.112  1.00  0.00    -0.273 OA
ATOM      5  H   UNL A   1      32.983  22.128  28.008  1.00  0.00     0.163 HD
BRANCH   3   6
ATOM      6  C   UNL A   1      32.057  24.794  26.113  1.00  0.00     0.221 C 
BRANCH   6   7
ATOM      7  N   UNL A   1      32.034  24.696  24.647  1.00  0.00    -0.311 N 
BRANCH   7   8
ATOM      8  C   UNL A   1      33.098  25.438  23.830  1.00  0.00     0.037 C 
ATOM      9  C   UNL A   1      32.779  26.933  23.553  1.00  0.00     0.034 C 
ATOM     10  C   UNL A   1      33.324  24.799  22.437  1.00  0.00     0.034 C 
ATOM     11  C   UNL A   1      34.443  25.455  24.599  1.00  0.00     0.034 C 
ENDBRANCH   7   8
BRANCH   7  12
ATOM     12  C   UNL A   1      31.267  23.770  23.972  1.00  0.00     0.318 C 
ATOM     13  O   UNL A   1      30.191  24.060  23.443  1.00  0.00    -0.249 OA
ATOM     14  N   UNL A   1      31.586  22.479  23.797  1.00  0.00    -0.338 N 
ATOM     15  H   UNL A   1      30.820  21.998  23.408  1.00  0.00     0.165 HD
BRANCH  14  16
ATOM     16  C   UNL A   1      32.696  21.556  23.992  1.00  0.00     0.124 C 
BRANCH  16  17
ATOM     17  C   UNL A   1      32.255  20.289  24.739  1.00  0.00     0.077 C 
BRANCH  17  18
ATOM     18  C   UNL A   1      32.864  19.043  24.185  1.00  0.00     0.036 A 
ATOM     19  C   UNL A   1      32.488  18.228  23.139  1.00  0.00     0.134 A 
ATOM     20  N   UNL A   1      34.032  18.488  24.651  1.00  0.00    -0.348 N 
ATOM     21  N   UNL A   1      33.392  17.218  22.951  1.00  0.00    -0.245 NA
ATOM     22  C   UNL A   1      34.311  17.401  23.872  1.00  0.00     0.196 A 
ATOM     23  H   UNL A   1      34.569  18.815  25.408  1.00  0.00     0.167 HD
ENDBRANCH  17  18
ENDBRANCH  16  17
ENDBRANCH  14  16
ENDBRANCH   7  12
ENDBRANCH   6   7
ENDBRANCH   3   6
ENDBRANCH   1   2
BRANCH   1  24
ATOM     24  C   UNL A   1      35.189  21.754  26.492  1.00  0.00     0.042 C 
BRANCH  24  25
ATOM     25  C   UNL A   1      36.299  21.957  25.468  1.00  0.00     0.118 C 
BRANCH  25  26
ATOM     26  N   UNL A   1      37.324  20.920  25.539  1.00  0.00    -0.352 N 
ATOM     27  C   UNL A   1      38.665  20.995  25.827  1.00  0.00     0.251 C 
ATOM     28  H   UNL A   1      36.998  20.011  25.345  1.00  0.00     0.163 HD
ATOM     29  O   UNL A   1      39.382  20.026  25.586  1.00  0.00    -0.269 OA
BRANCH  27  30
ATOM     30  C   UNL A   1      39.255  22.222  26.408  1.00  0.00     0.039 A 
ATOM     31  C   UNL A   1      40.306  22.102  27.325  1.00  0.00     0.014 A 
ATOM     32  C   UNL A   1      38.755  23.485  26.087  1.00  0.00     0.014 A 
ATOM     33  C   UNL A   1      40.911  23.251  27.845  1.00  0.00     0.010 A 
ATOM     34  C   UNL A   1      39.412  24.626  26.540  1.00  0.00     0.010 A 
ATOM     35  C   UNL A   1      40.502  24.523  27.416  1.00  0.00    -0.014 A 
BRANCH  35  36
ATOM     36  C   UNL A   1      41.220  25.759  27.823  1.00  0.00     0.031 A 
ATOM     37  C   UNL A   1      40.497  26.857  28.556  1.00  0.00     0.074 A 
ATOM     38  C   UNL A   1      42.491  25.947  27.413  1.00  0.00     0.049 A 
ATOM     39  N   UNL A   1      40.917  28.056  28.868  1.00  0.00    -0.248 NA
ATOM     40  C   UNL A   1      39.110  26.582  28.967  1.00  0.00     0.031 C 
ATOM     41  C   UNL A   1      43.278  24.989  26.634  1.00  0.00     0.029 A 
ATOM     42  N   UNL A   1      43.331  27.023  27.559  1.00  0.00    -0.354 N 
ATOM     43  C   UNL A   1      39.839  28.692  29.472  1.00  0.00     0.074 A 
ATOM     44  C   UNL A   1      38.737  27.755  29.463  1.00  0.00     0.031 C 
ATOM     45  C   UNL A   1      44.480  25.521  26.362  1.00  0.00     0.029 A 
ATOM     46  C   UNL A   1      44.536  26.872  26.909  1.00  0.00     0.049 A 
ATOM     47  H   UNL A   1      43.095  27.826  28.077  1.00  0.00     0.167 HD
ATOM     48  C   UNL A   1      39.780  29.934  30.009  1.00  0.00     0.034 A 
ATOM     49  C   UNL A   1      45.560  27.732  26.747  1.00  0.00     0.034 A 
ATOM     50  C   UNL A   1      40.890  30.847  30.055  1.00  0.00     0.049 A 
ATOM     51  C   UNL A   1      45.470  29.103  27.360  1.00  0.00     0.074 A 
ATOM     52  C   UNL A   1      40.961  32.084  30.671  1.00  0.00     0.029 A 
ATOM     53  N   UNL A   1      42.119  30.630  29.451  1.00  0.00    -0.354 N 
ATOM     54  N   UNL A   1      44.503  29.624  28.075  1.00  0.00    -0.248 NA
ATOM     55  C   UNL A   1      46.621  29.997  27.163  1.00  0.00     0.031 C 
ATOM     56  C   UNL A   1      42.223  32.629  30.413  1.00  0.00     0.029 A 
ATOM     57  C   UNL A   1      42.946  31.722  29.655  1.00  0.00     0.049 A 
ATOM     58  H   UNL A   1      42.368  29.821  28.949  1.00  0.00     0.167 HD
ATOM     59  C   UNL A   1      44.936  30.896  28.431  1.00  0.00     0.074 A 
ATOM     60  C   UNL A   1      46.265  31.056  27.878  1.00  0.00     0.031 C 
ATOM     61  C   UNL A   1      44.283  31.854  29.135  1.00  0.00     0.034 A 
BRANCH  48  62
ATOM     62  C   UNL A   1      38.481  30.366  30.639  1.00  0.00     0.023 A 
ATOM     63  C   UNL A   1      38.242  30.086  32.000  1.00  0.00     0.012 A 
ATOM     64  C   UNL A   1      37.529  31.104  29.908  1.00  0.00     0.148 A 
ATOM     65  C   UNL A   1      37.063  30.504  32.616  1.00  0.00     0.002 A 
ATOM     66  C   UNL A   1      36.374  31.554  30.540  1.00  0.00     0.091 A 
ATOM     67  F   UNL A   1      37.763  31.343  28.610  1.00  0.00    -0.205 F 
ATOM     68  C   UNL A   1      36.135  31.245  31.889  1.00  0.00     0.022 A 
BRANCH  66  69
ATOM     69  S   UNL A   1      35.153  32.579  29.713  1.00  0.00     0.127 S 
ATOM     70  O   UNL A   1      35.984  33.666  29.196  1.00  0.00    -0.237 OA
ATOM     71  O   UNL A   1      34.632  31.672  28.691  1.00  0.00    -0.237 OA
ATOM     72  O   UNL A   1      34.190  32.962  30.736  1.00  0.00    -0.744 OA
ENDBRANCH  66  69
ENDBRANCH  48  62
BRANCH  49  73
ATOM     73  C   UNL A   1      46.778  27.306  26.001  1.00  0.00     0.023 A 
ATOM     74  C   UNL A   1      46.872  27.574  24.622  1.00  0.00     0.012 A 
ATOM     75  C   UNL A   1      47.853  26.667  26.651  1.00  0.00     0.148 A 
ATOM     76  C   UNL A   1      48.001  27.191  23.897  1.00  0.00     0.002 A 
ATOM     77  C   UNL A   1      48.999  26.341  25.933  1.00  0.00     0.091 A 
ATOM     78  F   UNL A   1      47.739  26.409  27.961  1.00  0.00    -0.205 F 
ATOM     79  C   UNL A   1      49.067  26.585  24.554  1.00  0.00     0.022 A 
BRANCH  77  80
ATOM     80  S   UNL A   1      50.472  25.682  26.722  1.00  0.00     0.127 S 
ATOM     81  O   UNL A   1      49.958  24.462  27.344  1.00  0.00    -0.237 OA
ATOM     82  O   UNL A   1      51.354  25.461  25.572  1.00  0.00    -0.237 OA
ATOM     83  O   UNL A   1      50.925  26.717  27.634  1.00  0.00    -0.744 OA
ENDBRANCH  77  80
ENDBRANCH  49  73
BRANCH  61  84
ATOM     84  C   UNL A   1      44.994  33.164  29.357  1.00  0.00     0.023 A 
ATOM     85  C   UNL A   1      45.879  33.297  30.445  1.00  0.00     0.012 A 
ATOM     86  C   UNL A   1      44.850  34.229  28.446  1.00  0.00     0.148 A 
ATOM     87  C   UNL A   1      46.591  34.479  30.638  1.00  0.00     0.002 A 
ATOM     88  C   UNL A   1      45.599  35.387  28.618  1.00  0.00     0.091 A 
ATOM     89  F   UNL A   1      43.992  34.086  27.426  1.00  0.00    -0.205 F 
ATOM     90  C   UNL A   1      46.461  35.518  29.720  1.00  0.00     0.022 A 
BRANCH  88  91
ATOM     91  S   UNL A   1      45.570  36.743  27.441  1.00  0.00     0.127 S 
ATOM     92  O   UNL A   1      46.133  36.114  26.247  1.00  0.00    -0.237 OA
ATOM     93  O   UNL A   1      44.142  37.047  27.355  1.00  0.00    -0.237 OA
ATOM     94  O   UNL A   1      46.382  37.802  28.025  1.00  0.00    -0.744 OA
ENDBRANCH  88  91
ENDBRANCH  61  84
ENDBRANCH  35  36
ENDBRANCH  27  30
ENDBRANCH  25  26
ENDBRANCH  24  25
ENDBRANCH   1  24
TORSDOF 19
ENDMDL
