MODEL 1
REMARK VINA RESULT:     -12.5      0.000      0.000
REMARK SMILES C[C@@H]1[C@@H](C(=O)NCCCNC(=O)c2ccc(-c3c4nc(c(-c5cccc(S(=O)(=O)[O-])c5F)c5ccc([nH]5)c(-c5cccc(S(=O)(=O)[O-])c5F)c5nc(c(-c6cccc(S(=O)(=O)[O-])c6F)c6ccc3[nH]6)C=C5)C=C4)cc2)CCN1c1ccc(C(F)(F)F)cc1C#N
REMARK SMILES IDX 8 1 7 2 6 3 4 4 5 5 3 7 1 8 2 9 78 10 76 11 77 12 79 13
REMARK SMILES IDX 80 14 88 15 81 16 87 17 82 18 89 19 90 20 83 21 84 22 85 23
REMARK SMILES IDX 86 24 9 25 10 26 11 27 12 29 13 30 14 31 75 32 15 33 74 34
REMARK SMILES IDX 16 35 17 36 18 37 68 38 19 39 73 40 67 41 69 42 20 43 72 44
REMARK SMILES IDX 66 45 65 46 21 48 53 49 33 50 52 51 34 52 37 53 51 54 70 55
REMARK SMILES IDX 35 56 36 57 50 59 71 60 38 61 22 62 23 63 31 64 24 65 26 66
REMARK SMILES IDX 32 67 25 68 27 69 28 70 29 71 30 72 54 73 55 74 63 75 56 76
REMARK SMILES IDX 58 77 64 78 57 79 59 80 60 81 61 82 62 83 39 84 40 85 48 86
REMARK SMILES IDX 41 87 43 88 49 89 42 90 44 91 45 92 46 93 47 94
REMARK H PARENT 6 6 10 28 69 47 37 58
REMARK Flexibility Score: inf
ROOT
ATOM      1  C   UNL A   1      32.250  29.995  25.419  1.00  0.00     0.042 C 
ENDROOT
BRANCH   1   2
ATOM      2  C   UNL A   1      30.987  30.075  24.589  1.00  0.00     0.117 C 
BRANCH   2   3
ATOM      3  N   UNL A   1      31.033  29.301  23.364  1.00  0.00    -0.356 N 
ATOM      4  C   UNL A   1      30.609  28.028  23.131  1.00  0.00     0.225 C 
ATOM      5  O   UNL A   1      30.701  27.611  21.977  1.00  0.00    -0.275 OA
ATOM      6  H   UNL A   1      31.427  29.763  22.589  1.00  0.00     0.163 HD
BRANCH   4   7
ATOM      7  C   UNL A   1      30.136  27.164  24.295  1.00  0.00     0.102 C 
ATOM      8  C   UNL A   1      30.968  26.674  26.621  1.00  0.00     0.032 C 
ATOM      9  C   UNL A   1      31.343  26.665  25.139  1.00  0.00     0.091 C 
ATOM     10  N   UNL A   1      31.564  25.280  24.657  1.00  0.00    -0.367 N 
ATOM     11  C   UNL A   1      29.447  25.854  23.898  1.00  0.00     0.037 C 
ATOM     12  C   UNL A   1      30.609  24.932  23.613  1.00  0.00     0.118 C 
BRANCH  10  13
ATOM     13  C   UNL A   1      32.808  24.677  24.617  1.00  0.00     0.055 A 
ATOM     14  C   UNL A   1      33.700  24.953  23.563  1.00  0.00     0.028 A 
ATOM     15  C   UNL A   1      33.184  23.685  25.539  1.00  0.00     0.076 A 
ATOM     16  C   UNL A   1      34.886  24.231  23.391  1.00  0.00     0.015 A 
ATOM     17  C   UNL A   1      34.387  22.976  25.380  1.00  0.00     0.034 A 
ATOM     18  C   UNL A   1      35.237  23.223  24.294  1.00  0.00     0.057 A 
BRANCH  15  19
ATOM     19  C   UNL A   1      32.323  23.286  26.622  1.00  0.00     0.101 C 
ATOM     20  N   UNL A   1      31.646  23.035  27.526  1.00  0.00    -0.192 NA
ENDBRANCH  15  19
BRANCH  18  21
ATOM     21  C   UNL A   1      36.478  22.396  24.071  1.00  0.00     0.416 C 
ATOM     22  F   UNL A   1      37.528  22.826  24.825  1.00  0.00    -0.166 F 
ATOM     23  F   UNL A   1      36.301  21.084  24.386  1.00  0.00    -0.166 F 
ATOM     24  F   UNL A   1      36.916  22.415  22.782  1.00  0.00    -0.166 F 
ENDBRANCH  18  21
ENDBRANCH  10  13
ENDBRANCH   4   7
ENDBRANCH   2   3
ENDBRANCH   1   2
BRANCH   1  25
ATOM     25  C   UNL A   1      32.114  30.523  26.834  1.00  0.00     0.118 C 
BRANCH  25  26
ATOM     26  N   UNL A   1      32.220  31.973  26.929  1.00  0.00    -0.352 N 
ATOM     27  C   UNL A   1      33.213  32.754  27.476  1.00  0.00     0.251 C 
ATOM     28  H   UNL A   1      31.465  32.472  26.541  1.00  0.00     0.163 HD
ATOM     29  O   UNL A   1      33.043  33.966  27.583  1.00  0.00    -0.269 OA
BRANCH  27  30
ATOM     30  C   UNL A   1      34.461  32.130  27.968  1.00  0.00     0.039 A 
ATOM     31  C   UNL A   1      35.608  32.913  28.104  1.00  0.00     0.014 A 
ATOM     32  C   UNL A   1      34.492  30.782  28.329  1.00  0.00     0.014 A 
ATOM     33  C   UNL A   1      36.753  32.366  28.688  1.00  0.00     0.010 A 
ATOM     34  C   UNL A   1      35.581  30.280  29.029  1.00  0.00     0.010 A 
ATOM     35  C   UNL A   1      36.733  31.059  29.205  1.00  0.00    -0.014 A 
BRANCH  35  36
ATOM     36  C   UNL A   1      37.899  30.486  29.924  1.00  0.00     0.031 A 
ATOM     37  C   UNL A   1      38.208  30.921  31.334  1.00  0.00     0.074 A 
ATOM     38  C   UNL A   1      38.732  29.639  29.284  1.00  0.00     0.049 A 
ATOM     39  N   UNL A   1      39.212  30.582  32.100  1.00  0.00    -0.248 NA
ATOM     40  C   UNL A   1      37.286  31.890  31.954  1.00  0.00     0.031 C 
ATOM     41  C   UNL A   1      38.590  29.200  27.893  1.00  0.00     0.029 A 
ATOM     42  N   UNL A   1      39.875  29.011  29.713  1.00  0.00    -0.354 N 
ATOM     43  C   UNL A   1      39.063  31.319  33.269  1.00  0.00     0.074 A 
ATOM     44  C   UNL A   1      37.901  32.160  33.096  1.00  0.00     0.031 C 
ATOM     45  C   UNL A   1      39.595  28.363  27.591  1.00  0.00     0.029 A 
ATOM     46  C   UNL A   1      40.476  28.238  28.746  1.00  0.00     0.049 A 
ATOM     47  H   UNL A   1      40.232  29.107  30.625  1.00  0.00     0.167 HD
ATOM     48  C   UNL A   1      39.805  31.278  34.401  1.00  0.00     0.034 A 
ATOM     49  C   UNL A   1      41.616  27.519  28.781  1.00  0.00     0.034 A 
ATOM     50  C   UNL A   1      40.942  30.417  34.584  1.00  0.00     0.049 A 
ATOM     51  C   UNL A   1      42.413  27.477  30.057  1.00  0.00     0.074 A 
ATOM     52  C   UNL A   1      41.711  30.241  35.721  1.00  0.00     0.029 A 
ATOM     53  N   UNL A   1      41.481  29.599  33.605  1.00  0.00    -0.354 N 
ATOM     54  N   UNL A   1      42.172  28.068  31.202  1.00  0.00    -0.248 NA
ATOM     55  C   UNL A   1      43.624  26.643  30.056  1.00  0.00     0.031 C 
ATOM     56  C   UNL A   1      42.741  29.348  35.415  1.00  0.00     0.029 A 
ATOM     57  C   UNL A   1      42.582  28.927  34.103  1.00  0.00     0.049 A 
ATOM     58  H   UNL A   1      41.130  29.508  32.689  1.00  0.00     0.167 HD
ATOM     59  C   UNL A   1      43.174  27.645  32.068  1.00  0.00     0.074 A 
ATOM     60  C   UNL A   1      44.013  26.733  31.320  1.00  0.00     0.031 C 
ATOM     61  C   UNL A   1      43.383  27.987  33.363  1.00  0.00     0.034 A 
BRANCH  48  62
ATOM     62  C   UNL A   1      39.388  32.166  35.546  1.00  0.00     0.023 A 
ATOM     63  C   UNL A   1      38.552  31.657  36.561  1.00  0.00     0.012 A 
ATOM     64  C   UNL A   1      39.866  33.488  35.644  1.00  0.00     0.148 A 
ATOM     65  C   UNL A   1      38.166  32.458  37.634  1.00  0.00     0.002 A 
ATOM     66  C   UNL A   1      39.518  34.264  36.744  1.00  0.00     0.091 A 
ATOM     67  F   UNL A   1      40.642  33.962  34.660  1.00  0.00    -0.205 F 
ATOM     68  C   UNL A   1      38.657  33.757  37.730  1.00  0.00     0.022 A 
BRANCH  66  69
ATOM     69  S   UNL A   1      40.165  35.919  37.005  1.00  0.00     0.127 S 
ATOM     70  O   UNL A   1      41.602  35.664  37.088  1.00  0.00    -0.237 OA
ATOM     71  O   UNL A   1      39.737  36.608  35.788  1.00  0.00    -0.237 OA
ATOM     72  O   UNL A   1      39.547  36.405  38.231  1.00  0.00    -0.744 OA
ENDBRANCH  66  69
ENDBRANCH  48  62
BRANCH  49  73
ATOM     73  C   UNL A   1      42.047  26.738  27.586  1.00  0.00     0.023 A 
ATOM     74  C   UNL A   1      42.723  27.389  26.536  1.00  0.00     0.012 A 
ATOM     75  C   UNL A   1      41.799  25.356  27.490  1.00  0.00     0.148 A 
ATOM     76  C   UNL A   1      43.109  26.686  25.394  1.00  0.00     0.002 A 
ATOM     77  C   UNL A   1      42.240  24.648  26.378  1.00  0.00     0.091 A 
ATOM     78  F   UNL A   1      41.149  24.756  28.497  1.00  0.00    -0.205 F 
ATOM     79  C   UNL A   1      42.877  25.314  25.319  1.00  0.00     0.022 A 
BRANCH  77  80
ATOM     80  S   UNL A   1      42.100  22.863  26.251  1.00  0.00     0.127 S 
ATOM     81  O   UNL A   1      42.734  22.603  24.961  1.00  0.00    -0.237 OA
ATOM     82  O   UNL A   1      42.865  22.419  27.416  1.00  0.00    -0.237 OA
ATOM     83  O   UNL A   1      40.674  22.573  26.324  1.00  0.00    -0.744 OA
ENDBRANCH  77  80
ENDBRANCH  49  73
BRANCH  61  84
ATOM     84  C   UNL A   1      44.536  27.335  34.082  1.00  0.00     0.023 A 
ATOM     85  C   UNL A   1      45.814  27.926  34.059  1.00  0.00     0.012 A 
ATOM     86  C   UNL A   1      44.329  26.166  34.842  1.00  0.00     0.148 A 
ATOM     87  C   UNL A   1      46.876  27.345  34.750  1.00  0.00     0.002 A 
ATOM     88  C   UNL A   1      45.377  25.624  35.573  1.00  0.00     0.091 A 
ATOM     89  F   UNL A   1      43.108  25.610  34.839  1.00  0.00    -0.205 F 
ATOM     90  C   UNL A   1      46.656  26.202  35.516  1.00  0.00     0.022 A 
BRANCH  88  91
ATOM     91  S   UNL A   1      45.163  24.216  36.667  1.00  0.00     0.127 S 
ATOM     92  O   UNL A   1      46.531  23.990  37.132  1.00  0.00    -0.237 OA
ATOM     93  O   UNL A   1      44.253  24.749  37.681  1.00  0.00    -0.237 OA
ATOM     94  O   UNL A   1      44.601  23.150  35.849  1.00  0.00    -0.744 OA
ENDBRANCH  88  91
ENDBRANCH  61  84
ENDBRANCH  35  36
ENDBRANCH  27  30
ENDBRANCH  25  26
ENDBRANCH   1  25
TORSDOF 16
ENDMDL
MODEL 2
REMARK VINA RESULT:     -12.5      5.169     10.266
REMARK SMILES C[C@@H]1[C@@H](C(=O)NCCCNC(=O)c2ccc(-c3c4nc(c(-c5cccc(S(=O)(=O)[O-])c5F)c5ccc([nH]5)c(-c5cccc(S(=O)(=O)[O-])c5F)c5nc(c(-c6cccc(S(=O)(=O)[O-])c6F)c6ccc3[nH]6)C=C5)C=C4)cc2)CCN1c1ccc(C(F)(F)F)cc1C#N
REMARK SMILES IDX 8 1 7 2 6 3 4 4 5 5 3 7 1 8 2 9 78 10 76 11 77 12 79 13
REMARK SMILES IDX 80 14 88 15 81 16 87 17 82 18 89 19 90 20 83 21 84 22 85 23
REMARK SMILES IDX 86 24 9 25 10 26 11 27 12 29 13 30 14 31 75 32 15 33 74 34
REMARK SMILES IDX 16 35 17 36 18 37 68 38 19 39 73 40 67 41 69 42 20 43 72 44
REMARK SMILES IDX 66 45 65 46 21 48 53 49 33 50 52 51 34 52 37 53 51 54 70 55
REMARK SMILES IDX 35 56 36 57 50 59 71 60 38 61 22 62 23 63 31 64 24 65 26 66
REMARK SMILES IDX 32 67 25 68 27 69 28 70 29 71 30 72 54 73 55 74 63 75 56 76
REMARK SMILES IDX 58 77 64 78 57 79 59 80 60 81 61 82 62 83 39 84 40 85 48 86
REMARK SMILES IDX 41 87 43 88 49 89 42 90 44 91 45 92 46 93 47 94
REMARK H PARENT 6 6 10 28 69 47 37 58
REMARK Flexibility Score: inf
ROOT
ATOM      1  C   UNL A   1      35.192  21.626  26.089  1.00  0.00     0.042 C 
ENDROOT
BRANCH   1   2
ATOM      2  C   UNL A   1      34.123  20.965  25.246  1.00  0.00     0.117 C 
BRANCH   2   3
ATOM      3  N   UNL A   1      32.800  21.533  25.417  1.00  0.00    -0.356 N 
ATOM      4  C   UNL A   1      32.356  22.789  25.136  1.00  0.00     0.225 C 
ATOM      5  O   UNL A   1      31.159  23.012  25.313  1.00  0.00    -0.275 OA
ATOM      6  H   UNL A   1      32.124  20.921  25.790  1.00  0.00     0.163 HD
BRANCH   4   7
ATOM      7  C   UNL A   1      33.351  23.865  24.712  1.00  0.00     0.102 C 
ATOM      8  C   UNL A   1      33.977  26.158  25.542  1.00  0.00     0.032 C 
ATOM      9  C   UNL A   1      32.818  25.281  25.068  1.00  0.00     0.091 C 
ATOM     10  N   UNL A   1      32.264  25.784  23.787  1.00  0.00    -0.367 N 
ATOM     11  C   UNL A   1      33.592  23.973  23.202  1.00  0.00     0.037 C 
ATOM     12  C   UNL A   1      32.417  24.794  22.728  1.00  0.00     0.118 C 
BRANCH  10  13
ATOM     13  C   UNL A   1      31.185  26.645  23.711  1.00  0.00     0.055 A 
ATOM     14  C   UNL A   1      29.874  26.164  23.890  1.00  0.00     0.028 A 
ATOM     15  C   UNL A   1      31.333  27.990  23.332  1.00  0.00     0.076 A 
ATOM     16  C   UNL A   1      28.753  26.963  23.642  1.00  0.00     0.015 A 
ATOM     17  C   UNL A   1      30.206  28.801  23.107  1.00  0.00     0.034 A 
ATOM     18  C   UNL A   1      28.908  28.291  23.235  1.00  0.00     0.057 A 
BRANCH  15  19
ATOM     19  C   UNL A   1      32.624  28.570  23.069  1.00  0.00     0.101 C 
ATOM     20  N   UNL A   1      33.685  29.008  22.927  1.00  0.00    -0.192 NA
ENDBRANCH  15  19
BRANCH  18  21
ATOM     21  C   UNL A   1      27.703  29.132  22.898  1.00  0.00     0.416 C 
ATOM     22  F   UNL A   1      27.721  29.568  21.608  1.00  0.00    -0.166 F 
ATOM     23  F   UNL A   1      26.530  28.458  23.051  1.00  0.00    -0.166 F 
ATOM     24  F   UNL A   1      27.593  30.252  23.666  1.00  0.00    -0.166 F 
ENDBRANCH  18  21
ENDBRANCH  10  13
ENDBRANCH   4   7
ENDBRANCH   2   3
ENDBRANCH   1   2
BRANCH   1  25
ATOM     25  C   UNL A   1      36.478  21.942  25.349  1.00  0.00     0.118 C 
BRANCH  25  26
ATOM     26  N   UNL A   1      37.509  20.925  25.510  1.00  0.00    -0.352 N 
ATOM     27  C   UNL A   1      38.807  21.042  25.952  1.00  0.00     0.251 C 
ATOM     28  H   UNL A   1      37.234  20.011  25.264  1.00  0.00     0.163 HD
ATOM     29  O   UNL A   1      39.565  20.078  25.877  1.00  0.00    -0.269 OA
BRANCH  27  30
ATOM     30  C   UNL A   1      39.297  22.336  26.478  1.00  0.00     0.039 A 
ATOM     31  C   UNL A   1      40.378  22.349  27.360  1.00  0.00     0.014 A 
ATOM     32  C   UNL A   1      38.714  23.539  26.074  1.00  0.00     0.014 A 
ATOM     33  C   UNL A   1      40.929  23.569  27.759  1.00  0.00     0.010 A 
ATOM     34  C   UNL A   1      39.343  24.742  26.364  1.00  0.00     0.010 A 
ATOM     35  C   UNL A   1      40.450  24.776  27.222  1.00  0.00    -0.014 A 
BRANCH  35  36
ATOM     36  C   UNL A   1      41.082  26.081  27.547  1.00  0.00     0.031 A 
ATOM     37  C   UNL A   1      42.507  26.354  27.138  1.00  0.00     0.074 A 
ATOM     38  C   UNL A   1      40.408  26.988  28.284  1.00  0.00     0.049 A 
ATOM     39  N   UNL A   1      43.248  27.402  27.383  1.00  0.00    -0.248 NA
ATOM     40  C   UNL A   1      43.202  25.297  26.381  1.00  0.00     0.031 C 
ATOM     41  C   UNL A   1      39.052  26.813  28.811  1.00  0.00     0.029 A 
ATOM     42  N   UNL A   1      40.780  28.230  28.735  1.00  0.00    -0.354 N 
ATOM     43  C   UNL A   1      44.498  27.118  26.847  1.00  0.00     0.074 A 
ATOM     44  C   UNL A   1      44.433  25.780  26.305  1.00  0.00     0.031 C 
ATOM     45  C   UNL A   1      38.700  27.913  29.496  1.00  0.00     0.029 A 
ATOM     46  C   UNL A   1      39.817  28.851  29.497  1.00  0.00     0.049 A 
ATOM     47  H   UNL A   1      41.653  28.637  28.534  1.00  0.00     0.167 HD
ATOM     48  C   UNL A   1      45.596  27.908  26.780  1.00  0.00     0.034 A 
ATOM     49  C   UNL A   1      39.834  30.038  30.136  1.00  0.00     0.034 A 
ATOM     50  C   UNL A   1      45.649  29.251  27.289  1.00  0.00     0.049 A 
ATOM     51  C   UNL A   1      41.060  30.905  30.030  1.00  0.00     0.074 A 
ATOM     52  C   UNL A   1      46.685  30.164  27.198  1.00  0.00     0.029 A 
ATOM     53  N   UNL A   1      44.631  29.871  27.997  1.00  0.00    -0.354 N 
ATOM     54  N   UNL A   1      42.181  30.676  29.392  1.00  0.00    -0.248 NA
ATOM     55  C   UNL A   1      41.011  32.209  30.708  1.00  0.00     0.031 C 
ATOM     56  C   UNL A   1      46.309  31.320  27.888  1.00  0.00     0.029 A 
ATOM     57  C   UNL A   1      45.018  31.147  28.363  1.00  0.00     0.049 A 
ATOM     58  H   UNL A   1      43.760  29.462  28.206  1.00  0.00     0.167 HD
ATOM     59  C   UNL A   1      42.953  31.822  29.553  1.00  0.00     0.074 A 
ATOM     60  C   UNL A   1      42.163  32.749  30.335  1.00  0.00     0.031 C 
ATOM     61  C   UNL A   1      44.205  32.078  29.102  1.00  0.00     0.034 A 
BRANCH  48  62
ATOM     62  C   UNL A   1      46.819  27.353  26.096  1.00  0.00     0.023 A 
ATOM     63  C   UNL A   1      46.995  27.541  24.710  1.00  0.00     0.012 A 
ATOM     64  C   UNL A   1      47.820  26.691  26.835  1.00  0.00     0.148 A 
ATOM     65  C   UNL A   1      48.126  27.046  24.062  1.00  0.00     0.002 A 
ATOM     66  C   UNL A   1      48.969  26.247  26.191  1.00  0.00     0.091 A 
ATOM     67  F   UNL A   1      47.626  26.504  28.148  1.00  0.00    -0.205 F 
ATOM     68  C   UNL A   1      49.117  26.409  24.804  1.00  0.00     0.022 A 
BRANCH  66  69
ATOM     69  S   UNL A   1      50.340  25.490  27.069  1.00  0.00     0.127 S 
ATOM     70  O   UNL A   1      51.295  25.263  25.985  1.00  0.00    -0.237 OA
ATOM     71  O   UNL A   1      50.722  26.546  28.006  1.00  0.00    -0.237 OA
ATOM     72  O   UNL A   1      49.807  24.286  27.690  1.00  0.00    -0.744 OA
ENDBRANCH  66  69
ENDBRANCH  48  62
BRANCH  49  73
ATOM     73  C   UNL A   1      38.635  30.502  30.890  1.00  0.00     0.023 A 
ATOM     74  C   UNL A   1      38.534  30.235  32.270  1.00  0.00     0.012 A 
ATOM     75  C   UNL A   1      37.601  31.212  30.252  1.00  0.00     0.148 A 
ATOM     76  C   UNL A   1      37.408  30.632  32.991  1.00  0.00     0.002 A 
ATOM     77  C   UNL A   1      36.509  31.657  30.987  1.00  0.00     0.091 A 
ATOM     78  F   UNL A   1      37.712  31.450  28.937  1.00  0.00    -0.205 F 
ATOM     79  C   UNL A   1      36.400  31.351  32.353  1.00  0.00     0.022 A 
BRANCH  77  80
ATOM     80  S   UNL A   1      35.228  32.699  30.281  1.00  0.00     0.127 S 
ATOM     81  O   UNL A   1      35.988  33.879  29.879  1.00  0.00    -0.237 OA
ATOM     82  O   UNL A   1      34.744  31.869  29.177  1.00  0.00    -0.237 OA
ATOM     83  O   UNL A   1      34.256  32.906  31.347  1.00  0.00    -0.744 OA
ENDBRANCH  77  80
ENDBRANCH  49  73
BRANCH  61  84
ATOM     84  C   UNL A   1      44.790  33.436  29.392  1.00  0.00     0.023 A 
ATOM     85  C   UNL A   1      45.491  33.667  30.592  1.00  0.00     0.012 A 
ATOM     86  C   UNL A   1      44.701  34.466  28.434  1.00  0.00     0.148 A 
ATOM     87  C   UNL A   1      46.063  34.912  30.849  1.00  0.00     0.002 A 
ATOM     88  C   UNL A   1      45.321  35.686  28.673  1.00  0.00     0.091 A 
ATOM     89  F   UNL A   1      44.016  34.231  27.305  1.00  0.00    -0.205 F 
ATOM     90  C   UNL A   1      45.989  35.916  29.887  1.00  0.00     0.022 A 
BRANCH  88  91
ATOM     91  S   UNL A   1      45.365  37.001  27.451  1.00  0.00     0.127 S 
ATOM     92  O   UNL A   1      46.036  36.343  26.331  1.00  0.00    -0.237 OA
ATOM     93  O   UNL A   1      43.943  37.271  27.238  1.00  0.00    -0.237 OA
ATOM     94  O   UNL A   1      46.105  38.096  28.062  1.00  0.00    -0.744 OA
ENDBRANCH  88  91
ENDBRANCH  61  84
ENDBRANCH  35  36
ENDBRANCH  27  30
ENDBRANCH  25  26
ENDBRANCH   1  25
TORSDOF 16
ENDMDL
MODEL 3
REMARK VINA RESULT:     -12.4      5.397     10.346
REMARK SMILES C[C@@H]1[C@@H](C(=O)NCCCNC(=O)c2ccc(-c3c4nc(c(-c5cccc(S(=O)(=O)[O-])c5F)c5ccc([nH]5)c(-c5cccc(S(=O)(=O)[O-])c5F)c5nc(c(-c6cccc(S(=O)(=O)[O-])c6F)c6ccc3[nH]6)C=C5)C=C4)cc2)CCN1c1ccc(C(F)(F)F)cc1C#N
REMARK SMILES IDX 8 1 7 2 6 3 4 4 5 5 3 7 1 8 2 9 78 10 76 11 77 12 79 13
REMARK SMILES IDX 80 14 88 15 81 16 87 17 82 18 89 19 90 20 83 21 84 22 85 23
REMARK SMILES IDX 86 24 9 25 10 26 11 27 12 29 13 30 14 31 75 32 15 33 74 34
REMARK SMILES IDX 16 35 17 36 18 37 68 38 19 39 73 40 67 41 69 42 20 43 72 44
REMARK SMILES IDX 66 45 65 46 21 48 53 49 33 50 52 51 34 52 37 53 51 54 70 55
REMARK SMILES IDX 35 56 36 57 50 59 71 60 38 61 22 62 23 63 31 64 24 65 26 66
REMARK SMILES IDX 32 67 25 68 27 69 28 70 29 71 30 72 54 73 55 74 63 75 56 76
REMARK SMILES IDX 58 77 64 78 57 79 59 80 60 81 61 82 62 83 39 84 40 85 48 86
REMARK SMILES IDX 41 87 43 88 49 89 42 90 44 91 45 92 46 93 47 94
REMARK H PARENT 6 6 10 28 69 47 37 58
REMARK Flexibility Score: inf
ROOT
ATOM      1  C   UNL A   1      36.276  21.167  25.592  1.00  0.00     0.042 C 
ENDROOT
BRANCH   1   2
ATOM      2  C   UNL A   1      35.382  20.092  25.015  1.00  0.00     0.117 C 
BRANCH   2   3
ATOM      3  N   UNL A   1      33.993  20.198  25.417  1.00  0.00    -0.356 N 
ATOM      4  C   UNL A   1      32.946  20.774  24.763  1.00  0.00     0.225 C 
ATOM      5  O   UNL A   1      31.837  20.678  25.289  1.00  0.00    -0.275 OA
ATOM      6  H   UNL A   1      33.775  19.796  26.289  1.00  0.00     0.163 HD
BRANCH   4   7
ATOM      7  C   UNL A   1      33.197  21.570  23.487  1.00  0.00     0.102 C 
ATOM      8  C   UNL A   1      34.907  23.258  22.732  1.00  0.00     0.032 C 
ATOM      9  C   UNL A   1      33.873  22.932  23.810  1.00  0.00     0.091 C 
ATOM     10  N   UNL A   1      32.750  23.901  23.776  1.00  0.00    -0.367 N 
ATOM     11  C   UNL A   1      31.938  21.998  22.725  1.00  0.00     0.037 C 
ATOM     12  C   UNL A   1      31.492  23.232  23.473  1.00  0.00     0.118 C 
BRANCH  10  13
ATOM     13  C   UNL A   1      32.700  25.036  24.564  1.00  0.00     0.055 A 
ATOM     14  C   UNL A   1      32.242  24.962  25.893  1.00  0.00     0.028 A 
ATOM     15  C   UNL A   1      32.979  26.313  24.047  1.00  0.00     0.076 A 
ATOM     16  C   UNL A   1      32.007  26.110  26.659  1.00  0.00     0.015 A 
ATOM     17  C   UNL A   1      32.767  27.465  24.824  1.00  0.00     0.034 A 
ATOM     18  C   UNL A   1      32.256  27.378  26.126  1.00  0.00     0.057 A 
BRANCH  15  19
ATOM     19  C   UNL A   1      33.401  26.508  22.684  1.00  0.00     0.101 C 
ATOM     20  N   UNL A   1      33.708  26.736  21.592  1.00  0.00    -0.192 NA
ENDBRANCH  15  19
BRANCH  18  21
ATOM     21  C   UNL A   1      31.936  28.617  26.923  1.00  0.00     0.416 C 
ATOM     22  F   UNL A   1      31.431  29.615  26.146  1.00  0.00    -0.166 F 
ATOM     23  F   UNL A   1      31.012  28.394  27.897  1.00  0.00    -0.166 F 
ATOM     24  F   UNL A   1      33.020  29.150  27.552  1.00  0.00    -0.166 F 
ENDBRANCH  18  21
ENDBRANCH  10  13
ENDBRANCH   4   7
ENDBRANCH   2   3
ENDBRANCH   1   2
BRANCH   1  25
ATOM     25  C   UNL A   1      37.645  21.267  24.948  1.00  0.00     0.118 C 
BRANCH  25  26
ATOM     26  N   UNL A   1      38.604  20.298  25.463  1.00  0.00    -0.352 N 
ATOM     27  C   UNL A   1      39.758  20.493  26.188  1.00  0.00     0.251 C 
ATOM     28  H   UNL A   1      38.394  19.357  25.261  1.00  0.00     0.163 HD
ATOM     29  O   UNL A   1      40.508  19.545  26.404  1.00  0.00    -0.269 OA
BRANCH  27  30
ATOM     30  C   UNL A   1      40.110  21.847  26.670  1.00  0.00     0.039 A 
ATOM     31  C   UNL A   1      41.055  21.985  27.688  1.00  0.00     0.014 A 
ATOM     32  C   UNL A   1      39.537  22.983  26.094  1.00  0.00     0.014 A 
ATOM     33  C   UNL A   1      41.490  23.260  28.059  1.00  0.00     0.010 A 
ATOM     34  C   UNL A   1      40.065  24.237  26.369  1.00  0.00     0.010 A 
ATOM     35  C   UNL A   1      41.038  24.395  27.366  1.00  0.00    -0.014 A 
BRANCH  35  36
ATOM     36  C   UNL A   1      41.559  25.753  27.668  1.00  0.00     0.031 A 
ATOM     37  C   UNL A   1      42.981  26.112  27.320  1.00  0.00     0.074 A 
ATOM     38  C   UNL A   1      40.786  26.637  28.331  1.00  0.00     0.049 A 
ATOM     39  N   UNL A   1      43.634  27.220  27.559  1.00  0.00    -0.248 NA
ATOM     40  C   UNL A   1      43.788  25.081  26.643  1.00  0.00     0.031 C 
ATOM     41  C   UNL A   1      39.419  26.385  28.796  1.00  0.00     0.029 A 
ATOM     42  N   UNL A   1      41.045  27.919  28.749  1.00  0.00    -0.354 N 
ATOM     43  C   UNL A   1      44.927  27.006  27.099  1.00  0.00     0.074 A 
ATOM     44  C   UNL A   1      44.984  25.647  26.610  1.00  0.00     0.031 C 
ATOM     45  C   UNL A   1      38.955  27.482  29.416  1.00  0.00     0.029 A 
ATOM     46  C   UNL A   1      40.002  28.497  29.435  1.00  0.00     0.049 A 
ATOM     47  H   UNL A   1      41.897  28.379  28.576  1.00  0.00     0.167 HD
ATOM     48  C   UNL A   1      45.969  27.870  27.054  1.00  0.00     0.034 A 
ATOM     49  C   UNL A   1      39.902  29.706  30.024  1.00  0.00     0.034 A 
ATOM     50  C   UNL A   1      45.901  29.231  27.510  1.00  0.00     0.049 A 
ATOM     51  C   UNL A   1      41.069  30.654  29.945  1.00  0.00     0.074 A 
ATOM     52  C   UNL A   1      46.874  30.212  27.433  1.00  0.00     0.029 A 
ATOM     53  N   UNL A   1      44.806  29.802  28.139  1.00  0.00    -0.354 N 
ATOM     54  N   UNL A   1      42.236  30.482  29.374  1.00  0.00    -0.248 NA
ATOM     55  C   UNL A   1      40.893  31.976  30.565  1.00  0.00     0.031 C 
ATOM     56  C   UNL A   1      46.383  31.363  28.055  1.00  0.00     0.029 A 
ATOM     57  C   UNL A   1      45.084  31.116  28.471  1.00  0.00     0.049 A 
ATOM     58  H   UNL A   1      43.956  29.340  28.321  1.00  0.00     0.167 HD
ATOM     59  C   UNL A   1      42.916  31.685  29.527  1.00  0.00     0.074 A 
ATOM     60  C   UNL A   1      42.023  32.582  30.229  1.00  0.00     0.031 C 
ATOM     61  C   UNL A   1      44.170  32.013  29.129  1.00  0.00     0.034 A 
BRANCH  48  62
ATOM     62  C   UNL A   1      47.263  27.378  26.457  1.00  0.00     0.023 A 
ATOM     63  C   UNL A   1      48.186  26.678  27.260  1.00  0.00     0.012 A 
ATOM     64  C   UNL A   1      47.540  27.561  25.087  1.00  0.00     0.148 A 
ATOM     65  C   UNL A   1      49.382  26.204  26.723  1.00  0.00     0.002 A 
ATOM     66  C   UNL A   1      48.710  27.040  24.547  1.00  0.00     0.091 A 
ATOM     67  F   UNL A   1      46.661  28.247  24.343  1.00  0.00    -0.205 F 
ATOM     68  C   UNL A   1      49.638  26.376  25.365  1.00  0.00     0.022 A 
BRANCH  66  69
ATOM     69  S   UNL A   1      49.095  27.135  22.796  1.00  0.00     0.127 S 
ATOM     70  O   UNL A   1      50.552  27.006  22.807  1.00  0.00    -0.237 OA
ATOM     71  O   UNL A   1      48.384  25.972  22.265  1.00  0.00    -0.237 OA
ATOM     72  O   UNL A   1      48.587  28.421  22.339  1.00  0.00    -0.744 OA
ENDBRANCH  66  69
ENDBRANCH  48  62
BRANCH  49  73
ATOM     73  C   UNL A   1      38.635  30.110  30.697  1.00  0.00     0.023 A 
ATOM     74  C   UNL A   1      38.407  29.733  32.035  1.00  0.00     0.012 A 
ATOM     75  C   UNL A   1      37.662  30.872  30.024  1.00  0.00     0.148 A 
ATOM     76  C   UNL A   1      37.215  30.073  32.677  1.00  0.00     0.002 A 
ATOM     77  C   UNL A   1      36.504  31.260  30.687  1.00  0.00     0.091 A 
ATOM     78  F   UNL A   1      37.895  31.216  28.749  1.00  0.00    -0.205 F 
ATOM     79  C   UNL A   1      36.268  30.845  32.007  1.00  0.00     0.022 A 
BRANCH  77  80
ATOM     80  S   UNL A   1      35.290  32.359  29.950  1.00  0.00     0.127 S 
ATOM     81  O   UNL A   1      34.353  32.553  31.052  1.00  0.00    -0.237 OA
ATOM     82  O   UNL A   1      36.106  33.527  29.618  1.00  0.00    -0.237 OA
ATOM     83  O   UNL A   1      34.765  31.646  28.792  1.00  0.00    -0.744 OA
ENDBRANCH  77  80
ENDBRANCH  49  73
BRANCH  61  84
ATOM     84  C   UNL A   1      44.642  33.420  29.391  1.00  0.00     0.023 A 
ATOM     85  C   UNL A   1      45.254  33.748  30.617  1.00  0.00     0.012 A 
ATOM     86  C   UNL A   1      44.539  34.402  28.386  1.00  0.00     0.148 A 
ATOM     87  C   UNL A   1      45.723  35.040  30.852  1.00  0.00     0.002 A 
ATOM     88  C   UNL A   1      45.059  35.672  28.606  1.00  0.00     0.091 A 
ATOM     89  F   UNL A   1      43.940  34.075  27.231  1.00  0.00    -0.205 F 
ATOM     90  C   UNL A   1      45.637  35.997  29.844  1.00  0.00     0.022 A 
BRANCH  88  91
ATOM     91  S   UNL A   1      45.086  36.937  27.332  1.00  0.00     0.127 S 
ATOM     92  O   UNL A   1      45.915  36.307  26.305  1.00  0.00    -0.237 OA
ATOM     93  O   UNL A   1      43.669  37.055  26.985  1.00  0.00    -0.237 OA
ATOM     94  O   UNL A   1      45.659  38.123  27.952  1.00  0.00    -0.744 OA
ENDBRANCH  88  91
ENDBRANCH  61  84
ENDBRANCH  35  36
ENDBRANCH  27  30
ENDBRANCH  25  26
ENDBRANCH   1  25
TORSDOF 16
ENDMDL
