MODEL 1
REMARK VINA RESULT:     -12.2      0.000      0.000
REMARK SMILES Cc1nonc1C[C@@H](C(=O)NCCCNC(=O)c1ccc(-c2c3nc(c(-c4cccc(S(=O)(=O)[O-])c4F)c4ccc([nH]4)c(-c4cccc(S(=O)(=O)[O-])c4F)c4nc(c(-c5cccc(S(=O)(=O)[O-])c5F)c5ccc2[nH]5)C=C4)C=C3)cc1)c1ccccc1Br
REMARK SMILES IDX 13 1 12 2 11 3 9 4 10 5 8 7 7 8 6 9 1 10 2 11 3 12 4 13 5 14
REMARK SMILES IDX 81 15 82 16 86 17 83 18 85 19 87 20 84 21 14 22 15 23 16 24
REMARK SMILES IDX 17 26 18 27 19 28 80 29 20 30 79 31 21 32 22 33 23 34 73 35
REMARK SMILES IDX 24 36 78 37 72 38 74 39 25 40 77 41 71 42 70 43 26 45 58 46
REMARK SMILES IDX 38 47 57 48 39 49 42 50 56 51 75 52 40 53 41 54 55 56 76 57
REMARK SMILES IDX 43 58 27 59 28 60 36 61 29 62 31 63 37 64 30 65 32 66 33 67
REMARK SMILES IDX 34 68 35 69 59 70 60 71 68 72 61 73 63 74 69 75 62 76 64 77
REMARK SMILES IDX 65 78 66 79 67 80 44 81 45 82 53 83 46 84 48 85 54 86 47 87
REMARK SMILES IDX 49 88 50 89 51 90 52 91
REMARK H PARENT 11 6 15 25 74 44 42 55
REMARK Flexibility Score: inf
ROOT
ATOM      1  C   UNL A   1      31.795  28.781  26.470  1.00  0.00     0.042 C 
ENDROOT
BRANCH   1   2
ATOM      2  C   UNL A   1      32.390  27.383  26.637  1.00  0.00     0.117 C 
BRANCH   2   3
ATOM      3  N   UNL A   1      31.321  26.397  26.687  1.00  0.00    -0.355 N 
ATOM      4  C   UNL A   1      30.296  26.163  25.814  1.00  0.00     0.227 C 
ATOM      5  O   UNL A   1      29.270  25.654  26.276  1.00  0.00    -0.274 OA
ATOM      6  H   UNL A   1      31.339  25.805  27.472  1.00  0.00     0.163 HD
BRANCH   4   7
ATOM      7  C   UNL A   1      30.468  26.404  24.301  1.00  0.00     0.116 C 
BRANCH   7   8
ATOM      8  C   UNL A   1      29.051  26.459  23.670  1.00  0.00     0.080 C 
BRANCH   8   9
ATOM      9  C   UNL A   1      28.428  27.791  23.453  1.00  0.00     0.109 A 
ATOM     10  C   UNL A   1      30.311  29.239  22.337  1.00  0.00     0.073 C 
ATOM     11  C   UNL A   1      28.968  28.964  22.887  1.00  0.00     0.105 A 
ATOM     12  N   UNL A   1      28.024  29.904  22.836  1.00  0.00    -0.055 NA
ATOM     13  O   UNL A   1      26.863  29.277  23.273  1.00  0.00    -0.244 OA
ATOM     14  N   UNL A   1      27.119  27.960  23.639  1.00  0.00    -0.055 NA
ENDBRANCH   8   9
ENDBRANCH   7   8
BRANCH   7  15
ATOM     15  C   UNL A   1      31.335  25.261  23.671  1.00  0.00    -0.021 A 
ATOM     16  C   UNL A   1      30.847  23.934  23.621  1.00  0.00     0.006 A 
ATOM     17  C   UNL A   1      32.643  25.452  23.170  1.00  0.00     0.021 A 
ATOM     18  C   UNL A   1      31.648  22.851  23.246  1.00  0.00     0.000 A 
ATOM     19  C   UNL A   1      33.459  24.356  22.835  1.00  0.00     0.016 A 
ATOM     20  Br  UNL A   1      33.409  27.157  22.802  1.00  0.00    -0.051 Br
ATOM     21  C   UNL A   1      32.970  23.056  22.896  1.00  0.00     0.001 A 
ENDBRANCH   7  15
ENDBRANCH   4   7
ENDBRANCH   2   3
ENDBRANCH   1   2
BRANCH   1  22
ATOM     22  C   UNL A   1      32.718  29.782  25.786  1.00  0.00     0.118 C 
BRANCH  22  23
ATOM     23  N   UNL A   1      32.525  31.134  26.276  1.00  0.00    -0.352 N 
ATOM     24  C   UNL A   1      33.216  31.865  27.211  1.00  0.00     0.251 C 
ATOM     25  H   UNL A   1      31.766  31.609  25.866  1.00  0.00     0.163 HD
ATOM     26  O   UNL A   1      32.706  32.913  27.608  1.00  0.00    -0.269 OA
BRANCH  24  27
ATOM     27  C   UNL A   1      34.535  31.442  27.761  1.00  0.00     0.039 A 
ATOM     28  C   UNL A   1      34.673  30.113  28.182  1.00  0.00     0.014 A 
ATOM     29  C   UNL A   1      35.595  32.325  27.977  1.00  0.00     0.014 A 
ATOM     30  C   UNL A   1      35.853  29.680  28.800  1.00  0.00     0.010 A 
ATOM     31  C   UNL A   1      36.811  31.867  28.495  1.00  0.00     0.010 A 
ATOM     32  C   UNL A   1      36.943  30.550  28.957  1.00  0.00    -0.014 A 
BRANCH  32  33
ATOM     33  C   UNL A   1      38.185  30.110  29.656  1.00  0.00     0.031 A 
ATOM     34  C   UNL A   1      38.512  30.622  31.040  1.00  0.00     0.074 A 
ATOM     35  C   UNL A   1      39.047  29.273  29.041  1.00  0.00     0.049 A 
ATOM     36  N   UNL A   1      39.536  30.338  31.807  1.00  0.00    -0.248 NA
ATOM     37  C   UNL A   1      37.586  31.600  31.633  1.00  0.00     0.031 C 
ATOM     38  C   UNL A   1      38.905  28.768  27.674  1.00  0.00     0.029 A 
ATOM     39  N   UNL A   1      40.220  28.710  29.481  1.00  0.00    -0.354 N 
ATOM     40  C   UNL A   1      39.398  31.129  32.944  1.00  0.00     0.074 A 
ATOM     41  C   UNL A   1      38.213  31.935  32.750  1.00  0.00     0.031 C 
ATOM     42  C   UNL A   1      39.937  27.957  27.395  1.00  0.00     0.029 A 
ATOM     43  C   UNL A   1      40.826  27.897  28.551  1.00  0.00     0.049 A 
ATOM     44  H   UNL A   1      40.591  28.873  30.378  1.00  0.00     0.167 HD
ATOM     45  C   UNL A   1      40.159  31.160  34.064  1.00  0.00     0.034 A 
ATOM     46  C   UNL A   1      41.965  27.179  28.622  1.00  0.00     0.034 A 
ATOM     47  C   UNL A   1      41.301  30.316  34.288  1.00  0.00     0.049 A 
ATOM     48  C   UNL A   1      42.748  27.169  29.908  1.00  0.00     0.074 A 
ATOM     49  C   UNL A   1      42.085  30.208  35.424  1.00  0.00     0.029 A 
ATOM     50  N   UNL A   1      41.825  29.430  33.359  1.00  0.00    -0.354 N 
ATOM     51  N   UNL A   1      42.507  27.802  31.029  1.00  0.00    -0.248 NA
ATOM     52  C   UNL A   1      43.937  26.305  29.953  1.00  0.00     0.031 C 
ATOM     53  C   UNL A   1      43.091  29.267  35.176  1.00  0.00     0.029 A 
ATOM     54  C   UNL A   1      42.918  28.772  33.894  1.00  0.00     0.049 A 
ATOM     55  H   UNL A   1      41.470  29.290  32.451  1.00  0.00     0.167 HD
ATOM     56  C   UNL A   1      43.487  27.386  31.923  1.00  0.00     0.074 A 
ATOM     57  C   UNL A   1      44.311  26.424  31.219  1.00  0.00     0.031 C 
ATOM     58  C   UNL A   1      43.698  27.775  33.205  1.00  0.00     0.034 A 
BRANCH  45  59
ATOM     59  C   UNL A   1      39.740  32.099  35.171  1.00  0.00     0.023 A 
ATOM     60  C   UNL A   1      40.176  33.439  35.146  1.00  0.00     0.012 A 
ATOM     61  C   UNL A   1      38.875  31.675  36.200  1.00  0.00     0.148 A 
ATOM     62  C   UNL A   1      39.795  34.332  36.147  1.00  0.00     0.002 A 
ATOM     63  C   UNL A   1      38.460  32.583  37.169  1.00  0.00     0.091 A 
ATOM     64  F   UNL A   1      38.483  30.393  36.219  1.00  0.00    -0.205 F 
ATOM     65  C   UNL A   1      38.929  33.907  37.151  1.00  0.00     0.022 A 
BRANCH  63  66
ATOM     66  S   UNL A   1      37.282  32.158  38.456  1.00  0.00     0.127 S 
ATOM     67  O   UNL A   1      37.952  32.673  39.651  1.00  0.00    -0.237 OA
ATOM     68  O   UNL A   1      36.097  32.915  38.052  1.00  0.00    -0.237 OA
ATOM     69  O   UNL A   1      37.127  30.712  38.398  1.00  0.00    -0.744 OA
ENDBRANCH  63  66
ENDBRANCH  45  59
BRANCH  46  70
ATOM     70  C   UNL A   1      42.385  26.333  27.467  1.00  0.00     0.023 A 
ATOM     71  C   UNL A   1      43.216  26.886  26.473  1.00  0.00     0.012 A 
ATOM     72  C   UNL A   1      41.987  24.987  27.360  1.00  0.00     0.148 A 
ATOM     73  C   UNL A   1      43.615  26.124  25.374  1.00  0.00     0.002 A 
ATOM     74  C   UNL A   1      42.434  24.218  26.291  1.00  0.00     0.091 A 
ATOM     75  F   UNL A   1      41.186  24.482  28.309  1.00  0.00    -0.205 F 
ATOM     76  C   UNL A   1      43.233  24.789  25.288  1.00  0.00     0.022 A 
BRANCH  74  77
ATOM     77  S   UNL A   1      42.099  22.457  26.163  1.00  0.00     0.127 S 
ATOM     78  O   UNL A   1      42.813  22.104  24.939  1.00  0.00    -0.237 OA
ATOM     79  O   UNL A   1      42.695  21.944  27.395  1.00  0.00    -0.237 OA
ATOM     80  O   UNL A   1      40.646  22.339  26.105  1.00  0.00    -0.744 OA
ENDBRANCH  74  77
ENDBRANCH  46  70
BRANCH  58  81
ATOM     81  C   UNL A   1      44.840  27.135  33.949  1.00  0.00     0.023 A 
ATOM     82  C   UNL A   1      46.131  27.694  33.875  1.00  0.00     0.012 A 
ATOM     83  C   UNL A   1      44.626  26.004  34.764  1.00  0.00     0.148 A 
ATOM     84  C   UNL A   1      47.197  27.116  34.560  1.00  0.00     0.002 A 
ATOM     85  C   UNL A   1      45.684  25.462  35.485  1.00  0.00     0.091 A 
ATOM     86  F   UNL A   1      43.397  25.470  34.810  1.00  0.00    -0.205 F 
ATOM     87  C   UNL A   1      46.973  26.006  35.373  1.00  0.00     0.022 A 
BRANCH  85  88
ATOM     88  S   UNL A   1      45.457  24.096  36.629  1.00  0.00     0.127 S 
ATOM     89  O   UNL A   1      44.943  23.049  35.747  1.00  0.00    -0.237 OA
ATOM     90  O   UNL A   1      46.817  23.866  37.119  1.00  0.00    -0.237 OA
ATOM     91  O   UNL A   1      44.529  24.578  37.642  1.00  0.00    -0.744 OA
ENDBRANCH  85  88
ENDBRANCH  58  81
ENDBRANCH  32  33
ENDBRANCH  24  27
ENDBRANCH  22  23
ENDBRANCH   1  22
TORSDOF 16
ENDMDL
MODEL 2
REMARK VINA RESULT:     -12.0      1.762      2.616
REMARK SMILES Cc1nonc1C[C@@H](C(=O)NCCCNC(=O)c1ccc(-c2c3nc(c(-c4cccc(S(=O)(=O)[O-])c4F)c4ccc([nH]4)c(-c4cccc(S(=O)(=O)[O-])c4F)c4nc(c(-c5cccc(S(=O)(=O)[O-])c5F)c5ccc2[nH]5)C=C4)C=C3)cc1)c1ccccc1Br
REMARK SMILES IDX 13 1 12 2 11 3 9 4 10 5 8 7 7 8 6 9 1 10 2 11 3 12 4 13 5 14
REMARK SMILES IDX 81 15 82 16 86 17 83 18 85 19 87 20 84 21 14 22 15 23 16 24
REMARK SMILES IDX 17 26 18 27 19 28 80 29 20 30 79 31 21 32 22 33 23 34 73 35
REMARK SMILES IDX 24 36 78 37 72 38 74 39 25 40 77 41 71 42 70 43 26 45 58 46
REMARK SMILES IDX 38 47 57 48 39 49 42 50 56 51 75 52 40 53 41 54 55 56 76 57
REMARK SMILES IDX 43 58 27 59 28 60 36 61 29 62 31 63 37 64 30 65 32 66 33 67
REMARK SMILES IDX 34 68 35 69 59 70 60 71 68 72 61 73 63 74 69 75 62 76 64 77
REMARK SMILES IDX 65 78 66 79 67 80 44 81 45 82 53 83 46 84 48 85 54 86 47 87
REMARK SMILES IDX 49 88 50 89 51 90 52 91
REMARK H PARENT 11 6 15 25 74 44 42 55
REMARK Flexibility Score: inf
ROOT
ATOM      1  C   UNL A   1      33.115  29.327  25.208  1.00  0.00     0.042 C 
ENDROOT
BRANCH   1   2
ATOM      2  C   UNL A   1      33.725  27.928  25.127  1.00  0.00     0.117 C 
BRANCH   2   3
ATOM      3  N   UNL A   1      33.543  27.390  23.786  1.00  0.00    -0.355 N 
ATOM      4  C   UNL A   1      33.600  26.100  23.339  1.00  0.00     0.227 C 
ATOM      5  O   UNL A   1      33.908  25.930  22.155  1.00  0.00    -0.274 OA
ATOM      6  H   UNL A   1      33.349  28.060  23.093  1.00  0.00     0.163 HD
BRANCH   4   7
ATOM      7  C   UNL A   1      33.169  24.926  24.239  1.00  0.00     0.116 C 
BRANCH   7   8
ATOM      8  C   UNL A   1      32.580  25.527  25.544  1.00  0.00     0.080 C 
BRANCH   8   9
ATOM      9  C   UNL A   1      31.428  24.836  26.179  1.00  0.00     0.109 A 
ATOM     10  C   UNL A   1      32.456  22.686  27.278  1.00  0.00     0.073 C 
ATOM     11  C   UNL A   1      31.383  23.633  26.914  1.00  0.00     0.105 A 
ATOM     12  N   UNL A   1      30.140  23.428  27.350  1.00  0.00    -0.055 NA
ATOM     13  O   UNL A   1      29.432  24.565  26.977  1.00  0.00    -0.244 OA
ATOM     14  N   UNL A   1      30.244  25.442  26.265  1.00  0.00    -0.055 NA
ENDBRANCH   8   9
ENDBRANCH   7   8
BRANCH   7  15
ATOM     15  C   UNL A   1      34.396  23.997  24.535  1.00  0.00    -0.021 A 
ATOM     16  C   UNL A   1      35.551  24.515  25.169  1.00  0.00     0.006 A 
ATOM     17  C   UNL A   1      34.460  22.637  24.159  1.00  0.00     0.021 A 
ATOM     18  C   UNL A   1      36.737  23.783  25.285  1.00  0.00     0.000 A 
ATOM     19  C   UNL A   1      35.668  21.918  24.238  1.00  0.00     0.016 A 
ATOM     20  Br  UNL A   1      32.955  21.606  23.610  1.00  0.00    -0.051 Br
ATOM     21  C   UNL A   1      36.810  22.498  24.778  1.00  0.00     0.001 A 
ENDBRANCH   7  15
ENDBRANCH   4   7
ENDBRANCH   2   3
ENDBRANCH   1   2
BRANCH   1  22
ATOM     22  C   UNL A   1      32.639  29.728  26.599  1.00  0.00     0.118 C 
BRANCH  22  23
ATOM     23  N   UNL A   1      32.660  31.165  26.795  1.00  0.00    -0.352 N 
ATOM     24  C   UNL A   1      33.532  31.971  27.487  1.00  0.00     0.251 C 
ATOM     25  H   UNL A   1      31.922  31.646  26.356  1.00  0.00     0.163 HD
ATOM     26  O   UNL A   1      33.195  33.138  27.686  1.00  0.00    -0.269 OA
BRANCH  24  27
ATOM     27  C   UNL A   1      34.844  31.493  28.004  1.00  0.00     0.039 A 
ATOM     28  C   UNL A   1      34.924  30.174  28.469  1.00  0.00     0.014 A 
ATOM     29  C   UNL A   1      35.959  32.321  28.151  1.00  0.00     0.014 A 
ATOM     30  C   UNL A   1      36.100  29.696  29.060  1.00  0.00     0.010 A 
ATOM     31  C   UNL A   1      37.167  31.812  28.641  1.00  0.00     0.010 A 
ATOM     32  C   UNL A   1      37.242  30.507  29.147  1.00  0.00    -0.014 A 
BRANCH  32  33
ATOM     33  C   UNL A   1      38.483  30.021  29.816  1.00  0.00     0.031 A 
ATOM     34  C   UNL A   1      38.861  30.520  31.193  1.00  0.00     0.074 A 
ATOM     35  C   UNL A   1      39.299  29.154  29.181  1.00  0.00     0.049 A 
ATOM     36  N   UNL A   1      39.891  30.198  31.936  1.00  0.00    -0.248 NA
ATOM     37  C   UNL A   1      37.985  31.531  31.806  1.00  0.00     0.031 C 
ATOM     38  C   UNL A   1      39.107  28.656  27.819  1.00  0.00     0.029 A 
ATOM     39  N   UNL A   1      40.461  28.548  29.595  1.00  0.00    -0.354 N 
ATOM     40  C   UNL A   1      39.808  30.993  33.075  1.00  0.00     0.074 A 
ATOM     41  C   UNL A   1      38.650  31.842  32.909  1.00  0.00     0.031 C 
ATOM     42  C   UNL A   1      40.102  27.807  27.516  1.00  0.00     0.029 A 
ATOM     43  C   UNL A   1      41.016  27.714  28.651  1.00  0.00     0.049 A 
ATOM     44  H   UNL A   1      40.858  28.696  30.483  1.00  0.00     0.167 HD
ATOM     45  C   UNL A   1      40.596  30.995  34.178  1.00  0.00     0.034 A 
ATOM     46  C   UNL A   1      42.128  26.955  28.696  1.00  0.00     0.034 A 
ATOM     47  C   UNL A   1      41.711  30.110  34.375  1.00  0.00     0.049 A 
ATOM     48  C   UNL A   1      42.940  26.915  29.963  1.00  0.00     0.074 A 
ATOM     49  C   UNL A   1      42.516  29.972  35.493  1.00  0.00     0.029 A 
ATOM     50  N   UNL A   1      42.180  29.206  33.434  1.00  0.00    -0.354 N 
ATOM     51  N   UNL A   1      42.748  27.556  31.089  1.00  0.00    -0.248 NA
ATOM     52  C   UNL A   1      44.098  26.008  29.980  1.00  0.00     0.031 C 
ATOM     53  C   UNL A   1      43.481  28.995  35.221  1.00  0.00     0.029 A 
ATOM     54  C   UNL A   1      43.261  28.508  33.944  1.00  0.00     0.049 A 
ATOM     55  H   UNL A   1      41.800  29.080  32.534  1.00  0.00     0.167 HD
ATOM     56  C   UNL A   1      43.733  27.103  31.960  1.00  0.00     0.074 A 
ATOM     57  C   UNL A   1      44.505  26.113  31.238  1.00  0.00     0.031 C 
ATOM     58  C   UNL A   1      43.987  27.484  33.237  1.00  0.00     0.034 A 
BRANCH  45  59
ATOM     59  C   UNL A   1      40.237  31.948  35.294  1.00  0.00     0.023 A 
ATOM     60  C   UNL A   1      40.929  33.171  35.412  1.00  0.00     0.012 A 
ATOM     61  C   UNL A   1      39.186  31.663  36.188  1.00  0.00     0.148 A 
ATOM     62  C   UNL A   1      40.611  34.076  36.424  1.00  0.00     0.002 A 
ATOM     63  C   UNL A   1      38.842  32.591  37.165  1.00  0.00     0.091 A 
ATOM     64  F   UNL A   1      38.549  30.489  36.073  1.00  0.00    -0.205 F 
ATOM     65  C   UNL A   1      39.561  33.791  37.293  1.00  0.00     0.022 A 
BRANCH  63  66
ATOM     66  S   UNL A   1      37.453  32.357  38.281  1.00  0.00     0.127 S 
ATOM     67  O   UNL A   1      36.378  33.038  37.560  1.00  0.00    -0.237 OA
ATOM     68  O   UNL A   1      37.331  30.900  38.319  1.00  0.00    -0.237 OA
ATOM     69  O   UNL A   1      37.846  32.967  39.544  1.00  0.00    -0.744 OA
ENDBRANCH  63  66
ENDBRANCH  45  59
BRANCH  46  70
ATOM     70  C   UNL A   1      42.490  26.095  27.532  1.00  0.00     0.023 A 
ATOM     71  C   UNL A   1      43.278  26.633  26.494  1.00  0.00     0.012 A 
ATOM     72  C   UNL A   1      42.081  24.751  27.456  1.00  0.00     0.148 A 
ATOM     73  C   UNL A   1      43.622  25.858  25.386  1.00  0.00     0.002 A 
ATOM     74  C   UNL A   1      42.474  23.968  26.376  1.00  0.00     0.091 A 
ATOM     75  F   UNL A   1      41.321  24.260  28.446  1.00  0.00    -0.205 F 
ATOM     76  C   UNL A   1      43.229  24.525  25.331  1.00  0.00     0.022 A 
BRANCH  74  77
ATOM     77  S   UNL A   1      42.124  22.209  26.281  1.00  0.00     0.127 S 
ATOM     78  O   UNL A   1      42.651  21.728  27.555  1.00  0.00    -0.237 OA
ATOM     79  O   UNL A   1      40.665  22.194  26.172  1.00  0.00    -0.237 OA
ATOM     80  O   UNL A   1      42.819  21.735  25.089  1.00  0.00    -0.744 OA
ENDBRANCH  74  77
ENDBRANCH  46  70
BRANCH  58  81
ATOM     81  C   UNL A   1      45.123  26.802  33.955  1.00  0.00     0.023 A 
ATOM     82  C   UNL A   1      46.431  27.314  33.850  1.00  0.00     0.012 A 
ATOM     83  C   UNL A   1      44.886  25.679  34.774  1.00  0.00     0.148 A 
ATOM     84  C   UNL A   1      47.491  26.696  34.511  1.00  0.00     0.002 A 
ATOM     85  C   UNL A   1      45.940  25.098  35.470  1.00  0.00     0.091 A 
ATOM     86  F   UNL A   1      43.640  25.190  34.849  1.00  0.00    -0.205 F 
ATOM     87  C   UNL A   1      47.245  25.595  35.329  1.00  0.00     0.022 A 
BRANCH  85  88
ATOM     88  S   UNL A   1      45.690  23.740  36.619  1.00  0.00     0.127 S 
ATOM     89  O   UNL A   1      44.795  24.343  37.605  1.00  0.00    -0.237 OA
ATOM     90  O   UNL A   1      45.065  22.722  35.772  1.00  0.00    -0.237 OA
ATOM     91  O   UNL A   1      47.015  23.383  37.104  1.00  0.00    -0.744 OA
ENDBRANCH  85  88
ENDBRANCH  58  81
ENDBRANCH  32  33
ENDBRANCH  24  27
ENDBRANCH  22  23
ENDBRANCH   1  22
TORSDOF 16
ENDMDL
MODEL 3
REMARK VINA RESULT:     -11.9      5.287     10.089
REMARK SMILES Cc1nonc1C[C@@H](C(=O)NCCCNC(=O)c1ccc(-c2c3nc(c(-c4cccc(S(=O)(=O)[O-])c4F)c4ccc([nH]4)c(-c4cccc(S(=O)(=O)[O-])c4F)c4nc(c(-c5cccc(S(=O)(=O)[O-])c5F)c5ccc2[nH]5)C=C4)C=C3)cc1)c1ccccc1Br
REMARK SMILES IDX 13 1 12 2 11 3 9 4 10 5 8 7 7 8 6 9 1 10 2 11 3 12 4 13 5 14
REMARK SMILES IDX 81 15 82 16 86 17 83 18 85 19 87 20 84 21 14 22 15 23 16 24
REMARK SMILES IDX 17 26 18 27 19 28 80 29 20 30 79 31 21 32 22 33 23 34 73 35
REMARK SMILES IDX 24 36 78 37 72 38 74 39 25 40 77 41 71 42 70 43 26 45 58 46
REMARK SMILES IDX 38 47 57 48 39 49 42 50 56 51 75 52 40 53 41 54 55 56 76 57
REMARK SMILES IDX 43 58 27 59 28 60 36 61 29 62 31 63 37 64 30 65 32 66 33 67
REMARK SMILES IDX 34 68 35 69 59 70 60 71 68 72 61 73 63 74 69 75 62 76 64 77
REMARK SMILES IDX 65 78 66 79 67 80 44 81 45 82 53 83 46 84 48 85 54 86 47 87
REMARK SMILES IDX 49 88 50 89 51 90 52 91
REMARK H PARENT 11 6 15 25 74 44 42 55
REMARK Flexibility Score: inf
ROOT
ATOM      1  C   UNL A   1      35.115  22.376  25.733  1.00  0.00     0.042 C 
ENDROOT
BRANCH   1   2
ATOM      2  C   UNL A   1      34.641  23.814  25.941  1.00  0.00     0.117 C 
BRANCH   2   3
ATOM      3  N   UNL A   1      33.202  23.830  26.163  1.00  0.00    -0.355 N 
ATOM      4  C   UNL A   1      32.295  24.837  25.994  1.00  0.00     0.227 C 
ATOM      5  O   UNL A   1      31.274  24.795  26.687  1.00  0.00    -0.274 OA
ATOM      6  H   UNL A   1      32.824  22.981  26.486  1.00  0.00     0.163 HD
BRANCH   4   7
ATOM      7  C   UNL A   1      32.482  25.900  24.893  1.00  0.00     0.116 C 
BRANCH   7   8
ATOM      8  C   UNL A   1      33.743  25.512  24.076  1.00  0.00     0.080 C 
BRANCH   8   9
ATOM      9  C   UNL A   1      33.565  25.099  22.660  1.00  0.00     0.109 A 
ATOM     10  C   UNL A   1      32.952  22.550  22.775  1.00  0.00     0.073 C 
ATOM     11  C   UNL A   1      33.228  23.841  22.116  1.00  0.00     0.105 A 
ATOM     12  N   UNL A   1      33.116  23.949  20.792  1.00  0.00    -0.055 NA
ATOM     13  O   UNL A   1      33.277  25.303  20.523  1.00  0.00    -0.244 OA
ATOM     14  N   UNL A   1      33.538  26.013  21.690  1.00  0.00    -0.055 NA
ENDBRANCH   8   9
ENDBRANCH   7   8
BRANCH   7  15
ATOM     15  C   UNL A   1      32.628  27.321  25.538  1.00  0.00    -0.021 A 
ATOM     16  C   UNL A   1      33.626  27.569  26.510  1.00  0.00     0.006 A 
ATOM     17  C   UNL A   1      31.773  28.407  25.246  1.00  0.00     0.021 A 
ATOM     18  C   UNL A   1      33.678  28.755  27.249  1.00  0.00     0.000 A 
ATOM     19  C   UNL A   1      31.801  29.582  26.021  1.00  0.00     0.016 A 
ATOM     20  Br  UNL A   1      30.583  28.463  23.759  1.00  0.00    -0.051 Br
ATOM     21  C   UNL A   1      32.736  29.745  27.036  1.00  0.00     0.001 A 
ENDBRANCH   7  15
ENDBRANCH   4   7
ENDBRANCH   2   3
ENDBRANCH   1   2
BRANCH   1  22
ATOM     22  C   UNL A   1      36.312  22.235  24.800  1.00  0.00     0.118 C 
BRANCH  22  23
ATOM     23  N   UNL A   1      37.194  21.154  25.194  1.00  0.00    -0.352 N 
ATOM     24  C   UNL A   1      38.449  21.167  25.754  1.00  0.00     0.251 C 
ATOM     25  H   UNL A   1      36.829  20.253  25.034  1.00  0.00     0.163 HD
ATOM     26  O   UNL A   1      39.073  20.106  25.782  1.00  0.00    -0.269 OA
BRANCH  24  27
ATOM     27  C   UNL A   1      39.076  22.397  26.311  1.00  0.00     0.039 A 
ATOM     28  C   UNL A   1      38.594  23.636  25.870  1.00  0.00     0.014 A 
ATOM     29  C   UNL A   1      40.185  22.376  27.160  1.00  0.00     0.014 A 
ATOM     30  C   UNL A   1      39.208  24.827  26.279  1.00  0.00     0.010 A 
ATOM     31  C   UNL A   1      40.730  23.567  27.653  1.00  0.00     0.010 A 
ATOM     32  C   UNL A   1      40.281  24.809  27.184  1.00  0.00    -0.014 A 
BRANCH  32  33
ATOM     33  C   UNL A   1      40.969  26.069  27.588  1.00  0.00     0.031 A 
ATOM     34  C   UNL A   1      42.392  26.341  27.155  1.00  0.00     0.074 A 
ATOM     35  C   UNL A   1      40.336  26.964  28.373  1.00  0.00     0.049 A 
ATOM     36  N   UNL A   1      43.145  27.386  27.396  1.00  0.00    -0.248 NA
ATOM     37  C   UNL A   1      43.070  25.294  26.373  1.00  0.00     0.031 C 
ATOM     38  C   UNL A   1      38.996  26.795  28.937  1.00  0.00     0.029 A 
ATOM     39  N   UNL A   1      40.740  28.190  28.844  1.00  0.00    -0.354 N 
ATOM     40  C   UNL A   1      44.388  27.104  26.836  1.00  0.00     0.074 A 
ATOM     41  C   UNL A   1      44.301  25.773  26.277  1.00  0.00     0.031 C 
ATOM     42  C   UNL A   1      38.681  27.882  29.659  1.00  0.00     0.029 A 
ATOM     43  C   UNL A   1      39.801  28.818  29.630  1.00  0.00     0.049 A 
ATOM     44  H   UNL A   1      41.619  28.582  28.637  1.00  0.00     0.167 HD
ATOM     45  C   UNL A   1      45.489  27.888  26.755  1.00  0.00     0.034 A 
ATOM     46  C   UNL A   1      39.833  30.014  30.251  1.00  0.00     0.034 A 
ATOM     47  C   UNL A   1      45.560  29.235  27.254  1.00  0.00     0.049 A 
ATOM     48  C   UNL A   1      41.039  30.899  30.078  1.00  0.00     0.074 A 
ATOM     49  C   UNL A   1      46.600  30.143  27.142  1.00  0.00     0.029 A 
ATOM     50  N   UNL A   1      44.549  29.872  27.957  1.00  0.00    -0.354 N 
ATOM     51  N   UNL A   1      42.141  30.674  29.405  1.00  0.00    -0.248 NA
ATOM     52  C   UNL A   1      40.985  32.225  30.712  1.00  0.00     0.031 C 
ATOM     53  C   UNL A   1      46.222  31.324  27.791  1.00  0.00     0.029 A 
ATOM     54  C   UNL A   1      44.938  31.160  28.284  1.00  0.00     0.049 A 
ATOM     55  H   UNL A   1      43.682  29.468  28.188  1.00  0.00     0.167 HD
ATOM     56  C   UNL A   1      42.892  31.841  29.501  1.00  0.00     0.074 A 
ATOM     57  C   UNL A   1      42.108  32.779  30.276  1.00  0.00     0.031 C 
ATOM     58  C   UNL A   1      44.127  32.106  29.007  1.00  0.00     0.034 A 
BRANCH  45  59
ATOM     59  C   UNL A   1      46.697  27.329  26.041  1.00  0.00     0.023 A 
ATOM     60  C   UNL A   1      46.804  27.471  24.642  1.00  0.00     0.012 A 
ATOM     61  C   UNL A   1      47.748  26.717  26.752  1.00  0.00     0.148 A 
ATOM     62  C   UNL A   1      47.913  26.977  23.957  1.00  0.00     0.002 A 
ATOM     63  C   UNL A   1      48.874  26.269  26.069  1.00  0.00     0.091 A 
ATOM     64  F   UNL A   1      47.625  26.575  28.080  1.00  0.00    -0.205 F 
ATOM     65  C   UNL A   1      48.952  26.386  24.671  1.00  0.00     0.022 A 
BRANCH  63  66
ATOM     66  S   UNL A   1      50.303  25.570  26.903  1.00  0.00     0.127 S 
ATOM     67  O   UNL A   1      51.191  25.281  25.778  1.00  0.00    -0.237 OA
ATOM     68  O   UNL A   1      50.738  26.680  27.752  1.00  0.00    -0.237 OA
ATOM     69  O   UNL A   1      49.814  24.407  27.630  1.00  0.00    -0.744 OA
ENDBRANCH  63  66
ENDBRANCH  45  59
BRANCH  46  70
ATOM     70  C   UNL A   1      38.646  30.486  31.020  1.00  0.00     0.023 A 
ATOM     71  C   UNL A   1      38.566  30.218  32.401  1.00  0.00     0.012 A 
ATOM     72  C   UNL A   1      37.612  31.214  30.401  1.00  0.00     0.148 A 
ATOM     73  C   UNL A   1      37.462  30.635  33.145  1.00  0.00     0.002 A 
ATOM     74  C   UNL A   1      36.541  31.674  31.159  1.00  0.00     0.091 A 
ATOM     75  F   UNL A   1      37.698  31.448  29.084  1.00  0.00    -0.205 F 
ATOM     76  C   UNL A   1      36.455  31.371  32.528  1.00  0.00     0.022 A 
BRANCH  74  77
ATOM     77  S   UNL A   1      35.263  32.737  30.479  1.00  0.00     0.127 S 
ATOM     78  O   UNL A   1      36.037  33.894  30.038  1.00  0.00    -0.237 OA
ATOM     79  O   UNL A   1      34.721  31.910  29.400  1.00  0.00    -0.237 OA
ATOM     80  O   UNL A   1      34.330  32.979  31.574  1.00  0.00    -0.744 OA
ENDBRANCH  74  77
ENDBRANCH  46  70
BRANCH  58  81
ATOM     81  C   UNL A   1      44.696  33.479  29.253  1.00  0.00     0.023 A 
ATOM     82  C   UNL A   1      45.384  33.752  30.452  1.00  0.00     0.012 A 
ATOM     83  C   UNL A   1      44.592  34.488  28.274  1.00  0.00     0.148 A 
ATOM     84  C   UNL A   1      45.918  35.016  30.693  1.00  0.00     0.002 A 
ATOM     85  C   UNL A   1      45.172  35.731  28.500  1.00  0.00     0.091 A 
ATOM     86  F   UNL A   1      43.918  34.220  27.146  1.00  0.00    -0.205 F 
ATOM     87  C   UNL A   1      45.822  36.002  29.714  1.00  0.00     0.022 A 
BRANCH  85  88
ATOM     88  S   UNL A   1      45.176  37.022  27.250  1.00  0.00     0.127 S 
ATOM     89  O   UNL A   1      45.934  38.080  27.915  1.00  0.00    -0.237 OA
ATOM     90  O   UNL A   1      45.876  36.379  26.136  1.00  0.00    -0.237 OA
ATOM     91  O   UNL A   1      43.776  37.320  26.984  1.00  0.00    -0.744 OA
ENDBRANCH  85  88
ENDBRANCH  58  81
ENDBRANCH  32  33
ENDBRANCH  24  27
ENDBRANCH  22  23
ENDBRANCH   1  22
TORSDOF 16
ENDMDL
