MODEL 1
REMARK VINA RESULT:     -11.9      0.000      0.000
REMARK SMILES O=C(NCCCNC(=O)c1ccc(CNC(=O)c2cccnc2)o1)c1ccc(-c2c3nc(c(-c4cccc(S(=O)(=O)[O-])c4F)c4ccc([nH]4)c(-c4cccc(S(=O)(=O)[O-])c4F)c4nc(c(-c5cccc(S(=O)(=O)[O-])c5F)c5ccc2[nH]5)C=C4)C=C3)cc1
REMARK SMILES IDX 5 1 4 2 3 3 1 4 2 5 25 7 26 8 87 9 27 10 86 11 28 12 29 13
REMARK SMILES IDX 30 14 80 15 31 16 85 17 79 18 81 19 32 20 84 21 78 22 77 23
REMARK SMILES IDX 33 25 65 26 45 27 64 28 46 29 49 30 63 31 82 32 47 33 48 34
REMARK SMILES IDX 62 36 83 37 50 38 34 39 35 40 43 41 36 42 38 43 44 44 37 45
REMARK SMILES IDX 39 46 40 47 41 48 42 49 66 50 67 51 75 52 68 53 70 54 76 55
REMARK SMILES IDX 69 56 71 57 72 58 73 59 74 60 51 61 52 62 60 63 53 64 55 65
REMARK SMILES IDX 61 66 54 67 56 68 57 69 58 70 59 71 6 72 7 73 8 74 9 76
REMARK SMILES IDX 10 77 11 78 24 79 12 80 13 81 14 82 15 83 16 84 17 86 18 87
REMARK SMILES IDX 19 88 23 89 20 90 22 91 21 92
REMARK H PARENT 3 6 81 24 49 35 7 75 15 85
REMARK Flexibility Score: inf
ROOT
ATOM      1  C   UNL A   1      31.605  32.601  26.621  1.00  0.00     0.042 C 
ENDROOT
BRANCH   1   2
ATOM      2  C   UNL A   1      32.844  33.099  27.353  1.00  0.00     0.118 C 
BRANCH   2   3
ATOM      3  N   UNL A   1      32.632  34.388  27.996  1.00  0.00    -0.352 N 
ATOM      4  O   UNL A   1      32.692  35.932  29.625  1.00  0.00    -0.269 OA
ATOM      5  C   UNL A   1      33.174  34.907  29.148  1.00  0.00     0.251 C 
ATOM      6  H   UNL A   1      32.000  34.982  27.532  1.00  0.00     0.163 HD
BRANCH   5   7
ATOM      7  C   UNL A   1      34.310  34.234  29.818  1.00  0.00     0.039 A 
ATOM      8  C   UNL A   1      34.094  33.227  30.760  1.00  0.00     0.014 A 
ATOM      9  C   UNL A   1      35.616  34.589  29.468  1.00  0.00     0.014 A 
ATOM     10  C   UNL A   1      35.166  32.691  31.463  1.00  0.00     0.010 A 
ATOM     11  C   UNL A   1      36.700  33.977  30.108  1.00  0.00     0.010 A 
ATOM     12  C   UNL A   1      36.484  33.046  31.134  1.00  0.00    -0.014 A 
BRANCH  12  13
ATOM     13  C   UNL A   1      37.613  32.368  31.821  1.00  0.00     0.031 A 
ATOM     14  C   UNL A   1      38.376  31.252  31.163  1.00  0.00     0.074 A 
ATOM     15  C   UNL A   1      37.952  32.780  33.060  1.00  0.00     0.049 A 
ATOM     16  N   UNL A   1      39.402  30.580  31.619  1.00  0.00    -0.248 NA
ATOM     17  C   UNL A   1      37.932  30.828  29.825  1.00  0.00     0.031 C 
ATOM     18  C   UNL A   1      37.257  33.825  33.817  1.00  0.00     0.029 A 
ATOM     19  N   UNL A   1      38.960  32.380  33.898  1.00  0.00    -0.354 N 
ATOM     20  C   UNL A   1      39.705  29.634  30.647  1.00  0.00     0.074 A 
ATOM     21  C   UNL A   1      38.746  29.811  29.578  1.00  0.00     0.031 C 
ATOM     22  C   UNL A   1      37.876  34.005  34.991  1.00  0.00     0.029 A 
ATOM     23  C   UNL A   1      38.978  33.055  35.096  1.00  0.00     0.049 A 
ATOM     24  H   UNL A   1      39.609  31.676  33.665  1.00  0.00     0.167 HD
ATOM     25  C   UNL A   1      40.702  28.717  30.639  1.00  0.00     0.034 A 
ATOM     26  C   UNL A   1      39.781  32.920  36.168  1.00  0.00     0.034 A 
ATOM     27  C   UNL A   1      41.674  28.570  31.691  1.00  0.00     0.049 A 
ATOM     28  C   UNL A   1      40.887  31.907  36.121  1.00  0.00     0.074 A 
ATOM     29  C   UNL A   1      42.755  27.707  31.748  1.00  0.00     0.029 A 
ATOM     30  N   UNL A   1      41.683  29.298  32.872  1.00  0.00    -0.354 N 
ATOM     31  N   UNL A   1      41.230  31.106  35.142  1.00  0.00    -0.248 NA
ATOM     32  C   UNL A   1      41.733  31.794  37.317  1.00  0.00     0.031 C 
ATOM     33  C   UNL A   1      43.408  27.901  32.971  1.00  0.00     0.029 A 
ATOM     34  C   UNL A   1      42.744  28.899  33.667  1.00  0.00     0.049 A 
ATOM     35  H   UNL A   1      41.031  29.996  33.108  1.00  0.00     0.167 HD
ATOM     36  C   UNL A   1      42.344  30.411  35.593  1.00  0.00     0.074 A 
ATOM     37  C   UNL A   1      42.636  30.905  36.923  1.00  0.00     0.031 C 
ATOM     38  C   UNL A   1      43.050  29.434  34.970  1.00  0.00     0.034 A 
BRANCH  25  39
ATOM     39  C   UNL A   1      40.828  27.824  29.432  1.00  0.00     0.023 A 
ATOM     40  C   UNL A   1      39.979  26.705  29.306  1.00  0.00     0.012 A 
ATOM     41  C   UNL A   1      41.727  28.128  28.390  1.00  0.00     0.148 A 
ATOM     42  C   UNL A   1      40.039  25.890  28.176  1.00  0.00     0.002 A 
ATOM     43  C   UNL A   1      41.755  27.331  27.249  1.00  0.00     0.091 A 
ATOM     44  F   UNL A   1      42.542  29.183  28.534  1.00  0.00    -0.205 F 
ATOM     45  C   UNL A   1      40.918  26.208  27.145  1.00  0.00     0.022 A 
BRANCH  43  46
ATOM     46  S   UNL A   1      42.802  27.699  25.836  1.00  0.00     0.127 S 
ATOM     47  O   UNL A   1      42.697  29.156  25.764  1.00  0.00    -0.237 OA
ATOM     48  O   UNL A   1      44.106  27.204  26.279  1.00  0.00    -0.237 OA
ATOM     49  O   UNL A   1      42.228  26.972  24.713  1.00  0.00    -0.744 OA
ENDBRANCH  43  46
ENDBRANCH  25  39
BRANCH  26  50
ATOM     50  C   UNL A   1      39.591  33.809  37.348  1.00  0.00     0.023 A 
ATOM     51  C   UNL A   1      40.038  35.142  37.289  1.00  0.00     0.012 A 
ATOM     52  C   UNL A   1      38.918  33.358  38.500  1.00  0.00     0.148 A 
ATOM     53  C   UNL A   1      39.836  36.006  38.366  1.00  0.00     0.002 A 
ATOM     54  C   UNL A   1      38.668  34.240  39.545  1.00  0.00     0.091 A 
ATOM     55  F   UNL A   1      38.516  32.080  38.543  1.00  0.00    -0.205 F 
ATOM     56  C   UNL A   1      39.139  35.560  39.487  1.00  0.00     0.022 A 
BRANCH  54  57
ATOM     57  S   UNL A   1      37.652  33.786  40.955  1.00  0.00     0.127 S 
ATOM     58  O   UNL A   1      37.429  35.081  41.592  1.00  0.00    -0.237 OA
ATOM     59  O   UNL A   1      36.474  33.205  40.309  1.00  0.00    -0.237 OA
ATOM     60  O   UNL A   1      38.447  32.831  41.716  1.00  0.00    -0.744 OA
ENDBRANCH  54  57
ENDBRANCH  26  50
BRANCH  38  61
ATOM     61  C   UNL A   1      44.220  28.847  35.711  1.00  0.00     0.023 A 
ATOM     62  C   UNL A   1      45.512  29.368  35.498  1.00  0.00     0.012 A 
ATOM     63  C   UNL A   1      44.033  27.828  36.665  1.00  0.00     0.148 A 
ATOM     64  C   UNL A   1      46.604  28.861  36.198  1.00  0.00     0.002 A 
ATOM     65  C   UNL A   1      45.120  27.358  37.392  1.00  0.00     0.091 A 
ATOM     66  F   UNL A   1      42.798  27.332  36.838  1.00  0.00    -0.205 F 
ATOM     67  C   UNL A   1      46.407  27.866  37.153  1.00  0.00     0.022 A 
BRANCH  65  68
ATOM     68  S   UNL A   1      44.944  26.144  38.703  1.00  0.00     0.127 S 
ATOM     69  O   UNL A   1      44.394  24.999  37.978  1.00  0.00    -0.237 OA
ATOM     70  O   UNL A   1      46.325  25.972  39.157  1.00  0.00    -0.237 OA
ATOM     71  O   UNL A   1      44.057  26.746  39.689  1.00  0.00    -0.744 OA
ENDBRANCH  65  68
ENDBRANCH  38  61
ENDBRANCH  12  13
ENDBRANCH   5   7
ENDBRANCH   2   3
ENDBRANCH   1   2
BRANCH   1  72
ATOM     72  C   UNL A   1      31.520  31.085  26.507  1.00  0.00     0.118 C 
BRANCH  72  73
ATOM     73  N   UNL A   1      32.835  30.466  26.440  1.00  0.00    -0.349 N 
ATOM     74  C   UNL A   1      33.167  29.165  26.145  1.00  0.00     0.286 C 
ATOM     75  H   UNL A   1      33.595  31.063  26.631  1.00  0.00     0.163 HD
ATOM     76  O   UNL A   1      34.325  28.806  26.366  1.00  0.00    -0.266 OA
BRANCH  74  77
ATOM     77  C   UNL A   1      32.152  28.299  25.593  1.00  0.00     0.191 A 
ATOM     78  C   UNL A   1      31.698  27.043  25.953  1.00  0.00     0.056 A 
ATOM     79  O   UNL A   1      31.458  28.733  24.499  1.00  0.00    -0.454 OA
ATOM     80  C   UNL A   1      30.715  26.674  25.005  1.00  0.00     0.048 A 
ATOM     81  C   UNL A   1      30.610  27.732  24.129  1.00  0.00     0.124 A 
BRANCH  81  82
ATOM     82  C   UNL A   1      29.838  27.960  22.887  1.00  0.00     0.191 C 
BRANCH  82  83
ATOM     83  N   UNL A   1      28.424  27.791  23.155  1.00  0.00    -0.345 N 
ATOM     84  C   UNL A   1      27.426  28.727  23.092  1.00  0.00     0.253 C 
ATOM     85  H   UNL A   1      28.144  26.884  23.415  1.00  0.00     0.164 HD
ATOM     86  O   UNL A   1      26.289  28.450  23.465  1.00  0.00    -0.269 OA
BRANCH  84  87
ATOM     87  C   UNL A   1      27.711  30.083  22.592  1.00  0.00     0.058 A 
ATOM     88  C   UNL A   1      27.980  30.354  21.250  1.00  0.00     0.017 A 
ATOM     89  C   UNL A   1      27.690  31.141  23.488  1.00  0.00     0.124 A 
ATOM     90  C   UNL A   1      28.286  31.659  20.871  1.00  0.00     0.021 A 
ATOM     91  N   UNL A   1      27.971  32.421  23.142  1.00  0.00    -0.264 NA
ATOM     92  C   UNL A   1      28.276  32.647  21.846  1.00  0.00     0.111 A 
ENDBRANCH  84  87
ENDBRANCH  82  83
ENDBRANCH  81  82
ENDBRANCH  74  77
ENDBRANCH  72  73
ENDBRANCH   1  72
TORSDOF 16
ENDMDL
MODEL 2
REMARK VINA RESULT:     -11.8      0.708      7.894
REMARK SMILES O=C(NCCCNC(=O)c1ccc(CNC(=O)c2cccnc2)o1)c1ccc(-c2c3nc(c(-c4cccc(S(=O)(=O)[O-])c4F)c4ccc([nH]4)c(-c4cccc(S(=O)(=O)[O-])c4F)c4nc(c(-c5cccc(S(=O)(=O)[O-])c5F)c5ccc2[nH]5)C=C4)C=C3)cc1
REMARK SMILES IDX 5 1 4 2 3 3 1 4 2 5 25 7 26 8 87 9 27 10 86 11 28 12 29 13
REMARK SMILES IDX 30 14 80 15 31 16 85 17 79 18 81 19 32 20 84 21 78 22 77 23
REMARK SMILES IDX 33 25 65 26 45 27 64 28 46 29 49 30 63 31 82 32 47 33 48 34
REMARK SMILES IDX 62 36 83 37 50 38 34 39 35 40 43 41 36 42 38 43 44 44 37 45
REMARK SMILES IDX 39 46 40 47 41 48 42 49 66 50 67 51 75 52 68 53 70 54 76 55
REMARK SMILES IDX 69 56 71 57 72 58 73 59 74 60 51 61 52 62 60 63 53 64 55 65
REMARK SMILES IDX 61 66 54 67 56 68 57 69 58 70 59 71 6 72 7 73 8 74 9 76
REMARK SMILES IDX 10 77 11 78 24 79 12 80 13 81 14 82 15 83 16 84 17 86 18 87
REMARK SMILES IDX 19 88 23 89 20 90 22 91 21 92
REMARK H PARENT 3 6 81 24 49 35 7 75 15 85
REMARK Flexibility Score: inf
ROOT
ATOM      1  C   UNL A   1      31.435  32.241  26.770  1.00  0.00     0.042 C 
ENDROOT
BRANCH   1   2
ATOM      2  C   UNL A   1      32.752  32.861  27.216  1.00  0.00     0.118 C 
BRANCH   2   3
ATOM      3  N   UNL A   1      32.584  34.206  27.749  1.00  0.00    -0.352 N 
ATOM      4  O   UNL A   1      32.751  35.892  29.220  1.00  0.00    -0.269 OA
ATOM      5  C   UNL A   1      33.201  34.825  28.810  1.00  0.00     0.251 C 
ATOM      6  H   UNL A   1      31.924  34.759  27.274  1.00  0.00     0.163 HD
BRANCH   5   7
ATOM      7  C   UNL A   1      34.376  34.207  29.465  1.00  0.00     0.039 A 
ATOM      8  C   UNL A   1      35.674  34.543  29.077  1.00  0.00     0.014 A 
ATOM      9  C   UNL A   1      34.177  33.305  30.515  1.00  0.00     0.014 A 
ATOM     10  C   UNL A   1      36.759  33.865  29.621  1.00  0.00     0.010 A 
ATOM     11  C   UNL A   1      35.276  32.696  31.130  1.00  0.00     0.010 A 
ATOM     12  C   UNL A   1      36.576  32.947  30.667  1.00  0.00    -0.014 A 
BRANCH  12  13
ATOM     13  C   UNL A   1      37.764  32.329  31.308  1.00  0.00     0.031 A 
ATOM     14  C   UNL A   1      38.290  32.821  32.628  1.00  0.00     0.074 A 
ATOM     15  C   UNL A   1      38.369  31.299  30.682  1.00  0.00     0.049 A 
ATOM     16  N   UNL A   1      39.297  32.370  33.330  1.00  0.00    -0.248 NA
ATOM     17  C   UNL A   1      37.604  33.972  33.239  1.00  0.00     0.031 C 
ATOM     18  C   UNL A   1      37.976  30.761  29.376  1.00  0.00     0.029 A 
ATOM     19  N   UNL A   1      39.434  30.519  31.053  1.00  0.00    -0.354 N 
ATOM     20  C   UNL A   1      39.391  33.196  34.444  1.00  0.00     0.074 A 
ATOM     21  C   UNL A   1      38.343  34.186  34.320  1.00  0.00     0.031 C 
ATOM     22  C   UNL A   1      38.765  29.723  29.071  1.00  0.00     0.029 A 
ATOM     23  C   UNL A   1      39.754  29.551  30.129  1.00  0.00     0.049 A 
ATOM     24  H   UNL A   1      39.923  30.640  31.900  1.00  0.00     0.167 HD
ATOM     25  C   UNL A   1      40.259  33.123  35.481  1.00  0.00     0.034 A 
ATOM     26  C   UNL A   1      40.740  28.635  30.124  1.00  0.00     0.034 A 
ATOM     27  C   UNL A   1      41.277  32.115  35.615  1.00  0.00     0.049 A 
ATOM     28  C   UNL A   1      41.674  28.569  31.296  1.00  0.00     0.074 A 
ATOM     29  C   UNL A   1      42.168  31.925  36.658  1.00  0.00     0.029 A 
ATOM     30  N   UNL A   1      41.546  31.128  34.678  1.00  0.00    -0.354 N 
ATOM     31  N   UNL A   1      41.668  29.283  32.396  1.00  0.00    -0.248 NA
ATOM     32  C   UNL A   1      42.736  27.555  31.241  1.00  0.00     0.031 C 
ATOM     33  C   UNL A   1      42.986  30.834  36.343  1.00  0.00     0.029 A 
ATOM     34  C   UNL A   1      42.592  30.332  35.113  1.00  0.00     0.049 A 
ATOM     35  H   UNL A   1      41.062  31.011  33.828  1.00  0.00     0.167 HD
ATOM     36  C   UNL A   1      42.708  28.791  33.173  1.00  0.00     0.074 A 
ATOM     37  C   UNL A   1      43.305  27.699  32.430  1.00  0.00     0.031 C 
ATOM     38  C   UNL A   1      43.145  29.219  34.383  1.00  0.00     0.034 A 
BRANCH  25  39
ATOM     39  C   UNL A   1      40.119  34.137  36.588  1.00  0.00     0.023 A 
ATOM     40  C   UNL A   1      40.459  35.483  36.342  1.00  0.00     0.012 A 
ATOM     41  C   UNL A   1      39.586  33.778  37.843  1.00  0.00     0.148 A 
ATOM     42  C   UNL A   1      40.293  36.451  37.331  1.00  0.00     0.002 A 
ATOM     43  C   UNL A   1      39.389  34.757  38.812  1.00  0.00     0.091 A 
ATOM     44  F   UNL A   1      39.288  32.491  38.068  1.00  0.00    -0.205 F 
ATOM     45  C   UNL A   1      39.750  36.091  38.561  1.00  0.00     0.022 A 
BRANCH  43  46
ATOM     46  S   UNL A   1      38.630  34.405  40.402  1.00  0.00     0.127 S 
ATOM     47  O   UNL A   1      39.692  33.659  41.077  1.00  0.00    -0.237 OA
ATOM     48  O   UNL A   1      38.394  35.746  40.937  1.00  0.00    -0.237 OA
ATOM     49  O   UNL A   1      37.420  33.649  40.109  1.00  0.00    -0.744 OA
ENDBRANCH  43  46
ENDBRANCH  25  39
BRANCH  26  50
ATOM     50  C   UNL A   1      40.850  27.678  28.988  1.00  0.00     0.023 A 
ATOM     51  C   UNL A   1      39.975  26.578  28.923  1.00  0.00     0.012 A 
ATOM     52  C   UNL A   1      41.773  27.887  27.944  1.00  0.00     0.148 A 
ATOM     53  C   UNL A   1      40.031  25.689  27.848  1.00  0.00     0.002 A 
ATOM     54  C   UNL A   1      41.783  27.032  26.849  1.00  0.00     0.091 A 
ATOM     55  F   UNL A   1      42.609  28.931  28.034  1.00  0.00    -0.205 F 
ATOM     56  C   UNL A   1      40.924  25.924  26.805  1.00  0.00     0.022 A 
BRANCH  54  57
ATOM     57  S   UNL A   1      42.797  27.349  25.400  1.00  0.00     0.127 S 
ATOM     58  O   UNL A   1      42.628  26.113  24.641  1.00  0.00    -0.237 OA
ATOM     59  O   UNL A   1      42.145  28.523  24.821  1.00  0.00    -0.237 OA
ATOM     60  O   UNL A   1      44.137  27.603  25.912  1.00  0.00    -0.744 OA
ENDBRANCH  54  57
ENDBRANCH  26  50
BRANCH  38  61
ATOM     61  C   UNL A   1      44.314  28.493  34.992  1.00  0.00     0.023 A 
ATOM     62  C   UNL A   1      45.621  28.969  34.767  1.00  0.00     0.012 A 
ATOM     63  C   UNL A   1      44.116  27.384  35.837  1.00  0.00     0.148 A 
ATOM     64  C   UNL A   1      46.716  28.332  35.349  1.00  0.00     0.002 A 
ATOM     65  C   UNL A   1      45.208  26.782  36.449  1.00  0.00     0.091 A 
ATOM     66  F   UNL A   1      42.865  26.935  36.021  1.00  0.00    -0.205 F 
ATOM     67  C   UNL A   1      46.510  27.247  36.198  1.00  0.00     0.022 A 
BRANCH  65  68
ATOM     68  S   UNL A   1      45.027  25.439  37.627  1.00  0.00     0.127 S 
ATOM     69  O   UNL A   1      46.388  24.907  37.686  1.00  0.00    -0.237 OA
ATOM     70  O   UNL A   1      44.594  26.140  38.836  1.00  0.00    -0.237 OA
ATOM     71  O   UNL A   1      44.028  24.542  37.060  1.00  0.00    -0.744 OA
ENDBRANCH  65  68
ENDBRANCH  38  61
ENDBRANCH  12  13
ENDBRANCH   5   7
ENDBRANCH   2   3
ENDBRANCH   1   2
BRANCH   1  72
ATOM     72  C   UNL A   1      31.455  30.719  26.709  1.00  0.00     0.118 C 
BRANCH  72  73
ATOM     73  N   UNL A   1      32.804  30.196  26.563  1.00  0.00    -0.349 N 
ATOM     74  C   UNL A   1      33.211  28.962  26.111  1.00  0.00     0.286 C 
ATOM     75  H   UNL A   1      33.528  30.810  26.824  1.00  0.00     0.163 HD
ATOM     76  O   UNL A   1      34.391  28.651  26.283  1.00  0.00    -0.266 OA
BRANCH  74  77
ATOM     77  C   UNL A   1      32.245  28.110  25.460  1.00  0.00     0.191 A 
ATOM     78  C   UNL A   1      31.906  26.779  25.631  1.00  0.00     0.056 A 
ATOM     79  O   UNL A   1      31.474  28.647  24.468  1.00  0.00    -0.454 OA
ATOM     80  C   UNL A   1      30.916  26.480  24.666  1.00  0.00     0.048 A 
ATOM     81  C   UNL A   1      30.692  27.647  23.971  1.00  0.00     0.124 A 
BRANCH  81  82
ATOM     82  C   UNL A   1      29.852  27.999  22.804  1.00  0.00     0.191 C 
BRANCH  82  83
ATOM     83  N   UNL A   1      28.453  27.835  23.143  1.00  0.00    -0.345 N 
ATOM     84  C   UNL A   1      27.455  28.773  23.119  1.00  0.00     0.253 C 
ATOM     85  H   UNL A   1      28.185  26.932  23.427  1.00  0.00     0.164 HD
ATOM     86  O   UNL A   1      26.338  28.503  23.551  1.00  0.00    -0.269 OA
BRANCH  84  87
ATOM     87  C   UNL A   1      27.717  30.122  22.589  1.00  0.00     0.058 A 
ATOM     88  C   UNL A   1      27.951  30.373  21.237  1.00  0.00     0.017 A 
ATOM     89  C   UNL A   1      27.709  31.195  23.468  1.00  0.00     0.124 A 
ATOM     90  C   UNL A   1      28.237  31.674  20.829  1.00  0.00     0.021 A 
ATOM     91  N   UNL A   1      27.971  32.472  23.094  1.00  0.00    -0.264 NA
ATOM     92  C   UNL A   1      28.243  32.678  21.787  1.00  0.00     0.111 A 
ENDBRANCH  84  87
ENDBRANCH  82  83
ENDBRANCH  81  82
ENDBRANCH  74  77
ENDBRANCH  72  73
ENDBRANCH   1  72
TORSDOF 16
ENDMDL
MODEL 3
REMARK VINA RESULT:     -11.7      3.246      8.847
REMARK SMILES O=C(NCCCNC(=O)c1ccc(CNC(=O)c2cccnc2)o1)c1ccc(-c2c3nc(c(-c4cccc(S(=O)(=O)[O-])c4F)c4ccc([nH]4)c(-c4cccc(S(=O)(=O)[O-])c4F)c4nc(c(-c5cccc(S(=O)(=O)[O-])c5F)c5ccc2[nH]5)C=C4)C=C3)cc1
REMARK SMILES IDX 5 1 4 2 3 3 1 4 2 5 25 7 26 8 87 9 27 10 86 11 28 12 29 13
REMARK SMILES IDX 30 14 80 15 31 16 85 17 79 18 81 19 32 20 84 21 78 22 77 23
REMARK SMILES IDX 33 25 65 26 45 27 64 28 46 29 49 30 63 31 82 32 47 33 48 34
REMARK SMILES IDX 62 36 83 37 50 38 34 39 35 40 43 41 36 42 38 43 44 44 37 45
REMARK SMILES IDX 39 46 40 47 41 48 42 49 66 50 67 51 75 52 68 53 70 54 76 55
REMARK SMILES IDX 69 56 71 57 72 58 73 59 74 60 51 61 52 62 60 63 53 64 55 65
REMARK SMILES IDX 61 66 54 67 56 68 57 69 58 70 59 71 6 72 7 73 8 74 9 76
REMARK SMILES IDX 10 77 11 78 24 79 12 80 13 81 14 82 15 83 16 84 17 86 18 87
REMARK SMILES IDX 19 88 23 89 20 90 22 91 21 92
REMARK H PARENT 3 6 81 24 49 35 7 75 15 85
REMARK Flexibility Score: inf
ROOT
ATOM      1  C   UNL A   1      33.666  29.235  24.109  1.00  0.00     0.042 C 
ENDROOT
BRANCH   1   2
ATOM      2  C   UNL A   1      32.853  29.174  25.395  1.00  0.00     0.118 C 
BRANCH   2   3
ATOM      3  N   UNL A   1      32.411  30.489  25.839  1.00  0.00    -0.352 N 
ATOM      4  O   UNL A   1      32.209  32.261  27.201  1.00  0.00    -0.269 OA
ATOM      5  C   UNL A   1      32.869  31.281  26.865  1.00  0.00     0.251 C 
ATOM      6  H   UNL A   1      31.667  30.871  25.322  1.00  0.00     0.163 HD
BRANCH   5   7
ATOM      7  C   UNL A   1      34.127  30.949  27.572  1.00  0.00     0.039 A 
ATOM      8  C   UNL A   1      34.484  29.623  27.820  1.00  0.00     0.014 A 
ATOM      9  C   UNL A   1      34.985  31.983  27.959  1.00  0.00     0.014 A 
ATOM     10  C   UNL A   1      35.607  29.337  28.588  1.00  0.00     0.010 A 
ATOM     11  C   UNL A   1      36.167  31.688  28.647  1.00  0.00     0.010 A 
ATOM     12  C   UNL A   1      36.473  30.364  28.995  1.00  0.00    -0.014 A 
BRANCH  12  13
ATOM     13  C   UNL A   1      37.727  30.016  29.711  1.00  0.00     0.031 A 
ATOM     14  C   UNL A   1      38.015  30.541  31.090  1.00  0.00     0.074 A 
ATOM     15  C   UNL A   1      38.612  29.204  29.099  1.00  0.00     0.049 A 
ATOM     16  N   UNL A   1      39.048  30.307  31.858  1.00  0.00    -0.248 NA
ATOM     17  C   UNL A   1      37.022  31.451  31.686  1.00  0.00     0.031 C 
ATOM     18  C   UNL A   1      38.462  28.667  27.743  1.00  0.00     0.029 A 
ATOM     19  N   UNL A   1      39.806  28.686  29.528  1.00  0.00    -0.354 N 
ATOM     20  C   UNL A   1      38.851  31.062  33.008  1.00  0.00     0.074 A 
ATOM     21  C   UNL A   1      37.603  31.773  32.835  1.00  0.00     0.031 C 
ATOM     22  C   UNL A   1      39.504  27.872  27.466  1.00  0.00     0.029 A 
ATOM     23  C   UNL A   1      40.424  27.883  28.598  1.00  0.00     0.049 A 
ATOM     24  H   UNL A   1      40.186  28.871  30.419  1.00  0.00     0.167 HD
ATOM     25  C   UNL A   1      39.631  31.140  34.113  1.00  0.00     0.034 A 
ATOM     26  C   UNL A   1      41.603  27.237  28.641  1.00  0.00     0.034 A 
ATOM     27  C   UNL A   1      40.855  30.404  34.294  1.00  0.00     0.049 A 
ATOM     28  C   UNL A   1      42.436  27.329  29.886  1.00  0.00     0.074 A 
ATOM     29  C   UNL A   1      41.686  30.374  35.401  1.00  0.00     0.029 A 
ATOM     30  N   UNL A   1      41.428  29.571  33.344  1.00  0.00    -0.354 N 
ATOM     31  N   UNL A   1      42.172  27.952  31.008  1.00  0.00    -0.248 NA
ATOM     32  C   UNL A   1      43.717  26.610  29.881  1.00  0.00     0.031 C 
ATOM     33  C   UNL A   1      42.769  29.536  35.114  1.00  0.00     0.029 A 
ATOM     34  C   UNL A   1      42.604  29.029  33.835  1.00  0.00     0.049 A 
ATOM     35  H   UNL A   1      41.053  29.391  32.452  1.00  0.00     0.167 HD
ATOM     36  C   UNL A   1      43.241  27.683  31.852  1.00  0.00     0.074 A 
ATOM     37  C   UNL A   1      44.143  26.816  31.120  1.00  0.00     0.031 C 
ATOM     38  C   UNL A   1      43.467  28.130  33.112  1.00  0.00     0.034 A 
BRANCH  25  39
ATOM     39  C   UNL A   1      39.164  32.021  35.244  1.00  0.00     0.023 A 
ATOM     40  C   UNL A   1      38.241  31.514  36.181  1.00  0.00     0.012 A 
ATOM     41  C   UNL A   1      39.689  33.316  35.424  1.00  0.00     0.148 A 
ATOM     42  C   UNL A   1      37.829  32.288  37.265  1.00  0.00     0.002 A 
ATOM     43  C   UNL A   1      39.301  34.069  36.528  1.00  0.00     0.091 A 
ATOM     44  F   UNL A   1      40.550  33.791  34.512  1.00  0.00    -0.205 F 
ATOM     45  C   UNL A   1      38.365  33.560  37.444  1.00  0.00     0.022 A 
BRANCH  43  46
ATOM     46  S   UNL A   1      39.990  35.690  36.885  1.00  0.00     0.127 S 
ATOM     47  O   UNL A   1      39.616  36.439  35.685  1.00  0.00    -0.237 OA
ATOM     48  O   UNL A   1      39.263  36.076  38.095  1.00  0.00    -0.237 OA
ATOM     49  O   UNL A   1      41.418  35.484  37.077  1.00  0.00    -0.744 OA
ENDBRANCH  43  46
ENDBRANCH  25  39
BRANCH  26  50
ATOM     50  C   UNL A   1      42.030  26.406  27.480  1.00  0.00     0.023 A 
ATOM     51  C   UNL A   1      42.814  26.986  26.465  1.00  0.00     0.012 A 
ATOM     52  C   UNL A   1      41.716  25.035  27.409  1.00  0.00     0.148 A 
ATOM     53  C   UNL A   1      43.260  26.219  25.388  1.00  0.00     0.002 A 
ATOM     54  C   UNL A   1      42.213  24.264  26.365  1.00  0.00     0.091 A 
ATOM     55  F   UNL A   1      40.954  24.505  28.377  1.00  0.00    -0.205 F 
ATOM     56  C   UNL A   1      42.973  24.857  25.345  1.00  0.00     0.022 A 
BRANCH  54  57
ATOM     57  S   UNL A   1      42.012  22.480  26.315  1.00  0.00     0.127 S 
ATOM     58  O   UNL A   1      42.656  22.072  27.561  1.00  0.00    -0.237 OA
ATOM     59  O   UNL A   1      40.556  22.337  26.297  1.00  0.00    -0.237 OA
ATOM     60  O   UNL A   1      42.669  22.049  25.088  1.00  0.00    -0.744 OA
ENDBRANCH  54  57
ENDBRANCH  26  50
BRANCH  38  61
ATOM     61  C   UNL A   1      44.731  27.675  33.790  1.00  0.00     0.023 A 
ATOM     62  C   UNL A   1      45.893  28.468  33.699  1.00  0.00     0.012 A 
ATOM     63  C   UNL A   1      44.753  26.502  34.568  1.00  0.00     0.148 A 
ATOM     64  C   UNL A   1      47.065  28.083  34.347  1.00  0.00     0.002 A 
ATOM     65  C   UNL A   1      45.912  26.148  35.248  1.00  0.00     0.091 A 
ATOM     66  F   UNL A   1      43.642  25.751  34.624  1.00  0.00    -0.205 F 
ATOM     67  C   UNL A   1      47.072  26.931  35.130  1.00  0.00     0.022 A 
BRANCH  65  68
ATOM     68  S   UNL A   1      45.983  24.731  36.349  1.00  0.00     0.127 S 
ATOM     69  O   UNL A   1      47.359  24.802  36.839  1.00  0.00    -0.237 OA
ATOM     70  O   UNL A   1      44.963  25.060  37.346  1.00  0.00    -0.237 OA
ATOM     71  O   UNL A   1      45.669  23.570  35.527  1.00  0.00    -0.744 OA
ENDBRANCH  65  68
ENDBRANCH  38  61
ENDBRANCH  12  13
ENDBRANCH   5   7
ENDBRANCH   2   3
ENDBRANCH   1   2
BRANCH   1  72
ATOM     72  C   UNL A   1      32.995  28.559  22.920  1.00  0.00     0.118 C 
BRANCH  72  73
ATOM     73  N   UNL A   1      31.871  29.332  22.414  1.00  0.00    -0.349 N 
ATOM     74  C   UNL A   1      30.548  28.971  22.311  1.00  0.00     0.286 C 
ATOM     75  H   UNL A   1      32.087  30.240  22.101  1.00  0.00     0.163 HD
ATOM     76  O   UNL A   1      29.808  29.697  21.646  1.00  0.00    -0.266 OA
BRANCH  74  77
ATOM     77  C   UNL A   1      30.101  27.777  22.987  1.00  0.00     0.191 A 
ATOM     78  C   UNL A   1      29.064  27.534  23.871  1.00  0.00     0.056 A 
ATOM     79  O   UNL A   1      30.783  26.615  22.764  1.00  0.00    -0.454 OA
ATOM     80  C   UNL A   1      29.148  26.171  24.239  1.00  0.00     0.048 A 
ATOM     81  C   UNL A   1      30.221  25.652  23.548  1.00  0.00     0.124 A 
BRANCH  81  82
ATOM     82  C   UNL A   1      30.889  24.332  23.536  1.00  0.00     0.191 C 
BRANCH  82  83
ATOM     83  N   UNL A   1      31.816  24.264  22.425  1.00  0.00    -0.345 N 
ATOM     84  C   UNL A   1      32.845  23.382  22.225  1.00  0.00     0.253 C 
ATOM     85  H   UNL A   1      31.691  24.942  21.722  1.00  0.00     0.164 HD
ATOM     86  O   UNL A   1      33.618  23.532  21.284  1.00  0.00    -0.269 OA
BRANCH  84  87
ATOM     87  C   UNL A   1      33.042  22.252  23.149  1.00  0.00     0.058 A 
ATOM     88  C   UNL A   1      32.314  21.065  23.062  1.00  0.00     0.017 A 
ATOM     89  C   UNL A   1      34.011  22.361  24.136  1.00  0.00     0.124 A 
ATOM     90  C   UNL A   1      32.533  20.065  24.006  1.00  0.00     0.021 A 
ATOM     91  N   UNL A   1      34.252  21.397  25.058  1.00  0.00    -0.264 NA
ATOM     92  C   UNL A   1      33.498  20.279  24.980  1.00  0.00     0.111 A 
ENDBRANCH  84  87
ENDBRANCH  82  83
ENDBRANCH  81  82
ENDBRANCH  74  77
ENDBRANCH  72  73
ENDBRANCH   1  72
TORSDOF 16
ENDMDL
