MODEL 1
REMARK VINA RESULT:     -12.1      0.000      0.000
REMARK SMILES C/C=C(\C)[C@@H]1C=C[C@@H]2C[C@H](C)C[C@H](C)[C@@H]2[C@@H]1C(=O)C1=C(NCCCNC(=O)c2ccc(-c3c4nc(c(-c5cccc(S(=O)(=O)[O-])c5F)c5ccc([nH]5)c(-c5cccc(S(=O)(=O)[O-])c5F)c5nc(c(-c6cccc(S(=O)(=O)[O-])c6F)c6ccc3[nH]6)C=C5)C=C4)cc2)[C@H](C[C@](C)(O)C(=O)[O-])NC1=O
REMARK SMILES IDX 23 1 22 2 21 3 20 5 19 6 100 7 91 8 99 9 101 10 17 12 18 13
REMARK SMILES IDX 16 14 5 15 6 16 7 17 15 18 8 19 13 20 9 21 12 22 14 23 10 24
REMARK SMILES IDX 11 25 3 26 1 27 2 28 4 29 92 30 93 31 94 32 95 33 96 35
REMARK SMILES IDX 97 36 98 37 24 38 25 39 26 40 27 42 28 43 29 44 90 45 30 46
REMARK SMILES IDX 89 47 31 48 32 49 33 50 83 51 34 52 88 53 82 54 84 55 35 56
REMARK SMILES IDX 87 57 81 58 80 59 36 61 68 62 48 63 67 64 49 65 52 66 66 67
REMARK SMILES IDX 85 68 50 69 51 70 65 72 86 73 53 74 37 75 38 76 46 77 39 78
REMARK SMILES IDX 41 79 47 80 40 81 42 82 43 83 44 84 45 85 69 86 70 87 78 88
REMARK SMILES IDX 71 89 73 90 79 91 72 92 74 93 75 94 76 95 77 96 54 97 55 98
REMARK SMILES IDX 63 99 56 100 58 101 64 102 57 103 59 104 60 105 61 106
REMARK SMILES IDX 62 107
REMARK H PARENT 21 4 99 11 95 34 25 41 84 60 52 71
REMARK Flexibility Score: inf
ROOT
ATOM      1  C   UNL A   1      34.129  28.581  26.221  1.00  0.00     0.042 C 
ENDROOT
BRANCH   1   2
ATOM      2  C   UNL A   1      33.864  27.114  25.902  1.00  0.00     0.114 C 
BRANCH   2   3
ATOM      3  N   UNL A   1      32.844  26.973  24.879  1.00  0.00    -0.386 N 
ATOM      4  H   UNL A   1      31.957  27.325  25.123  1.00  0.00     0.160 HD
BRANCH   3   5
ATOM      5  C   UNL A   1      32.928  26.418  23.610  1.00  0.00     0.050 C 
ATOM      6  C   UNL A   1      33.383  25.224  23.143  1.00  0.00     0.104 C 
ATOM      7  C   UNL A   1      33.116  25.278  21.684  1.00  0.00     0.257 C 
ATOM      8  C   UNL A   1      32.442  27.317  22.468  1.00  0.00     0.133 C 
ATOM      9  N   UNL A   1      32.823  26.565  21.337  1.00  0.00    -0.343 N 
ATOM     10  O   UNL A   1      32.980  24.369  20.886  1.00  0.00    -0.269 OA
ATOM     11  H   UNL A   1      32.871  26.920  20.420  1.00  0.00     0.164 HD
BRANCH   6  12
ATOM     12  C   UNL A   1      33.738  24.017  23.952  1.00  0.00     0.174 C 
ATOM     13  O   UNL A   1      34.949  23.774  24.071  1.00  0.00    -0.294 OA
BRANCH  12  14
ATOM     14  C   UNL A   1      32.724  23.015  24.596  1.00  0.00     0.076 C 
ATOM     15  C   UNL A   1      31.509  23.603  25.362  1.00  0.00     0.048 C 
ATOM     16  C   UNL A   1      31.937  24.107  26.723  1.00  0.00    -0.022 C 
ATOM     17  C   UNL A   1      33.028  23.624  27.356  1.00  0.00    -0.027 C 
ATOM     18  C   UNL A   1      33.312  21.910  25.553  1.00  0.00     0.010 C 
ATOM     19  C   UNL A   1      33.938  22.537  26.808  1.00  0.00     0.016 C 
ATOM     20  C   UNL A   1      34.184  20.759  25.020  1.00  0.00    -0.010 C 
ATOM     21  C   UNL A   1      35.389  22.979  26.545  1.00  0.00     0.011 C 
ATOM     22  C   UNL A   1      35.635  21.139  24.757  1.00  0.00     0.007 C 
ATOM     23  C   UNL A   1      33.551  20.036  23.832  1.00  0.00     0.008 C 
ATOM     24  C   UNL A   1      36.281  21.883  25.935  1.00  0.00    -0.013 C 
ATOM     25  C   UNL A   1      37.611  22.488  25.471  1.00  0.00     0.007 C 
BRANCH  15  26
ATOM     26  C   UNL A   1      30.550  24.443  24.518  1.00  0.00    -0.070 C 
ATOM     27  C   UNL A   1      28.838  26.316  24.208  1.00  0.00     0.035 C 
ATOM     28  C   UNL A   1      29.855  25.510  24.963  1.00  0.00    -0.031 C 
ATOM     29  C   UNL A   1      30.352  23.862  23.124  1.00  0.00     0.040 C 
ENDBRANCH  15  26
ENDBRANCH  12  14
ENDBRANCH   6  12
BRANCH   8  30
ATOM     30  C   UNL A   1      30.938  27.695  22.462  1.00  0.00     0.072 C 
BRANCH  30  31
ATOM     31  C   UNL A   1      30.518  29.189  22.470  1.00  0.00     0.103 C 
ATOM     32  C   UNL A   1      29.135  29.433  21.857  1.00  0.00     0.049 C 
BRANCH  31  33
ATOM     33  O   UNL A   1      31.498  29.981  21.782  1.00  0.00    -0.384 OA
ATOM     34  H   UNL A   1      31.051  30.635  21.222  1.00  0.00     0.211 HD
ENDBRANCH  31  33
BRANCH  31  35
ATOM     35  C   UNL A   1      30.487  29.673  23.939  1.00  0.00     0.073 C 
ATOM     36  O   UNL A   1      31.002  29.131  24.905  1.00  0.00    -0.547 OA
ATOM     37  O   UNL A   1      29.805  30.830  24.108  1.00  0.00    -0.547 OA
ENDBRANCH  31  35
ENDBRANCH  30  31
ENDBRANCH   8  30
ENDBRANCH   3   5
ENDBRANCH   2   3
ENDBRANCH   1   2
BRANCH   1  38
ATOM     38  C   UNL A   1      33.413  29.130  27.452  1.00  0.00     0.118 C 
BRANCH  38  39
ATOM     39  N   UNL A   1      33.512  30.577  27.570  1.00  0.00    -0.352 N 
ATOM     40  C   UNL A   1      34.490  31.349  28.152  1.00  0.00     0.251 C 
ATOM     41  H   UNL A   1      32.765  31.080  27.173  1.00  0.00     0.163 HD
ATOM     42  O   UNL A   1      34.298  32.556  28.284  1.00  0.00    -0.269 OA
BRANCH  40  43
ATOM     43  C   UNL A   1      35.760  30.752  28.632  1.00  0.00     0.039 A 
ATOM     44  C   UNL A   1      36.925  30.957  27.883  1.00  0.00     0.014 A 
ATOM     45  C   UNL A   1      35.805  29.942  29.771  1.00  0.00     0.014 A 
ATOM     46  C   UNL A   1      38.138  30.398  28.299  1.00  0.00     0.010 A 
ATOM     47  C   UNL A   1      37.026  29.429  30.215  1.00  0.00     0.010 A 
ATOM     48  C   UNL A   1      38.203  29.642  29.479  1.00  0.00    -0.014 A 
BRANCH  48  49
ATOM     49  C   UNL A   1      39.478  29.044  29.956  1.00  0.00     0.031 A 
ATOM     50  C   UNL A   1      40.238  29.692  31.082  1.00  0.00     0.074 A 
ATOM     51  C   UNL A   1      40.009  27.985  29.314  1.00  0.00     0.049 A 
ATOM     52  N   UNL A   1      41.423  29.401  31.552  1.00  0.00    -0.248 NA
ATOM     53  C   UNL A   1      39.591  30.834  31.749  1.00  0.00     0.031 C 
ATOM     54  C   UNL A   1      39.406  27.302  28.170  1.00  0.00     0.029 A 
ATOM     55  N   UNL A   1      41.197  27.323  29.510  1.00  0.00    -0.354 N 
ATOM     56  C   UNL A   1      41.689  30.355  32.526  1.00  0.00     0.074 A 
ATOM     57  C   UNL A   1      40.544  31.237  32.578  1.00  0.00     0.031 C 
ATOM     58  C   UNL A   1      40.236  26.331  27.753  1.00  0.00     0.029 A 
ATOM     59  C   UNL A   1      41.437  26.336  28.583  1.00  0.00     0.049 A 
ATOM     60  H   UNL A   1      41.818  27.536  30.245  1.00  0.00     0.167 HD
ATOM     61  C   UNL A   1      42.776  30.473  33.324  1.00  0.00     0.034 A 
ATOM     62  C   UNL A   1      42.507  25.534  28.411  1.00  0.00     0.034 A 
ATOM     63  C   UNL A   1      43.877  29.550  33.336  1.00  0.00     0.049 A 
ATOM     64  C   UNL A   1      43.669  25.634  29.362  1.00  0.00     0.074 A 
ATOM     65  C   UNL A   1      44.969  29.526  34.187  1.00  0.00     0.029 A 
ATOM     66  N   UNL A   1      44.026  28.486  32.462  1.00  0.00    -0.354 N 
ATOM     67  N   UNL A   1      43.830  26.444  30.381  1.00  0.00    -0.248 NA
ATOM     68  C   UNL A   1      44.782  24.691  29.165  1.00  0.00     0.031 C 
ATOM     69  C   UNL A   1      45.776  28.440  33.829  1.00  0.00     0.029 A 
ATOM     70  C   UNL A   1      45.189  27.794  32.753  1.00  0.00     0.049 A 
ATOM     71  H   UNL A   1      43.396  28.255  31.742  1.00  0.00     0.167 HD
ATOM     72  C   UNL A   1      45.043  26.090  30.963  1.00  0.00     0.074 A 
ATOM     73  C   UNL A   1      45.570  24.984  30.193  1.00  0.00     0.031 C 
ATOM     74  C   UNL A   1      45.669  26.649  32.026  1.00  0.00     0.034 A 
BRANCH  61  75
ATOM     75  C   UNL A   1      42.797  31.610  34.308  1.00  0.00     0.023 A 
ATOM     76  C   UNL A   1      43.453  32.807  33.961  1.00  0.00     0.012 A 
ATOM     77  C   UNL A   1      42.130  31.518  35.544  1.00  0.00     0.148 A 
ATOM     78  C   UNL A   1      43.466  33.889  34.842  1.00  0.00     0.002 A 
ATOM     79  C   UNL A   1      42.120  32.612  36.403  1.00  0.00     0.091 A 
ATOM     80  F   UNL A   1      41.537  30.361  35.871  1.00  0.00    -0.205 F 
ATOM     81  C   UNL A   1      42.792  33.795  36.056  1.00  0.00     0.022 A 
BRANCH  79  82
ATOM     82  S   UNL A   1      41.219  32.579  37.957  1.00  0.00     0.127 S 
ATOM     83  O   UNL A   1      42.078  31.733  38.782  1.00  0.00    -0.237 OA
ATOM     84  O   UNL A   1      41.198  33.989  38.347  1.00  0.00    -0.237 OA
ATOM     85  O   UNL A   1      39.909  32.032  37.627  1.00  0.00    -0.744 OA
ENDBRANCH  79  82
ENDBRANCH  61  75
BRANCH  62  86
ATOM     86  C   UNL A   1      42.487  24.510  27.330  1.00  0.00     0.023 A 
ATOM     87  C   UNL A   1      43.080  24.812  26.089  1.00  0.00     0.012 A 
ATOM     88  C   UNL A   1      41.950  23.226  27.541  1.00  0.00     0.148 A 
ATOM     89  C   UNL A   1      43.126  23.858  25.072  1.00  0.00     0.002 A 
ATOM     90  C   UNL A   1      42.043  22.264  26.540  1.00  0.00     0.091 A 
ATOM     91  F   UNL A   1      41.371  22.964  28.721  1.00  0.00    -0.205 F 
ATOM     92  C   UNL A   1      42.621  22.581  25.302  1.00  0.00     0.022 A 
BRANCH  90  93
ATOM     93  S   UNL A   1      41.543  20.559  26.810  1.00  0.00     0.127 S 
ATOM     94  O   UNL A   1      40.113  20.704  27.068  1.00  0.00    -0.237 OA
ATOM     95  O   UNL A   1      41.878  19.933  25.530  1.00  0.00    -0.237 OA
ATOM     96  O   UNL A   1      42.352  20.093  27.928  1.00  0.00    -0.744 OA
ENDBRANCH  90  93
ENDBRANCH  62  86
BRANCH  74  97
ATOM     97  C   UNL A   1      46.990  26.068  32.454  1.00  0.00     0.023 A 
ATOM     98  C   UNL A   1      47.023  25.135  33.507  1.00  0.00     0.012 A 
ATOM     99  C   UNL A   1      48.171  26.355  31.741  1.00  0.00     0.148 A 
ATOM    100  C   UNL A   1      48.215  24.499  33.852  1.00  0.00     0.002 A 
ATOM    101  C   UNL A   1      49.349  25.692  32.069  1.00  0.00     0.091 A 
ATOM    102  F   UNL A   1      48.120  27.262  30.757  1.00  0.00    -0.205 F 
ATOM    103  C   UNL A   1      49.374  24.767  33.126  1.00  0.00     0.022 A 
BRANCH 101 104
ATOM    104  S   UNL A   1      50.867  25.915  31.133  1.00  0.00     0.127 S 
ATOM    105  O   UNL A   1      50.520  25.302  29.851  1.00  0.00    -0.237 OA
ATOM    106  O   UNL A   1      51.003  27.371  31.095  1.00  0.00    -0.237 OA
ATOM    107  O   UNL A   1      51.906  25.234  31.894  1.00  0.00    -0.744 OA
ENDBRANCH 101 104
ENDBRANCH  74  97
ENDBRANCH  48  49
ENDBRANCH  40  43
ENDBRANCH  38  39
ENDBRANCH   1  38
TORSDOF 20
ENDMDL
MODEL 2
REMARK VINA RESULT:     -12.0      1.704      2.083
REMARK SMILES C/C=C(\C)[C@@H]1C=C[C@@H]2C[C@H](C)C[C@H](C)[C@@H]2[C@@H]1C(=O)C1=C(NCCCNC(=O)c2ccc(-c3c4nc(c(-c5cccc(S(=O)(=O)[O-])c5F)c5ccc([nH]5)c(-c5cccc(S(=O)(=O)[O-])c5F)c5nc(c(-c6cccc(S(=O)(=O)[O-])c6F)c6ccc3[nH]6)C=C5)C=C4)cc2)[C@H](C[C@](C)(O)C(=O)[O-])NC1=O
REMARK SMILES IDX 23 1 22 2 21 3 20 5 19 6 100 7 91 8 99 9 101 10 17 12 18 13
REMARK SMILES IDX 16 14 5 15 6 16 7 17 15 18 8 19 13 20 9 21 12 22 14 23 10 24
REMARK SMILES IDX 11 25 3 26 1 27 2 28 4 29 92 30 93 31 94 32 95 33 96 35
REMARK SMILES IDX 97 36 98 37 24 38 25 39 26 40 27 42 28 43 29 44 90 45 30 46
REMARK SMILES IDX 89 47 31 48 32 49 33 50 83 51 34 52 88 53 82 54 84 55 35 56
REMARK SMILES IDX 87 57 81 58 80 59 36 61 68 62 48 63 67 64 49 65 52 66 66 67
REMARK SMILES IDX 85 68 50 69 51 70 65 72 86 73 53 74 37 75 38 76 46 77 39 78
REMARK SMILES IDX 41 79 47 80 40 81 42 82 43 83 44 84 45 85 69 86 70 87 78 88
REMARK SMILES IDX 71 89 73 90 79 91 72 92 74 93 75 94 76 95 77 96 54 97 55 98
REMARK SMILES IDX 63 99 56 100 58 101 64 102 57 103 59 104 60 105 61 106
REMARK SMILES IDX 62 107
REMARK H PARENT 21 4 99 11 95 34 25 41 84 60 52 71
REMARK Flexibility Score: inf
ROOT
ATOM      1  C   UNL A   1      33.497  28.233  26.989  1.00  0.00     0.042 C 
ENDROOT
BRANCH   1   2
ATOM      2  C   UNL A   1      33.301  26.940  26.207  1.00  0.00     0.114 C 
BRANCH   2   3
ATOM      3  N   UNL A   1      32.610  27.178  24.955  1.00  0.00    -0.386 N 
ATOM      4  H   UNL A   1      31.894  27.854  24.995  1.00  0.00     0.160 HD
BRANCH   3   5
ATOM      5  C   UNL A   1      32.804  26.601  23.707  1.00  0.00     0.050 C 
ATOM      6  C   UNL A   1      33.320  25.410  23.302  1.00  0.00     0.104 C 
ATOM      7  C   UNL A   1      33.166  25.429  21.825  1.00  0.00     0.257 C 
ATOM      8  C   UNL A   1      32.389  27.467  22.513  1.00  0.00     0.133 C 
ATOM      9  N   UNL A   1      32.872  26.702  21.431  1.00  0.00    -0.343 N 
ATOM     10  O   UNL A   1      33.111  24.502  21.039  1.00  0.00    -0.269 OA
ATOM     11  H   UNL A   1      32.984  27.040  20.513  1.00  0.00     0.164 HD
BRANCH   6  12
ATOM     12  C   UNL A   1      33.636  24.227  24.161  1.00  0.00     0.174 C 
ATOM     13  O   UNL A   1      34.825  24.092  24.491  1.00  0.00    -0.294 OA
BRANCH  12  14
ATOM     14  C   UNL A   1      32.621  23.128  24.618  1.00  0.00     0.076 C 
ATOM     15  C   UNL A   1      31.343  23.587  25.369  1.00  0.00     0.048 C 
ATOM     16  C   UNL A   1      31.671  23.938  26.803  1.00  0.00    -0.022 C 
ATOM     17  C   UNL A   1      32.738  23.415  27.444  1.00  0.00    -0.027 C 
ATOM     18  C   UNL A   1      33.189  21.935  25.476  1.00  0.00     0.010 C 
ATOM     19  C   UNL A   1      33.716  22.426  26.833  1.00  0.00     0.016 C 
ATOM     20  C   UNL A   1      34.132  20.879  24.870  1.00  0.00    -0.010 C 
ATOM     21  C   UNL A   1      35.165  22.937  26.715  1.00  0.00     0.011 C 
ATOM     22  C   UNL A   1      35.582  21.328  24.746  1.00  0.00     0.007 C 
ATOM     23  C   UNL A   1      33.598  20.284  23.568  1.00  0.00     0.008 C 
ATOM     24  C   UNL A   1      36.129  21.945  26.041  1.00  0.00    -0.013 C 
ATOM     25  C   UNL A   1      37.463  22.637  25.735  1.00  0.00     0.007 C 
BRANCH  15  26
ATOM     26  C   UNL A   1      30.408  24.494  24.568  1.00  0.00    -0.070 C 
ATOM     27  C   UNL A   1      28.696  26.382  24.364  1.00  0.00     0.035 C 
ATOM     28  C   UNL A   1      29.692  25.517  25.080  1.00  0.00    -0.031 C 
ATOM     29  C   UNL A   1      30.259  24.034  23.124  1.00  0.00     0.040 C 
ENDBRANCH  15  26
ENDBRANCH  12  14
ENDBRANCH   6  12
BRANCH   8  30
ATOM     30  C   UNL A   1      30.881  27.810  22.383  1.00  0.00     0.072 C 
BRANCH  30  31
ATOM     31  C   UNL A   1      30.431  29.294  22.320  1.00  0.00     0.103 C 
ATOM     32  C   UNL A   1      29.059  29.483  21.665  1.00  0.00     0.049 C 
BRANCH  31  33
ATOM     33  O   UNL A   1      31.411  30.078  21.625  1.00  0.00    -0.384 OA
ATOM     34  H   UNL A   1      31.021  30.927  21.364  1.00  0.00     0.211 HD
ENDBRANCH  31  33
BRANCH  31  35
ATOM     35  C   UNL A   1      30.352  29.834  23.767  1.00  0.00     0.073 C 
ATOM     36  O   UNL A   1      31.018  29.474  24.726  1.00  0.00    -0.547 OA
ATOM     37  O   UNL A   1      29.433  30.815  23.925  1.00  0.00    -0.547 OA
ENDBRANCH  31  35
ENDBRANCH  30  31
ENDBRANCH   8  30
ENDBRANCH   3   5
ENDBRANCH   2   3
ENDBRANCH   1   2
BRANCH   1  38
ATOM     38  C   UNL A   1      34.181  29.368  26.232  1.00  0.00     0.118 C 
BRANCH  38  39
ATOM     39  N   UNL A   1      34.022  30.662  26.878  1.00  0.00    -0.352 N 
ATOM     40  C   UNL A   1      34.738  31.227  27.907  1.00  0.00     0.251 C 
ATOM     41  H   UNL A   1      33.289  31.217  26.525  1.00  0.00     0.163 HD
ATOM     42  O   UNL A   1      34.333  32.271  28.413  1.00  0.00    -0.269 OA
BRANCH  40  43
ATOM     43  C   UNL A   1      35.977  30.595  28.422  1.00  0.00     0.039 A 
ATOM     44  C   UNL A   1      35.880  29.708  29.500  1.00  0.00     0.014 A 
ATOM     45  C   UNL A   1      37.235  30.913  27.901  1.00  0.00     0.014 A 
ATOM     46  C   UNL A   1      37.030  29.103  30.022  1.00  0.00     0.010 A 
ATOM     47  C   UNL A   1      38.375  30.270  28.385  1.00  0.00     0.010 A 
ATOM     48  C   UNL A   1      38.287  29.366  29.457  1.00  0.00    -0.014 A 
BRANCH  48  49
ATOM     49  C   UNL A   1      39.527  28.732  29.977  1.00  0.00     0.031 A 
ATOM     50  C   UNL A   1      40.202  29.289  31.202  1.00  0.00     0.074 A 
ATOM     51  C   UNL A   1      40.108  27.725  29.295  1.00  0.00     0.049 A 
ATOM     52  N   UNL A   1      41.351  28.961  31.732  1.00  0.00    -0.248 NA
ATOM     53  C   UNL A   1      39.503  30.377  31.907  1.00  0.00     0.031 C 
ATOM     54  C   UNL A   1      39.592  27.134  28.060  1.00  0.00     0.029 A 
ATOM     55  N   UNL A   1      41.281  27.049  29.524  1.00  0.00    -0.354 N 
ATOM     56  C   UNL A   1      41.542  29.836  32.794  1.00  0.00     0.074 A 
ATOM     57  C   UNL A   1      40.392  30.713  32.831  1.00  0.00     0.031 C 
ATOM     58  C   UNL A   1      40.454  26.198  27.630  1.00  0.00     0.029 A 
ATOM     59  C   UNL A   1      41.592  26.137  28.543  1.00  0.00     0.049 A 
ATOM     60  H   UNL A   1      41.847  27.203  30.316  1.00  0.00     0.167 HD
ATOM     61  C   UNL A   1      42.568  29.890  33.675  1.00  0.00     0.034 A 
ATOM     62  C   UNL A   1      42.675  25.349  28.387  1.00  0.00     0.034 A 
ATOM     63  C   UNL A   1      43.670  28.968  33.695  1.00  0.00     0.049 A 
ATOM     64  C   UNL A   1      43.765  25.373  29.424  1.00  0.00     0.074 A 
ATOM     65  C   UNL A   1      44.697  28.876  34.617  1.00  0.00     0.029 A 
ATOM     66  N   UNL A   1      43.885  27.975  32.754  1.00  0.00    -0.354 N 
ATOM     67  N   UNL A   1      43.849  26.102  30.512  1.00  0.00    -0.248 NA
ATOM     68  C   UNL A   1      44.894  24.448  29.234  1.00  0.00     0.031 C 
ATOM     69  C   UNL A   1      45.533  27.821  34.236  1.00  0.00     0.029 A 
ATOM     70  C   UNL A   1      45.028  27.261  33.073  1.00  0.00     0.049 A 
ATOM     71  H   UNL A   1      43.311  27.801  31.974  1.00  0.00     0.167 HD
ATOM     72  C   UNL A   1      45.018  25.702  31.150  1.00  0.00     0.074 A 
ATOM     73  C   UNL A   1      45.605  24.658  30.336  1.00  0.00     0.031 C 
ATOM     74  C   UNL A   1      45.564  26.175  32.296  1.00  0.00     0.034 A 
BRANCH  61  75
ATOM     75  C   UNL A   1      42.513  30.947  34.743  1.00  0.00     0.023 A 
ATOM     76  C   UNL A   1      41.947  30.631  35.994  1.00  0.00     0.012 A 
ATOM     77  C   UNL A   1      43.063  32.226  34.535  1.00  0.00     0.148 A 
ATOM     78  C   UNL A   1      41.906  31.582  37.014  1.00  0.00     0.002 A 
ATOM     79  C   UNL A   1      43.048  33.158  35.567  1.00  0.00     0.091 A 
ATOM     80  F   UNL A   1      43.571  32.519  33.329  1.00  0.00    -0.205 F 
ATOM     81  C   UNL A   1      42.465  32.840  36.805  1.00  0.00     0.022 A 
BRANCH  79  82
ATOM     82  S   UNL A   1      43.806  34.776  35.384  1.00  0.00     0.127 S 
ATOM     83  O   UNL A   1      42.981  35.375  34.337  1.00  0.00    -0.237 OA
ATOM     84  O   UNL A   1      43.629  35.366  36.711  1.00  0.00    -0.237 OA
ATOM     85  O   UNL A   1      45.194  34.510  35.030  1.00  0.00    -0.744 OA
ENDBRANCH  79  82
ENDBRANCH  61  75
BRANCH  62  86
ATOM     86  C   UNL A   1      42.738  24.413  27.230  1.00  0.00     0.023 A 
ATOM     87  C   UNL A   1      43.421  24.808  26.064  1.00  0.00     0.012 A 
ATOM     88  C   UNL A   1      42.188  23.118  27.300  1.00  0.00     0.148 A 
ATOM     89  C   UNL A   1      43.545  23.935  24.982  1.00  0.00     0.002 A 
ATOM     90  C   UNL A   1      42.358  22.236  26.237  1.00  0.00     0.091 A 
ATOM     91  F   UNL A   1      41.524  22.767  28.409  1.00  0.00    -0.205 F 
ATOM     92  C   UNL A   1      43.025  22.646  25.073  1.00  0.00     0.022 A 
BRANCH  90  93
ATOM     93  S   UNL A   1      41.842  20.518  26.335  1.00  0.00     0.127 S 
ATOM     94  O   UNL A   1      42.623  19.909  25.262  1.00  0.00    -0.237 OA
ATOM     95  O   UNL A   1      42.259  20.147  27.688  1.00  0.00    -0.237 OA
ATOM     96  O   UNL A   1      40.398  20.539  26.144  1.00  0.00    -0.744 OA
ENDBRANCH  90  93
ENDBRANCH  62  86
BRANCH  74  97
ATOM     97  C   UNL A   1      46.853  25.562  32.772  1.00  0.00     0.023 A 
ATOM     98  C   UNL A   1      48.075  26.148  32.394  1.00  0.00     0.012 A 
ATOM     99  C   UNL A   1      46.849  24.487  33.682  1.00  0.00     0.148 A 
ATOM    100  C   UNL A   1      49.279  25.667  32.907  1.00  0.00     0.002 A 
ATOM    101  C   UNL A   1      48.051  24.035  34.217  1.00  0.00     0.091 A 
ATOM    102  F   UNL A   1      45.675  23.931  34.012  1.00  0.00    -0.205 F 
ATOM    103  C   UNL A   1      49.267  24.621  33.828  1.00  0.00     0.022 A 
BRANCH 101 104
ATOM    104  S   UNL A   1      48.120  22.749  35.470  1.00  0.00     0.127 S 
ATOM    105  O   UNL A   1      47.582  21.597  34.747  1.00  0.00    -0.237 OA
ATOM    106  O   UNL A   1      49.551  22.671  35.764  1.00  0.00    -0.237 OA
ATOM    107  O   UNL A   1      47.305  23.231  36.578  1.00  0.00    -0.744 OA
ENDBRANCH 101 104
ENDBRANCH  74  97
ENDBRANCH  48  49
ENDBRANCH  40  43
ENDBRANCH  38  39
ENDBRANCH   1  38
TORSDOF 20
ENDMDL
MODEL 3
REMARK VINA RESULT:     -11.9      4.049      9.158
REMARK SMILES C/C=C(\C)[C@@H]1C=C[C@@H]2C[C@H](C)C[C@H](C)[C@@H]2[C@@H]1C(=O)C1=C(NCCCNC(=O)c2ccc(-c3c4nc(c(-c5cccc(S(=O)(=O)[O-])c5F)c5ccc([nH]5)c(-c5cccc(S(=O)(=O)[O-])c5F)c5nc(c(-c6cccc(S(=O)(=O)[O-])c6F)c6ccc3[nH]6)C=C5)C=C4)cc2)[C@H](C[C@](C)(O)C(=O)[O-])NC1=O
REMARK SMILES IDX 23 1 22 2 21 3 20 5 19 6 100 7 91 8 99 9 101 10 17 12 18 13
REMARK SMILES IDX 16 14 5 15 6 16 7 17 15 18 8 19 13 20 9 21 12 22 14 23 10 24
REMARK SMILES IDX 11 25 3 26 1 27 2 28 4 29 92 30 93 31 94 32 95 33 96 35
REMARK SMILES IDX 97 36 98 37 24 38 25 39 26 40 27 42 28 43 29 44 90 45 30 46
REMARK SMILES IDX 89 47 31 48 32 49 33 50 83 51 34 52 88 53 82 54 84 55 35 56
REMARK SMILES IDX 87 57 81 58 80 59 36 61 68 62 48 63 67 64 49 65 52 66 66 67
REMARK SMILES IDX 85 68 50 69 51 70 65 72 86 73 53 74 37 75 38 76 46 77 39 78
REMARK SMILES IDX 41 79 47 80 40 81 42 82 43 83 44 84 45 85 69 86 70 87 78 88
REMARK SMILES IDX 71 89 73 90 79 91 72 92 74 93 75 94 76 95 77 96 54 97 55 98
REMARK SMILES IDX 63 99 56 100 58 101 64 102 57 103 59 104 60 105 61 106
REMARK SMILES IDX 62 107
REMARK H PARENT 21 4 99 11 95 34 25 41 84 60 52 71
REMARK Flexibility Score: inf
ROOT
ATOM      1  C   UNL A   1      36.270  23.857  25.784  1.00  0.00     0.042 C 
ENDROOT
BRANCH   1   2
ATOM      2  C   UNL A   1      35.159  24.589  25.041  1.00  0.00     0.114 C 
BRANCH   2   3
ATOM      3  N   UNL A   1      34.257  25.256  25.961  1.00  0.00    -0.386 N 
ATOM      4  H   UNL A   1      34.650  26.011  26.457  1.00  0.00     0.160 HD
BRANCH   3   5
ATOM      5  C   UNL A   1      32.924  24.995  26.247  1.00  0.00     0.050 C 
ATOM      6  C   UNL A   1      31.867  25.788  26.568  1.00  0.00     0.104 C 
ATOM      7  C   UNL A   1      30.726  24.845  26.681  1.00  0.00     0.257 C 
ATOM      8  C   UNL A   1      32.530  23.514  26.234  1.00  0.00     0.133 C 
ATOM      9  N   UNL A   1      31.211  23.571  26.731  1.00  0.00    -0.343 N 
ATOM     10  O   UNL A   1      29.531  25.057  26.575  1.00  0.00    -0.269 OA
ATOM     11  H   UNL A   1      30.706  22.796  27.068  1.00  0.00     0.164 HD
BRANCH   6  12
ATOM     12  C   UNL A   1      31.801  27.280  26.478  1.00  0.00     0.174 C 
ATOM     13  O   UNL A   1      31.878  27.897  27.552  1.00  0.00    -0.294 OA
BRANCH  12  14
ATOM     14  C   UNL A   1      31.582  28.111  25.171  1.00  0.00     0.076 C 
ATOM     15  C   UNL A   1      31.679  27.366  23.813  1.00  0.00     0.048 C 
ATOM     16  C   UNL A   1      33.125  27.108  23.454  1.00  0.00    -0.022 C 
ATOM     17  C   UNL A   1      34.131  27.871  23.935  1.00  0.00    -0.027 C 
ATOM     18  C   UNL A   1      32.457  29.407  24.987  1.00  0.00     0.010 C 
ATOM     19  C   UNL A   1      33.949  29.059  24.863  1.00  0.00     0.016 C 
ATOM     20  C   UNL A   1      32.255  30.653  25.869  1.00  0.00    -0.010 C 
ATOM     21  C   UNL A   1      34.600  28.904  26.250  1.00  0.00     0.011 C 
ATOM     22  C   UNL A   1      32.894  30.558  27.247  1.00  0.00     0.007 C 
ATOM     23  C   UNL A   1      30.796  31.100  25.937  1.00  0.00     0.008 C 
ATOM     24  C   UNL A   1      34.356  30.092  27.198  1.00  0.00    -0.013 C 
ATOM     25  C   UNL A   1      34.811  29.732  28.617  1.00  0.00     0.007 C 
BRANCH  15  26
ATOM     26  C   UNL A   1      30.643  26.261  23.600  1.00  0.00    -0.070 C 
ATOM     27  C   UNL A   1      29.944  23.904  22.900  1.00  0.00     0.035 C 
ATOM     28  C   UNL A   1      30.922  25.001  23.208  1.00  0.00    -0.031 C 
ATOM     29  C   UNL A   1      29.217  26.774  23.752  1.00  0.00     0.040 C 
ENDBRANCH  15  26
ENDBRANCH  12  14
ENDBRANCH   6  12
BRANCH   8  30
ATOM     30  C   UNL A   1      32.631  22.770  24.877  1.00  0.00     0.072 C 
BRANCH  30  31
ATOM     31  C   UNL A   1      32.574  21.220  24.841  1.00  0.00     0.103 C 
ATOM     32  C   UNL A   1      32.392  20.653  23.429  1.00  0.00     0.049 C 
BRANCH  31  33
ATOM     33  O   UNL A   1      31.520  20.745  25.692  1.00  0.00    -0.384 OA
ATOM     34  H   UNL A   1      31.056  20.014  25.256  1.00  0.00     0.211 HD
ENDBRANCH  31  33
BRANCH  31  35
ATOM     35  C   UNL A   1      33.905  20.676  25.411  1.00  0.00     0.073 C 
ATOM     36  O   UNL A   1      34.451  21.007  26.452  1.00  0.00    -0.547 OA
ATOM     37  O   UNL A   1      34.476  19.729  24.631  1.00  0.00    -0.547 OA
ENDBRANCH  31  35
ENDBRANCH  30  31
ENDBRANCH   8  30
ENDBRANCH   3   5
ENDBRANCH   2   3
ENDBRANCH   1   2
BRANCH   1  38
ATOM     38  C   UNL A   1      37.406  23.322  24.917  1.00  0.00     0.118 C 
BRANCH  38  39
ATOM     39  N   UNL A   1      38.250  22.362  25.612  1.00  0.00    -0.352 N 
ATOM     40  C   UNL A   1      39.343  22.573  26.420  1.00  0.00     0.251 C 
ATOM     41  H   UNL A   1      38.000  21.418  25.485  1.00  0.00     0.163 HD
ATOM     42  O   UNL A   1      40.013  21.607  26.780  1.00  0.00    -0.269 OA
BRANCH  40  43
ATOM     43  C   UNL A   1      39.733  23.937  26.851  1.00  0.00     0.039 A 
ATOM     44  C   UNL A   1      40.298  24.803  25.907  1.00  0.00     0.014 A 
ATOM     45  C   UNL A   1      39.608  24.351  28.180  1.00  0.00     0.014 A 
ATOM     46  C   UNL A   1      40.691  26.094  26.281  1.00  0.00     0.010 A 
ATOM     47  C   UNL A   1      39.950  25.656  28.541  1.00  0.00     0.010 A 
ATOM     48  C   UNL A   1      40.504  26.537  27.599  1.00  0.00    -0.014 A 
BRANCH  48  49
ATOM     49  C   UNL A   1      40.897  27.906  28.027  1.00  0.00     0.031 A 
ATOM     50  C   UNL A   1      42.351  28.291  28.076  1.00  0.00     0.074 A 
ATOM     51  C   UNL A   1      39.963  28.769  28.472  1.00  0.00     0.049 A 
ATOM     52  N   UNL A   1      42.900  29.383  28.541  1.00  0.00    -0.248 NA
ATOM     53  C   UNL A   1      43.316  27.307  27.557  1.00  0.00     0.031 C 
ATOM     54  C   UNL A   1      38.527  28.499  28.537  1.00  0.00     0.029 A 
ATOM     55  N   UNL A   1      40.088  30.034  28.993  1.00  0.00    -0.354 N 
ATOM     56  C   UNL A   1      44.273  29.196  28.426  1.00  0.00     0.074 A 
ATOM     57  C   UNL A   1      44.473  27.883  27.852  1.00  0.00     0.031 C 
ATOM     58  C   UNL A   1      37.906  29.557  29.085  1.00  0.00     0.029 A 
ATOM     59  C   UNL A   1      38.900  30.570  29.430  1.00  0.00     0.049 A 
ATOM     60  H   UNL A   1      40.948  30.511  29.048  1.00  0.00     0.167 HD
ATOM     61  C   UNL A   1      45.275  30.047  28.746  1.00  0.00     0.034 A 
ATOM     62  C   UNL A   1      38.638  31.739  30.051  1.00  0.00     0.034 A 
ATOM     63  C   UNL A   1      45.079  31.383  29.236  1.00  0.00     0.049 A 
ATOM     64  C   UNL A   1      39.763  32.701  30.323  1.00  0.00     0.074 A 
ATOM     65  C   UNL A   1      46.031  32.357  29.481  1.00  0.00     0.029 A 
ATOM     66  N   UNL A   1      43.848  31.937  29.550  1.00  0.00    -0.354 N 
ATOM     67  N   UNL A   1      41.041  32.567  30.061  1.00  0.00    -0.248 NA
ATOM     68  C   UNL A   1      39.411  33.987  30.946  1.00  0.00     0.031 C 
ATOM     69  C   UNL A   1      45.374  33.504  29.940  1.00  0.00     0.029 A 
ATOM     70  C   UNL A   1      44.014  33.241  29.985  1.00  0.00     0.049 A 
ATOM     71  H   UNL A   1      42.984  31.472  29.475  1.00  0.00     0.167 HD
ATOM     72  C   UNL A   1      41.639  33.759  30.456  1.00  0.00     0.074 A 
ATOM     73  C   UNL A   1      40.583  34.610  30.964  1.00  0.00     0.031 C 
ATOM     74  C   UNL A   1      42.948  34.105  30.420  1.00  0.00     0.034 A 
BRANCH  61  75
ATOM     75  C   UNL A   1      46.685  29.583  28.508  1.00  0.00     0.023 A 
ATOM     76  C   UNL A   1      47.312  29.891  27.285  1.00  0.00     0.012 A 
ATOM     77  C   UNL A   1      47.405  28.894  29.502  1.00  0.00     0.148 A 
ATOM     78  C   UNL A   1      48.629  29.497  27.045  1.00  0.00     0.002 A 
ATOM     79  C   UNL A   1      48.728  28.533  29.268  1.00  0.00     0.091 A 
ATOM     80  F   UNL A   1      46.782  28.582  30.648  1.00  0.00    -0.205 F 
ATOM     81  C   UNL A   1      49.339  28.829  28.039  1.00  0.00     0.022 A 
BRANCH  79  82
ATOM     82  S   UNL A   1      49.719  27.724  30.529  1.00  0.00     0.127 S 
ATOM     83  O   UNL A   1      49.128  26.388  30.560  1.00  0.00    -0.237 OA
ATOM     84  O   UNL A   1      51.068  27.781  29.963  1.00  0.00    -0.237 OA
ATOM     85  O   UNL A   1      49.542  28.530  31.730  1.00  0.00    -0.744 OA
ENDBRANCH  79  82
ENDBRANCH  61  75
BRANCH  62  86
ATOM     86  C   UNL A   1      37.231  32.089  30.386  1.00  0.00     0.023 A 
ATOM     87  C   UNL A   1      36.712  31.716  31.641  1.00  0.00     0.012 A 
ATOM     88  C   UNL A   1      36.429  32.843  29.507  1.00  0.00     0.148 A 
ATOM     89  C   UNL A   1      35.414  32.075  32.009  1.00  0.00     0.002 A 
ATOM     90  C   UNL A   1      35.155  33.240  29.900  1.00  0.00     0.091 A 
ATOM     91  F   UNL A   1      36.934  33.171  28.309  1.00  0.00    -0.205 F 
ATOM     92  C   UNL A   1      34.641  32.848  31.144  1.00  0.00     0.022 A 
BRANCH  90  93
ATOM     93  S   UNL A   1      34.155  34.351  28.903  1.00  0.00     0.127 S 
ATOM     94  O   UNL A   1      33.031  34.624  29.794  1.00  0.00    -0.237 OA
ATOM     95  O   UNL A   1      35.064  35.479  28.692  1.00  0.00    -0.237 OA
ATOM     96  O   UNL A   1      33.845  33.606  27.690  1.00  0.00    -0.744 OA
ENDBRANCH  90  93
ENDBRANCH  62  86
BRANCH  74  97
ATOM     97  C   UNL A   1      43.333  35.472  30.916  1.00  0.00     0.023 A 
ATOM     98  C   UNL A   1      43.703  35.636  32.264  1.00  0.00     0.012 A 
ATOM     99  C   UNL A   1      43.442  36.560  30.028  1.00  0.00     0.148 A 
ATOM    100  C   UNL A   1      44.168  36.867  32.726  1.00  0.00     0.002 A 
ATOM    101  C   UNL A   1      43.939  37.775  30.487  1.00  0.00     0.091 A 
ATOM    102  F   UNL A   1      43.064  36.387  28.754  1.00  0.00    -0.205 F 
ATOM    103  C   UNL A   1      44.299  37.932  31.836  1.00  0.00     0.022 A 
BRANCH 101 104
ATOM    104  S   UNL A   1      44.218  39.173  29.392  1.00  0.00     0.127 S 
ATOM    105  O   UNL A   1      42.858  39.486  28.955  1.00  0.00    -0.237 OA
ATOM    106  O   UNL A   1      44.813  40.163  30.290  1.00  0.00    -0.237 OA
ATOM    107  O   UNL A   1      45.117  38.688  28.352  1.00  0.00    -0.744 OA
ENDBRANCH 101 104
ENDBRANCH  74  97
ENDBRANCH  48  49
ENDBRANCH  40  43
ENDBRANCH  38  39
ENDBRANCH   1  38
TORSDOF 20
ENDMDL
