MODEL 1
REMARK VINA RESULT:     -11.3      0.000      0.000
REMARK SMILES O=C(CCCCc1nc2cccc(Cl)c2s1)NCCCNC(=O)c1ccc(-c2c3nc(c(-c4cccc(S(=O)(=O)[O-])c4F)c4ccc([nH]4)c(-c4cccc(S(=O)(=O)[O-])c4F)c4nc(c(-c5cccc(S(=O)(=O)[O-])c5F)c5ccc2[nH]5)C=C4)C=C3)cc1
REMARK SMILES IDX 18 1 17 2 1 3 2 4 3 6 4 7 5 8 6 9 7 10 8 11 16 12 9 13 15 14
REMARK SMILES IDX 10 15 13 16 11 17 12 18 14 19 19 20 20 21 21 22 22 23 23 25
REMARK SMILES IDX 24 26 25 27 86 28 26 29 85 30 27 31 28 32 29 33 79 34 30 35
REMARK SMILES IDX 84 36 78 37 80 38 31 39 83 40 77 41 76 42 32 44 64 45 44 46
REMARK SMILES IDX 63 47 45 48 48 49 62 50 81 51 46 52 47 53 61 55 82 56 49 57
REMARK SMILES IDX 33 58 34 59 42 60 35 61 37 62 43 63 36 64 38 65 39 66 40 67
REMARK SMILES IDX 41 68 65 69 66 70 74 71 67 72 69 73 75 74 68 75 70 76 71 77
REMARK SMILES IDX 72 78 73 79 50 80 51 81 59 82 52 83 54 84 60 85 53 86 55 87
REMARK SMILES IDX 56 88 57 89 58 90
REMARK H PARENT 17 5 21 24 80 43 48 54
REMARK Flexibility Score: inf
ROOT
ATOM      1  C   UNL A   1      32.379  29.679  26.914  1.00  0.00     0.117 C 
ENDROOT
BRANCH   1   2
ATOM      2  N   UNL A   1      32.098  28.625  25.961  1.00  0.00    -0.356 N 
ATOM      3  O   UNL A   1      31.056  27.210  27.439  1.00  0.00    -0.275 OA
ATOM      4  C   UNL A   1      31.412  27.481  26.297  1.00  0.00     0.219 C 
ATOM      5  H   UNL A   1      32.409  28.731  25.034  1.00  0.00     0.163 HD
BRANCH   4   6
ATOM      6  C   UNL A   1      31.111  26.578  25.117  1.00  0.00     0.100 C 
BRANCH   6   7
ATOM      7  C   UNL A   1      31.912  26.957  23.869  1.00  0.00     0.010 C 
BRANCH   7   8
ATOM      8  C   UNL A   1      31.278  26.604  22.511  1.00  0.00     0.008 C 
BRANCH   8   9
ATOM      9  C   UNL A   1      32.106  25.679  21.607  1.00  0.00     0.068 C 
BRANCH   9  10
ATOM     10  C   UNL A   1      32.823  24.642  22.408  1.00  0.00     0.094 A 
ATOM     11  N   UNL A   1      34.131  24.585  22.502  1.00  0.00    -0.241 NA
ATOM     12  S   UNL A   1      31.953  23.368  23.152  1.00  0.00    -0.117 S 
ATOM     13  C   UNL A   1      34.486  23.491  23.279  1.00  0.00     0.083 A 
ATOM     14  C   UNL A   1      33.434  22.657  23.670  1.00  0.00     0.073 A 
ATOM     15  C   UNL A   1      35.803  23.154  23.655  1.00  0.00     0.030 A 
ATOM     16  C   UNL A   1      33.676  21.466  24.373  1.00  0.00     0.060 A 
ATOM     17  C   UNL A   1      36.043  21.987  24.383  1.00  0.00     0.004 A 
ATOM     18  C   UNL A   1      34.992  21.143  24.721  1.00  0.00     0.022 A 
ATOM     19  Cl  UNL A   1      32.410  20.361  24.766  1.00  0.00    -0.083 Cl
ENDBRANCH   9  10
ENDBRANCH   8   9
ENDBRANCH   7   8
ENDBRANCH   6   7
ENDBRANCH   4   6
ENDBRANCH   1   2
BRANCH   1  20
ATOM     20  C   UNL A   1      33.782  29.572  27.509  1.00  0.00     0.042 C 
BRANCH  20  21
ATOM     21  C   UNL A   1      34.549  30.883  27.456  1.00  0.00     0.118 C 
BRANCH  21  22
ATOM     22  N   UNL A   1      34.352  31.711  28.641  1.00  0.00    -0.352 N 
ATOM     23  C   UNL A   1      35.109  31.730  29.796  1.00  0.00     0.251 C 
ATOM     24  H   UNL A   1      33.587  32.331  28.615  1.00  0.00     0.163 HD
ATOM     25  O   UNL A   1      34.675  32.230  30.820  1.00  0.00    -0.269 OA
BRANCH  23  26
ATOM     26  C   UNL A   1      36.469  31.154  29.760  1.00  0.00     0.039 A 
ATOM     27  C   UNL A   1      37.591  31.970  29.573  1.00  0.00     0.014 A 
ATOM     28  C   UNL A   1      36.601  29.769  29.870  1.00  0.00     0.014 A 
ATOM     29  C   UNL A   1      38.851  31.381  29.531  1.00  0.00     0.010 A 
ATOM     30  C   UNL A   1      37.845  29.203  29.951  1.00  0.00     0.010 A 
ATOM     31  C   UNL A   1      38.959  29.998  29.715  1.00  0.00    -0.014 A 
BRANCH  31  32
ATOM     32  C   UNL A   1      40.247  29.330  29.711  1.00  0.00     0.031 A 
ATOM     33  C   UNL A   1      40.818  29.062  31.060  1.00  0.00     0.074 A 
ATOM     34  C   UNL A   1      40.716  28.756  28.583  1.00  0.00     0.049 A 
ATOM     35  N   UNL A   1      41.910  29.532  31.569  1.00  0.00    -0.248 NA
ATOM     36  C   UNL A   1      40.014  28.269  32.006  1.00  0.00     0.031 C 
ATOM     37  C   UNL A   1      40.053  28.638  27.276  1.00  0.00     0.029 A 
ATOM     38  N   UNL A   1      41.832  28.004  28.416  1.00  0.00    -0.354 N 
ATOM     39  C   UNL A   1      42.032  28.932  32.821  1.00  0.00     0.074 A 
ATOM     40  C   UNL A   1      40.761  28.321  33.110  1.00  0.00     0.031 C 
ATOM     41  C   UNL A   1      40.653  27.662  26.556  1.00  0.00     0.029 A 
ATOM     42  C   UNL A   1      41.822  27.198  27.280  1.00  0.00     0.049 A 
ATOM     43  H   UNL A   1      42.587  28.026  29.047  1.00  0.00     0.167 HD
ATOM     44  C   UNL A   1      43.234  28.782  33.442  1.00  0.00     0.034 A 
ATOM     45  C   UNL A   1      42.684  26.183  27.017  1.00  0.00     0.034 A 
ATOM     46  C   UNL A   1      44.270  29.542  32.802  1.00  0.00     0.049 A 
ATOM     47  C   UNL A   1      43.863  26.402  27.893  1.00  0.00     0.074 A 
ATOM     48  C   UNL A   1      44.475  30.886  32.562  1.00  0.00     0.029 A 
ATOM     49  N   UNL A   1      45.073  28.870  31.910  1.00  0.00    -0.354 N 
ATOM     50  N   UNL A   1      44.659  27.429  27.785  1.00  0.00    -0.248 NA
ATOM     51  C   UNL A   1      43.883  25.723  29.181  1.00  0.00     0.031 C 
ATOM     52  C   UNL A   1      44.982  30.941  31.231  1.00  0.00     0.029 A 
ATOM     53  C   UNL A   1      45.126  29.629  30.770  1.00  0.00     0.049 A 
ATOM     54  H   UNL A   1      45.524  28.008  32.062  1.00  0.00     0.167 HD
ATOM     55  C   UNL A   1      44.944  27.789  29.096  1.00  0.00     0.074 A 
ATOM     56  C   UNL A   1      44.513  26.651  29.908  1.00  0.00     0.031 C 
ATOM     57  C   UNL A   1      45.219  29.082  29.434  1.00  0.00     0.034 A 
BRANCH  44  58
ATOM     58  C   UNL A   1      43.549  27.703  34.441  1.00  0.00     0.023 A 
ATOM     59  C   UNL A   1      43.959  28.084  35.735  1.00  0.00     0.012 A 
ATOM     60  C   UNL A   1      43.685  26.341  34.091  1.00  0.00     0.148 A 
ATOM     61  C   UNL A   1      44.472  27.149  36.641  1.00  0.00     0.002 A 
ATOM     62  C   UNL A   1      44.123  25.403  35.017  1.00  0.00     0.091 A 
ATOM     63  F   UNL A   1      43.508  25.968  32.818  1.00  0.00    -0.205 F 
ATOM     64  C   UNL A   1      44.538  25.804  36.288  1.00  0.00     0.022 A 
BRANCH  62  65
ATOM     65  S   UNL A   1      44.188  23.652  34.624  1.00  0.00     0.127 S 
ATOM     66  O   UNL A   1      44.759  23.098  35.848  1.00  0.00    -0.237 OA
ATOM     67  O   UNL A   1      42.776  23.343  34.400  1.00  0.00    -0.237 OA
ATOM     68  O   UNL A   1      45.017  23.556  33.428  1.00  0.00    -0.744 OA
ENDBRANCH  62  65
ENDBRANCH  44  58
BRANCH  45  69
ATOM     69  C   UNL A   1      42.488  24.903  26.287  1.00  0.00     0.023 A 
ATOM     70  C   UNL A   1      43.443  24.500  25.330  1.00  0.00     0.012 A 
ATOM     71  C   UNL A   1      41.547  23.943  26.719  1.00  0.00     0.148 A 
ATOM     72  C   UNL A   1      43.493  23.181  24.859  1.00  0.00     0.002 A 
ATOM     73  C   UNL A   1      41.594  22.633  26.241  1.00  0.00     0.091 A 
ATOM     74  F   UNL A   1      40.663  24.288  27.663  1.00  0.00    -0.205 F 
ATOM     75  C   UNL A   1      42.576  22.244  25.323  1.00  0.00     0.022 A 
BRANCH  73  76
ATOM     76  S   UNL A   1      40.459  21.364  26.811  1.00  0.00     0.127 S 
ATOM     77  O   UNL A   1      40.915  20.187  26.070  1.00  0.00    -0.237 OA
ATOM     78  O   UNL A   1      40.731  21.326  28.245  1.00  0.00    -0.237 OA
ATOM     79  O   UNL A   1      39.136  21.840  26.437  1.00  0.00    -0.744 OA
ENDBRANCH  73  76
ENDBRANCH  45  69
BRANCH  57  80
ATOM     80  C   UNL A   1      45.379  30.094  28.326  1.00  0.00     0.023 A 
ATOM     81  C   UNL A   1      44.274  30.758  27.752  1.00  0.00     0.012 A 
ATOM     82  C   UNL A   1      46.672  30.555  28.039  1.00  0.00     0.148 A 
ATOM     83  C   UNL A   1      44.456  31.863  26.914  1.00  0.00     0.002 A 
ATOM     84  C   UNL A   1      46.849  31.675  27.238  1.00  0.00     0.091 A 
ATOM     85  F   UNL A   1      47.707  29.918  28.608  1.00  0.00    -0.205 F 
ATOM     86  C   UNL A   1      45.744  32.332  26.670  1.00  0.00     0.022 A 
BRANCH  84  87
ATOM     87  S   UNL A   1      48.467  32.405  26.980  1.00  0.00     0.127 S 
ATOM     88  O   UNL A   1      48.771  32.949  28.302  1.00  0.00    -0.237 OA
ATOM     89  O   UNL A   1      49.272  31.245  26.596  1.00  0.00    -0.237 OA
ATOM     90  O   UNL A   1      48.302  33.397  25.924  1.00  0.00    -0.744 OA
ENDBRANCH  84  87
ENDBRANCH  57  80
ENDBRANCH  31  32
ENDBRANCH  23  26
ENDBRANCH  21  22
ENDBRANCH  20  21
ENDBRANCH   1  20
TORSDOF 17
ENDMDL
MODEL 2
REMARK VINA RESULT:     -11.3      3.243      7.963
REMARK SMILES O=C(CCCCc1nc2cccc(Cl)c2s1)NCCCNC(=O)c1ccc(-c2c3nc(c(-c4cccc(S(=O)(=O)[O-])c4F)c4ccc([nH]4)c(-c4cccc(S(=O)(=O)[O-])c4F)c4nc(c(-c5cccc(S(=O)(=O)[O-])c5F)c5ccc2[nH]5)C=C4)C=C3)cc1
REMARK SMILES IDX 18 1 17 2 1 3 2 4 3 6 4 7 5 8 6 9 7 10 8 11 16 12 9 13 15 14
REMARK SMILES IDX 10 15 13 16 11 17 12 18 14 19 19 20 20 21 21 22 22 23 23 25
REMARK SMILES IDX 24 26 25 27 86 28 26 29 85 30 27 31 28 32 29 33 79 34 30 35
REMARK SMILES IDX 84 36 78 37 80 38 31 39 83 40 77 41 76 42 32 44 64 45 44 46
REMARK SMILES IDX 63 47 45 48 48 49 62 50 81 51 46 52 47 53 61 55 82 56 49 57
REMARK SMILES IDX 33 58 34 59 42 60 35 61 37 62 43 63 36 64 38 65 39 66 40 67
REMARK SMILES IDX 41 68 65 69 66 70 74 71 67 72 69 73 75 74 68 75 70 76 71 77
REMARK SMILES IDX 72 78 73 79 50 80 51 81 59 82 52 83 54 84 60 85 53 86 55 87
REMARK SMILES IDX 56 88 57 89 58 90
REMARK H PARENT 17 5 21 24 80 43 48 54
REMARK Flexibility Score: inf
ROOT
ATOM      1  C   UNL A   1      36.220  20.552  25.221  1.00  0.00     0.117 C 
ENDROOT
BRANCH   1   2
ATOM      2  N   UNL A   1      34.931  20.116  24.722  1.00  0.00    -0.356 N 
ATOM      3  O   UNL A   1      33.696  20.862  26.509  1.00  0.00    -0.275 OA
ATOM      4  C   UNL A   1      33.755  20.350  25.396  1.00  0.00     0.219 C 
ATOM      5  H   UNL A   1      34.894  19.634  23.865  1.00  0.00     0.163 HD
BRANCH   4   6
ATOM      6  C   UNL A   1      32.516  19.929  24.630  1.00  0.00     0.100 C 
BRANCH   6   7
ATOM      7  C   UNL A   1      32.455  20.544  23.230  1.00  0.00     0.010 C 
BRANCH   7   8
ATOM      8  C   UNL A   1      32.627  22.071  23.139  1.00  0.00     0.008 C 
BRANCH   8   9
ATOM      9  C   UNL A   1      31.828  22.896  24.159  1.00  0.00     0.068 C 
BRANCH   9  10
ATOM     10  C   UNL A   1      32.069  24.358  23.979  1.00  0.00     0.094 A 
ATOM     11  N   UNL A   1      32.853  24.847  23.046  1.00  0.00    -0.241 NA
ATOM     12  S   UNL A   1      31.422  25.487  25.092  1.00  0.00    -0.117 S 
ATOM     13  C   UNL A   1      32.902  26.228  23.166  1.00  0.00     0.083 A 
ATOM     14  C   UNL A   1      32.239  26.765  24.274  1.00  0.00     0.073 A 
ATOM     15  C   UNL A   1      33.588  27.097  22.293  1.00  0.00     0.030 A 
ATOM     16  C   UNL A   1      32.299  28.138  24.561  1.00  0.00     0.060 A 
ATOM     17  C   UNL A   1      33.621  28.468  22.556  1.00  0.00     0.004 A 
ATOM     18  C   UNL A   1      32.999  28.979  23.689  1.00  0.00     0.022 A 
ATOM     19  Cl  UNL A   1      31.589  28.809  25.983  1.00  0.00    -0.083 Cl
ENDBRANCH   9  10
ENDBRANCH   8   9
ENDBRANCH   7   8
ENDBRANCH   6   7
ENDBRANCH   4   6
ENDBRANCH   1   2
BRANCH   1  20
ATOM     20  C   UNL A   1      37.314  19.508  25.007  1.00  0.00     0.042 C 
BRANCH  20  21
ATOM     21  C   UNL A   1      38.715  20.084  25.135  1.00  0.00     0.118 C 
BRANCH  21  22
ATOM     22  N   UNL A   1      39.718  19.080  25.477  1.00  0.00    -0.352 N 
ATOM     23  C   UNL A   1      41.002  19.292  25.942  1.00  0.00     0.251 C 
ATOM     24  H   UNL A   1      39.448  18.140  25.364  1.00  0.00     0.163 HD
ATOM     25  O   UNL A   1      41.835  18.402  25.900  1.00  0.00    -0.269 OA
BRANCH  23  26
ATOM     26  C   UNL A   1      41.339  20.610  26.517  1.00  0.00     0.039 A 
ATOM     27  C   UNL A   1      42.135  21.520  25.812  1.00  0.00     0.014 A 
ATOM     28  C   UNL A   1      40.880  20.905  27.802  1.00  0.00     0.014 A 
ATOM     29  C   UNL A   1      42.438  22.744  26.400  1.00  0.00     0.010 A 
ATOM     30  C   UNL A   1      41.074  22.152  28.330  1.00  0.00     0.010 A 
ATOM     31  C   UNL A   1      41.906  23.041  27.660  1.00  0.00    -0.014 A 
BRANCH  31  32
ATOM     32  C   UNL A   1      42.161  24.312  28.312  1.00  0.00     0.031 A 
ATOM     33  C   UNL A   1      41.087  25.330  28.144  1.00  0.00     0.074 A 
ATOM     34  C   UNL A   1      43.152  24.426  29.222  1.00  0.00     0.049 A 
ATOM     35  N   UNL A   1      41.165  26.476  27.551  1.00  0.00    -0.248 NA
ATOM     36  C   UNL A   1      39.726  24.977  28.582  1.00  0.00     0.031 C 
ATOM     37  C   UNL A   1      44.039  23.376  29.741  1.00  0.00     0.029 A 
ATOM     38  N   UNL A   1      43.466  25.489  30.003  1.00  0.00    -0.354 N 
ATOM     39  C   UNL A   1      39.918  27.075  27.722  1.00  0.00     0.074 A 
ATOM     40  C   UNL A   1      39.028  26.044  28.192  1.00  0.00     0.031 C 
ATOM     41  C   UNL A   1      44.592  23.791  30.904  1.00  0.00     0.029 A 
ATOM     42  C   UNL A   1      44.224  25.177  31.129  1.00  0.00     0.049 A 
ATOM     43  H   UNL A   1      43.180  26.406  29.791  1.00  0.00     0.167 HD
ATOM     44  C   UNL A   1      39.746  28.424  27.683  1.00  0.00     0.034 A 
ATOM     45  C   UNL A   1      44.453  25.996  32.186  1.00  0.00     0.034 A 
ATOM     46  C   UNL A   1      40.909  29.101  27.180  1.00  0.00     0.049 A 
ATOM     47  C   UNL A   1      44.160  27.373  31.716  1.00  0.00     0.074 A 
ATOM     48  C   UNL A   1      41.601  29.076  25.986  1.00  0.00     0.029 A 
ATOM     49  N   UNL A   1      41.778  29.618  28.112  1.00  0.00    -0.354 N 
ATOM     50  N   UNL A   1      44.848  27.978  30.787  1.00  0.00    -0.248 NA
ATOM     51  C   UNL A   1      42.821  27.896  31.949  1.00  0.00     0.031 C 
ATOM     52  C   UNL A   1      42.974  29.094  26.365  1.00  0.00     0.029 A 
ATOM     53  C   UNL A   1      43.036  29.205  27.757  1.00  0.00     0.049 A 
ATOM     54  H   UNL A   1      41.542  30.177  28.887  1.00  0.00     0.167 HD
ATOM     55  C   UNL A   1      43.897  28.653  30.033  1.00  0.00     0.074 A 
ATOM     56  C   UNL A   1      42.681  28.638  30.846  1.00  0.00     0.031 C 
ATOM     57  C   UNL A   1      44.086  28.894  28.703  1.00  0.00     0.034 A 
BRANCH  44  58
ATOM     58  C   UNL A   1      38.647  29.166  28.391  1.00  0.00     0.023 A 
ATOM     59  C   UNL A   1      37.786  29.981  27.628  1.00  0.00     0.012 A 
ATOM     60  C   UNL A   1      38.571  29.278  29.797  1.00  0.00     0.148 A 
ATOM     61  C   UNL A   1      36.885  30.861  28.239  1.00  0.00     0.002 A 
ATOM     62  C   UNL A   1      37.624  30.096  30.401  1.00  0.00     0.091 A 
ATOM     63  F   UNL A   1      39.501  28.685  30.555  1.00  0.00    -0.205 F 
ATOM     64  C   UNL A   1      36.792  30.906  29.627  1.00  0.00     0.022 A 
BRANCH  62  65
ATOM     65  S   UNL A   1      37.437  30.158  32.186  1.00  0.00     0.127 S 
ATOM     66  O   UNL A   1      36.257  31.005  32.327  1.00  0.00    -0.237 OA
ATOM     67  O   UNL A   1      37.234  28.748  32.516  1.00  0.00    -0.237 OA
ATOM     68  O   UNL A   1      38.689  30.714  32.686  1.00  0.00    -0.744 OA
ENDBRANCH  62  65
ENDBRANCH  44  58
BRANCH  45  69
ATOM     69  C   UNL A   1      44.642  25.693  33.629  1.00  0.00     0.023 A 
ATOM     70  C   UNL A   1      45.947  25.483  34.126  1.00  0.00     0.012 A 
ATOM     71  C   UNL A   1      43.608  25.895  34.568  1.00  0.00     0.148 A 
ATOM     72  C   UNL A   1      46.220  25.524  35.500  1.00  0.00     0.002 A 
ATOM     73  C   UNL A   1      43.883  25.926  35.936  1.00  0.00     0.091 A 
ATOM     74  F   UNL A   1      42.372  26.147  34.120  1.00  0.00    -0.205 F 
ATOM     75  C   UNL A   1      45.191  25.757  36.405  1.00  0.00     0.022 A 
BRANCH  73  76
ATOM     76  S   UNL A   1      42.609  26.244  37.162  1.00  0.00     0.127 S 
ATOM     77  O   UNL A   1      41.781  25.041  37.065  1.00  0.00    -0.237 OA
ATOM     78  O   UNL A   1      43.386  26.352  38.394  1.00  0.00    -0.237 OA
ATOM     79  O   UNL A   1      41.956  27.468  36.725  1.00  0.00    -0.744 OA
ENDBRANCH  73  76
ENDBRANCH  45  69
BRANCH  57  80
ATOM     80  C   UNL A   1      45.430  28.568  28.099  1.00  0.00     0.023 A 
ATOM     81  C   UNL A   1      46.554  29.404  28.274  1.00  0.00     0.012 A 
ATOM     82  C   UNL A   1      45.614  27.286  27.561  1.00  0.00     0.148 A 
ATOM     83  C   UNL A   1      47.835  28.966  27.926  1.00  0.00     0.002 A 
ATOM     84  C   UNL A   1      46.893  26.839  27.253  1.00  0.00     0.091 A 
ATOM     85  F   UNL A   1      44.535  26.502  27.417  1.00  0.00    -0.205 F 
ATOM     86  C   UNL A   1      48.007  27.676  27.431  1.00  0.00     0.022 A 
BRANCH  84  87
ATOM     87  S   UNL A   1      47.202  25.153  26.726  1.00  0.00     0.127 S 
ATOM     88  O   UNL A   1      48.652  25.152  26.538  1.00  0.00    -0.237 OA
ATOM     89  O   UNL A   1      46.732  24.378  27.876  1.00  0.00    -0.237 OA
ATOM     90  O   UNL A   1      46.419  24.956  25.511  1.00  0.00    -0.744 OA
ENDBRANCH  84  87
ENDBRANCH  57  80
ENDBRANCH  31  32
ENDBRANCH  23  26
ENDBRANCH  21  22
ENDBRANCH  20  21
ENDBRANCH   1  20
TORSDOF 17
ENDMDL
MODEL 3
REMARK VINA RESULT:     -11.1      4.010      6.874
REMARK SMILES O=C(CCCCc1nc2cccc(Cl)c2s1)NCCCNC(=O)c1ccc(-c2c3nc(c(-c4cccc(S(=O)(=O)[O-])c4F)c4ccc([nH]4)c(-c4cccc(S(=O)(=O)[O-])c4F)c4nc(c(-c5cccc(S(=O)(=O)[O-])c5F)c5ccc2[nH]5)C=C4)C=C3)cc1
REMARK SMILES IDX 18 1 17 2 1 3 2 4 3 6 4 7 5 8 6 9 7 10 8 11 16 12 9 13 15 14
REMARK SMILES IDX 10 15 13 16 11 17 12 18 14 19 19 20 20 21 21 22 22 23 23 25
REMARK SMILES IDX 24 26 25 27 86 28 26 29 85 30 27 31 28 32 29 33 79 34 30 35
REMARK SMILES IDX 84 36 78 37 80 38 31 39 83 40 77 41 76 42 32 44 64 45 44 46
REMARK SMILES IDX 63 47 45 48 48 49 62 50 81 51 46 52 47 53 61 55 82 56 49 57
REMARK SMILES IDX 33 58 34 59 42 60 35 61 37 62 43 63 36 64 38 65 39 66 40 67
REMARK SMILES IDX 41 68 65 69 66 70 74 71 67 72 69 73 75 74 68 75 70 76 71 77
REMARK SMILES IDX 72 78 73 79 50 80 51 81 59 82 52 83 54 84 60 85 53 86 55 87
REMARK SMILES IDX 56 88 57 89 58 90
REMARK H PARENT 17 5 21 24 80 43 48 54
REMARK Flexibility Score: inf
ROOT
ATOM      1  C   UNL A   1      36.607  31.700  32.702  1.00  0.00     0.117 C 
ENDROOT
BRANCH   1   2
ATOM      2  N   UNL A   1      37.197  32.146  33.948  1.00  0.00    -0.356 N 
ATOM      3  O   UNL A   1      38.110  30.125  34.541  1.00  0.00    -0.275 OA
ATOM      4  C   UNL A   1      37.946  31.321  34.754  1.00  0.00     0.219 C 
ATOM      5  H   UNL A   1      37.056  33.078  34.229  1.00  0.00     0.163 HD
BRANCH   4   6
ATOM      6  C   UNL A   1      38.578  32.030  35.936  1.00  0.00     0.100 C 
BRANCH   6   7
ATOM      7  C   UNL A   1      39.997  31.539  36.225  1.00  0.00     0.010 C 
BRANCH   7   8
ATOM      8  C   UNL A   1      41.021  31.679  35.084  1.00  0.00     0.008 C 
BRANCH   8   9
ATOM      9  C   UNL A   1      41.574  33.092  34.851  1.00  0.00     0.068 C 
BRANCH   9  10
ATOM     10  C   UNL A   1      41.178  33.611  33.508  1.00  0.00     0.094 A 
ATOM     11  N   UNL A   1      39.928  33.756  33.133  1.00  0.00    -0.241 NA
ATOM     12  S   UNL A   1      42.367  33.926  32.316  1.00  0.00    -0.117 S 
ATOM     13  C   UNL A   1      39.892  34.216  31.825  1.00  0.00     0.083 A 
ATOM     14  C   UNL A   1      41.129  34.305  31.178  1.00  0.00     0.073 A 
ATOM     15  C   UNL A   1      38.723  34.554  31.113  1.00  0.00     0.030 A 
ATOM     16  C   UNL A   1      41.216  34.661  29.823  1.00  0.00     0.060 A 
ATOM     17  C   UNL A   1      38.808  34.942  29.774  1.00  0.00     0.004 A 
ATOM     18  C   UNL A   1      40.041  34.976  29.132  1.00  0.00     0.022 A 
ATOM     19  Cl  UNL A   1      42.716  34.665  28.971  1.00  0.00    -0.083 Cl
ENDBRANCH   9  10
ENDBRANCH   8   9
ENDBRANCH   7   8
ENDBRANCH   6   7
ENDBRANCH   4   6
ENDBRANCH   1   2
BRANCH   1  20
ATOM     20  C   UNL A   1      35.258  32.360  32.421  1.00  0.00     0.042 C 
BRANCH  20  21
ATOM     21  C   UNL A   1      35.228  33.103  31.095  1.00  0.00     0.118 C 
BRANCH  21  22
ATOM     22  N   UNL A   1      34.431  32.424  30.077  1.00  0.00    -0.352 N 
ATOM     23  C   UNL A   1      34.882  31.623  29.046  1.00  0.00     0.251 C 
ATOM     24  H   UNL A   1      33.456  32.552  30.132  1.00  0.00     0.163 HD
ATOM     25  O   UNL A   1      34.163  31.368  28.094  1.00  0.00    -0.269 OA
BRANCH  23  26
ATOM     26  C   UNL A   1      36.244  31.059  29.131  1.00  0.00     0.039 A 
ATOM     27  C   UNL A   1      37.371  31.883  29.030  1.00  0.00     0.014 A 
ATOM     28  C   UNL A   1      36.377  29.676  29.267  1.00  0.00     0.014 A 
ATOM     29  C   UNL A   1      38.635  31.304  29.101  1.00  0.00     0.010 A 
ATOM     30  C   UNL A   1      37.613  29.122  29.459  1.00  0.00     0.010 A 
ATOM     31  C   UNL A   1      38.738  29.924  29.309  1.00  0.00    -0.014 A 
BRANCH  31  32
ATOM     32  C   UNL A   1      40.027  29.267  29.422  1.00  0.00     0.031 A 
ATOM     33  C   UNL A   1      40.479  29.010  30.817  1.00  0.00     0.074 A 
ATOM     34  C   UNL A   1      40.597  28.693  28.341  1.00  0.00     0.049 A 
ATOM     35  N   UNL A   1      41.518  29.491  31.417  1.00  0.00    -0.248 NA
ATOM     36  C   UNL A   1      39.601  28.214  31.692  1.00  0.00     0.031 C 
ATOM     37  C   UNL A   1      40.053  28.564  26.982  1.00  0.00     0.029 A 
ATOM     38  N   UNL A   1      41.730  27.950  28.276  1.00  0.00    -0.354 N 
ATOM     39  C   UNL A   1      41.535  28.897  32.678  1.00  0.00     0.074 A 
ATOM     40  C   UNL A   1      40.248  28.276  32.857  1.00  0.00     0.031 C 
ATOM     41  C   UNL A   1      40.722  27.591  26.322  1.00  0.00     0.029 A 
ATOM     42  C   UNL A   1      41.827  27.140  27.148  1.00  0.00     0.049 A 
ATOM     43  H   UNL A   1      42.426  27.982  28.971  1.00  0.00     0.167 HD
ATOM     44  C   UNL A   1      42.678  28.760  33.403  1.00  0.00     0.034 A 
ATOM     45  C   UNL A   1      42.717  26.131  26.967  1.00  0.00     0.034 A 
ATOM     46  C   UNL A   1      43.761  29.526  32.853  1.00  0.00     0.049 A 
ATOM     47  C   UNL A   1      43.812  26.364  27.942  1.00  0.00     0.074 A 
ATOM     48  C   UNL A   1      43.974  30.871  32.626  1.00  0.00     0.029 A 
ATOM     49  N   UNL A   1      44.645  28.858  32.038  1.00  0.00    -0.354 N 
ATOM     50  N   UNL A   1      44.606  27.398  27.899  1.00  0.00    -0.248 NA
ATOM     51  C   UNL A   1      43.724  25.690  29.229  1.00  0.00     0.031 C 
ATOM     52  C   UNL A   1      44.596  30.925  31.344  1.00  0.00     0.029 A 
ATOM     53  C   UNL A   1      44.791  29.613  30.904  1.00  0.00     0.049 A 
ATOM     54  H   UNL A   1      45.087  28.001  32.233  1.00  0.00     0.167 HD
ATOM     55  C   UNL A   1      44.772  27.765  29.229  1.00  0.00     0.074 A 
ATOM     56  C   UNL A   1      44.280  26.626  30.005  1.00  0.00     0.031 C 
ATOM     57  C   UNL A   1      45.005  29.061  29.584  1.00  0.00     0.034 A 
BRANCH  44  58
ATOM     58  C   UNL A   1      42.914  27.688  34.431  1.00  0.00     0.023 A 
ATOM     59  C   UNL A   1      42.885  28.045  35.794  1.00  0.00     0.012 A 
ATOM     60  C   UNL A   1      43.390  26.398  34.107  1.00  0.00     0.148 A 
ATOM     61  C   UNL A   1      43.305  27.155  36.789  1.00  0.00     0.002 A 
ATOM     62  C   UNL A   1      43.735  25.490  35.101  1.00  0.00     0.091 A 
ATOM     63  F   UNL A   1      43.631  26.087  32.827  1.00  0.00    -0.205 F 
ATOM     64  C   UNL A   1      43.714  25.871  36.444  1.00  0.00     0.022 A 
BRANCH  62  65
ATOM     65  S   UNL A   1      44.230  23.809  34.709  1.00  0.00     0.127 S 
ATOM     66  O   UNL A   1      45.381  24.037  33.842  1.00  0.00    -0.237 OA
ATOM     67  O   UNL A   1      44.544  23.273  36.034  1.00  0.00    -0.237 OA
ATOM     68  O   UNL A   1      43.064  23.200  34.081  1.00  0.00    -0.744 OA
ENDBRANCH  62  65
ENDBRANCH  44  58
BRANCH  45  69
ATOM     69  C   UNL A   1      42.596  24.847  26.228  1.00  0.00     0.023 A 
ATOM     70  C   UNL A   1      43.597  24.486  25.301  1.00  0.00     0.012 A 
ATOM     71  C   UNL A   1      41.681  23.849  26.627  1.00  0.00     0.148 A 
ATOM     72  C   UNL A   1      43.715  23.171  24.830  1.00  0.00     0.002 A 
ATOM     73  C   UNL A   1      41.797  22.543  26.148  1.00  0.00     0.091 A 
ATOM     74  F   UNL A   1      40.754  24.155  27.543  1.00  0.00    -0.205 F 
ATOM     75  C   UNL A   1      42.823  22.197  25.262  1.00  0.00     0.022 A 
BRANCH  73  76
ATOM     76  S   UNL A   1      40.696  21.227  26.678  1.00  0.00     0.127 S 
ATOM     77  O   UNL A   1      39.417  21.644  26.099  1.00  0.00    -0.237 OA
ATOM     78  O   UNL A   1      41.294  20.051  26.053  1.00  0.00    -0.237 OA
ATOM     79  O   UNL A   1      40.741  21.253  28.132  1.00  0.00    -0.744 OA
ENDBRANCH  73  76
ENDBRANCH  45  69
BRANCH  57  80
ATOM     80  C   UNL A   1      45.254  30.071  28.490  1.00  0.00     0.023 A 
ATOM     81  C   UNL A   1      44.209  30.826  27.914  1.00  0.00     0.012 A 
ATOM     82  C   UNL A   1      46.581  30.432  28.219  1.00  0.00     0.148 A 
ATOM     83  C   UNL A   1      44.484  31.922  27.091  1.00  0.00     0.002 A 
ATOM     84  C   UNL A   1      46.852  31.545  27.433  1.00  0.00     0.091 A 
ATOM     85  F   UNL A   1      47.559  29.711  28.788  1.00  0.00    -0.205 F 
ATOM     86  C   UNL A   1      45.807  32.292  26.864  1.00  0.00     0.022 A 
BRANCH  84  87
ATOM     87  S   UNL A   1      48.524  32.149  27.197  1.00  0.00     0.127 S 
ATOM     88  O   UNL A   1      49.157  31.033  26.496  1.00  0.00    -0.237 OA
ATOM     89  O   UNL A   1      48.310  33.343  26.378  1.00  0.00    -0.237 OA
ATOM     90  O   UNL A   1      49.050  32.423  28.529  1.00  0.00    -0.744 OA
ENDBRANCH  84  87
ENDBRANCH  57  80
ENDBRANCH  31  32
ENDBRANCH  23  26
ENDBRANCH  21  22
ENDBRANCH  20  21
ENDBRANCH   1  20
TORSDOF 17
ENDMDL
