MODEL 1
REMARK VINA RESULT:     -11.9      0.000      0.000
REMARK SMILES CCC(CC)COc1cc2c(cc1Cl)C=C(C(=O)NCCCNC(=O)c1ccc(-c3c4nc(c(-c5cccc(S(=O)(=O)[O-])c5F)c5ccc([nH]5)c(-c5cccc(S(=O)(=O)[O-])c5F)c5nc(c(-c6cccc(S(=O)(=O)[O-])c6F)c6ccc3[nH]6)C=C5)C=C4)cc1)[C@@H](C(F)(F)F)O2
REMARK SMILES IDX 20 1 19 2 17 3 18 4 16 6 8 7 9 8 13 9 10 10 12 11 14 12
REMARK SMILES IDX 11 13 94 14 15 15 89 16 7 17 6 18 3 19 2 20 1 21 4 22 5 23
REMARK SMILES IDX 90 24 91 25 92 26 93 27 21 28 22 29 23 30 24 31 25 33 26 34
REMARK SMILES IDX 27 35 88 36 28 37 87 38 29 39 30 40 31 41 81 42 32 43 86 44
REMARK SMILES IDX 80 45 82 46 33 47 85 48 79 49 78 50 34 52 66 53 46 54 65 55
REMARK SMILES IDX 47 56 50 57 64 58 83 59 48 60 49 61 63 63 84 64 51 65 35 66
REMARK SMILES IDX 36 67 44 68 37 69 39 70 45 71 38 72 40 73 41 74 42 75 43 76
REMARK SMILES IDX 67 77 68 78 76 79 69 80 71 81 77 82 70 83 72 84 73 85 74 86
REMARK SMILES IDX 75 87 52 88 53 89 61 90 54 91 56 92 62 93 55 94 57 95 58 96
REMARK SMILES IDX 59 97 60 98
REMARK H PARENT 19 5 23 32 82 51 50 62
REMARK Flexibility Score: inf
ROOT
ATOM      1  C   UNL A   1      31.892  30.460  25.882  1.00  0.00     0.118 C 
ENDROOT
BRANCH   1   2
ATOM      2  N   UNL A   1      30.943  30.488  24.782  1.00  0.00    -0.352 N 
ATOM      3  C   UNL A   1      30.491  29.615  23.856  1.00  0.00     0.251 C 
ATOM      4  O   UNL A   1      29.641  30.056  23.077  1.00  0.00    -0.270 OA
ATOM      5  H   UNL A   1      30.520  31.373  24.686  1.00  0.00     0.163 HD
BRANCH   3   6
ATOM      6  C   UNL A   1      30.933  28.204  23.741  1.00  0.00     0.067 C 
ATOM      7  C   UNL A   1      31.372  23.255  24.233  1.00  0.00     0.141 A 
ATOM      8  C   UNL A   1      31.504  24.109  23.137  1.00  0.00     0.095 A 
ATOM      9  C   UNL A   1      31.105  23.780  25.508  1.00  0.00     0.083 A 
ATOM     10  C   UNL A   1      31.264  25.466  23.317  1.00  0.00     0.131 A 
ATOM     11  C   UNL A   1      30.737  25.116  25.647  1.00  0.00     0.036 A 
ATOM     12  Cl  UNL A   1      31.197  22.817  26.936  1.00  0.00    -0.080 Cl
ATOM     13  C   UNL A   1      30.788  25.955  24.540  1.00  0.00     0.019 A 
ATOM     14  O   UNL A   1      31.538  26.320  22.276  1.00  0.00    -0.475 OA
ATOM     15  C   UNL A   1      30.386  27.352  24.626  1.00  0.00     0.025 C 
ATOM     16  C   UNL A   1      31.911  27.663  22.732  1.00  0.00     0.314 C 
BRANCH   7  17
ATOM     17  O   UNL A   1      31.532  21.906  24.058  1.00  0.00    -0.492 OA
BRANCH  17  18
ATOM     18  C   UNL A   1      32.827  21.574  23.501  1.00  0.00     0.233 C 
BRANCH  18  19
ATOM     19  C   UNL A   1      33.720  20.834  24.529  1.00  0.00     0.026 C 
BRANCH  19  20
ATOM     20  C   UNL A   1      34.512  21.830  25.410  1.00  0.00     0.003 C 
ATOM     21  C   UNL A   1      35.034  23.026  24.626  1.00  0.00     0.004 C 
ENDBRANCH  19  20
BRANCH  19  22
ATOM     22  C   UNL A   1      32.923  19.815  25.369  1.00  0.00     0.003 C 
ATOM     23  C   UNL A   1      32.534  18.530  24.654  1.00  0.00     0.004 C 
ENDBRANCH  19  22
ENDBRANCH  18  19
ENDBRANCH  17  18
ENDBRANCH   7  17
BRANCH  16  24
ATOM     24  C   UNL A   1      33.366  27.688  23.270  1.00  0.00     0.429 C 
ATOM     25  F   UNL A   1      34.094  28.641  22.640  1.00  0.00    -0.167 F 
ATOM     26  F   UNL A   1      33.418  27.972  24.595  1.00  0.00    -0.167 F 
ATOM     27  F   UNL A   1      34.021  26.514  23.114  1.00  0.00    -0.167 F 
ENDBRANCH  16  24
ENDBRANCH   3   6
ENDBRANCH   1   2
BRANCH   1  28
ATOM     28  C   UNL A   1      31.605  31.562  26.886  1.00  0.00     0.042 C 
BRANCH  28  29
ATOM     29  C   UNL A   1      32.869  32.297  27.309  1.00  0.00     0.118 C 
BRANCH  29  30
ATOM     30  N   UNL A   1      32.618  33.711  27.568  1.00  0.00    -0.352 N 
ATOM     31  C   UNL A   1      33.121  34.533  28.555  1.00  0.00     0.251 C 
ATOM     32  H   UNL A   1      31.996  34.145  26.942  1.00  0.00     0.163 HD
ATOM     33  O   UNL A   1      32.614  35.625  28.754  1.00  0.00    -0.269 OA
BRANCH  31  34
ATOM     34  C   UNL A   1      34.256  34.062  29.378  1.00  0.00     0.039 A 
ATOM     35  C   UNL A   1      35.550  34.492  29.090  1.00  0.00     0.014 A 
ATOM     36  C   UNL A   1      34.031  33.163  30.423  1.00  0.00     0.014 A 
ATOM     37  C   UNL A   1      36.630  33.864  29.691  1.00  0.00     0.010 A 
ATOM     38  C   UNL A   1      35.120  32.621  31.114  1.00  0.00     0.010 A 
ATOM     39  C   UNL A   1      36.431  32.923  30.715  1.00  0.00    -0.014 A 
BRANCH  39  40
ATOM     40  C   UNL A   1      37.617  32.291  31.348  1.00  0.00     0.031 A 
ATOM     41  C   UNL A   1      38.096  32.722  32.708  1.00  0.00     0.074 A 
ATOM     42  C   UNL A   1      38.228  31.273  30.709  1.00  0.00     0.049 A 
ATOM     43  N   UNL A   1      39.108  32.265  33.400  1.00  0.00    -0.248 NA
ATOM     44  C   UNL A   1      37.357  33.804  33.382  1.00  0.00     0.031 C 
ATOM     45  C   UNL A   1      37.868  30.778  29.377  1.00  0.00     0.029 A 
ATOM     46  N   UNL A   1      39.262  30.458  31.094  1.00  0.00    -0.354 N 
ATOM     47  C   UNL A   1      39.155  33.027  34.561  1.00  0.00     0.074 A 
ATOM     48  C   UNL A   1      38.070  33.980  34.488  1.00  0.00     0.031 C 
ATOM     49  C   UNL A   1      38.632  29.720  29.077  1.00  0.00     0.029 A 
ATOM     50  C   UNL A   1      39.581  29.500  30.160  1.00  0.00     0.049 A 
ATOM     51  H   UNL A   1      39.731  30.551  31.954  1.00  0.00     0.167 HD
ATOM     52  C   UNL A   1      40.013  32.927  35.602  1.00  0.00     0.034 A 
ATOM     53  C   UNL A   1      40.544  28.558  30.161  1.00  0.00     0.034 A 
ATOM     54  C   UNL A   1      41.052  31.939  35.704  1.00  0.00     0.049 A 
ATOM     55  C   UNL A   1      41.458  28.450  31.342  1.00  0.00     0.074 A 
ATOM     56  C   UNL A   1      41.951  31.744  36.738  1.00  0.00     0.029 A 
ATOM     57  N   UNL A   1      41.322  30.971  34.750  1.00  0.00    -0.354 N 
ATOM     58  N   UNL A   1      41.449  29.150  32.450  1.00  0.00    -0.248 NA
ATOM     59  C   UNL A   1      42.507  27.423  31.285  1.00  0.00     0.031 C 
ATOM     60  C   UNL A   1      42.762  30.656  36.411  1.00  0.00     0.029 A 
ATOM     61  C   UNL A   1      42.366  30.171  35.176  1.00  0.00     0.049 A 
ATOM     62  H   UNL A   1      40.842  30.869  33.896  1.00  0.00     0.167 HD
ATOM     63  C   UNL A   1      42.486  28.649  33.223  1.00  0.00     0.074 A 
ATOM     64  C   UNL A   1      43.086  27.565  32.471  1.00  0.00     0.031 C 
ATOM     65  C   UNL A   1      42.917  29.067  34.437  1.00  0.00     0.034 A 
BRANCH  52  66
ATOM     66  C   UNL A   1      39.846  33.868  36.764  1.00  0.00     0.023 A 
ATOM     67  C   UNL A   1      40.171  35.227  36.594  1.00  0.00     0.012 A 
ATOM     68  C   UNL A   1      39.243  33.440  37.963  1.00  0.00     0.148 A 
ATOM     69  C   UNL A   1      39.898  36.151  37.602  1.00  0.00     0.002 A 
ATOM     70  C   UNL A   1      38.949  34.370  38.952  1.00  0.00     0.091 A 
ATOM     71  F   UNL A   1      38.950  32.138  38.098  1.00  0.00    -0.205 F 
ATOM     72  C   UNL A   1      39.278  35.724  38.774  1.00  0.00     0.022 A 
BRANCH  70  73
ATOM     73  S   UNL A   1      38.102  33.940  40.477  1.00  0.00     0.127 S 
ATOM     74  O   UNL A   1      39.081  33.064  41.122  1.00  0.00    -0.237 OA
ATOM     75  O   UNL A   1      37.941  35.248  41.114  1.00  0.00    -0.237 OA
ATOM     76  O   UNL A   1      36.862  33.288  40.082  1.00  0.00    -0.744 OA
ENDBRANCH  70  73
ENDBRANCH  52  66
BRANCH  53  77
ATOM     77  C   UNL A   1      40.660  27.642  28.995  1.00  0.00     0.023 A 
ATOM     78  C   UNL A   1      39.754  26.575  28.856  1.00  0.00     0.012 A 
ATOM     79  C   UNL A   1      41.606  27.885  27.980  1.00  0.00     0.148 A 
ATOM     80  C   UNL A   1      39.791  25.760  27.724  1.00  0.00     0.002 A 
ATOM     81  C   UNL A   1      41.604  27.103  26.832  1.00  0.00     0.091 A 
ATOM     82  F   UNL A   1      42.463  28.902  28.143  1.00  0.00    -0.205 F 
ATOM     83  C   UNL A   1      40.703  26.032  26.707  1.00  0.00     0.022 A 
BRANCH  81  84
ATOM     84  S   UNL A   1      42.651  27.464  25.419  1.00  0.00     0.127 S 
ATOM     85  O   UNL A   1      42.513  26.244  24.627  1.00  0.00    -0.237 OA
ATOM     86  O   UNL A   1      41.997  28.645  24.854  1.00  0.00    -0.237 OA
ATOM     87  O   UNL A   1      43.977  27.716  25.966  1.00  0.00    -0.744 OA
ENDBRANCH  81  84
ENDBRANCH  53  77
BRANCH  65  88
ATOM     88  C   UNL A   1      44.092  28.360  35.045  1.00  0.00     0.023 A 
ATOM     89  C   UNL A   1      45.394  28.751  34.678  1.00  0.00     0.012 A 
ATOM     90  C   UNL A   1      43.909  27.408  36.067  1.00  0.00     0.148 A 
ATOM     91  C   UNL A   1      46.501  28.200  35.318  1.00  0.00     0.002 A 
ATOM     92  C   UNL A   1      45.017  26.887  36.721  1.00  0.00     0.091 A 
ATOM     93  F   UNL A   1      42.658  27.050  36.388  1.00  0.00    -0.205 F 
ATOM     94  C   UNL A   1      46.314  27.278  36.345  1.00  0.00     0.022 A 
BRANCH  92  95
ATOM     95  S   UNL A   1      44.878  25.751  38.105  1.00  0.00     0.127 S 
ATOM     96  O   UNL A   1      44.469  24.516  37.438  1.00  0.00    -0.237 OA
ATOM     97  O   UNL A   1      46.242  25.738  38.633  1.00  0.00    -0.237 OA
ATOM     98  O   UNL A   1      43.884  26.327  39.003  1.00  0.00    -0.744 OA
ENDBRANCH  92  95
ENDBRANCH  65  88
ENDBRANCH  39  40
ENDBRANCH  31  34
ENDBRANCH  29  30
ENDBRANCH  28  29
ENDBRANCH   1  28
TORSDOF 19
ENDMDL
MODEL 2
REMARK VINA RESULT:     -11.8      1.582      2.031
REMARK SMILES CCC(CC)COc1cc2c(cc1Cl)C=C(C(=O)NCCCNC(=O)c1ccc(-c3c4nc(c(-c5cccc(S(=O)(=O)[O-])c5F)c5ccc([nH]5)c(-c5cccc(S(=O)(=O)[O-])c5F)c5nc(c(-c6cccc(S(=O)(=O)[O-])c6F)c6ccc3[nH]6)C=C5)C=C4)cc1)[C@@H](C(F)(F)F)O2
REMARK SMILES IDX 20 1 19 2 17 3 18 4 16 6 8 7 9 8 13 9 10 10 12 11 14 12
REMARK SMILES IDX 11 13 94 14 15 15 89 16 7 17 6 18 3 19 2 20 1 21 4 22 5 23
REMARK SMILES IDX 90 24 91 25 92 26 93 27 21 28 22 29 23 30 24 31 25 33 26 34
REMARK SMILES IDX 27 35 88 36 28 37 87 38 29 39 30 40 31 41 81 42 32 43 86 44
REMARK SMILES IDX 80 45 82 46 33 47 85 48 79 49 78 50 34 52 66 53 46 54 65 55
REMARK SMILES IDX 47 56 50 57 64 58 83 59 48 60 49 61 63 63 84 64 51 65 35 66
REMARK SMILES IDX 36 67 44 68 37 69 39 70 45 71 38 72 40 73 41 74 42 75 43 76
REMARK SMILES IDX 67 77 68 78 76 79 69 80 71 81 77 82 70 83 72 84 73 85 74 86
REMARK SMILES IDX 75 87 52 88 53 89 61 90 54 91 56 92 62 93 55 94 57 95 58 96
REMARK SMILES IDX 59 97 60 98
REMARK H PARENT 19 5 23 32 82 51 50 62
REMARK Flexibility Score: inf
ROOT
ATOM      1  C   UNL A   1      31.181  30.090  25.259  1.00  0.00     0.118 C 
ENDROOT
BRANCH   1   2
ATOM      2  N   UNL A   1      30.498  29.990  23.981  1.00  0.00    -0.352 N 
ATOM      3  C   UNL A   1      30.278  29.026  23.062  1.00  0.00     0.251 C 
ATOM      4  O   UNL A   1      29.613  29.368  22.079  1.00  0.00    -0.270 OA
ATOM      5  H   UNL A   1      30.090  30.847  23.716  1.00  0.00     0.163 HD
BRANCH   3   6
ATOM      6  C   UNL A   1      30.762  27.628  23.172  1.00  0.00     0.067 C 
ATOM      7  C   UNL A   1      31.440  22.879  24.553  1.00  0.00     0.141 A 
ATOM      8  C   UNL A   1      31.430  23.506  23.306  1.00  0.00     0.095 A 
ATOM      9  C   UNL A   1      31.280  23.636  25.725  1.00  0.00     0.083 A 
ATOM     10  C   UNL A   1      31.155  24.867  23.247  1.00  0.00     0.131 A 
ATOM     11  C   UNL A   1      30.875  24.966  25.643  1.00  0.00     0.036 A 
ATOM     12  Cl  UNL A   1      31.550  22.971  27.293  1.00  0.00    -0.080 Cl
ATOM     13  C   UNL A   1      30.784  25.576  24.397  1.00  0.00     0.019 A 
ATOM     14  O   UNL A   1      31.292  25.508  22.039  1.00  0.00    -0.475 OA
ATOM     15  C   UNL A   1      30.339  26.954  24.256  1.00  0.00     0.025 C 
ATOM     16  C   UNL A   1      31.655  26.921  22.190  1.00  0.00     0.314 C 
BRANCH   7  17
ATOM     17  O   UNL A   1      31.635  21.525  24.624  1.00  0.00    -0.492 OA
BRANCH  17  18
ATOM     18  C   UNL A   1      32.456  21.031  23.538  1.00  0.00     0.233 C 
BRANCH  18  19
ATOM     19  C   UNL A   1      33.515  20.015  24.036  1.00  0.00     0.026 C 
BRANCH  19  20
ATOM     20  C   UNL A   1      34.226  20.521  25.314  1.00  0.00     0.003 C 
ATOM     21  C   UNL A   1      35.731  20.658  25.137  1.00  0.00     0.004 C 
ENDBRANCH  19  20
BRANCH  19  22
ATOM     22  C   UNL A   1      32.928  18.599  24.214  1.00  0.00     0.003 C 
ATOM     23  C   UNL A   1      32.686  18.161  25.650  1.00  0.00     0.004 C 
ENDBRANCH  19  22
ENDBRANCH  18  19
ENDBRANCH  17  18
ENDBRANCH   7  17
BRANCH  16  24
ATOM     24  C   UNL A   1      33.155  27.078  22.557  1.00  0.00     0.429 C 
ATOM     25  F   UNL A   1      33.299  27.352  23.876  1.00  0.00    -0.167 F 
ATOM     26  F   UNL A   1      33.862  25.946  22.316  1.00  0.00    -0.167 F 
ATOM     27  F   UNL A   1      33.780  28.062  21.872  1.00  0.00    -0.167 F 
ENDBRANCH  16  24
ENDBRANCH   3   6
ENDBRANCH   1   2
BRANCH   1  28
ATOM     28  C   UNL A   1      31.093  31.498  25.823  1.00  0.00     0.042 C 
BRANCH  28  29
ATOM     29  C   UNL A   1      32.231  31.802  26.787  1.00  0.00     0.118 C 
BRANCH  29  30
ATOM     30  N   UNL A   1      32.267  33.212  27.162  1.00  0.00    -0.352 N 
ATOM     31  C   UNL A   1      33.134  33.884  27.998  1.00  0.00     0.251 C 
ATOM     32  H   UNL A   1      31.566  33.770  26.754  1.00  0.00     0.163 HD
ATOM     33  O   UNL A   1      32.862  35.013  28.374  1.00  0.00    -0.269 OA
BRANCH  31  34
ATOM     34  C   UNL A   1      34.371  33.210  28.448  1.00  0.00     0.039 A 
ATOM     35  C   UNL A   1      34.313  31.910  28.946  1.00  0.00     0.014 A 
ATOM     36  C   UNL A   1      35.590  33.891  28.399  1.00  0.00     0.014 A 
ATOM     37  C   UNL A   1      35.416  31.376  29.594  1.00  0.00     0.010 A 
ATOM     38  C   UNL A   1      36.733  33.297  28.945  1.00  0.00     0.010 A 
ATOM     39  C   UNL A   1      36.643  32.059  29.599  1.00  0.00    -0.014 A 
BRANCH  39  40
ATOM     40  C   UNL A   1      37.806  31.440  30.285  1.00  0.00     0.031 A 
ATOM     41  C   UNL A   1      38.090  31.717  31.737  1.00  0.00     0.074 A 
ATOM     42  C   UNL A   1      38.576  30.569  29.601  1.00  0.00     0.049 A 
ATOM     43  N   UNL A   1      39.058  31.249  32.483  1.00  0.00    -0.248 NA
ATOM     44  C   UNL A   1      37.184  32.635  32.449  1.00  0.00     0.031 C 
ATOM     45  C   UNL A   1      38.411  30.236  28.183  1.00  0.00     0.029 A 
ATOM     46  N   UNL A   1      39.633  29.793  30.001  1.00  0.00    -0.354 N 
ATOM     47  C   UNL A   1      38.906  31.846  33.729  1.00  0.00     0.074 A 
ATOM     48  C   UNL A   1      37.752  32.712  33.646  1.00  0.00     0.031 C 
ATOM     49  C   UNL A   1      39.299  29.291  27.845  1.00  0.00     0.029 A 
ATOM     50  C   UNL A   1      40.140  28.999  28.999  1.00  0.00     0.049 A 
ATOM     51  H   UNL A   1      39.993  29.802  30.917  1.00  0.00     0.167 HD
ATOM     52  C   UNL A   1      39.651  31.671  34.845  1.00  0.00     0.034 A 
ATOM     53  C   UNL A   1      41.181  28.144  28.996  1.00  0.00     0.034 A 
ATOM     54  C   UNL A   1      40.759  30.762  34.945  1.00  0.00     0.049 A 
ATOM     55  C   UNL A   1      41.965  27.947  30.257  1.00  0.00     0.074 A 
ATOM     56  C   UNL A   1      41.553  30.497  36.047  1.00  0.00     0.029 A 
ATOM     57  N   UNL A   1      41.221  29.958  33.915  1.00  0.00    -0.354 N 
ATOM     58  N   UNL A   1      41.769  28.485  31.435  1.00  0.00    -0.248 NA
ATOM     59  C   UNL A   1      43.105  27.021  30.197  1.00  0.00     0.031 C 
ATOM     60  C   UNL A   1      42.493  29.530  35.686  1.00  0.00     0.029 A 
ATOM     61  C   UNL A   1      42.283  29.190  34.360  1.00  0.00     0.049 A 
ATOM     62  H   UNL A   1      40.850  29.937  33.004  1.00  0.00     0.167 HD
ATOM     63  C   UNL A   1      42.758  27.964  32.259  1.00  0.00     0.074 A 
ATOM     64  C   UNL A   1      43.534  27.044  31.453  1.00  0.00     0.031 C 
ATOM     65  C   UNL A   1      43.011  28.245  33.559  1.00  0.00     0.034 A 
BRANCH  52  66
ATOM     66  C   UNL A   1      39.270  32.428  36.087  1.00  0.00     0.023 A 
ATOM     67  C   UNL A   1      39.737  33.745  36.255  1.00  0.00     0.012 A 
ATOM     68  C   UNL A   1      38.349  31.892  37.009  1.00  0.00     0.148 A 
ATOM     69  C   UNL A   1      39.292  34.523  37.323  1.00  0.00     0.002 A 
ATOM     70  C   UNL A   1      37.889  32.682  38.055  1.00  0.00     0.091 A 
ATOM     71  F   UNL A   1      37.925  30.633  36.827  1.00  0.00    -0.205 F 
ATOM     72  C   UNL A   1      38.361  33.995  38.215  1.00  0.00     0.022 A 
BRANCH  70  73
ATOM     73  S   UNL A   1      36.649  32.124  39.230  1.00  0.00     0.127 S 
ATOM     74  O   UNL A   1      37.228  32.562  40.500  1.00  0.00    -0.237 OA
ATOM     75  O   UNL A   1      35.468  32.875  38.806  1.00  0.00    -0.237 OA
ATOM     76  O   UNL A   1      36.556  30.680  39.064  1.00  0.00    -0.744 OA
ENDBRANCH  70  73
ENDBRANCH  52  66
BRANCH  53  77
ATOM     77  C   UNL A   1      41.509  27.408  27.747  1.00  0.00     0.023 A 
ATOM     78  C   UNL A   1      42.132  28.085  26.683  1.00  0.00     0.012 A 
ATOM     79  C   UNL A   1      41.288  26.020  27.650  1.00  0.00     0.148 A 
ATOM     80  C   UNL A   1      42.529  27.391  25.540  1.00  0.00     0.002 A 
ATOM     81  C   UNL A   1      41.731  25.327  26.531  1.00  0.00     0.091 A 
ATOM     82  F   UNL A   1      40.683  25.402  28.673  1.00  0.00    -0.205 F 
ATOM     83  C   UNL A   1      42.342  26.013  25.469  1.00  0.00     0.022 A 
BRANCH  81  84
ATOM     84  S   UNL A   1      41.653  23.537  26.415  1.00  0.00     0.127 S 
ATOM     85  O   UNL A   1      42.388  23.286  25.177  1.00  0.00    -0.237 OA
ATOM     86  O   UNL A   1      42.344  23.125  27.637  1.00  0.00    -0.237 OA
ATOM     87  O   UNL A   1      40.235  23.205  26.386  1.00  0.00    -0.744 OA
ENDBRANCH  81  84
ENDBRANCH  53  77
BRANCH  65  88
ATOM     88  C   UNL A   1      44.173  27.554  34.210  1.00  0.00     0.023 A 
ATOM     89  C   UNL A   1      45.450  28.144  34.140  1.00  0.00     0.012 A 
ATOM     90  C   UNL A   1      43.978  26.401  34.995  1.00  0.00     0.148 A 
ATOM     91  C   UNL A   1      46.520  27.592  34.839  1.00  0.00     0.002 A 
ATOM     92  C   UNL A   1      45.042  25.875  35.714  1.00  0.00     0.091 A 
ATOM     93  F   UNL A   1      42.752  25.858  35.035  1.00  0.00    -0.205 F 
ATOM     94  C   UNL A   1      46.315  26.467  35.634  1.00  0.00     0.022 A 
BRANCH  92  95
ATOM     95  S   UNL A   1      44.862  24.474  36.823  1.00  0.00     0.127 S 
ATOM     96  O   UNL A   1      43.932  25.002  37.821  1.00  0.00    -0.237 OA
ATOM     97  O   UNL A   1      44.298  23.453  35.941  1.00  0.00    -0.237 OA
ATOM     98  O   UNL A   1      46.200  24.177  37.321  1.00  0.00    -0.744 OA
ENDBRANCH  92  95
ENDBRANCH  65  88
ENDBRANCH  39  40
ENDBRANCH  31  34
ENDBRANCH  29  30
ENDBRANCH  28  29
ENDBRANCH   1  28
TORSDOF 19
ENDMDL
MODEL 3
REMARK VINA RESULT:     -11.8      5.764     10.855
REMARK SMILES CCC(CC)COc1cc2c(cc1Cl)C=C(C(=O)NCCCNC(=O)c1ccc(-c3c4nc(c(-c5cccc(S(=O)(=O)[O-])c5F)c5ccc([nH]5)c(-c5cccc(S(=O)(=O)[O-])c5F)c5nc(c(-c6cccc(S(=O)(=O)[O-])c6F)c6ccc3[nH]6)C=C5)C=C4)cc1)[C@@H](C(F)(F)F)O2
REMARK SMILES IDX 20 1 19 2 17 3 18 4 16 6 8 7 9 8 13 9 10 10 12 11 14 12
REMARK SMILES IDX 11 13 94 14 15 15 89 16 7 17 6 18 3 19 2 20 1 21 4 22 5 23
REMARK SMILES IDX 90 24 91 25 92 26 93 27 21 28 22 29 23 30 24 31 25 33 26 34
REMARK SMILES IDX 27 35 88 36 28 37 87 38 29 39 30 40 31 41 81 42 32 43 86 44
REMARK SMILES IDX 80 45 82 46 33 47 85 48 79 49 78 50 34 52 66 53 46 54 65 55
REMARK SMILES IDX 47 56 50 57 64 58 83 59 48 60 49 61 63 63 84 64 51 65 35 66
REMARK SMILES IDX 36 67 44 68 37 69 39 70 45 71 38 72 40 73 41 74 42 75 43 76
REMARK SMILES IDX 67 77 68 78 76 79 69 80 71 81 77 82 70 83 72 84 73 85 74 86
REMARK SMILES IDX 75 87 52 88 53 89 61 90 54 91 56 92 62 93 55 94 57 95 58 96
REMARK SMILES IDX 59 97 60 98
REMARK H PARENT 19 5 23 32 82 51 50 62
REMARK Flexibility Score: inf
ROOT
ATOM      1  C   UNL A   1      35.520  20.217  24.733  1.00  0.00     0.118 C 
ENDROOT
BRANCH   1   2
ATOM      2  N   UNL A   1      34.270  19.573  25.096  1.00  0.00    -0.352 N 
ATOM      3  C   UNL A   1      32.978  19.945  25.222  1.00  0.00     0.251 C 
ATOM      4  O   UNL A   1      32.196  19.050  25.556  1.00  0.00    -0.270 OA
ATOM      5  H   UNL A   1      34.397  18.619  25.305  1.00  0.00     0.163 HD
BRANCH   3   6
ATOM      6  C   UNL A   1      32.466  21.315  24.974  1.00  0.00     0.067 C 
ATOM      7  C   UNL A   1      31.196  25.655  22.860  1.00  0.00     0.141 A 
ATOM      8  C   UNL A   1      30.562  24.844  23.802  1.00  0.00     0.095 A 
ATOM      9  C   UNL A   1      32.464  25.306  22.367  1.00  0.00     0.083 A 
ATOM     10  C   UNL A   1      31.162  23.642  24.158  1.00  0.00     0.131 A 
ATOM     11  C   UNL A   1      32.987  24.042  22.630  1.00  0.00     0.036 A 
ATOM     12  Cl  UNL A   1      33.412  26.389  21.417  1.00  0.00    -0.080 Cl
ATOM     13  C   UNL A   1      32.318  23.196  23.506  1.00  0.00     0.019 A 
ATOM     14  O   UNL A   1      30.613  22.920  25.191  1.00  0.00    -0.475 OA
ATOM     15  C   UNL A   1      32.808  21.855  23.791  1.00  0.00     0.025 C 
ATOM     16  C   UNL A   1      31.609  22.121  25.912  1.00  0.00     0.314 C 
BRANCH   7  17
ATOM     17  O   UNL A   1      30.583  26.807  22.442  1.00  0.00    -0.492 OA
BRANCH  17  18
ATOM     18  C   UNL A   1      30.670  27.864  23.428  1.00  0.00     0.233 C 
BRANCH  18  19
ATOM     19  C   UNL A   1      29.338  28.649  23.544  1.00  0.00     0.026 C 
BRANCH  19  20
ATOM     20  C   UNL A   1      29.298  29.844  22.562  1.00  0.00     0.003 C 
ATOM     21  C   UNL A   1      29.140  31.183  23.267  1.00  0.00     0.004 C 
ENDBRANCH  19  20
BRANCH  19  22
ATOM     22  C   UNL A   1      28.105  27.732  23.403  1.00  0.00     0.003 C 
ATOM     23  C   UNL A   1      26.761  28.439  23.339  1.00  0.00     0.004 C 
ENDBRANCH  19  22
ENDBRANCH  18  19
ENDBRANCH  17  18
ENDBRANCH   7  17
BRANCH  16  24
ATOM     24  C   UNL A   1      32.465  23.010  26.854  1.00  0.00     0.429 C 
ATOM     25  F   UNL A   1      33.569  23.464  26.213  1.00  0.00    -0.167 F 
ATOM     26  F   UNL A   1      31.786  24.105  27.280  1.00  0.00    -0.167 F 
ATOM     27  F   UNL A   1      32.881  22.371  27.970  1.00  0.00    -0.167 F 
ENDBRANCH  16  24
ENDBRANCH   3   6
ENDBRANCH   1   2
BRANCH   1  28
ATOM     28  C   UNL A   1      35.882  21.316  25.716  1.00  0.00     0.042 C 
BRANCH  28  29
ATOM     29  C   UNL A   1      37.295  21.837  25.503  1.00  0.00     0.118 C 
BRANCH  29  30
ATOM     30  N   UNL A   1      38.302  20.821  25.791  1.00  0.00    -0.352 N 
ATOM     31  C   UNL A   1      39.583  20.958  26.283  1.00  0.00     0.251 C 
ATOM     32  H   UNL A   1      38.023  19.895  25.609  1.00  0.00     0.163 HD
ATOM     33  O   UNL A   1      40.357  20.015  26.234  1.00  0.00    -0.269 OA
BRANCH  31  34
ATOM     34  C   UNL A   1      40.008  22.261  26.838  1.00  0.00     0.039 A 
ATOM     35  C   UNL A   1      39.452  23.441  26.346  1.00  0.00     0.014 A 
ATOM     36  C   UNL A   1      40.986  22.307  27.834  1.00  0.00     0.014 A 
ATOM     37  C   UNL A   1      40.023  24.659  26.682  1.00  0.00     0.010 A 
ATOM     38  C   UNL A   1      41.476  23.545  28.263  1.00  0.00     0.010 A 
ATOM     39  C   UNL A   1      41.040  24.729  27.649  1.00  0.00    -0.014 A 
BRANCH  39  40
ATOM     40  C   UNL A   1      41.609  26.057  27.997  1.00  0.00     0.031 A 
ATOM     41  C   UNL A   1      42.991  26.452  27.552  1.00  0.00     0.074 A 
ATOM     42  C   UNL A   1      40.839  26.936  28.671  1.00  0.00     0.049 A 
ATOM     43  N   UNL A   1      43.628  27.575  27.765  1.00  0.00    -0.248 NA
ATOM     44  C   UNL A   1      43.765  25.470  26.772  1.00  0.00     0.031 C 
ATOM     45  C   UNL A   1      39.490  26.660  29.173  1.00  0.00     0.029 A 
ATOM     46  N   UNL A   1      41.066  28.239  29.032  1.00  0.00    -0.354 N 
ATOM     47  C   UNL A   1      44.884  27.420  27.192  1.00  0.00     0.074 A 
ATOM     48  C   UNL A   1      44.927  26.093  26.617  1.00  0.00     0.031 C 
ATOM     49  C   UNL A   1      38.992  27.771  29.733  1.00  0.00     0.029 A 
ATOM     50  C   UNL A   1      40.007  28.817  29.692  1.00  0.00     0.049 A 
ATOM     51  H   UNL A   1      41.906  28.715  28.839  1.00  0.00     0.167 HD
ATOM     52  C   UNL A   1      45.901  28.310  27.133  1.00  0.00     0.034 A 
ATOM     53  C   UNL A   1      39.867  30.045  30.226  1.00  0.00     0.034 A 
ATOM     54  C   UNL A   1      45.835  29.650  27.649  1.00  0.00     0.049 A 
ATOM     55  C   UNL A   1      40.998  31.020  30.116  1.00  0.00     0.074 A 
ATOM     56  C   UNL A   1      46.809  30.632  27.607  1.00  0.00     0.029 A 
ATOM     57  N   UNL A   1      44.734  30.202  28.284  1.00  0.00    -0.354 N 
ATOM     58  N   UNL A   1      42.157  30.866  29.524  1.00  0.00    -0.248 NA
ATOM     59  C   UNL A   1      40.807  32.340  30.735  1.00  0.00     0.031 C 
ATOM     60  C   UNL A   1      46.296  31.781  28.213  1.00  0.00     0.029 A 
ATOM     61  C   UNL A   1      45.002  31.514  28.629  1.00  0.00     0.049 A 
ATOM     62  H   UNL A   1      43.889  29.730  28.463  1.00  0.00     0.167 HD
ATOM     63  C   UNL A   1      42.833  32.065  29.695  1.00  0.00     0.074 A 
ATOM     64  C   UNL A   1      41.944  32.950  30.421  1.00  0.00     0.031 C 
ATOM     65  C   UNL A   1      44.088  32.394  29.307  1.00  0.00     0.034 A 
BRANCH  52  66
ATOM     66  C   UNL A   1      47.170  27.905  26.435  1.00  0.00     0.023 A 
ATOM     67  C   UNL A   1      48.190  27.280  27.178  1.00  0.00     0.012 A 
ATOM     68  C   UNL A   1      47.295  28.015  25.036  1.00  0.00     0.148 A 
ATOM     69  C   UNL A   1      49.318  26.767  26.540  1.00  0.00     0.002 A 
ATOM     70  C   UNL A   1      48.408  27.478  24.403  1.00  0.00     0.091 A 
ATOM     71  F   UNL A   1      46.310  28.620  24.355  1.00  0.00    -0.205 F 
ATOM     72  C   UNL A   1      49.422  26.857  25.153  1.00  0.00     0.022 A 
BRANCH  70  73
ATOM     73  S   UNL A   1      48.619  27.488  22.619  1.00  0.00     0.127 S 
ATOM     74  O   UNL A   1      47.459  28.269  22.189  1.00  0.00    -0.237 OA
ATOM     75  O   UNL A   1      49.904  28.170  22.468  1.00  0.00    -0.237 OA
ATOM     76  O   UNL A   1      48.608  26.093  22.203  1.00  0.00    -0.744 OA
ENDBRANCH  70  73
ENDBRANCH  52  66
BRANCH  53  77
ATOM     77  C   UNL A   1      38.587  30.403  30.893  1.00  0.00     0.023 A 
ATOM     78  C   UNL A   1      38.418  30.133  32.263  1.00  0.00     0.012 A 
ATOM     79  C   UNL A   1      37.578  31.094  30.193  1.00  0.00     0.148 A 
ATOM     80  C   UNL A   1      37.261  30.543  32.926  1.00  0.00     0.002 A 
ATOM     81  C   UNL A   1      36.453  31.544  30.870  1.00  0.00     0.091 A 
ATOM     82  F   UNL A   1      37.762  31.329  28.886  1.00  0.00    -0.205 F 
ATOM     83  C   UNL A   1      36.286  31.260  32.235  1.00  0.00     0.022 A 
BRANCH  81  84
ATOM     84  S   UNL A   1      35.215  32.586  30.092  1.00  0.00     0.127 S 
ATOM     85  O   UNL A   1      34.275  32.802  31.188  1.00  0.00    -0.237 OA
ATOM     86  O   UNL A   1      36.004  33.760  29.715  1.00  0.00    -0.237 OA
ATOM     87  O   UNL A   1      34.706  31.819  28.963  1.00  0.00    -0.744 OA
ENDBRANCH  81  84
ENDBRANCH  53  77
BRANCH  65  88
ATOM     88  C   UNL A   1      44.591  33.766  29.648  1.00  0.00     0.023 A 
ATOM     89  C   UNL A   1      45.293  33.959  30.853  1.00  0.00     0.012 A 
ATOM     90  C   UNL A   1      44.483  34.823  28.724  1.00  0.00     0.148 A 
ATOM     91  C   UNL A   1      45.878  35.190  31.137  1.00  0.00     0.002 A 
ATOM     92  C   UNL A   1      45.096  36.037  29.000  1.00  0.00     0.091 A 
ATOM     93  F   UNL A   1      43.801  34.610  27.589  1.00  0.00    -0.205 F 
ATOM     94  C   UNL A   1      45.790  36.224  30.207  1.00  0.00     0.022 A 
BRANCH  92  95
ATOM     95  S   UNL A   1      45.102  37.404  27.835  1.00  0.00     0.127 S 
ATOM     96  O   UNL A   1      43.673  37.681  27.692  1.00  0.00    -0.237 OA
ATOM     97  O   UNL A   1      45.853  38.427  28.563  1.00  0.00    -0.237 OA
ATOM     98  O   UNL A   1      45.759  36.908  26.632  1.00  0.00    -0.744 OA
ENDBRANCH  92  95
ENDBRANCH  65  88
ENDBRANCH  39  40
ENDBRANCH  31  34
ENDBRANCH  29  30
ENDBRANCH  28  29
ENDBRANCH   1  28
TORSDOF 19
ENDMDL
