MODEL 1
REMARK VINA RESULT:     -11.3      0.000      0.000
REMARK SMILES CO[C@@H]1C[C@H](C(=O)NCCCNC(=O)c2ccc(-c3c4nc(c(-c5cccc(S(=O)(=O)[O-])c5F)c5ccc([nH]5)c(-c5cccc(S(=O)(=O)[O-])c5F)c5nc(c(-c6cccc(S(=O)(=O)[O-])c6F)c6ccc3[nH]6)C=C5)C=C4)cc2)N(C(=O)c2ccc([N+](=O)[O-])s2)C1
REMARK SMILES IDX 10 1 9 2 8 3 6 4 7 5 5 7 3 8 4 9 89 10 78 11 2 12 1 13 79 14
REMARK SMILES IDX 80 15 81 16 82 17 88 18 83 19 84 20 85 21 86 22 87 23 11 24
REMARK SMILES IDX 12 25 13 26 14 28 15 29 16 30 77 31 17 32 76 33 18 34 19 35
REMARK SMILES IDX 20 36 70 37 21 38 75 39 69 40 71 41 22 42 74 43 68 44 67 45
REMARK SMILES IDX 23 47 55 48 35 49 54 50 36 51 39 52 53 53 72 54 37 55 38 56
REMARK SMILES IDX 52 58 73 59 40 60 24 61 25 62 33 63 26 64 28 65 34 66 27 67
REMARK SMILES IDX 29 68 30 69 31 70 32 71 56 72 57 73 65 74 58 75 60 76 66 77
REMARK SMILES IDX 59 78 61 79 62 80 63 81 64 82 41 83 42 84 50 85 43 86 45 87
REMARK SMILES IDX 51 88 44 89 46 90 47 91 48 92 49 93
REMARK H PARENT 8 6 12 27 71 46 39 57
REMARK Flexibility Score: inf
ROOT
ATOM      1  C   UNL A   1      33.076  28.030  26.957  1.00  0.00     0.042 C 
ENDROOT
BRANCH   1   2
ATOM      2  C   UNL A   1      31.708  27.672  26.367  1.00  0.00     0.117 C 
BRANCH   2   3
ATOM      3  N   UNL A   1      31.431  26.246  26.454  1.00  0.00    -0.354 N 
ATOM      4  C   UNL A   1      32.037  25.132  25.979  1.00  0.00     0.242 C 
ATOM      5  O   UNL A   1      31.421  24.073  26.178  1.00  0.00    -0.273 OA
ATOM      6  H   UNL A   1      30.620  26.046  26.976  1.00  0.00     0.163 HD
BRANCH   4   7
ATOM      7  C   UNL A   1      33.345  25.058  25.152  1.00  0.00     0.177 C 
ATOM      8  C   UNL A   1      34.478  22.954  25.396  1.00  0.00     0.139 C 
ATOM      9  C   UNL A   1      34.493  24.393  25.906  1.00  0.00     0.069 C 
ATOM     10  C   UNL A   1      34.027  23.100  23.931  1.00  0.00     0.152 C 
ATOM     11  N   UNL A   1      33.386  24.412  23.846  1.00  0.00    -0.323 N 
BRANCH   8  12
ATOM     12  O   UNL A   1      33.551  22.142  26.104  1.00  0.00    -0.380 OA
ATOM     13  C   UNL A   1      34.070  21.582  27.309  1.00  0.00     0.195 C 
ENDBRANCH   8  12
BRANCH  11  14
ATOM     14  C   UNL A   1      33.171  25.009  22.611  1.00  0.00     0.264 C 
ATOM     15  O   UNL A   1      33.467  24.433  21.567  1.00  0.00    -0.268 OA
BRANCH  14  16
ATOM     16  C   UNL A   1      32.727  26.396  22.633  1.00  0.00     0.099 A 
ATOM     17  C   UNL A   1      33.519  27.534  22.651  1.00  0.00     0.033 A 
ATOM     18  S   UNL A   1      31.065  26.792  22.555  1.00  0.00    -0.058 S 
ATOM     19  C   UNL A   1      32.751  28.732  22.695  1.00  0.00     0.099 A 
ATOM     20  C   UNL A   1      31.401  28.459  22.647  1.00  0.00     0.324 A 
BRANCH  20  21
ATOM     21  N   UNL A   1      30.340  29.432  22.661  1.00  0.00     0.074 N 
ATOM     22  O   UNL A   1      29.791  29.659  21.573  1.00  0.00    -0.258 OA
ATOM     23  O   UNL A   1      30.040  29.963  23.737  1.00  0.00    -0.258 OA
ENDBRANCH  20  21
ENDBRANCH  14  16
ENDBRANCH  11  14
ENDBRANCH   4   7
ENDBRANCH   2   3
ENDBRANCH   1   2
BRANCH   1  24
ATOM     24  C   UNL A   1      33.895  29.023  26.137  1.00  0.00     0.118 C 
BRANCH  24  25
ATOM     25  N   UNL A   1      33.816  30.379  26.656  1.00  0.00    -0.352 N 
ATOM     26  C   UNL A   1      34.564  31.010  27.623  1.00  0.00     0.251 C 
ATOM     27  H   UNL A   1      33.113  30.935  26.251  1.00  0.00     0.163 HD
ATOM     28  O   UNL A   1      34.185  32.104  28.040  1.00  0.00    -0.269 OA
BRANCH  26  29
ATOM     29  C   UNL A   1      35.801  30.406  28.184  1.00  0.00     0.039 A 
ATOM     30  C   UNL A   1      36.981  30.477  27.431  1.00  0.00     0.014 A 
ATOM     31  C   UNL A   1      35.807  29.708  29.394  1.00  0.00     0.014 A 
ATOM     32  C   UNL A   1      38.163  29.897  27.911  1.00  0.00     0.010 A 
ATOM     33  C   UNL A   1      37.003  29.196  29.906  1.00  0.00     0.010 A 
ATOM     34  C   UNL A   1      38.192  29.270  29.166  1.00  0.00    -0.014 A 
BRANCH  34  35
ATOM     35  C   UNL A   1      39.447  28.681  29.714  1.00  0.00     0.031 A 
ATOM     36  C   UNL A   1      40.105  29.277  30.934  1.00  0.00     0.074 A 
ATOM     37  C   UNL A   1      40.049  27.660  29.070  1.00  0.00     0.049 A 
ATOM     38  N   UNL A   1      41.233  28.946  31.510  1.00  0.00    -0.248 NA
ATOM     39  C   UNL A   1      39.419  30.411  31.574  1.00  0.00     0.031 C 
ATOM     40  C   UNL A   1      39.568  27.038  27.836  1.00  0.00     0.029 A 
ATOM     41  N   UNL A   1      41.213  26.985  29.348  1.00  0.00    -0.354 N 
ATOM     42  C   UNL A   1      41.417  29.857  32.543  1.00  0.00     0.074 A 
ATOM     43  C   UNL A   1      40.295  30.771  32.502  1.00  0.00     0.031 C 
ATOM     44  C   UNL A   1      40.427  26.075  27.464  1.00  0.00     0.029 A 
ATOM     45  C   UNL A   1      41.532  26.025  28.416  1.00  0.00     0.049 A 
ATOM     46  H   UNL A   1      41.768  27.172  30.140  1.00  0.00     0.167 HD
ATOM     47  C   UNL A   1      42.408  29.914  33.465  1.00  0.00     0.034 A 
ATOM     48  C   UNL A   1      42.594  25.199  28.332  1.00  0.00     0.034 A 
ATOM     49  C   UNL A   1      43.484  28.964  33.557  1.00  0.00     0.049 A 
ATOM     50  C   UNL A   1      43.644  25.231  29.409  1.00  0.00     0.074 A 
ATOM     51  C   UNL A   1      44.473  28.875  34.522  1.00  0.00     0.029 A 
ATOM     52  N   UNL A   1      43.714  27.938  32.655  1.00  0.00    -0.354 N 
ATOM     53  N   UNL A   1      43.709  25.995  30.473  1.00  0.00    -0.248 NA
ATOM     54  C   UNL A   1      44.747  24.265  29.297  1.00  0.00     0.031 C 
ATOM     55  C   UNL A   1      45.305  27.796  34.198  1.00  0.00     0.029 A 
ATOM     56  C   UNL A   1      44.829  27.212  33.036  1.00  0.00     0.049 A 
ATOM     57  H   UNL A   1      43.163  27.752  31.859  1.00  0.00     0.167 HD
ATOM     58  C   UNL A   1      44.840  25.585  31.169  1.00  0.00     0.074 A 
ATOM     59  C   UNL A   1      45.417  24.489  30.419  1.00  0.00     0.031 C 
ATOM     60  C   UNL A   1      45.364  26.086  32.315  1.00  0.00     0.034 A 
BRANCH  47  61
ATOM     61  C   UNL A   1      42.337  31.005  34.503  1.00  0.00     0.023 A 
ATOM     62  C   UNL A   1      41.702  30.746  35.734  1.00  0.00     0.012 A 
ATOM     63  C   UNL A   1      42.939  32.260  34.287  1.00  0.00     0.148 A 
ATOM     64  C   UNL A   1      41.638  31.728  36.722  1.00  0.00     0.002 A 
ATOM     65  C   UNL A   1      42.906  33.221  35.292  1.00  0.00     0.091 A 
ATOM     66  F   UNL A   1      43.519  32.498  33.101  1.00  0.00    -0.205 F 
ATOM     67  C   UNL A   1      42.248  32.960  36.505  1.00  0.00     0.022 A 
BRANCH  65  68
ATOM     68  S   UNL A   1      43.729  34.811  35.132  1.00  0.00     0.127 S 
ATOM     69  O   UNL A   1      43.423  35.432  36.419  1.00  0.00    -0.237 OA
ATOM     70  O   UNL A   1      45.129  34.423  34.959  1.00  0.00    -0.237 OA
ATOM     71  O   UNL A   1      43.132  35.448  33.966  1.00  0.00    -0.744 OA
ENDBRANCH  65  68
ENDBRANCH  47  61
BRANCH  48  72
ATOM     72  C   UNL A   1      42.670  24.209  27.219  1.00  0.00     0.023 A 
ATOM     73  C   UNL A   1      43.421  24.525  26.070  1.00  0.00     0.012 A 
ATOM     74  C   UNL A   1      42.054  22.946  27.311  1.00  0.00     0.148 A 
ATOM     75  C   UNL A   1      43.536  23.611  25.022  1.00  0.00     0.002 A 
ATOM     76  C   UNL A   1      42.218  22.020  26.287  1.00  0.00     0.091 A 
ATOM     77  F   UNL A   1      41.331  22.670  28.406  1.00  0.00    -0.205 F 
ATOM     78  C   UNL A   1      42.946  22.356  25.135  1.00  0.00     0.022 A 
BRANCH  76  79
ATOM     79  S   UNL A   1      41.607  20.334  26.414  1.00  0.00     0.127 S 
ATOM     80  O   UNL A   1      42.266  19.690  25.282  1.00  0.00    -0.237 OA
ATOM     81  O   UNL A   1      42.103  19.927  27.729  1.00  0.00    -0.237 OA
ATOM     82  O   UNL A   1      40.156  20.438  26.331  1.00  0.00    -0.744 OA
ENDBRANCH  76  79
ENDBRANCH  48  72
BRANCH  60  83
ATOM     83  C   UNL A   1      46.619  25.447  32.849  1.00  0.00     0.023 A 
ATOM     84  C   UNL A   1      47.874  25.955  32.460  1.00  0.00     0.012 A 
ATOM     85  C   UNL A   1      46.558  24.403  33.793  1.00  0.00     0.148 A 
ATOM     86  C   UNL A   1      49.050  25.418  32.984  1.00  0.00     0.002 A 
ATOM     87  C   UNL A   1      47.731  23.900  34.341  1.00  0.00     0.091 A 
ATOM     88  F   UNL A   1      45.354  23.917  34.134  1.00  0.00    -0.205 F 
ATOM     89  C   UNL A   1      48.979  24.400  33.932  1.00  0.00     0.022 A 
BRANCH  87  90
ATOM     90  S   UNL A   1      47.726  22.650  35.632  1.00  0.00     0.127 S 
ATOM     91  O   UNL A   1      46.889  23.278  36.652  1.00  0.00    -0.237 OA
ATOM     92  O   UNL A   1      47.111  21.504  34.960  1.00  0.00    -0.237 OA
ATOM     93  O   UNL A   1      49.123  22.452  35.997  1.00  0.00    -0.744 OA
ENDBRANCH  87  90
ENDBRANCH  60  83
ENDBRANCH  34  35
ENDBRANCH  26  29
ENDBRANCH  24  25
ENDBRANCH   1  24
TORSDOF 17
ENDMDL
MODEL 2
REMARK VINA RESULT:     -11.2      3.641      8.506
REMARK SMILES CO[C@@H]1C[C@H](C(=O)NCCCNC(=O)c2ccc(-c3c4nc(c(-c5cccc(S(=O)(=O)[O-])c5F)c5ccc([nH]5)c(-c5cccc(S(=O)(=O)[O-])c5F)c5nc(c(-c6cccc(S(=O)(=O)[O-])c6F)c6ccc3[nH]6)C=C5)C=C4)cc2)N(C(=O)c2ccc([N+](=O)[O-])s2)C1
REMARK SMILES IDX 10 1 9 2 8 3 6 4 7 5 5 7 3 8 4 9 89 10 78 11 2 12 1 13 79 14
REMARK SMILES IDX 80 15 81 16 82 17 88 18 83 19 84 20 85 21 86 22 87 23 11 24
REMARK SMILES IDX 12 25 13 26 14 28 15 29 16 30 77 31 17 32 76 33 18 34 19 35
REMARK SMILES IDX 20 36 70 37 21 38 75 39 69 40 71 41 22 42 74 43 68 44 67 45
REMARK SMILES IDX 23 47 55 48 35 49 54 50 36 51 39 52 53 53 72 54 37 55 38 56
REMARK SMILES IDX 52 58 73 59 40 60 24 61 25 62 33 63 26 64 28 65 34 66 27 67
REMARK SMILES IDX 29 68 30 69 31 70 32 71 56 72 57 73 65 74 58 75 60 76 66 77
REMARK SMILES IDX 59 78 61 79 62 80 63 81 64 82 41 83 42 84 50 85 43 86 45 87
REMARK SMILES IDX 51 88 44 89 46 90 47 91 48 92 49 93
REMARK H PARENT 8 6 12 27 71 46 39 57
REMARK Flexibility Score: inf
ROOT
ATOM      1  C   UNL A   1      31.398  31.931  26.253  1.00  0.00     0.042 C 
ENDROOT
BRANCH   1   2
ATOM      2  C   UNL A   1      31.598  30.570  25.579  1.00  0.00     0.117 C 
BRANCH   2   3
ATOM      3  N   UNL A   1      31.384  29.466  26.503  1.00  0.00    -0.354 N 
ATOM      4  C   UNL A   1      31.794  28.175  26.549  1.00  0.00     0.242 C 
ATOM      5  O   UNL A   1      31.300  27.499  27.465  1.00  0.00    -0.273 OA
ATOM      6  H   UNL A   1      30.813  29.712  27.267  1.00  0.00     0.163 HD
BRANCH   4   7
ATOM      7  C   UNL A   1      32.724  27.453  25.543  1.00  0.00     0.177 C 
ATOM      8  C   UNL A   1      32.764  25.072  25.864  1.00  0.00     0.139 C 
ATOM      9  C   UNL A   1      33.551  26.341  26.184  1.00  0.00     0.069 C 
ATOM     10  C   UNL A   1      32.156  25.370  24.481  1.00  0.00     0.152 C 
ATOM     11  N   UNL A   1      32.201  26.824  24.336  1.00  0.00    -0.323 N 
BRANCH   8  12
ATOM     12  O   UNL A   1      31.725  24.833  26.803  1.00  0.00    -0.380 OA
ATOM     13  C   UNL A   1      30.553  24.249  26.238  1.00  0.00     0.195 C 
ENDBRANCH   8  12
BRANCH  11  14
ATOM     14  C   UNL A   1      32.052  27.409  23.086  1.00  0.00     0.264 C 
ATOM     15  O   UNL A   1      32.926  27.311  22.230  1.00  0.00    -0.268 OA
BRANCH  14  16
ATOM     16  C   UNL A   1      30.886  28.265  22.910  1.00  0.00     0.099 A 
ATOM     17  C   UNL A   1      30.798  29.423  22.152  1.00  0.00     0.033 A 
ATOM     18  S   UNL A   1      29.379  27.858  23.607  1.00  0.00    -0.058 S 
ATOM     19  C   UNL A   1      29.509  30.024  22.223  1.00  0.00     0.099 A 
ATOM     20  C   UNL A   1      28.648  29.264  22.986  1.00  0.00     0.324 A 
BRANCH  20  21
ATOM     21  N   UNL A   1      27.267  29.568  23.258  1.00  0.00     0.074 N 
ATOM     22  O   UNL A   1      27.003  30.757  23.486  1.00  0.00    -0.258 OA
ATOM     23  O   UNL A   1      26.444  28.644  23.238  1.00  0.00    -0.258 OA
ENDBRANCH  20  21
ENDBRANCH  14  16
ENDBRANCH  11  14
ENDBRANCH   4   7
ENDBRANCH   2   3
ENDBRANCH   1   2
BRANCH   1  24
ATOM     24  C   UNL A   1      32.533  32.369  27.176  1.00  0.00     0.118 C 
BRANCH  24  25
ATOM     25  N   UNL A   1      32.424  33.763  27.574  1.00  0.00    -0.352 N 
ATOM     26  C   UNL A   1      33.106  34.475  28.534  1.00  0.00     0.251 C 
ATOM     27  H   UNL A   1      31.753  34.283  27.075  1.00  0.00     0.163 HD
ATOM     28  O   UNL A   1      32.705  35.599  28.830  1.00  0.00    -0.269 OA
BRANCH  26  29
ATOM     29  C   UNL A   1      34.299  33.921  29.227  1.00  0.00     0.039 A 
ATOM     30  C   UNL A   1      34.102  33.003  30.267  1.00  0.00     0.014 A 
ATOM     31  C   UNL A   1      35.597  34.342  28.929  1.00  0.00     0.014 A 
ATOM     32  C   UNL A   1      35.197  32.477  30.965  1.00  0.00     0.010 A 
ATOM     33  C   UNL A   1      36.692  33.761  29.573  1.00  0.00     0.010 A 
ATOM     34  C   UNL A   1      36.508  32.833  30.609  1.00  0.00    -0.014 A 
BRANCH  34  35
ATOM     35  C   UNL A   1      37.689  32.256  31.311  1.00  0.00     0.031 A 
ATOM     36  C   UNL A   1      38.468  31.121  30.694  1.00  0.00     0.074 A 
ATOM     37  C   UNL A   1      38.019  32.691  32.544  1.00  0.00     0.049 A 
ATOM     38  N   UNL A   1      39.476  30.446  31.186  1.00  0.00    -0.248 NA
ATOM     39  C   UNL A   1      38.041  30.665  29.361  1.00  0.00     0.031 C 
ATOM     40  C   UNL A   1      37.306  33.726  33.294  1.00  0.00     0.029 A 
ATOM     41  N   UNL A   1      39.021  32.296  33.397  1.00  0.00    -0.354 N 
ATOM     42  C   UNL A   1      39.770  29.460  30.252  1.00  0.00     0.074 A 
ATOM     43  C   UNL A   1      38.818  29.608  29.172  1.00  0.00     0.031 C 
ATOM     44  C   UNL A   1      37.891  33.884  34.492  1.00  0.00     0.029 A 
ATOM     45  C   UNL A   1      39.005  32.948  34.609  1.00  0.00     0.049 A 
ATOM     46  H   UNL A   1      39.688  31.610  33.164  1.00  0.00     0.167 HD
ATOM     47  C   UNL A   1      40.760  28.534  30.269  1.00  0.00     0.034 A 
ATOM     48  C   UNL A   1      39.793  32.808  35.694  1.00  0.00     0.034 A 
ATOM     49  C   UNL A   1      41.754  28.432  31.303  1.00  0.00     0.049 A 
ATOM     50  C   UNL A   1      40.931  31.824  35.659  1.00  0.00     0.074 A 
ATOM     51  C   UNL A   1      42.859  27.599  31.354  1.00  0.00     0.029 A 
ATOM     52  N   UNL A   1      41.768  29.184  32.467  1.00  0.00    -0.354 N 
ATOM     53  N   UNL A   1      41.292  31.015  34.693  1.00  0.00    -0.248 NA
ATOM     54  C   UNL A   1      41.795  31.760  36.848  1.00  0.00     0.031 C 
ATOM     55  C   UNL A   1      43.538  27.846  32.554  1.00  0.00     0.029 A 
ATOM     56  C   UNL A   1      42.858  28.835  33.245  1.00  0.00     0.049 A 
ATOM     57  H   UNL A   1      41.100  29.867  32.705  1.00  0.00     0.167 HD
ATOM     58  C   UNL A   1      42.435  30.367  35.144  1.00  0.00     0.074 A 
ATOM     59  C   UNL A   1      42.723  30.895  36.461  1.00  0.00     0.031 C 
ATOM     60  C   UNL A   1      43.169  29.406  34.530  1.00  0.00     0.034 A 
BRANCH  47  61
ATOM     61  C   UNL A   1      40.864  27.599  29.092  1.00  0.00     0.023 A 
ATOM     62  C   UNL A   1      40.043  26.454  29.045  1.00  0.00     0.012 A 
ATOM     63  C   UNL A   1      41.726  27.875  28.013  1.00  0.00     0.148 A 
ATOM     64  C   UNL A   1      40.101  25.581  27.960  1.00  0.00     0.002 A 
ATOM     65  C   UNL A   1      41.750  27.021  26.915  1.00  0.00     0.091 A 
ATOM     66  F   UNL A   1      42.517  28.956  28.083  1.00  0.00    -0.205 F 
ATOM     67  C   UNL A   1      40.946  25.869  26.892  1.00  0.00     0.022 A 
BRANCH  65  68
ATOM     68  S   UNL A   1      42.751  27.350  25.460  1.00  0.00     0.127 S 
ATOM     69  O   UNL A   1      42.599  26.104  24.710  1.00  0.00    -0.237 OA
ATOM     70  O   UNL A   1      42.073  28.504  24.867  1.00  0.00    -0.237 OA
ATOM     71  O   UNL A   1      44.091  27.627  25.957  1.00  0.00    -0.744 OA
ENDBRANCH  65  68
ENDBRANCH  47  61
BRANCH  48  72
ATOM     72  C   UNL A   1      39.578  33.687  36.878  1.00  0.00     0.023 A 
ATOM     73  C   UNL A   1      39.946  35.044  36.802  1.00  0.00     0.012 A 
ATOM     74  C   UNL A   1      38.968  33.206  38.053  1.00  0.00     0.148 A 
ATOM     75  C   UNL A   1      39.733  35.901  37.883  1.00  0.00     0.002 A 
ATOM     76  C   UNL A   1      38.710  34.077  39.106  1.00  0.00     0.091 A 
ATOM     77  F   UNL A   1      38.639  31.907  38.113  1.00  0.00    -0.205 F 
ATOM     78  C   UNL A   1      39.105  35.422  39.028  1.00  0.00     0.022 A 
BRANCH  76  79
ATOM     79  S   UNL A   1      37.783  33.573  40.560  1.00  0.00     0.127 S 
ATOM     80  O   UNL A   1      36.547  33.067  39.969  1.00  0.00    -0.237 OA
ATOM     81  O   UNL A   1      38.653  32.549  41.139  1.00  0.00    -0.237 OA
ATOM     82  O   UNL A   1      37.652  34.773  41.375  1.00  0.00    -0.744 OA
ENDBRANCH  76  79
ENDBRANCH  48  72
BRANCH  60  83
ATOM     83  C   UNL A   1      44.370  28.866  35.262  1.00  0.00     0.023 A 
ATOM     84  C   UNL A   1      45.635  29.443  35.035  1.00  0.00     0.012 A 
ATOM     85  C   UNL A   1      44.236  27.850  36.228  1.00  0.00     0.148 A 
ATOM     86  C   UNL A   1      46.753  28.999  35.741  1.00  0.00     0.002 A 
ATOM     87  C   UNL A   1      45.346  27.441  36.957  1.00  0.00     0.091 A 
ATOM     88  F   UNL A   1      43.027  27.298  36.413  1.00  0.00    -0.205 F 
ATOM     89  C   UNL A   1      46.607  28.008  36.709  1.00  0.00     0.022 A 
BRANCH  87  90
ATOM     90  S   UNL A   1      45.230  26.234  38.282  1.00  0.00     0.127 S 
ATOM     91  O   UNL A   1      46.632  25.875  38.484  1.00  0.00    -0.237 OA
ATOM     92  O   UNL A   1      44.638  27.014  39.369  1.00  0.00    -0.237 OA
ATOM     93  O   UNL A   1      44.374  25.169  37.774  1.00  0.00    -0.744 OA
ENDBRANCH  87  90
ENDBRANCH  60  83
ENDBRANCH  34  35
ENDBRANCH  26  29
ENDBRANCH  24  25
ENDBRANCH   1  24
TORSDOF 17
ENDMDL
MODEL 3
REMARK VINA RESULT:     -11.1      1.505      2.207
REMARK SMILES CO[C@@H]1C[C@H](C(=O)NCCCNC(=O)c2ccc(-c3c4nc(c(-c5cccc(S(=O)(=O)[O-])c5F)c5ccc([nH]5)c(-c5cccc(S(=O)(=O)[O-])c5F)c5nc(c(-c6cccc(S(=O)(=O)[O-])c6F)c6ccc3[nH]6)C=C5)C=C4)cc2)N(C(=O)c2ccc([N+](=O)[O-])s2)C1
REMARK SMILES IDX 10 1 9 2 8 3 6 4 7 5 5 7 3 8 4 9 89 10 78 11 2 12 1 13 79 14
REMARK SMILES IDX 80 15 81 16 82 17 88 18 83 19 84 20 85 21 86 22 87 23 11 24
REMARK SMILES IDX 12 25 13 26 14 28 15 29 16 30 77 31 17 32 76 33 18 34 19 35
REMARK SMILES IDX 20 36 70 37 21 38 75 39 69 40 71 41 22 42 74 43 68 44 67 45
REMARK SMILES IDX 23 47 55 48 35 49 54 50 36 51 39 52 53 53 72 54 37 55 38 56
REMARK SMILES IDX 52 58 73 59 40 60 24 61 25 62 33 63 26 64 28 65 34 66 27 67
REMARK SMILES IDX 29 68 30 69 31 70 32 71 56 72 57 73 65 74 58 75 60 76 66 77
REMARK SMILES IDX 59 78 61 79 62 80 63 81 64 82 41 83 42 84 50 85 43 86 45 87
REMARK SMILES IDX 51 88 44 89 46 90 47 91 48 92 49 93
REMARK H PARENT 8 6 12 27 71 46 39 57
REMARK Flexibility Score: inf
ROOT
ATOM      1  C   UNL A   1      34.035  27.864  25.681  1.00  0.00     0.042 C 
ENDROOT
BRANCH   1   2
ATOM      2  C   UNL A   1      34.054  26.345  25.481  1.00  0.00     0.117 C 
BRANCH   2   3
ATOM      3  N   UNL A   1      34.121  25.980  24.073  1.00  0.00    -0.354 N 
ATOM      4  C   UNL A   1      33.284  25.347  23.217  1.00  0.00     0.242 C 
ATOM      5  O   UNL A   1      33.756  25.120  22.091  1.00  0.00    -0.273 OA
ATOM      6  H   UNL A   1      34.966  26.255  23.647  1.00  0.00     0.163 HD
BRANCH   4   7
ATOM      7  C   UNL A   1      31.864  24.808  23.524  1.00  0.00     0.177 C 
ATOM      8  C   UNL A   1      31.888  22.551  24.349  1.00  0.00     0.139 C 
ATOM      9  C   UNL A   1      31.663  23.363  23.075  1.00  0.00     0.069 C 
ATOM     10  C   UNL A   1      31.348  23.473  25.458  1.00  0.00     0.152 C 
ATOM     11  N   UNL A   1      31.322  24.814  24.876  1.00  0.00    -0.323 N 
BRANCH   8  12
ATOM     12  O   UNL A   1      33.265  22.282  24.578  1.00  0.00    -0.380 OA
ATOM     13  C   UNL A   1      33.548  21.761  25.875  1.00  0.00     0.195 C 
ENDBRANCH   8  12
BRANCH  11  14
ATOM     14  C   UNL A   1      30.577  25.823  25.474  1.00  0.00     0.264 C 
ATOM     15  O   UNL A   1      30.369  25.827  26.684  1.00  0.00    -0.268 OA
BRANCH  14  16
ATOM     16  C   UNL A   1      29.937  26.772  24.573  1.00  0.00     0.099 A 
ATOM     17  C   UNL A   1      28.702  26.647  23.957  1.00  0.00     0.033 A 
ATOM     18  S   UNL A   1      30.662  28.280  24.220  1.00  0.00    -0.058 S 
ATOM     19  C   UNL A   1      28.396  27.757  23.119  1.00  0.00     0.099 A 
ATOM     20  C   UNL A   1      29.387  28.713  23.179  1.00  0.00     0.324 A 
BRANCH  20  21
ATOM     21  N   UNL A   1      29.398  29.965  22.469  1.00  0.00     0.074 N 
ATOM     22  O   UNL A   1      29.189  30.981  23.147  1.00  0.00    -0.258 OA
ATOM     23  O   UNL A   1      29.621  29.953  21.252  1.00  0.00    -0.258 OA
ENDBRANCH  20  21
ENDBRANCH  14  16
ENDBRANCH  11  14
ENDBRANCH   4   7
ENDBRANCH   2   3
ENDBRANCH   1   2
BRANCH   1  24
ATOM     24  C   UNL A   1      33.439  28.334  27.005  1.00  0.00     0.118 C 
BRANCH  24  25
ATOM     25  N   UNL A   1      33.445  29.782  27.139  1.00  0.00    -0.352 N 
ATOM     26  C   UNL A   1      34.366  30.622  27.723  1.00  0.00     0.251 C 
ATOM     27  H   UNL A   1      32.665  30.235  26.747  1.00  0.00     0.163 HD
ATOM     28  O   UNL A   1      34.062  31.802  27.891  1.00  0.00    -0.269 OA
BRANCH  26  29
ATOM     29  C   UNL A   1      35.702  30.144  28.165  1.00  0.00     0.039 A 
ATOM     30  C   UNL A   1      35.839  29.652  29.470  1.00  0.00     0.014 A 
ATOM     31  C   UNL A   1      36.834  30.239  27.352  1.00  0.00     0.014 A 
ATOM     32  C   UNL A   1      37.086  29.217  29.936  1.00  0.00     0.010 A 
ATOM     33  C   UNL A   1      38.061  29.734  27.791  1.00  0.00     0.010 A 
ATOM     34  C   UNL A   1      38.208  29.230  29.092  1.00  0.00    -0.014 A 
BRANCH  34  35
ATOM     35  C   UNL A   1      39.536  28.735  29.552  1.00  0.00     0.031 A 
ATOM     36  C   UNL A   1      40.275  29.440  30.662  1.00  0.00     0.074 A 
ATOM     37  C   UNL A   1      40.124  27.699  28.919  1.00  0.00     0.049 A 
ATOM     38  N   UNL A   1      41.467  29.198  31.145  1.00  0.00    -0.248 NA
ATOM     39  C   UNL A   1      39.598  30.584  31.292  1.00  0.00     0.031 C 
ATOM     40  C   UNL A   1      39.560  26.974  27.780  1.00  0.00     0.029 A 
ATOM     41  N   UNL A   1      41.342  27.095  29.126  1.00  0.00    -0.354 N 
ATOM     42  C   UNL A   1      41.702  30.184  32.096  1.00  0.00     0.074 A 
ATOM     43  C   UNL A   1      40.538  31.044  32.106  1.00  0.00     0.031 C 
ATOM     44  C   UNL A   1      40.427  26.027  27.388  1.00  0.00     0.029 A 
ATOM     45  C   UNL A   1      41.618  26.089  28.229  1.00  0.00     0.049 A 
ATOM     46  H   UNL A   1      41.958  27.359  29.847  1.00  0.00     0.167 HD
ATOM     47  C   UNL A   1      42.772  30.346  32.912  1.00  0.00     0.034 A 
ATOM     48  C   UNL A   1      42.707  25.305  28.095  1.00  0.00     0.034 A 
ATOM     49  C   UNL A   1      43.897  29.452  32.960  1.00  0.00     0.049 A 
ATOM     50  C   UNL A   1      43.851  25.456  29.061  1.00  0.00     0.074 A 
ATOM     51  C   UNL A   1      44.976  29.471  33.828  1.00  0.00     0.029 A 
ATOM     52  N   UNL A   1      44.091  28.378  32.107  1.00  0.00    -0.354 N 
ATOM     53  N   UNL A   1      43.978  26.293  30.063  1.00  0.00    -0.248 NA
ATOM     54  C   UNL A   1      44.984  24.533  28.905  1.00  0.00     0.031 C 
ATOM     55  C   UNL A   1      45.825  28.410  33.494  1.00  0.00     0.029 A 
ATOM     56  C   UNL A   1      45.272  27.728  32.423  1.00  0.00     0.049 A 
ATOM     57  H   UNL A   1      43.479  28.114  31.382  1.00  0.00     0.167 HD
ATOM     58  C   UNL A   1      45.188  25.980  30.671  1.00  0.00     0.074 A 
ATOM     59  C   UNL A   1      45.745  24.861  29.940  1.00  0.00     0.031 C 
ATOM     60  C   UNL A   1      45.792  26.579  31.727  1.00  0.00     0.034 A 
BRANCH  47  61
ATOM     61  C   UNL A   1      42.744  31.501  33.880  1.00  0.00     0.023 A 
ATOM     62  C   UNL A   1      43.284  32.743  33.490  1.00  0.00     0.012 A 
ATOM     63  C   UNL A   1      42.141  31.378  35.148  1.00  0.00     0.148 A 
ATOM     64  C   UNL A   1      43.254  33.836  34.356  1.00  0.00     0.002 A 
ATOM     65  C   UNL A   1      42.080  32.483  35.991  1.00  0.00     0.091 A 
ATOM     66  F   UNL A   1      41.653  30.184  35.514  1.00  0.00    -0.205 F 
ATOM     67  C   UNL A   1      42.645  33.708  35.600  1.00  0.00     0.022 A 
BRANCH  65  68
ATOM     68  S   UNL A   1      41.248  32.435  37.583  1.00  0.00     0.127 S 
ATOM     69  O   UNL A   1      42.139  31.571  38.355  1.00  0.00    -0.237 OA
ATOM     70  O   UNL A   1      41.262  33.842  37.987  1.00  0.00    -0.237 OA
ATOM     71  O   UNL A   1      39.921  31.897  37.319  1.00  0.00    -0.744 OA
ENDBRANCH  65  68
ENDBRANCH  47  61
BRANCH  48  72
ATOM     72  C   UNL A   1      42.727  24.246  27.046  1.00  0.00     0.023 A 
ATOM     73  C   UNL A   1      43.431  24.480  25.849  1.00  0.00     0.012 A 
ATOM     74  C   UNL A   1      42.104  22.999  27.244  1.00  0.00     0.148 A 
ATOM     75  C   UNL A   1      43.494  23.500  24.857  1.00  0.00     0.002 A 
ATOM     76  C   UNL A   1      42.216  22.008  26.275  1.00  0.00     0.091 A 
ATOM     77  F   UNL A   1      41.426  22.801  28.384  1.00  0.00    -0.205 F 
ATOM     78  C   UNL A   1      42.898  22.262  25.075  1.00  0.00     0.022 A 
BRANCH  76  79
ATOM     79  S   UNL A   1      41.596  20.341  26.535  1.00  0.00     0.127 S 
ATOM     80  O   UNL A   1      42.151  19.631  25.385  1.00  0.00    -0.237 OA
ATOM     81  O   UNL A   1      42.194  19.989  27.823  1.00  0.00    -0.237 OA
ATOM     82  O   UNL A   1      40.145  20.465  26.565  1.00  0.00    -0.744 OA
ENDBRANCH  76  79
ENDBRANCH  48  72
BRANCH  60  83
ATOM     83  C   UNL A   1      47.121  26.033  32.176  1.00  0.00     0.023 A 
ATOM     84  C   UNL A   1      48.306  26.524  31.592  1.00  0.00     0.012 A 
ATOM     85  C   UNL A   1      47.205  25.099  33.227  1.00  0.00     0.148 A 
ATOM     86  C   UNL A   1      49.551  26.076  32.029  1.00  0.00     0.002 A 
ATOM     87  C   UNL A   1      48.451  24.687  33.686  1.00  0.00     0.091 A 
ATOM     88  F   UNL A   1      46.066  24.625  33.756  1.00  0.00    -0.205 F 
ATOM     89  C   UNL A   1      49.625  25.167  33.083  1.00  0.00     0.022 A 
BRANCH  87  90
ATOM     90  S   UNL A   1      48.637  23.588  35.095  1.00  0.00     0.127 S 
ATOM     91  O   UNL A   1      47.930  24.322  36.142  1.00  0.00    -0.237 OA
ATOM     92  O   UNL A   1      47.958  22.373  34.640  1.00  0.00    -0.237 OA
ATOM     93  O   UNL A   1      50.072  23.435  35.291  1.00  0.00    -0.744 OA
ENDBRANCH  87  90
ENDBRANCH  60  83
ENDBRANCH  34  35
ENDBRANCH  26  29
ENDBRANCH  24  25
ENDBRANCH   1  24
TORSDOF 17
ENDMDL
