MODEL 1
REMARK VINA RESULT:     -11.6      0.000      0.000
REMARK SMILES CC1(C)C[C@@](Cc2ccccc2)(C(=O)NCCCNC(=O)c2ccc(-c3c4nc(c(-c5cccc(S(=O)(=O)[O-])c5F)c5ccc([nH]5)c(-c5cccc(S(=O)(=O)[O-])c5F)c5nc(c(-c6cccc(S(=O)(=O)[O-])c6F)c6ccc3[nH]6)C=C5)C=C4)cc2)CCO1
REMARK SMILES IDX 17 1 16 2 15 3 13 4 14 5 5 7 1 8 2 9 3 10 4 11 87 12 86 13
REMARK SMILES IDX 85 14 6 15 7 16 8 17 12 18 9 19 11 20 10 21 18 22 19 23
REMARK SMILES IDX 20 24 21 26 22 27 23 28 84 29 24 30 83 31 25 32 26 33 27 34
REMARK SMILES IDX 77 35 28 36 82 37 76 38 78 39 29 40 81 41 75 42 74 43 30 45
REMARK SMILES IDX 62 46 42 47 61 48 43 49 46 50 60 51 79 52 44 53 45 54 59 56
REMARK SMILES IDX 80 57 47 58 31 59 32 60 40 61 33 62 35 63 41 64 34 65 36 66
REMARK SMILES IDX 37 67 38 68 39 69 63 70 64 71 72 72 65 73 67 74 73 75 66 76
REMARK SMILES IDX 68 77 69 78 70 79 71 80 48 81 49 82 57 83 50 84 52 85 58 86
REMARK SMILES IDX 51 87 53 88 54 89 55 90 56 91
REMARK H PARENT 15 6 19 25 78 44 46 55
REMARK Flexibility Score: inf
ROOT
ATOM      1  C   UNL A   1      32.852  28.448  27.209  1.00  0.00     0.042 C 
ENDROOT
BRANCH   1   2
ATOM      2  C   UNL A   1      31.725  27.721  26.462  1.00  0.00     0.117 C 
BRANCH   2   3
ATOM      3  N   UNL A   1      31.486  26.359  26.922  1.00  0.00    -0.356 N 
ATOM      4  C   UNL A   1      31.769  25.106  26.488  1.00  0.00     0.226 C 
ATOM      5  O   UNL A   1      31.225  24.226  27.163  1.00  0.00    -0.274 OA
ATOM      6  H   UNL A   1      30.989  26.346  27.771  1.00  0.00     0.163 HD
BRANCH   4   7
ATOM      7  C   UNL A   1      32.739  24.736  25.339  1.00  0.00     0.058 C 
ATOM      8  C   UNL A   1      30.133  26.203  23.576  1.00  0.00     0.042 C 
ATOM      9  C   UNL A   1      31.381  25.421  23.136  1.00  0.00     0.064 C 
ATOM     10  C   UNL A   1      31.780  25.953  21.742  1.00  0.00     0.042 C 
ATOM     11  C   UNL A   1      32.587  25.633  24.067  1.00  0.00     0.052 C 
ATOM     12  O   UNL A   1      31.107  24.027  22.954  1.00  0.00    -0.376 OA
ATOM     13  C   UNL A   1      31.051  23.258  24.153  1.00  0.00     0.162 C 
ATOM     14  C   UNL A   1      32.382  23.295  24.910  1.00  0.00     0.046 C 
BRANCH   7  15
ATOM     15  C   UNL A   1      34.235  24.861  25.748  1.00  0.00     0.052 C 
BRANCH  15  16
ATOM     16  C   UNL A   1      35.193  23.786  25.244  1.00  0.00    -0.047 A 
ATOM     17  C   UNL A   1      35.674  22.834  26.154  1.00  0.00     0.004 A 
ATOM     18  C   UNL A   1      35.648  23.708  23.916  1.00  0.00     0.004 A 
ATOM     19  C   UNL A   1      36.545  21.822  25.738  1.00  0.00     0.000 A 
ATOM     20  C   UNL A   1      36.512  22.697  23.499  1.00  0.00     0.000 A 
ATOM     21  C   UNL A   1      36.957  21.749  24.410  1.00  0.00     0.000 A 
ENDBRANCH  15  16
ENDBRANCH   7  15
ENDBRANCH   4   7
ENDBRANCH   2   3
ENDBRANCH   1   2
BRANCH   1  22
ATOM     22  C   UNL A   1      33.750  29.336  26.345  1.00  0.00     0.118 C 
BRANCH  22  23
ATOM     23  N   UNL A   1      33.797  30.699  26.844  1.00  0.00    -0.352 N 
ATOM     24  C   UNL A   1      34.627  31.255  27.787  1.00  0.00     0.251 C 
ATOM     25  H   UNL A   1      33.139  31.315  26.447  1.00  0.00     0.163 HD
ATOM     26  O   UNL A   1      34.330  32.344  28.272  1.00  0.00    -0.269 OA
BRANCH  24  27
ATOM     27  C   UNL A   1      35.869  30.571  28.223  1.00  0.00     0.039 A 
ATOM     28  C   UNL A   1      35.813  29.711  29.325  1.00  0.00     0.014 A 
ATOM     29  C   UNL A   1      37.103  30.845  27.625  1.00  0.00     0.014 A 
ATOM     30  C   UNL A   1      36.981  29.117  29.816  1.00  0.00     0.010 A 
ATOM     31  C   UNL A   1      38.262  30.212  28.084  1.00  0.00     0.010 A 
ATOM     32  C   UNL A   1      38.217  29.359  29.198  1.00  0.00    -0.014 A 
BRANCH  32  33
ATOM     33  C   UNL A   1      39.473  28.759  29.727  1.00  0.00     0.031 A 
ATOM     34  C   UNL A   1      40.125  29.326  30.962  1.00  0.00     0.074 A 
ATOM     35  C   UNL A   1      40.060  27.738  29.072  1.00  0.00     0.049 A 
ATOM     36  N   UNL A   1      41.237  28.964  31.552  1.00  0.00    -0.248 NA
ATOM     37  C   UNL A   1      39.451  30.464  31.608  1.00  0.00     0.031 C 
ATOM     38  C   UNL A   1      39.565  27.131  27.837  1.00  0.00     0.029 A 
ATOM     39  N   UNL A   1      41.215  27.046  29.344  1.00  0.00    -0.354 N 
ATOM     40  C   UNL A   1      41.412  29.846  32.612  1.00  0.00     0.074 A 
ATOM     41  C   UNL A   1      40.309  30.781  32.567  1.00  0.00     0.031 C 
ATOM     42  C   UNL A   1      40.406  26.153  27.461  1.00  0.00     0.029 A 
ATOM     43  C   UNL A   1      41.511  26.078  28.412  1.00  0.00     0.049 A 
ATOM     44  H   UNL A   1      41.778  27.224  30.132  1.00  0.00     0.167 HD
ATOM     45  C   UNL A   1      42.382  29.860  33.559  1.00  0.00     0.034 A 
ATOM     46  C   UNL A   1      42.553  25.225  28.334  1.00  0.00     0.034 A 
ATOM     47  C   UNL A   1      43.453  28.903  33.636  1.00  0.00     0.049 A 
ATOM     48  C   UNL A   1      43.599  25.238  29.417  1.00  0.00     0.074 A 
ATOM     49  C   UNL A   1      44.444  28.792  34.596  1.00  0.00     0.029 A 
ATOM     50  N   UNL A   1      43.673  27.887  32.718  1.00  0.00    -0.354 N 
ATOM     51  N   UNL A   1      43.669  25.989  30.489  1.00  0.00    -0.248 NA
ATOM     52  C   UNL A   1      44.691  24.260  29.298  1.00  0.00     0.031 C 
ATOM     53  C   UNL A   1      45.268  27.714  34.252  1.00  0.00     0.029 A 
ATOM     54  C   UNL A   1      44.781  27.145  33.087  1.00  0.00     0.049 A 
ATOM     55  H   UNL A   1      43.121  27.718  31.920  1.00  0.00     0.167 HD
ATOM     56  C   UNL A   1      44.783  25.547  31.193  1.00  0.00     0.074 A 
ATOM     57  C   UNL A   1      45.351  24.453  30.433  1.00  0.00     0.031 C 
ATOM     58  C   UNL A   1      45.298  26.015  32.357  1.00  0.00     0.034 A 
BRANCH  45  59
ATOM     59  C   UNL A   1      42.292  30.917  34.632  1.00  0.00     0.023 A 
ATOM     60  C   UNL A   1      41.623  30.621  35.837  1.00  0.00     0.012 A 
ATOM     61  C   UNL A   1      42.902  32.177  34.473  1.00  0.00     0.148 A 
ATOM     62  C   UNL A   1      41.526  31.573  36.850  1.00  0.00     0.002 A 
ATOM     63  C   UNL A   1      42.837  33.107  35.506  1.00  0.00     0.091 A 
ATOM     64  F   UNL A   1      43.516  32.452  33.314  1.00  0.00    -0.205 F 
ATOM     65  C   UNL A   1      42.140  32.812  36.688  1.00  0.00     0.022 A 
BRANCH  63  66
ATOM     66  S   UNL A   1      43.664  34.701  35.417  1.00  0.00     0.127 S 
ATOM     67  O   UNL A   1      43.343  35.273  36.726  1.00  0.00    -0.237 OA
ATOM     68  O   UNL A   1      45.068  34.312  35.255  1.00  0.00    -0.237 OA
ATOM     69  O   UNL A   1      43.091  35.383  34.272  1.00  0.00    -0.744 OA
ENDBRANCH  63  66
ENDBRANCH  45  59
BRANCH  46  70
ATOM     70  C   UNL A   1      42.607  24.220  27.235  1.00  0.00     0.023 A 
ATOM     71  C   UNL A   1      43.330  24.524  26.064  1.00  0.00     0.012 A 
ATOM     72  C   UNL A   1      41.982  22.963  27.348  1.00  0.00     0.148 A 
ATOM     73  C   UNL A   1      43.406  23.607  25.016  1.00  0.00     0.002 A 
ATOM     74  C   UNL A   1      42.106  22.034  26.322  1.00  0.00     0.091 A 
ATOM     75  F   UNL A   1      41.287  22.698  28.464  1.00  0.00    -0.205 F 
ATOM     76  C   UNL A   1      42.804  22.359  25.149  1.00  0.00     0.022 A 
BRANCH  74  77
ATOM     77  S   UNL A   1      41.473  20.358  26.459  1.00  0.00     0.127 S 
ATOM     78  O   UNL A   1      42.179  19.682  25.375  1.00  0.00    -0.237 OA
ATOM     79  O   UNL A   1      41.903  19.980  27.806  1.00  0.00    -0.237 OA
ATOM     80  O   UNL A   1      40.029  20.471  26.303  1.00  0.00    -0.744 OA
ENDBRANCH  74  77
ENDBRANCH  46  70
BRANCH  58  81
ATOM     81  C   UNL A   1      46.517  25.324  32.913  1.00  0.00     0.023 A 
ATOM     82  C   UNL A   1      47.802  25.806  32.591  1.00  0.00     0.012 A 
ATOM     83  C   UNL A   1      46.388  24.247  33.811  1.00  0.00     0.148 A 
ATOM     84  C   UNL A   1      48.938  25.209  33.134  1.00  0.00     0.002 A 
ATOM     85  C   UNL A   1      47.524  23.685  34.382  1.00  0.00     0.091 A 
ATOM     86  F   UNL A   1      45.158  23.788  34.088  1.00  0.00    -0.205 F 
ATOM     87  C   UNL A   1      48.800  24.157  34.037  1.00  0.00     0.022 A 
BRANCH  85  88
ATOM     88  S   UNL A   1      47.431  22.391  35.625  1.00  0.00     0.127 S 
ATOM     89  O   UNL A   1      46.866  21.281  34.858  1.00  0.00    -0.237 OA
ATOM     90  O   UNL A   1      48.834  22.218  36.003  1.00  0.00    -0.237 OA
ATOM     91  O   UNL A   1      46.584  22.918  36.686  1.00  0.00    -0.744 OA
ENDBRANCH  85  88
ENDBRANCH  58  81
ENDBRANCH  32  33
ENDBRANCH  24  27
ENDBRANCH  22  23
ENDBRANCH   1  22
TORSDOF 15
ENDMDL
MODEL 2
REMARK VINA RESULT:     -11.5      5.626      8.671
REMARK SMILES CC1(C)C[C@@](Cc2ccccc2)(C(=O)NCCCNC(=O)c2ccc(-c3c4nc(c(-c5cccc(S(=O)(=O)[O-])c5F)c5ccc([nH]5)c(-c5cccc(S(=O)(=O)[O-])c5F)c5nc(c(-c6cccc(S(=O)(=O)[O-])c6F)c6ccc3[nH]6)C=C5)C=C4)cc2)CCO1
REMARK SMILES IDX 17 1 16 2 15 3 13 4 14 5 5 7 1 8 2 9 3 10 4 11 87 12 86 13
REMARK SMILES IDX 85 14 6 15 7 16 8 17 12 18 9 19 11 20 10 21 18 22 19 23
REMARK SMILES IDX 20 24 21 26 22 27 23 28 84 29 24 30 83 31 25 32 26 33 27 34
REMARK SMILES IDX 77 35 28 36 82 37 76 38 78 39 29 40 81 41 75 42 74 43 30 45
REMARK SMILES IDX 62 46 42 47 61 48 43 49 46 50 60 51 79 52 44 53 45 54 59 56
REMARK SMILES IDX 80 57 47 58 31 59 32 60 40 61 33 62 35 63 41 64 34 65 36 66
REMARK SMILES IDX 37 67 38 68 39 69 63 70 64 71 72 72 65 73 67 74 73 75 66 76
REMARK SMILES IDX 68 77 69 78 70 79 71 80 48 81 49 82 57 83 50 84 52 85 58 86
REMARK SMILES IDX 51 87 53 88 54 89 55 90 56 91
REMARK H PARENT 15 6 19 25 78 44 46 55
REMARK Flexibility Score: inf
ROOT
ATOM      1  C   UNL A   1      37.940  19.946  24.985  1.00  0.00     0.042 C 
ENDROOT
BRANCH   1   2
ATOM      2  C   UNL A   1      36.801  20.960  24.808  1.00  0.00     0.117 C 
BRANCH   2   3
ATOM      3  N   UNL A   1      35.794  20.916  25.859  1.00  0.00    -0.356 N 
ATOM      4  C   UNL A   1      34.463  21.154  25.963  1.00  0.00     0.226 C 
ATOM      5  O   UNL A   1      34.055  21.118  27.129  1.00  0.00    -0.274 OA
ATOM      6  H   UNL A   1      36.182  20.641  26.721  1.00  0.00     0.163 HD
BRANCH   4   7
ATOM      7  C   UNL A   1      33.479  21.359  24.785  1.00  0.00     0.058 C 
ATOM      8  C   UNL A   1      34.635  24.596  25.269  1.00  0.00     0.042 C 
ATOM      9  C   UNL A   1      33.504  24.009  24.410  1.00  0.00     0.064 C 
ATOM     10  C   UNL A   1      33.349  24.928  23.178  1.00  0.00     0.042 C 
ATOM     11  C   UNL A   1      33.812  22.596  23.888  1.00  0.00     0.052 C 
ATOM     12  O   UNL A   1      32.241  24.049  25.083  1.00  0.00    -0.376 OA
ATOM     13  C   UNL A   1      32.036  23.021  26.049  1.00  0.00     0.162 C 
ATOM     14  C   UNL A   1      32.093  21.628  25.414  1.00  0.00     0.046 C 
BRANCH   7  15
ATOM     15  C   UNL A   1      33.444  20.147  23.811  1.00  0.00     0.052 C 
BRANCH  15  16
ATOM     16  C   UNL A   1      33.500  18.751  24.425  1.00  0.00    -0.047 A 
ATOM     17  C   UNL A   1      34.637  17.962  24.198  1.00  0.00     0.004 A 
ATOM     18  C   UNL A   1      32.460  18.192  25.188  1.00  0.00     0.004 A 
ATOM     19  C   UNL A   1      34.741  16.681  24.749  1.00  0.00     0.000 A 
ATOM     20  C   UNL A   1      32.565  16.917  25.742  1.00  0.00     0.000 A 
ATOM     21  C   UNL A   1      33.709  16.162  25.526  1.00  0.00     0.000 A 
ENDBRANCH  15  16
ENDBRANCH   7  15
ENDBRANCH   4   7
ENDBRANCH   2   3
ENDBRANCH   1   2
BRANCH   1  22
ATOM     22  C   UNL A   1      39.146  20.442  25.785  1.00  0.00     0.118 C 
BRANCH  22  23
ATOM     23  N   UNL A   1      40.146  19.401  25.949  1.00  0.00    -0.352 N 
ATOM     24  C   UNL A   1      41.512  19.510  26.041  1.00  0.00     0.251 C 
ATOM     25  H   UNL A   1      39.793  18.483  26.002  1.00  0.00     0.163 HD
ATOM     26  O   UNL A   1      42.200  18.502  25.896  1.00  0.00    -0.269 OA
BRANCH  24  27
ATOM     27  C   UNL A   1      42.166  20.812  26.318  1.00  0.00     0.039 A 
ATOM     28  C   UNL A   1      42.375  21.191  27.649  1.00  0.00     0.014 A 
ATOM     29  C   UNL A   1      42.481  21.707  25.289  1.00  0.00     0.014 A 
ATOM     30  C   UNL A   1      42.910  22.448  27.948  1.00  0.00     0.010 A 
ATOM     31  C   UNL A   1      43.062  22.942  25.587  1.00  0.00     0.010 A 
ATOM     32  C   UNL A   1      43.262  23.336  26.919  1.00  0.00    -0.014 A 
BRANCH  32  33
ATOM     33  C   UNL A   1      43.805  24.689  27.223  1.00  0.00     0.031 A 
ATOM     34  C   UNL A   1      42.904  25.762  27.781  1.00  0.00     0.074 A 
ATOM     35  C   UNL A   1      45.092  24.977  26.949  1.00  0.00     0.049 A 
ATOM     36  N   UNL A   1      43.183  27.007  28.074  1.00  0.00    -0.248 NA
ATOM     37  C   UNL A   1      41.500  25.391  28.023  1.00  0.00     0.031 C 
ATOM     38  C   UNL A   1      46.057  24.050  26.357  1.00  0.00     0.029 A 
ATOM     39  N   UNL A   1      45.804  26.140  27.112  1.00  0.00    -0.354 N 
ATOM     40  C   UNL A   1      41.987  27.576  28.500  1.00  0.00     0.074 A 
ATOM     41  C   UNL A   1      40.973  26.549  28.398  1.00  0.00     0.031 C 
ATOM     42  C   UNL A   1      47.236  24.677  26.213  1.00  0.00     0.029 A 
ATOM     43  C   UNL A   1      47.107  26.055  26.678  1.00  0.00     0.049 A 
ATOM     44  H   UNL A   1      45.420  26.958  27.504  1.00  0.00     0.167 HD
ATOM     45  C   UNL A   1      41.756  28.828  28.966  1.00  0.00     0.034 A 
ATOM     46  C   UNL A   1      48.088  26.981  26.660  1.00  0.00     0.034 A 
ATOM     47  C   UNL A   1      42.772  29.837  29.114  1.00  0.00     0.049 A 
ATOM     48  C   UNL A   1      47.816  28.354  27.214  1.00  0.00     0.074 A 
ATOM     49  C   UNL A   1      42.651  31.111  29.640  1.00  0.00     0.029 A 
ATOM     50  N   UNL A   1      44.098  29.685  28.739  1.00  0.00    -0.354 N 
ATOM     51  N   UNL A   1      46.714  28.827  27.744  1.00  0.00    -0.248 NA
ATOM     52  C   UNL A   1      48.933  29.309  27.203  1.00  0.00     0.031 C 
ATOM     53  C   UNL A   1      43.903  31.733  29.574  1.00  0.00     0.029 A 
ATOM     54  C   UNL A   1      44.806  30.840  29.021  1.00  0.00     0.049 A 
ATOM     55  H   UNL A   1      44.479  28.874  28.331  1.00  0.00     0.167 HD
ATOM     56  C   UNL A   1      47.016  30.116  28.167  1.00  0.00     0.074 A 
ATOM     57  C   UNL A   1      48.410  30.346  27.845  1.00  0.00     0.031 C 
ATOM     58  C   UNL A   1      46.210  31.033  28.756  1.00  0.00     0.034 A 
BRANCH  45  59
ATOM     59  C   UNL A   1      40.353  29.158  29.409  1.00  0.00     0.023 A 
ATOM     60  C   UNL A   1      39.430  29.653  28.465  1.00  0.00     0.012 A 
ATOM     61  C   UNL A   1      39.932  28.939  30.736  1.00  0.00     0.148 A 
ATOM     62  C   UNL A   1      38.125  29.964  28.841  1.00  0.00     0.002 A 
ATOM     63  C   UNL A   1      38.615  29.212  31.093  1.00  0.00     0.091 A 
ATOM     64  F   UNL A   1      40.826  28.487  31.626  1.00  0.00    -0.205 F 
ATOM     65  C   UNL A   1      37.715  29.735  30.151  1.00  0.00     0.022 A 
BRANCH  63  66
ATOM     66  S   UNL A   1      37.977  28.874  32.740  1.00  0.00     0.127 S 
ATOM     67  O   UNL A   1      36.606  29.375  32.632  1.00  0.00    -0.237 OA
ATOM     68  O   UNL A   1      38.084  27.415  32.820  1.00  0.00    -0.237 OA
ATOM     69  O   UNL A   1      38.842  29.593  33.656  1.00  0.00    -0.744 OA
ENDBRANCH  63  66
ENDBRANCH  45  59
BRANCH  46  70
ATOM     70  C   UNL A   1      49.450  26.609  26.183  1.00  0.00     0.023 A 
ATOM     71  C   UNL A   1      50.239  25.745  26.969  1.00  0.00     0.012 A 
ATOM     72  C   UNL A   1      49.956  27.071  24.953  1.00  0.00     0.148 A 
ATOM     73  C   UNL A   1      51.517  25.372  26.553  1.00  0.00     0.002 A 
ATOM     74  C   UNL A   1      51.210  26.654  24.520  1.00  0.00     0.091 A 
ATOM     75  F   UNL A   1      49.197  27.903  24.226  1.00  0.00    -0.205 F 
ATOM     76  C   UNL A   1      51.998  25.817  25.325  1.00  0.00     0.022 A 
BRANCH  74  77
ATOM     77  S   UNL A   1      51.856  27.072  22.897  1.00  0.00     0.127 S 
ATOM     78  O   UNL A   1      52.176  28.488  23.058  1.00  0.00    -0.237 OA
ATOM     79  O   UNL A   1      53.017  26.186  22.794  1.00  0.00    -0.237 OA
ATOM     80  O   UNL A   1      50.787  26.766  21.958  1.00  0.00    -0.744 OA
ENDBRANCH  74  77
ENDBRANCH  46  70
BRANCH  58  81
ATOM     81  C   UNL A   1      46.814  32.361  29.134  1.00  0.00     0.023 A 
ATOM     82  C   UNL A   1      47.426  32.517  30.393  1.00  0.00     0.012 A 
ATOM     83  C   UNL A   1      46.842  33.428  28.215  1.00  0.00     0.148 A 
ATOM     84  C   UNL A   1      48.032  33.724  30.742  1.00  0.00     0.002 A 
ATOM     85  C   UNL A   1      47.486  34.612  28.553  1.00  0.00     0.091 A 
ATOM     86  F   UNL A   1      46.235  33.268  27.030  1.00  0.00    -0.205 F 
ATOM     87  C   UNL A   1      48.072  34.766  29.819  1.00  0.00     0.022 A 
BRANCH  85  88
ATOM     88  S   UNL A   1      47.666  35.971  27.390  1.00  0.00     0.127 S 
ATOM     89  O   UNL A   1      46.272  36.335  27.138  1.00  0.00    -0.237 OA
ATOM     90  O   UNL A   1      48.421  36.953  28.169  1.00  0.00    -0.237 OA
ATOM     91  O   UNL A   1      48.389  35.425  26.249  1.00  0.00    -0.744 OA
ENDBRANCH  85  88
ENDBRANCH  58  81
ENDBRANCH  32  33
ENDBRANCH  24  27
ENDBRANCH  22  23
ENDBRANCH   1  22
TORSDOF 15
ENDMDL
MODEL 3
REMARK VINA RESULT:     -11.5      3.883      9.144
REMARK SMILES CC1(C)C[C@@](Cc2ccccc2)(C(=O)NCCCNC(=O)c2ccc(-c3c4nc(c(-c5cccc(S(=O)(=O)[O-])c5F)c5ccc([nH]5)c(-c5cccc(S(=O)(=O)[O-])c5F)c5nc(c(-c6cccc(S(=O)(=O)[O-])c6F)c6ccc3[nH]6)C=C5)C=C4)cc2)CCO1
REMARK SMILES IDX 17 1 16 2 15 3 13 4 14 5 5 7 1 8 2 9 3 10 4 11 87 12 86 13
REMARK SMILES IDX 85 14 6 15 7 16 8 17 12 18 9 19 11 20 10 21 18 22 19 23
REMARK SMILES IDX 20 24 21 26 22 27 23 28 84 29 24 30 83 31 25 32 26 33 27 34
REMARK SMILES IDX 77 35 28 36 82 37 76 38 78 39 29 40 81 41 75 42 74 43 30 45
REMARK SMILES IDX 62 46 42 47 61 48 43 49 46 50 60 51 79 52 44 53 45 54 59 56
REMARK SMILES IDX 80 57 47 58 31 59 32 60 40 61 33 62 35 63 41 64 34 65 36 66
REMARK SMILES IDX 37 67 38 68 39 69 63 70 64 71 72 72 65 73 67 74 73 75 66 76
REMARK SMILES IDX 68 77 69 78 70 79 71 80 48 81 49 82 57 83 50 84 52 85 58 86
REMARK SMILES IDX 51 87 53 88 54 89 55 90 56 91
REMARK H PARENT 15 6 19 25 78 44 46 55
REMARK Flexibility Score: inf
ROOT
ATOM      1  C   UNL A   1      31.483  31.918  26.512  1.00  0.00     0.042 C 
ENDROOT
BRANCH   1   2
ATOM      2  C   UNL A   1      31.538  30.430  26.140  1.00  0.00     0.117 C 
BRANCH   2   3
ATOM      3  N   UNL A   1      32.681  30.063  25.314  1.00  0.00    -0.356 N 
ATOM      4  C   UNL A   1      32.949  29.153  24.346  1.00  0.00     0.226 C 
ATOM      5  O   UNL A   1      34.142  29.124  24.025  1.00  0.00    -0.274 OA
ATOM      6  H   UNL A   1      33.466  30.624  25.512  1.00  0.00     0.163 HD
BRANCH   4   7
ATOM      7  C   UNL A   1      31.908  28.279  23.604  1.00  0.00     0.058 C 
ATOM      8  C   UNL A   1      31.773  26.924  26.797  1.00  0.00     0.042 C 
ATOM      9  C   UNL A   1      31.174  26.486  25.451  1.00  0.00     0.064 C 
ATOM     10  C   UNL A   1      29.864  25.731  25.764  1.00  0.00     0.042 C 
ATOM     11  C   UNL A   1      30.812  27.669  24.537  1.00  0.00     0.052 C 
ATOM     12  O   UNL A   1      32.010  25.544  24.771  1.00  0.00    -0.376 OA
ATOM     13  C   UNL A   1      33.128  26.106  24.088  1.00  0.00     0.162 C 
ATOM     14  C   UNL A   1      32.687  27.089  22.998  1.00  0.00     0.046 C 
BRANCH   7  15
ATOM     15  C   UNL A   1      31.124  29.067  22.515  1.00  0.00     0.052 C 
BRANCH  15  16
ATOM     16  C   UNL A   1      29.730  29.569  22.881  1.00  0.00    -0.047 A 
ATOM     17  C   UNL A   1      28.646  28.689  22.761  1.00  0.00     0.004 A 
ATOM     18  C   UNL A   1      29.461  30.882  23.306  1.00  0.00     0.004 A 
ATOM     19  C   UNL A   1      27.351  29.098  23.095  1.00  0.00     0.000 A 
ATOM     20  C   UNL A   1      28.171  31.289  23.644  1.00  0.00     0.000 A 
ATOM     21  C   UNL A   1      27.115  30.395  23.542  1.00  0.00     0.000 A 
ENDBRANCH  15  16
ENDBRANCH   7  15
ENDBRANCH   4   7
ENDBRANCH   2   3
ENDBRANCH   1   2
BRANCH   1  22
ATOM     22  C   UNL A   1      32.734  32.475  27.195  1.00  0.00     0.118 C 
BRANCH  22  23
ATOM     23  N   UNL A   1      32.596  33.889  27.497  1.00  0.00    -0.352 N 
ATOM     24  C   UNL A   1      33.140  34.617  28.527  1.00  0.00     0.251 C 
ATOM     25  H   UNL A   1      32.032  34.400  26.872  1.00  0.00     0.163 HD
ATOM     26  O   UNL A   1      32.684  35.733  28.771  1.00  0.00    -0.269 OA
BRANCH  24  27
ATOM     27  C   UNL A   1      34.262  34.089  29.340  1.00  0.00     0.039 A 
ATOM     28  C   UNL A   1      35.572  34.423  28.976  1.00  0.00     0.014 A 
ATOM     29  C   UNL A   1      34.046  33.190  30.389  1.00  0.00     0.014 A 
ATOM     30  C   UNL A   1      36.657  33.873  29.667  1.00  0.00     0.010 A 
ATOM     31  C   UNL A   1      35.129  32.681  31.112  1.00  0.00     0.010 A 
ATOM     32  C   UNL A   1      36.446  32.999  30.744  1.00  0.00    -0.014 A 
BRANCH  32  33
ATOM     33  C   UNL A   1      37.591  32.382  31.470  1.00  0.00     0.031 A 
ATOM     34  C   UNL A   1      38.361  31.244  30.849  1.00  0.00     0.074 A 
ATOM     35  C   UNL A   1      37.910  32.804  32.709  1.00  0.00     0.049 A 
ATOM     36  N   UNL A   1      39.361  30.556  31.339  1.00  0.00    -0.248 NA
ATOM     37  C   UNL A   1      37.937  30.808  29.508  1.00  0.00     0.031 C 
ATOM     38  C   UNL A   1      37.214  33.857  33.448  1.00  0.00     0.029 A 
ATOM     39  N   UNL A   1      38.890  32.382  33.574  1.00  0.00    -0.354 N 
ATOM     40  C   UNL A   1      39.663  29.589  30.387  1.00  0.00     0.074 A 
ATOM     41  C   UNL A   1      38.720  29.757  29.303  1.00  0.00     0.031 C 
ATOM     42  C   UNL A   1      37.792  34.004  34.652  1.00  0.00     0.029 A 
ATOM     43  C   UNL A   1      38.882  33.042  34.782  1.00  0.00     0.049 A 
ATOM     44  H   UNL A   1      39.538  31.674  33.353  1.00  0.00     0.167 HD
ATOM     45  C   UNL A   1      40.654  28.664  30.394  1.00  0.00     0.034 A 
ATOM     46  C   UNL A   1      39.666  32.891  35.868  1.00  0.00     0.034 A 
ATOM     47  C   UNL A   1      41.624  28.525  31.448  1.00  0.00     0.049 A 
ATOM     48  C   UNL A   1      40.781  31.881  35.839  1.00  0.00     0.074 A 
ATOM     49  C   UNL A   1      42.707  27.665  31.516  1.00  0.00     0.029 A 
ATOM     50  N   UNL A   1      41.632  29.268  32.619  1.00  0.00    -0.354 N 
ATOM     51  N   UNL A   1      41.138  31.072  34.871  1.00  0.00    -0.248 NA
ATOM     52  C   UNL A   1      41.626  31.788  37.039  1.00  0.00     0.031 C 
ATOM     53  C   UNL A   1      43.363  27.883  32.733  1.00  0.00     0.029 A 
ATOM     54  C   UNL A   1      42.698  28.888  33.415  1.00  0.00     0.049 A 
ATOM     55  H   UNL A   1      40.974  29.963  32.850  1.00  0.00     0.167 HD
ATOM     56  C   UNL A   1      42.271  30.408  35.325  1.00  0.00     0.074 A 
ATOM     57  C   UNL A   1      42.551  30.918  36.651  1.00  0.00     0.031 C 
ATOM     58  C   UNL A   1      43.005  29.450  34.707  1.00  0.00     0.034 A 
BRANCH  45  59
ATOM     59  C   UNL A   1      40.777  27.765  29.190  1.00  0.00     0.023 A 
ATOM     60  C   UNL A   1      39.987  26.599  29.116  1.00  0.00     0.012 A 
ATOM     61  C   UNL A   1      41.629  28.089  28.115  1.00  0.00     0.148 A 
ATOM     62  C   UNL A   1      40.073  25.749  28.015  1.00  0.00     0.002 A 
ATOM     63  C   UNL A   1      41.678  27.257  27.001  1.00  0.00     0.091 A 
ATOM     64  F   UNL A   1      42.389  29.189  28.209  1.00  0.00    -0.205 F 
ATOM     65  C   UNL A   1      40.910  26.082  26.955  1.00  0.00     0.022 A 
BRANCH  63  66
ATOM     66  S   UNL A   1      42.670  27.648  25.554  1.00  0.00     0.127 S 
ATOM     67  O   UNL A   1      42.043  28.888  25.093  1.00  0.00    -0.237 OA
ATOM     68  O   UNL A   1      44.005  27.823  26.132  1.00  0.00    -0.237 OA
ATOM     69  O   UNL A   1      42.543  26.508  24.665  1.00  0.00    -0.744 OA
ENDBRANCH  63  66
ENDBRANCH  45  59
BRANCH  46  70
ATOM     70  C   UNL A   1      39.482  33.788  37.045  1.00  0.00     0.023 A 
ATOM     71  C   UNL A   1      39.899  35.131  36.954  1.00  0.00     0.012 A 
ATOM     72  C   UNL A   1      38.874  33.337  38.232  1.00  0.00     0.148 A 
ATOM     73  C   UNL A   1      39.740  36.000  38.033  1.00  0.00     0.002 A 
ATOM     74  C   UNL A   1      38.671  34.222  39.285  1.00  0.00     0.091 A 
ATOM     75  F   UNL A   1      38.497  32.053  38.305  1.00  0.00    -0.205 F 
ATOM     76  C   UNL A   1      39.116  35.550  39.193  1.00  0.00     0.022 A 
BRANCH  74  77
ATOM     77  S   UNL A   1      37.764  33.765  40.767  1.00  0.00     0.127 S 
ATOM     78  O   UNL A   1      37.577  35.059  41.415  1.00  0.00    -0.237 OA
ATOM     79  O   UNL A   1      36.547  33.173  40.208  1.00  0.00    -0.237 OA
ATOM     80  O   UNL A   1      38.618  32.818  41.472  1.00  0.00    -0.744 OA
ENDBRANCH  74  77
ENDBRANCH  46  70
BRANCH  58  81
ATOM     81  C   UNL A   1      44.212  28.913  35.431  1.00  0.00     0.023 A 
ATOM     82  C   UNL A   1      45.469  29.522  35.243  1.00  0.00     0.012 A 
ATOM     83  C   UNL A   1      44.087  27.856  36.354  1.00  0.00     0.148 A 
ATOM     84  C   UNL A   1      46.587  29.067  35.941  1.00  0.00     0.002 A 
ATOM     85  C   UNL A   1      45.198  27.438  37.079  1.00  0.00     0.091 A 
ATOM     86  F   UNL A   1      42.888  27.275  36.504  1.00  0.00    -0.205 F 
ATOM     87  C   UNL A   1      46.450  28.035  36.866  1.00  0.00     0.022 A 
BRANCH  85  88
ATOM     88  S   UNL A   1      45.090  26.180  38.357  1.00  0.00     0.127 S 
ATOM     89  O   UNL A   1      46.466  26.133  38.847  1.00  0.00    -0.237 OA
ATOM     90  O   UNL A   1      44.129  26.764  39.293  1.00  0.00    -0.237 OA
ATOM     91  O   UNL A   1      44.619  24.974  37.688  1.00  0.00    -0.744 OA
ENDBRANCH  85  88
ENDBRANCH  58  81
ENDBRANCH  32  33
ENDBRANCH  24  27
ENDBRANCH  22  23
ENDBRANCH   1  22
TORSDOF 15
ENDMDL
