MODEL 1
REMARK VINA RESULT:     -10.5      0.000      0.000
REMARK SMILES O=C(CCCC[C@H](O)c1ccc(F)c(Br)c1)NCCCNC(=O)c1ccc(-c2c3nc(c(-c4cccc(S(=O)(=O)[O-])c4F)c4ccc([nH]4)c(-c4cccc(S(=O)(=O)[O-])c4F)c4nc(c(-c5cccc(S(=O)(=O)[O-])c5F)c5ccc2[nH]5)C=C4)C=C3)cc1
REMARK SMILES IDX 18 1 17 2 1 3 2 4 3 6 4 7 5 8 6 9 7 10 9 11 10 12 16 13
REMARK SMILES IDX 11 14 14 15 12 16 15 17 13 18 8 19 19 21 20 22 21 23 22 24
REMARK SMILES IDX 23 26 24 27 25 28 86 29 26 30 85 31 27 32 28 33 29 34 79 35
REMARK SMILES IDX 30 36 84 37 78 38 80 39 31 40 83 41 77 42 76 43 32 45 64 46
REMARK SMILES IDX 44 47 63 48 45 49 48 50 62 51 81 52 46 53 47 54 61 56 82 57
REMARK SMILES IDX 49 58 33 59 34 60 42 61 35 62 37 63 43 64 36 65 38 66 39 67
REMARK SMILES IDX 40 68 41 69 65 70 66 71 74 72 67 73 69 74 75 75 68 76 70 77
REMARK SMILES IDX 71 78 72 79 73 80 50 81 51 82 59 83 52 84 54 85 60 86 53 87
REMARK SMILES IDX 55 88 56 89 57 90 58 91
REMARK H PARENT 17 5 8 20 21 25 80 44 48 55
REMARK Flexibility Score: inf
ROOT
ATOM      1  C   UNL A   1      31.787  28.058  27.310  1.00  0.00     0.117 C 
ENDROOT
BRANCH   1   2
ATOM      2  N   UNL A   1      31.082  27.469  26.191  1.00  0.00    -0.356 N 
ATOM      3  O   UNL A   1      31.273  25.284  26.874  1.00  0.00    -0.275 OA
ATOM      4  C   UNL A   1      30.834  26.121  26.092  1.00  0.00     0.219 C 
ATOM      5  H   UNL A   1      30.767  28.060  25.469  1.00  0.00     0.163 HD
BRANCH   4   6
ATOM      6  C   UNL A   1      29.934  25.746  24.934  1.00  0.00     0.100 C 
BRANCH   6   7
ATOM      7  C   UNL A   1      29.879  26.845  23.869  1.00  0.00     0.010 C 
BRANCH   7   8
ATOM      8  C   UNL A   1      30.781  26.658  22.638  1.00  0.00     0.004 C 
BRANCH   8   9
ATOM      9  C   UNL A   1      32.099  27.447  22.600  1.00  0.00     0.037 C 
BRANCH   9  10
ATOM     10  C   UNL A   1      33.318  26.622  22.165  1.00  0.00     0.144 C 
BRANCH  10  11
ATOM     11  C   UNL A   1      33.338  25.234  22.772  1.00  0.00    -0.018 A 
ATOM     12  C   UNL A   1      32.988  24.108  22.002  1.00  0.00     0.009 A 
ATOM     13  C   UNL A   1      33.762  25.044  24.096  1.00  0.00     0.025 A 
ATOM     14  C   UNL A   1      33.096  22.822  22.533  1.00  0.00     0.041 A 
ATOM     15  C   UNL A   1      33.871  23.754  24.623  1.00  0.00     0.054 A 
ATOM     16  C   UNL A   1      33.547  22.652  23.837  1.00  0.00     0.137 A 
ATOM     17  Br  UNL A   1      34.492  23.527  26.394  1.00  0.00    -0.048 Br
ATOM     18  F   UNL A   1      33.681  21.405  24.313  1.00  0.00    -0.206 F 
ENDBRANCH  10  11
BRANCH  10  19
ATOM     19  O   UNL A   1      33.348  26.487  20.747  1.00  0.00    -0.388 OA
ATOM     20  H   UNL A   1      33.182  25.561  20.507  1.00  0.00     0.211 HD
ENDBRANCH  10  19
ENDBRANCH   9  10
ENDBRANCH   8   9
ENDBRANCH   7   8
ENDBRANCH   6   7
ENDBRANCH   4   6
ENDBRANCH   1   2
BRANCH   1  21
ATOM     21  C   UNL A   1      33.300  28.015  27.138  1.00  0.00     0.042 C 
BRANCH  21  22
ATOM     22  C   UNL A   1      33.883  29.115  26.255  1.00  0.00     0.118 C 
BRANCH  22  23
ATOM     23  N   UNL A   1      33.791  30.444  26.841  1.00  0.00    -0.352 N 
ATOM     24  C   UNL A   1      34.609  31.061  27.756  1.00  0.00     0.251 C 
ATOM     25  H   UNL A   1      33.026  30.983  26.535  1.00  0.00     0.163 HD
ATOM     26  O   UNL A   1      34.277  32.153  28.217  1.00  0.00    -0.269 OA
BRANCH  24  27
ATOM     27  C   UNL A   1      35.866  30.421  28.212  1.00  0.00     0.039 A 
ATOM     28  C   UNL A   1      37.006  30.542  27.413  1.00  0.00     0.014 A 
ATOM     29  C   UNL A   1      35.929  29.690  29.401  1.00  0.00     0.014 A 
ATOM     30  C   UNL A   1      38.218  29.985  27.835  1.00  0.00     0.010 A 
ATOM     31  C   UNL A   1      37.155  29.206  29.859  1.00  0.00     0.010 A 
ATOM     32  C   UNL A   1      38.313  29.341  29.080  1.00  0.00    -0.014 A 
BRANCH  32  33
ATOM     33  C   UNL A   1      39.619  28.826  29.576  1.00  0.00     0.031 A 
ATOM     34  C   UNL A   1      40.343  29.517  30.703  1.00  0.00     0.074 A 
ATOM     35  C   UNL A   1      40.190  27.766  28.969  1.00  0.00     0.049 A 
ATOM     36  N   UNL A   1      41.490  29.210  31.256  1.00  0.00    -0.248 NA
ATOM     37  C   UNL A   1      39.714  30.722  31.265  1.00  0.00     0.031 C 
ATOM     38  C   UNL A   1      39.638  27.056  27.813  1.00  0.00     0.029 A 
ATOM     39  N   UNL A   1      41.370  27.111  29.225  1.00  0.00    -0.354 N 
ATOM     40  C   UNL A   1      41.732  30.195  32.206  1.00  0.00     0.074 A 
ATOM     41  C   UNL A   1      40.633  31.133  32.128  1.00  0.00     0.031 C 
ATOM     42  C   UNL A   1      40.469  26.058  27.469  1.00  0.00     0.029 A 
ATOM     43  C   UNL A   1      41.628  26.075  28.357  1.00  0.00     0.049 A 
ATOM     44  H   UNL A   1      41.976  27.361  29.960  1.00  0.00     0.167 HD
ATOM     45  C   UNL A   1      42.759  30.298  33.084  1.00  0.00     0.034 A 
ATOM     46  C   UNL A   1      42.678  25.233  28.280  1.00  0.00     0.034 A 
ATOM     47  C   UNL A   1      43.835  29.348  33.186  1.00  0.00     0.049 A 
ATOM     48  C   UNL A   1      43.785  25.347  29.292  1.00  0.00     0.074 A 
ATOM     49  C   UNL A   1      44.873  29.319  34.101  1.00  0.00     0.029 A 
ATOM     50  N   UNL A   1      44.021  28.267  32.339  1.00  0.00    -0.354 N 
ATOM     51  N   UNL A   1      43.911  26.188  30.288  1.00  0.00    -0.248 NA
ATOM     52  C   UNL A   1      44.877  24.366  29.193  1.00  0.00     0.031 C 
ATOM     53  C   UNL A   1      45.704  28.239  33.788  1.00  0.00     0.029 A 
ATOM     54  C   UNL A   1      45.163  27.571  32.701  1.00  0.00     0.049 A 
ATOM     55  H   UNL A   1      43.428  28.028  31.590  1.00  0.00     0.167 HD
ATOM     56  C   UNL A   1      45.072  25.818  30.957  1.00  0.00     0.074 A 
ATOM     57  C   UNL A   1      45.600  24.660  30.265  1.00  0.00     0.031 C 
ATOM     58  C   UNL A   1      45.656  26.392  32.038  1.00  0.00     0.034 A 
BRANCH  45  59
ATOM     59  C   UNL A   1      42.746  31.461  34.045  1.00  0.00     0.023 A 
ATOM     60  C   UNL A   1      43.333  32.686  33.666  1.00  0.00     0.012 A 
ATOM     61  C   UNL A   1      42.099  31.364  35.293  1.00  0.00     0.148 A 
ATOM     62  C   UNL A   1      43.311  33.783  34.526  1.00  0.00     0.002 A 
ATOM     63  C   UNL A   1      42.039  32.476  36.125  1.00  0.00     0.091 A 
ATOM     64  F   UNL A   1      41.561  30.188  35.645  1.00  0.00    -0.205 F 
ATOM     65  C   UNL A   1      42.656  33.681  35.749  1.00  0.00     0.022 A 
BRANCH  63  66
ATOM     66  S   UNL A   1      41.146  32.475  37.683  1.00  0.00     0.127 S 
ATOM     67  O   UNL A   1      39.859  31.907  37.285  1.00  0.00    -0.237 OA
ATOM     68  O   UNL A   1      41.972  31.593  38.510  1.00  0.00    -0.237 OA
ATOM     69  O   UNL A   1      41.105  33.861  38.126  1.00  0.00    -0.744 OA
ENDBRANCH  63  66
ENDBRANCH  45  59
BRANCH  46  70
ATOM     70  C   UNL A   1      42.701  24.164  27.241  1.00  0.00     0.023 A 
ATOM     71  C   UNL A   1      43.399  24.382  26.037  1.00  0.00     0.012 A 
ATOM     72  C   UNL A   1      42.053  22.931  27.445  1.00  0.00     0.148 A 
ATOM     73  C   UNL A   1      43.419  23.405  25.040  1.00  0.00     0.002 A 
ATOM     74  C   UNL A   1      42.127  21.941  26.474  1.00  0.00     0.091 A 
ATOM     75  F   UNL A   1      41.387  22.747  28.594  1.00  0.00    -0.205 F 
ATOM     76  C   UNL A   1      42.793  22.183  25.261  1.00  0.00     0.022 A 
BRANCH  74  77
ATOM     77  S   UNL A   1      41.463  20.291  26.727  1.00  0.00     0.127 S 
ATOM     78  O   UNL A   1      41.815  19.631  25.473  1.00  0.00    -0.237 OA
ATOM     79  O   UNL A   1      42.218  19.839  27.896  1.00  0.00    -0.237 OA
ATOM     80  O   UNL A   1      40.038  20.474  26.967  1.00  0.00    -0.744 OA
ENDBRANCH  74  77
ENDBRANCH  46  70
BRANCH  58  81
ATOM     81  C   UNL A   1      46.913  25.755  32.574  1.00  0.00     0.023 A 
ATOM     82  C   UNL A   1      46.844  24.868  33.667  1.00  0.00     0.012 A 
ATOM     83  C   UNL A   1      48.156  25.992  31.956  1.00  0.00     0.148 A 
ATOM     84  C   UNL A   1      47.998  24.260  34.161  1.00  0.00     0.002 A 
ATOM     85  C   UNL A   1      49.293  25.342  32.419  1.00  0.00     0.091 A 
ATOM     86  F   UNL A   1      48.206  26.854  30.928  1.00  0.00    -0.205 F 
ATOM     87  C   UNL A   1      49.219  24.488  33.530  1.00  0.00     0.022 A 
BRANCH  85  88
ATOM     88  S   UNL A   1      50.889  25.499  31.609  1.00  0.00     0.127 S 
ATOM     89  O   UNL A   1      51.717  24.593  32.404  1.00  0.00    -0.237 OA
ATOM     90  O   UNL A   1      50.598  25.028  30.255  1.00  0.00    -0.237 OA
ATOM     91  O   UNL A   1      51.246  26.909  31.694  1.00  0.00    -0.744 OA
ENDBRANCH  85  88
ENDBRANCH  58  81
ENDBRANCH  32  33
ENDBRANCH  24  27
ENDBRANCH  22  23
ENDBRANCH  21  22
ENDBRANCH   1  21
TORSDOF 19
ENDMDL
MODEL 2
REMARK VINA RESULT:     -10.3      4.711      9.453
REMARK SMILES O=C(CCCC[C@H](O)c1ccc(F)c(Br)c1)NCCCNC(=O)c1ccc(-c2c3nc(c(-c4cccc(S(=O)(=O)[O-])c4F)c4ccc([nH]4)c(-c4cccc(S(=O)(=O)[O-])c4F)c4nc(c(-c5cccc(S(=O)(=O)[O-])c5F)c5ccc2[nH]5)C=C4)C=C3)cc1
REMARK SMILES IDX 18 1 17 2 1 3 2 4 3 6 4 7 5 8 6 9 7 10 9 11 10 12 16 13
REMARK SMILES IDX 11 14 14 15 12 16 15 17 13 18 8 19 19 21 20 22 21 23 22 24
REMARK SMILES IDX 23 26 24 27 25 28 86 29 26 30 85 31 27 32 28 33 29 34 79 35
REMARK SMILES IDX 30 36 84 37 78 38 80 39 31 40 83 41 77 42 76 43 32 45 64 46
REMARK SMILES IDX 44 47 63 48 45 49 48 50 62 51 81 52 46 53 47 54 61 56 82 57
REMARK SMILES IDX 49 58 33 59 34 60 42 61 35 62 37 63 43 64 36 65 38 66 39 67
REMARK SMILES IDX 40 68 41 69 65 70 66 71 74 72 67 73 69 74 75 75 68 76 70 77
REMARK SMILES IDX 71 78 72 79 73 80 50 81 51 82 59 83 52 84 54 85 60 86 53 87
REMARK SMILES IDX 55 88 56 89 57 90 58 91
REMARK H PARENT 17 5 8 20 21 25 80 44 48 55
REMARK Flexibility Score: inf
ROOT
ATOM      1  C   UNL A   1      35.133  21.855  26.433  1.00  0.00     0.117 C 
ENDROOT
BRANCH   1   2
ATOM      2  N   UNL A   1      34.539  23.174  26.377  1.00  0.00    -0.356 N 
ATOM      3  O   UNL A   1      32.422  22.488  25.804  1.00  0.00    -0.275 OA
ATOM      4  C   UNL A   1      33.205  23.379  26.116  1.00  0.00     0.219 C 
ATOM      5  H   UNL A   1      35.114  23.958  26.531  1.00  0.00     0.163 HD
BRANCH   4   6
ATOM      6  C   UNL A   1      32.762  24.819  26.277  1.00  0.00     0.100 C 
BRANCH   6   7
ATOM      7  C   UNL A   1      33.474  25.752  25.294  1.00  0.00     0.010 C 
BRANCH   7   8
ATOM      8  C   UNL A   1      33.813  27.162  25.804  1.00  0.00     0.004 C 
BRANCH   8   9
ATOM      9  C   UNL A   1      33.464  28.348  24.890  1.00  0.00     0.037 C 
BRANCH   9  10
ATOM     10  C   UNL A   1      32.293  29.206  25.388  1.00  0.00     0.144 C 
BRANCH  10  11
ATOM     11  C   UNL A   1      31.089  29.151  24.471  1.00  0.00    -0.018 A 
ATOM     12  C   UNL A   1      30.659  27.929  23.922  1.00  0.00     0.009 A 
ATOM     13  C   UNL A   1      30.349  30.313  24.201  1.00  0.00     0.025 A 
ATOM     14  C   UNL A   1      29.496  27.864  23.153  1.00  0.00     0.041 A 
ATOM     15  C   UNL A   1      29.183  30.243  23.433  1.00  0.00     0.054 A 
ATOM     16  C   UNL A   1      28.759  29.020  22.921  1.00  0.00     0.137 A 
ATOM     17  Br  UNL A   1      28.180  31.816  23.127  1.00  0.00    -0.048 Br
ATOM     18  F   UNL A   1      27.624  28.927  22.213  1.00  0.00    -0.206 F 
ENDBRANCH  10  11
BRANCH  10  19
ATOM     19  O   UNL A   1      31.881  28.783  26.686  1.00  0.00    -0.388 OA
ATOM     20  H   UNL A   1      32.576  28.235  27.082  1.00  0.00     0.211 HD
ENDBRANCH  10  19
ENDBRANCH   9  10
ENDBRANCH   8   9
ENDBRANCH   7   8
ENDBRANCH   6   7
ENDBRANCH   4   6
ENDBRANCH   1   2
BRANCH   1  21
ATOM     21  C   UNL A   1      35.550  21.340  25.061  1.00  0.00     0.042 C 
BRANCH  21  22
ATOM     22  C   UNL A   1      37.017  21.566  24.702  1.00  0.00     0.118 C 
BRANCH  22  23
ATOM     23  N   UNL A   1      37.905  20.524  25.195  1.00  0.00    -0.352 N 
ATOM     24  C   UNL A   1      39.093  20.631  25.877  1.00  0.00     0.251 C 
ATOM     25  H   UNL A   1      37.609  19.603  25.013  1.00  0.00     0.163 HD
ATOM     26  O   UNL A   1      39.753  19.614  26.093  1.00  0.00    -0.269 OA
BRANCH  24  27
ATOM     27  C   UNL A   1      39.599  21.948  26.329  1.00  0.00     0.039 A 
ATOM     28  C   UNL A   1      40.688  21.981  27.206  1.00  0.00     0.014 A 
ATOM     29  C   UNL A   1      39.005  23.144  25.918  1.00  0.00     0.014 A 
ATOM     30  C   UNL A   1      41.215  23.209  27.618  1.00  0.00     0.010 A 
ATOM     31  C   UNL A   1      39.582  24.366  26.266  1.00  0.00     0.010 A 
ATOM     32  C   UNL A   1      40.690  24.415  27.125  1.00  0.00    -0.014 A 
BRANCH  32  33
ATOM     33  C   UNL A   1      41.304  25.721  27.488  1.00  0.00     0.031 A 
ATOM     34  C   UNL A   1      42.732  26.032  27.121  1.00  0.00     0.074 A 
ATOM     35  C   UNL A   1      40.594  26.612  28.210  1.00  0.00     0.049 A 
ATOM     36  N   UNL A   1      43.429  27.114  27.362  1.00  0.00    -0.248 NA
ATOM     37  C   UNL A   1      43.485  24.985  26.413  1.00  0.00     0.031 C 
ATOM     38  C   UNL A   1      39.231  26.404  28.704  1.00  0.00     0.029 A 
ATOM     39  N   UNL A   1      40.924  27.864  28.670  1.00  0.00    -0.354 N 
ATOM     40  C   UNL A   1      44.703  26.868  26.865  1.00  0.00     0.074 A 
ATOM     41  C   UNL A   1      44.697  25.519  26.343  1.00  0.00     0.031 C 
ATOM     42  C   UNL A   1      38.838  27.493  29.385  1.00  0.00     0.029 A 
ATOM     43  C   UNL A   1      39.927  28.465  29.404  1.00  0.00     0.049 A 
ATOM     44  H   UNL A   1      41.793  28.291  28.492  1.00  0.00     0.167 HD
ATOM     45  C   UNL A   1      45.775  27.697  26.820  1.00  0.00     0.034 A 
ATOM     46  C   UNL A   1      39.892  29.659  30.027  1.00  0.00     0.034 A 
ATOM     47  C   UNL A   1      45.772  29.050  27.308  1.00  0.00     0.049 A 
ATOM     48  C   UNL A   1      41.082  30.574  29.927  1.00  0.00     0.074 A 
ATOM     49  C   UNL A   1      46.780  29.996  27.227  1.00  0.00     0.029 A 
ATOM     50  N   UNL A   1      44.717  29.651  27.978  1.00  0.00    -0.354 N 
ATOM     51  N   UNL A   1      42.221  30.384  29.309  1.00  0.00    -0.248 NA
ATOM     52  C   UNL A   1      40.966  31.888  30.579  1.00  0.00     0.031 C 
ATOM     53  C   UNL A   1      46.347  31.156  27.876  1.00  0.00     0.029 A 
ATOM     54  C   UNL A   1      45.053  30.948  28.327  1.00  0.00     0.049 A 
ATOM     55  H   UNL A   1      43.855  29.218  28.175  1.00  0.00     0.167 HD
ATOM     56  C   UNL A   1      42.942  31.562  29.463  1.00  0.00     0.074 A 
ATOM     57  C   UNL A   1      42.100  32.471  30.213  1.00  0.00     0.031 C 
ATOM     58  C   UNL A   1      44.193  31.862  29.032  1.00  0.00     0.034 A 
BRANCH  45  59
ATOM     59  C   UNL A   1      47.036  27.178  26.175  1.00  0.00     0.023 A 
ATOM     60  C   UNL A   1      47.270  27.424  24.806  1.00  0.00     0.012 A 
ATOM     61  C   UNL A   1      48.016  26.508  26.933  1.00  0.00     0.148 A 
ATOM     62  C   UNL A   1      48.440  26.978  24.193  1.00  0.00     0.002 A 
ATOM     63  C   UNL A   1      49.202  26.108  26.326  1.00  0.00     0.091 A 
ATOM     64  F   UNL A   1      47.770  26.267  28.228  1.00  0.00    -0.205 F 
ATOM     65  C   UNL A   1      49.409  26.331  24.954  1.00  0.00     0.022 A 
BRANCH  63  66
ATOM     66  S   UNL A   1      50.548  25.343  27.235  1.00  0.00     0.127 S 
ATOM     67  O   UNL A   1      51.506  25.066  26.165  1.00  0.00    -0.237 OA
ATOM     68  O   UNL A   1      50.949  26.415  28.149  1.00  0.00    -0.237 OA
ATOM     69  O   UNL A   1      49.980  24.170  27.884  1.00  0.00    -0.744 OA
ENDBRANCH  63  66
ENDBRANCH  45  59
BRANCH  46  70
ATOM     70  C   UNL A   1      38.660  30.088  30.749  1.00  0.00     0.023 A 
ATOM     71  C   UNL A   1      38.487  29.730  32.100  1.00  0.00     0.012 A 
ATOM     72  C   UNL A   1      37.670  30.860  30.111  1.00  0.00     0.148 A 
ATOM     73  C   UNL A   1      37.333  30.101  32.792  1.00  0.00     0.002 A 
ATOM     74  C   UNL A   1      36.552  31.276  30.823  1.00  0.00     0.091 A 
ATOM     75  F   UNL A   1      37.849  31.182  28.822  1.00  0.00    -0.205 F 
ATOM     76  C   UNL A   1      36.371  30.881  32.158  1.00  0.00     0.022 A 
BRANCH  74  77
ATOM     77  S   UNL A   1      35.328  32.391  30.127  1.00  0.00     0.127 S 
ATOM     78  O   UNL A   1      34.356  32.485  31.213  1.00  0.00    -0.237 OA
ATOM     79  O   UNL A   1      36.118  33.602  29.901  1.00  0.00    -0.237 OA
ATOM     80  O   UNL A   1      34.855  31.747  28.910  1.00  0.00    -0.744 OA
ENDBRANCH  74  77
ENDBRANCH  46  70
BRANCH  58  81
ATOM     81  C   UNL A   1      44.719  33.244  29.322  1.00  0.00     0.023 A 
ATOM     82  C   UNL A   1      45.429  33.494  30.514  1.00  0.00     0.012 A 
ATOM     83  C   UNL A   1      44.561  34.283  28.384  1.00  0.00     0.148 A 
ATOM     84  C   UNL A   1      45.936  34.765  30.785  1.00  0.00     0.002 A 
ATOM     85  C   UNL A   1      45.115  35.532  28.635  1.00  0.00     0.091 A 
ATOM     86  F   UNL A   1      43.867  34.033  27.263  1.00  0.00    -0.205 F 
ATOM     87  C   UNL A   1      45.789  35.779  29.842  1.00  0.00     0.022 A 
BRANCH  85  88
ATOM     88  S   UNL A   1      45.061  36.869  27.437  1.00  0.00     0.127 S 
ATOM     89  O   UNL A   1      45.590  37.989  28.215  1.00  0.00    -0.237 OA
ATOM     90  O   UNL A   1      45.953  36.381  26.386  1.00  0.00    -0.237 OA
ATOM     91  O   UNL A   1      43.665  36.992  27.035  1.00  0.00    -0.744 OA
ENDBRANCH  85  88
ENDBRANCH  58  81
ENDBRANCH  32  33
ENDBRANCH  24  27
ENDBRANCH  22  23
ENDBRANCH  21  22
ENDBRANCH   1  21
TORSDOF 19
ENDMDL
MODEL 3
REMARK VINA RESULT:     -10.1      4.263      7.595
REMARK SMILES O=C(CCCC[C@H](O)c1ccc(F)c(Br)c1)NCCCNC(=O)c1ccc(-c2c3nc(c(-c4cccc(S(=O)(=O)[O-])c4F)c4ccc([nH]4)c(-c4cccc(S(=O)(=O)[O-])c4F)c4nc(c(-c5cccc(S(=O)(=O)[O-])c5F)c5ccc2[nH]5)C=C4)C=C3)cc1
REMARK SMILES IDX 18 1 17 2 1 3 2 4 3 6 4 7 5 8 6 9 7 10 9 11 10 12 16 13
REMARK SMILES IDX 11 14 14 15 12 16 15 17 13 18 8 19 19 21 20 22 21 23 22 24
REMARK SMILES IDX 23 26 24 27 25 28 86 29 26 30 85 31 27 32 28 33 29 34 79 35
REMARK SMILES IDX 30 36 84 37 78 38 80 39 31 40 83 41 77 42 76 43 32 45 64 46
REMARK SMILES IDX 44 47 63 48 45 49 48 50 62 51 81 52 46 53 47 54 61 56 82 57
REMARK SMILES IDX 49 58 33 59 34 60 42 61 35 62 37 63 43 64 36 65 38 66 39 67
REMARK SMILES IDX 40 68 41 69 65 70 66 71 74 72 67 73 69 74 75 75 68 76 70 77
REMARK SMILES IDX 71 78 72 79 73 80 50 81 51 82 59 83 52 84 54 85 60 86 53 87
REMARK SMILES IDX 55 88 56 89 57 90 58 91
REMARK H PARENT 17 5 8 20 21 25 80 44 48 55
REMARK Flexibility Score: inf
ROOT
ATOM      1  C   UNL A   1      33.525  35.263  29.583  1.00  0.00     0.117 C 
ENDROOT
BRANCH   1   2
ATOM      2  N   UNL A   1      34.139  35.510  30.870  1.00  0.00    -0.356 N 
ATOM      3  O   UNL A   1      32.311  34.961  32.149  1.00  0.00    -0.275 OA
ATOM      4  C   UNL A   1      33.491  35.285  32.061  1.00  0.00     0.219 C 
ATOM      5  H   UNL A   1      35.061  35.855  30.894  1.00  0.00     0.163 HD
BRANCH   4   6
ATOM      6  C   UNL A   1      34.375  35.442  33.280  1.00  0.00     0.100 C 
BRANCH   6   7
ATOM      7  C   UNL A   1      35.024  34.118  33.695  1.00  0.00     0.010 C 
BRANCH   7   8
ATOM      8  C   UNL A   1      36.228  34.209  34.647  1.00  0.00     0.004 C 
BRANCH   8   9
ATOM      9  C   UNL A   1      37.555  33.596  34.169  1.00  0.00     0.037 C 
BRANCH   9  10
ATOM     10  C   UNL A   1      38.164  32.574  35.139  1.00  0.00     0.144 C 
BRANCH  10  11
ATOM     11  C   UNL A   1      38.236  33.082  36.564  1.00  0.00    -0.018 A 
ATOM     12  C   UNL A   1      37.812  32.276  37.637  1.00  0.00     0.009 A 
ATOM     13  C   UNL A   1      38.783  34.345  36.840  1.00  0.00     0.025 A 
ATOM     14  C   UNL A   1      37.965  32.707  38.955  1.00  0.00     0.041 A 
ATOM     15  C   UNL A   1      38.937  34.772  38.162  1.00  0.00     0.054 A 
ATOM     16  C   UNL A   1      38.536  33.949  39.211  1.00  0.00     0.137 A 
ATOM     17  Br  UNL A   1      39.722  36.457  38.505  1.00  0.00    -0.048 Br
ATOM     18  F   UNL A   1      38.711  34.326  40.486  1.00  0.00    -0.206 F 
ENDBRANCH  10  11
BRANCH  10  19
ATOM     19  O   UNL A   1      37.402  31.369  35.136  1.00  0.00    -0.388 OA
ATOM     20  H   UNL A   1      37.149  31.149  34.226  1.00  0.00     0.211 HD
ENDBRANCH  10  19
ENDBRANCH   9  10
ENDBRANCH   8   9
ENDBRANCH   7   8
ENDBRANCH   6   7
ENDBRANCH   4   6
ENDBRANCH   1   2
BRANCH   1  21
ATOM     21  C   UNL A   1      34.521  34.763  28.544  1.00  0.00     0.042 C 
BRANCH  21  22
ATOM     22  C   UNL A   1      34.979  33.318  28.728  1.00  0.00     0.118 C 
BRANCH  22  23
ATOM     23  N   UNL A   1      34.181  32.354  27.986  1.00  0.00    -0.352 N 
ATOM     24  C   UNL A   1      34.457  31.048  27.661  1.00  0.00     0.251 C 
ATOM     25  H   UNL A   1      33.310  32.688  27.670  1.00  0.00     0.163 HD
ATOM     26  O   UNL A   1      33.690  30.442  26.912  1.00  0.00    -0.269 OA
BRANCH  24  27
ATOM     27  C   UNL A   1      35.672  30.372  28.175  1.00  0.00     0.039 A 
ATOM     28  C   UNL A   1      36.828  30.387  27.390  1.00  0.00     0.014 A 
ATOM     29  C   UNL A   1      35.679  29.712  29.407  1.00  0.00     0.014 A 
ATOM     30  C   UNL A   1      38.002  29.794  27.865  1.00  0.00     0.010 A 
ATOM     31  C   UNL A   1      36.871  29.193  29.913  1.00  0.00     0.010 A 
ATOM     32  C   UNL A   1      38.046  29.222  29.148  1.00  0.00    -0.014 A 
BRANCH  32  33
ATOM     33  C   UNL A   1      39.316  28.671  29.696  1.00  0.00     0.031 A 
ATOM     34  C   UNL A   1      39.952  29.273  30.922  1.00  0.00     0.074 A 
ATOM     35  C   UNL A   1      39.936  27.662  29.052  1.00  0.00     0.049 A 
ATOM     36  N   UNL A   1      41.058  28.925  31.532  1.00  0.00    -0.248 NA
ATOM     37  C   UNL A   1      39.276  30.430  31.529  1.00  0.00     0.031 C 
ATOM     38  C   UNL A   1      39.474  27.043  27.808  1.00  0.00     0.029 A 
ATOM     39  N   UNL A   1      41.099  26.990  29.342  1.00  0.00    -0.354 N 
ATOM     40  C   UNL A   1      41.224  29.833  32.570  1.00  0.00     0.074 A 
ATOM     41  C   UNL A   1      40.128  30.773  32.486  1.00  0.00     0.031 C 
ATOM     42  C   UNL A   1      40.334  26.076  27.449  1.00  0.00     0.029 A 
ATOM     43  C   UNL A   1      41.425  26.024  28.417  1.00  0.00     0.049 A 
ATOM     44  H   UNL A   1      41.648  27.182  30.136  1.00  0.00     0.167 HD
ATOM     45  C   UNL A   1      42.185  29.869  33.526  1.00  0.00     0.034 A 
ATOM     46  C   UNL A   1      42.483  25.192  28.352  1.00  0.00     0.034 A 
ATOM     47  C   UNL A   1      43.256  28.914  33.632  1.00  0.00     0.049 A 
ATOM     48  C   UNL A   1      43.514  25.227  29.447  1.00  0.00     0.074 A 
ATOM     49  C   UNL A   1      44.226  28.815  34.615  1.00  0.00     0.029 A 
ATOM     50  N   UNL A   1      43.510  27.902  32.720  1.00  0.00    -0.354 N 
ATOM     51  N   UNL A   1      43.562  25.989  30.512  1.00  0.00    -0.248 NA
ATOM     52  C   UNL A   1      44.616  24.257  29.352  1.00  0.00     0.031 C 
ATOM     53  C   UNL A   1      45.084  27.764  34.280  1.00  0.00     0.029 A 
ATOM     54  C   UNL A   1      44.627  27.181  33.109  1.00  0.00     0.049 A 
ATOM     55  H   UNL A   1      42.974  27.721  31.914  1.00  0.00     0.167 HD
ATOM     56  C   UNL A   1      44.674  25.568  31.232  1.00  0.00     0.074 A 
ATOM     57  C   UNL A   1      45.258  24.468  30.494  1.00  0.00     0.031 C 
ATOM     58  C   UNL A   1      45.175  26.057  32.394  1.00  0.00     0.034 A 
BRANCH  45  59
ATOM     59  C   UNL A   1      42.095  30.953  34.571  1.00  0.00     0.023 A 
ATOM     60  C   UNL A   1      41.522  30.664  35.827  1.00  0.00     0.012 A 
ATOM     61  C   UNL A   1      42.634  32.233  34.337  1.00  0.00     0.148 A 
ATOM     62  C   UNL A   1      41.452  31.642  36.819  1.00  0.00     0.002 A 
ATOM     63  C   UNL A   1      42.604  33.188  35.348  1.00  0.00     0.091 A 
ATOM     64  F   UNL A   1      43.160  32.496  33.133  1.00  0.00    -0.205 F 
ATOM     65  C   UNL A   1      42.001  32.898  36.584  1.00  0.00     0.022 A 
BRANCH  63  66
ATOM     66  S   UNL A   1      43.360  34.808  35.175  1.00  0.00     0.127 S 
ATOM     67  O   UNL A   1      44.689  34.461  34.674  1.00  0.00    -0.237 OA
ATOM     68  O   UNL A   1      42.487  35.451  34.191  1.00  0.00    -0.237 OA
ATOM     69  O   UNL A   1      43.330  35.410  36.500  1.00  0.00    -0.744 OA
ENDBRANCH  63  66
ENDBRANCH  45  59
BRANCH  46  70
ATOM     70  C   UNL A   1      42.589  24.206  27.237  1.00  0.00     0.023 A 
ATOM     71  C   UNL A   1      43.313  24.545  26.078  1.00  0.00     0.012 A 
ATOM     72  C   UNL A   1      41.992  22.934  27.327  1.00  0.00     0.148 A 
ATOM     73  C   UNL A   1      43.409  23.649  25.012  1.00  0.00     0.002 A 
ATOM     74  C   UNL A   1      42.142  22.025  26.287  1.00  0.00     0.091 A 
ATOM     75  F   UNL A   1      41.299  22.635  28.435  1.00  0.00    -0.205 F 
ATOM     76  C   UNL A   1      42.833  22.386  25.120  1.00  0.00     0.022 A 
BRANCH  74  77
ATOM     77  S   UNL A   1      41.547  20.333  26.394  1.00  0.00     0.127 S 
ATOM     78  O   UNL A   1      40.115  20.505  26.166  1.00  0.00    -0.237 OA
ATOM     79  O   UNL A   1      42.274  19.690  25.299  1.00  0.00    -0.237 OA
ATOM     80  O   UNL A   1      41.924  19.867  27.721  1.00  0.00    -0.744 OA
ENDBRANCH  74  77
ENDBRANCH  46  70
BRANCH  58  81
ATOM     81  C   UNL A   1      46.393  25.382  32.969  1.00  0.00     0.023 A 
ATOM     82  C   UNL A   1      47.680  25.873  32.669  1.00  0.00     0.012 A 
ATOM     83  C   UNL A   1      46.259  24.296  33.857  1.00  0.00     0.148 A 
ATOM     84  C   UNL A   1      48.814  25.267  33.210  1.00  0.00     0.002 A 
ATOM     85  C   UNL A   1      47.390  23.731  34.433  1.00  0.00     0.091 A 
ATOM     86  F   UNL A   1      45.028  23.830  34.117  1.00  0.00    -0.205 F 
ATOM     87  C   UNL A   1      48.668  24.205  34.100  1.00  0.00     0.022 A 
BRANCH  85  88
ATOM     88  S   UNL A   1      47.294  22.426  35.664  1.00  0.00     0.127 S 
ATOM     89  O   UNL A   1      48.704  22.223  35.994  1.00  0.00    -0.237 OA
ATOM     90  O   UNL A   1      46.504  23.054  36.722  1.00  0.00    -0.237 OA
ATOM     91  O   UNL A   1      46.638  21.302  35.006  1.00  0.00    -0.744 OA
ENDBRANCH  85  88
ENDBRANCH  58  81
ENDBRANCH  32  33
ENDBRANCH  24  27
ENDBRANCH  22  23
ENDBRANCH  21  22
ENDBRANCH   1  21
TORSDOF 19
ENDMDL
