MODEL 1
REMARK VINA RESULT:     -12.2      0.000      0.000
REMARK SMILES Cc1[nH]c2ccc(Br)cc2c(=O)c1CCC(=O)NCCCNC(=O)c1ccc(-c2c3nc(c(-c4cccc(S(=O)(=O)[O-])c4F)c4ccc([nH]4)c(-c4cccc(S(=O)(=O)[O-])c4F)c4nc(c(-c5cccc(S(=O)(=O)[O-])c5F)c5ccc2[nH]5)C=C4)C=C3)cc1
REMARK SMILES IDX 20 1 19 2 18 3 16 4 17 5 15 7 14 8 13 9 1 10 2 11 3 12 4 13
REMARK SMILES IDX 11 15 5 16 10 17 12 18 6 19 9 20 7 21 8 22 21 23 22 24 23 25
REMARK SMILES IDX 24 27 25 28 26 29 87 30 27 31 86 32 28 33 29 34 30 35 80 36
REMARK SMILES IDX 31 37 85 38 79 39 81 40 32 41 84 42 78 43 77 44 33 46 65 47
REMARK SMILES IDX 45 48 64 49 46 50 49 51 63 52 82 53 47 54 48 55 62 57 83 58
REMARK SMILES IDX 50 59 34 60 35 61 43 62 36 63 38 64 44 65 37 66 39 67 40 68
REMARK SMILES IDX 41 69 42 70 66 71 67 72 75 73 68 74 70 75 76 76 69 77 71 78
REMARK SMILES IDX 72 79 73 80 74 81 51 82 52 83 60 84 53 85 55 86 61 87 54 88
REMARK SMILES IDX 56 89 57 90 58 91 59 92
REMARK H PARENT 18 6 3 14 22 26 81 45 49 56
REMARK Flexibility Score: inf
ROOT
ATOM      1  C   UNL A   1      35.085  21.664  26.499  1.00  0.00     0.042 C 
ENDROOT
BRANCH   1   2
ATOM      2  C   UNL A   1      33.685  21.103  26.806  1.00  0.00     0.117 C 
BRANCH   2   3
ATOM      3  N   UNL A   1      32.786  22.132  27.336  1.00  0.00    -0.356 N 
ATOM      4  C   UNL A   1      31.808  22.896  26.762  1.00  0.00     0.220 C 
ATOM      5  O   UNL A   1      31.262  23.752  27.464  1.00  0.00    -0.275 OA
ATOM      6  H   UNL A   1      32.911  22.308  28.298  1.00  0.00     0.163 HD
BRANCH   4   7
ATOM      7  C   UNL A   1      31.324  22.656  25.343  1.00  0.00     0.105 C 
BRANCH   7   8
ATOM      8  C   UNL A   1      32.264  23.193  24.252  1.00  0.00     0.051 C 
BRANCH   8   9
ATOM      9  C   UNL A   1      32.294  24.695  24.294  1.00  0.00     0.020 A 
ATOM     10  C   UNL A   1      34.596  24.977  25.270  1.00  0.00     0.064 C 
ATOM     11  C   UNL A   1      33.241  25.486  24.846  1.00  0.00     0.019 A 
ATOM     12  N   UNL A   1      33.033  26.836  25.061  1.00  0.00    -0.358 N 
ATOM     13  C   UNL A   1      31.900  27.498  24.586  1.00  0.00     0.050 A 
ATOM     14  H   UNL A   1      33.706  27.347  25.566  1.00  0.00     0.166 HD
ATOM     15  C   UNL A   1      31.105  25.350  23.673  1.00  0.00     0.192 A 
ATOM     16  C   UNL A   1      31.656  28.835  24.875  1.00  0.00     0.028 A 
ATOM     17  C   UNL A   1      30.965  26.804  23.813  1.00  0.00     0.047 A 
ATOM     18  O   UNL A   1      30.246  24.703  23.084  1.00  0.00    -0.289 OA
ATOM     19  C   UNL A   1      30.597  29.488  24.240  1.00  0.00     0.018 A 
ATOM     20  C   UNL A   1      29.903  27.445  23.185  1.00  0.00     0.030 A 
ATOM     21  C   UNL A   1      29.787  28.812  23.330  1.00  0.00     0.018 A 
ATOM     22  Br  UNL A   1      28.648  29.726  22.138  1.00  0.00    -0.051 Br
ENDBRANCH   8   9
ENDBRANCH   7   8
ENDBRANCH   4   7
ENDBRANCH   2   3
ENDBRANCH   1   2
BRANCH   1  23
ATOM     23  C   UNL A   1      35.720  21.333  25.139  1.00  0.00     0.118 C 
BRANCH  23  24
ATOM     24  N   UNL A   1      36.976  20.596  25.237  1.00  0.00    -0.352 N 
ATOM     25  C   UNL A   1      38.271  20.892  25.613  1.00  0.00     0.251 C 
ATOM     26  H   UNL A   1      36.875  19.654  24.967  1.00  0.00     0.163 HD
ATOM     27  O   UNL A   1      39.077  19.962  25.505  1.00  0.00    -0.269 OA
BRANCH  25  28
ATOM     28  C   UNL A   1      38.793  22.217  26.086  1.00  0.00     0.039 A 
ATOM     29  C   UNL A   1      38.156  23.441  25.934  1.00  0.00     0.014 A 
ATOM     30  C   UNL A   1      39.990  22.216  26.833  1.00  0.00     0.014 A 
ATOM     31  C   UNL A   1      38.783  24.632  26.374  1.00  0.00     0.010 A 
ATOM     32  C   UNL A   1      40.591  23.406  27.305  1.00  0.00     0.010 A 
ATOM     33  C   UNL A   1      40.048  24.658  27.007  1.00  0.00    -0.014 A 
BRANCH  33  34
ATOM     34  C   UNL A   1      40.777  25.964  27.286  1.00  0.00     0.031 A 
ATOM     35  C   UNL A   1      40.155  27.102  28.106  1.00  0.00     0.074 A 
ATOM     36  C   UNL A   1      42.065  26.135  26.911  1.00  0.00     0.049 A 
ATOM     37  N   UNL A   1      40.725  28.182  28.600  1.00  0.00    -0.248 NA
ATOM     38  C   UNL A   1      38.728  27.011  28.443  1.00  0.00     0.031 C 
ATOM     39  C   UNL A   1      42.844  25.188  26.117  1.00  0.00     0.029 A 
ATOM     40  N   UNL A   1      42.956  27.159  27.166  1.00  0.00    -0.354 N 
ATOM     41  C   UNL A   1      39.741  28.861  29.320  1.00  0.00     0.074 A 
ATOM     42  C   UNL A   1      38.539  28.069  29.218  1.00  0.00     0.031 C 
ATOM     43  C   UNL A   1      44.104  25.633  26.010  1.00  0.00     0.029 A 
ATOM     44  C   UNL A   1      44.217  26.939  26.659  1.00  0.00     0.049 A 
ATOM     45  H   UNL A   1      42.712  27.972  27.664  1.00  0.00     0.167 HD
ATOM     46  C   UNL A   1      39.797  30.041  29.991  1.00  0.00     0.034 A 
ATOM     47  C   UNL A   1      45.342  27.686  26.679  1.00  0.00     0.034 A 
ATOM     48  C   UNL A   1      40.938  30.913  30.050  1.00  0.00     0.049 A 
ATOM     49  C   UNL A   1      45.364  29.034  27.343  1.00  0.00     0.074 A 
ATOM     50  C   UNL A   1      41.039  32.151  30.666  1.00  0.00     0.029 A 
ATOM     51  N   UNL A   1      42.159  30.668  29.451  1.00  0.00    -0.354 N 
ATOM     52  N   UNL A   1      44.430  29.614  28.054  1.00  0.00    -0.248 NA
ATOM     53  C   UNL A   1      46.592  29.834  27.200  1.00  0.00     0.031 C 
ATOM     54  C   UNL A   1      42.314  32.666  30.418  1.00  0.00     0.029 A 
ATOM     55  C   UNL A   1      43.014  31.737  29.668  1.00  0.00     0.049 A 
ATOM     56  H   UNL A   1      42.389  29.854  28.946  1.00  0.00     0.167 HD
ATOM     57  C   UNL A   1      44.956  30.842  28.443  1.00  0.00     0.074 A 
ATOM     58  C   UNL A   1      46.298  30.918  27.909  1.00  0.00     0.031 C 
ATOM     59  C   UNL A   1      44.360  31.820  29.167  1.00  0.00     0.034 A 
BRANCH  46  60
ATOM     60  C   UNL A   1      38.565  30.494  30.739  1.00  0.00     0.023 A 
ATOM     61  C   UNL A   1      38.471  30.237  32.122  1.00  0.00     0.012 A 
ATOM     62  C   UNL A   1      37.572  31.270  30.109  1.00  0.00     0.148 A 
ATOM     63  C   UNL A   1      37.403  30.741  32.866  1.00  0.00     0.002 A 
ATOM     64  C   UNL A   1      36.520  31.784  30.861  1.00  0.00     0.091 A 
ATOM     65  F   UNL A   1      37.679  31.494  28.792  1.00  0.00    -0.205 F 
ATOM     66  C   UNL A   1      36.434  31.521  32.239  1.00  0.00     0.022 A 
BRANCH  64  67
ATOM     67  S   UNL A   1      35.241  32.834  30.158  1.00  0.00     0.127 S 
ATOM     68  O   UNL A   1      34.589  31.913  29.227  1.00  0.00    -0.237 OA
ATOM     69  O   UNL A   1      34.442  33.180  31.333  1.00  0.00    -0.237 OA
ATOM     70  O   UNL A   1      35.935  33.954  29.539  1.00  0.00    -0.744 OA
ENDBRANCH  64  67
ENDBRANCH  46  60
BRANCH  47  71
ATOM     71  C   UNL A   1      46.569  27.145  26.028  1.00  0.00     0.023 A 
ATOM     72  C   UNL A   1      46.807  27.398  24.666  1.00  0.00     0.012 A 
ATOM     73  C   UNL A   1      47.545  26.474  26.791  1.00  0.00     0.148 A 
ATOM     74  C   UNL A   1      48.011  27.010  24.076  1.00  0.00     0.002 A 
ATOM     75  C   UNL A   1      48.764  26.146  26.213  1.00  0.00     0.091 A 
ATOM     76  F   UNL A   1      47.279  26.225  28.080  1.00  0.00    -0.205 F 
ATOM     77  C   UNL A   1      48.997  26.404  24.853  1.00  0.00     0.022 A 
BRANCH  75  78
ATOM     78  S   UNL A   1      50.139  25.504  27.175  1.00  0.00     0.127 S 
ATOM     79  O   UNL A   1      49.607  24.219  27.634  1.00  0.00    -0.237 OA
ATOM     80  O   UNL A   1      51.189  25.404  26.157  1.00  0.00    -0.237 OA
ATOM     81  O   UNL A   1      50.392  26.483  28.214  1.00  0.00    -0.744 OA
ENDBRANCH  75  78
ENDBRANCH  47  71
BRANCH  59  82
ATOM     82  C   UNL A   1      45.127  33.088  29.435  1.00  0.00     0.023 A 
ATOM     83  C   UNL A   1      45.963  33.162  30.567  1.00  0.00     0.012 A 
ATOM     84  C   UNL A   1      45.118  34.149  28.508  1.00  0.00     0.148 A 
ATOM     85  C   UNL A   1      46.771  34.279  30.777  1.00  0.00     0.002 A 
ATOM     86  C   UNL A   1      45.948  35.246  28.710  1.00  0.00     0.091 A 
ATOM     87  F   UNL A   1      44.311  34.057  27.442  1.00  0.00    -0.205 F 
ATOM     88  C   UNL A   1      46.772  35.315  29.846  1.00  0.00     0.022 A 
BRANCH  86  89
ATOM     89  S   UNL A   1      46.073  36.601  27.535  1.00  0.00     0.127 S 
ATOM     90  O   UNL A   1      46.454  35.900  26.311  1.00  0.00    -0.237 OA
ATOM     91  O   UNL A   1      44.709  37.134  27.533  1.00  0.00    -0.237 OA
ATOM     92  O   UNL A   1      47.080  37.507  28.067  1.00  0.00    -0.744 OA
ENDBRANCH  86  89
ENDBRANCH  59  82
ENDBRANCH  33  34
ENDBRANCH  25  28
ENDBRANCH  23  24
ENDBRANCH   1  23
TORSDOF 15
ENDMDL
MODEL 2
REMARK VINA RESULT:     -12.2      1.845      7.763
REMARK SMILES Cc1[nH]c2ccc(Br)cc2c(=O)c1CCC(=O)NCCCNC(=O)c1ccc(-c2c3nc(c(-c4cccc(S(=O)(=O)[O-])c4F)c4ccc([nH]4)c(-c4cccc(S(=O)(=O)[O-])c4F)c4nc(c(-c5cccc(S(=O)(=O)[O-])c5F)c5ccc2[nH]5)C=C4)C=C3)cc1
REMARK SMILES IDX 20 1 19 2 18 3 16 4 17 5 15 7 14 8 13 9 1 10 2 11 3 12 4 13
REMARK SMILES IDX 11 15 5 16 10 17 12 18 6 19 9 20 7 21 8 22 21 23 22 24 23 25
REMARK SMILES IDX 24 27 25 28 26 29 87 30 27 31 86 32 28 33 29 34 30 35 80 36
REMARK SMILES IDX 31 37 85 38 79 39 81 40 32 41 84 42 78 43 77 44 33 46 65 47
REMARK SMILES IDX 45 48 64 49 46 50 49 51 63 52 82 53 47 54 48 55 62 57 83 58
REMARK SMILES IDX 50 59 34 60 35 61 43 62 36 63 38 64 44 65 37 66 39 67 40 68
REMARK SMILES IDX 41 69 42 70 66 71 67 72 75 73 68 74 70 75 76 76 69 77 71 78
REMARK SMILES IDX 72 79 73 80 74 81 51 82 52 83 60 84 53 85 55 86 61 87 54 88
REMARK SMILES IDX 56 89 57 90 58 91 59 92
REMARK H PARENT 18 6 3 14 22 26 81 45 49 56
REMARK Flexibility Score: inf
ROOT
ATOM      1  C   UNL A   1      36.037  21.023  25.746  1.00  0.00     0.042 C 
ENDROOT
BRANCH   1   2
ATOM      2  C   UNL A   1      35.351  22.397  25.837  1.00  0.00     0.117 C 
BRANCH   2   3
ATOM      3  N   UNL A   1      34.430  22.476  26.975  1.00  0.00    -0.356 N 
ATOM      4  C   UNL A   1      33.073  22.358  27.080  1.00  0.00     0.220 C 
ATOM      5  O   UNL A   1      32.563  22.554  28.187  1.00  0.00    -0.275 OA
ATOM      6  H   UNL A   1      34.879  22.648  27.834  1.00  0.00     0.163 HD
BRANCH   4   7
ATOM      7  C   UNL A   1      32.207  21.908  25.915  1.00  0.00     0.105 C 
BRANCH   7   8
ATOM      8  C   UNL A   1      31.081  22.886  25.547  1.00  0.00     0.051 C 
BRANCH   8   9
ATOM      9  C   UNL A   1      31.663  24.152  24.982  1.00  0.00     0.020 A 
ATOM     10  C   UNL A   1      32.395  23.242  22.753  1.00  0.00     0.064 C 
ATOM     11  C   UNL A   1      32.349  24.301  23.827  1.00  0.00     0.019 A 
ATOM     12  N   UNL A   1      33.064  25.450  23.543  1.00  0.00    -0.358 N 
ATOM     13  C   UNL A   1      33.000  26.584  24.353  1.00  0.00     0.050 A 
ATOM     14  H   UNL A   1      33.637  25.468  22.743  1.00  0.00     0.166 HD
ATOM     15  C   UNL A   1      31.467  25.355  25.844  1.00  0.00     0.192 A 
ATOM     16  C   UNL A   1      33.782  27.706  24.109  1.00  0.00     0.028 A 
ATOM     17  C   UNL A   1      32.143  26.599  25.458  1.00  0.00     0.047 A 
ATOM     18  O   UNL A   1      30.790  25.314  26.865  1.00  0.00    -0.289 OA
ATOM     19  C   UNL A   1      33.559  28.868  24.851  1.00  0.00     0.018 A 
ATOM     20  C   UNL A   1      31.922  27.749  26.207  1.00  0.00     0.030 A 
ATOM     21  C   UNL A   1      32.567  28.908  25.830  1.00  0.00     0.018 A 
ATOM     22  Br  UNL A   1      31.933  30.536  26.540  1.00  0.00    -0.051 Br
ENDBRANCH   8   9
ENDBRANCH   7   8
ENDBRANCH   4   7
ENDBRANCH   2   3
ENDBRANCH   1   2
BRANCH   1  23
ATOM     23  C   UNL A   1      37.130  20.824  24.684  1.00  0.00     0.118 C 
BRANCH  23  24
ATOM     24  N   UNL A   1      38.297  20.092  25.166  1.00  0.00    -0.352 N 
ATOM     25  C   UNL A   1      39.430  20.402  25.890  1.00  0.00     0.251 C 
ATOM     26  H   UNL A   1      38.270  19.141  24.911  1.00  0.00     0.163 HD
ATOM     27  O   UNL A   1      40.225  19.469  26.052  1.00  0.00    -0.269 OA
BRANCH  25  28
ATOM     28  C   UNL A   1      39.806  21.742  26.450  1.00  0.00     0.039 A 
ATOM     29  C   UNL A   1      39.157  22.942  26.188  1.00  0.00     0.014 A 
ATOM     30  C   UNL A   1      40.851  21.784  27.397  1.00  0.00     0.014 A 
ATOM     31  C   UNL A   1      39.647  24.153  26.732  1.00  0.00     0.010 A 
ATOM     32  C   UNL A   1      41.309  22.993  27.969  1.00  0.00     0.010 A 
ATOM     33  C   UNL A   1      40.777  24.224  27.580  1.00  0.00    -0.014 A 
BRANCH  33  34
ATOM     34  C   UNL A   1      41.391  25.556  27.986  1.00  0.00     0.031 A 
ATOM     35  C   UNL A   1      42.812  25.971  27.582  1.00  0.00     0.074 A 
ATOM     36  C   UNL A   1      40.661  26.490  28.637  1.00  0.00     0.049 A 
ATOM     37  N   UNL A   1      43.396  27.148  27.675  1.00  0.00    -0.248 NA
ATOM     38  C   UNL A   1      43.681  24.956  26.970  1.00  0.00     0.031 C 
ATOM     39  C   UNL A   1      39.296  26.302  29.123  1.00  0.00     0.029 A 
ATOM     40  N   UNL A   1      40.956  27.794  28.984  1.00  0.00    -0.354 N 
ATOM     41  C   UNL A   1      44.664  27.014  27.109  1.00  0.00     0.074 A 
ATOM     42  C   UNL A   1      44.768  25.647  26.657  1.00  0.00     0.031 C 
ATOM     43  C   UNL A   1      38.848  27.457  29.637  1.00  0.00     0.029 A 
ATOM     44  C   UNL A   1      39.915  28.457  29.592  1.00  0.00     0.049 A 
ATOM     45  H   UNL A   1      41.831  28.211  28.812  1.00  0.00     0.167 HD
ATOM     46  C   UNL A   1      45.674  27.914  26.985  1.00  0.00     0.034 A 
ATOM     47  C   UNL A   1      39.807  29.710  30.085  1.00  0.00     0.034 A 
ATOM     48  C   UNL A   1      45.659  29.258  27.496  1.00  0.00     0.049 A 
ATOM     49  C   UNL A   1      40.964  30.666  30.028  1.00  0.00     0.074 A 
ATOM     50  C   UNL A   1      46.674  30.202  27.451  1.00  0.00     0.029 A 
ATOM     51  N   UNL A   1      44.604  29.843  28.169  1.00  0.00    -0.354 N 
ATOM     52  N   UNL A   1      42.124  30.517  29.440  1.00  0.00    -0.248 NA
ATOM     53  C   UNL A   1      40.799  31.963  30.708  1.00  0.00     0.031 C 
ATOM     54  C   UNL A   1      46.241  31.349  28.122  1.00  0.00     0.029 A 
ATOM     55  C   UNL A   1      44.948  31.127  28.562  1.00  0.00     0.049 A 
ATOM     56  H   UNL A   1      43.736  29.411  28.344  1.00  0.00     0.167 HD
ATOM     57  C   UNL A   1      42.826  31.695  29.677  1.00  0.00     0.074 A 
ATOM     58  C   UNL A   1      41.956  32.560  30.443  1.00  0.00     0.031 C 
ATOM     59  C   UNL A   1      44.088  32.012  29.302  1.00  0.00     0.034 A 
BRANCH  46  60
ATOM     60  C   UNL A   1      46.926  27.485  26.257  1.00  0.00     0.023 A 
ATOM     61  C   UNL A   1      47.851  26.652  26.918  1.00  0.00     0.012 A 
ATOM     62  C   UNL A   1      47.125  27.800  24.898  1.00  0.00     0.148 A 
ATOM     63  C   UNL A   1      48.960  26.145  26.239  1.00  0.00     0.002 A 
ATOM     64  C   UNL A   1      48.222  27.274  24.222  1.00  0.00     0.091 A 
ATOM     65  F   UNL A   1      46.235  28.599  24.292  1.00  0.00    -0.205 F 
ATOM     66  C   UNL A   1      49.140  26.447  24.891  1.00  0.00     0.022 A 
BRANCH  64  67
ATOM     67  S   UNL A   1      48.524  27.569  22.475  1.00  0.00     0.127 S 
ATOM     68  O   UNL A   1      49.782  28.316  22.520  1.00  0.00    -0.237 OA
ATOM     69  O   UNL A   1      48.640  26.211  21.946  1.00  0.00    -0.237 OA
ATOM     70  O   UNL A   1      47.375  28.319  21.988  1.00  0.00    -0.744 OA
ENDBRANCH  64  67
ENDBRANCH  46  60
BRANCH  47  71
ATOM     71  C   UNL A   1      38.510  30.129  30.689  1.00  0.00     0.023 A 
ATOM     72  C   UNL A   1      38.285  29.937  32.064  1.00  0.00     0.012 A 
ATOM     73  C   UNL A   1      37.550  30.813  29.918  1.00  0.00     0.148 A 
ATOM     74  C   UNL A   1      37.132  30.441  32.668  1.00  0.00     0.002 A 
ATOM     75  C   UNL A   1      36.435  31.364  30.537  1.00  0.00     0.091 A 
ATOM     76  F   UNL A   1      37.780  30.958  28.607  1.00  0.00    -0.205 F 
ATOM     77  C   UNL A   1      36.218  31.171  31.910  1.00  0.00     0.022 A 
BRANCH  75  78
ATOM     78  S   UNL A   1      35.293  32.443  29.667  1.00  0.00     0.127 S 
ATOM     79  O   UNL A   1      34.736  31.538  28.660  1.00  0.00    -0.237 OA
ATOM     80  O   UNL A   1      34.365  32.814  30.739  1.00  0.00    -0.237 OA
ATOM     81  O   UNL A   1      36.091  33.538  29.150  1.00  0.00    -0.744 OA
ENDBRANCH  75  78
ENDBRANCH  47  71
BRANCH  59  82
ATOM     82  C   UNL A   1      44.648  33.348  29.709  1.00  0.00     0.023 A 
ATOM     83  C   UNL A   1      45.414  33.445  30.888  1.00  0.00     0.012 A 
ATOM     84  C   UNL A   1      44.524  34.471  28.868  1.00  0.00     0.148 A 
ATOM     85  C   UNL A   1      46.040  34.644  31.228  1.00  0.00     0.002 A 
ATOM     86  C   UNL A   1      45.175  35.655  29.199  1.00  0.00     0.091 A 
ATOM     87  F   UNL A   1      43.786  34.355  27.755  1.00  0.00    -0.205 F 
ATOM     88  C   UNL A   1      45.929  35.744  30.381  1.00  0.00     0.022 A 
BRANCH  86  89
ATOM     89  S   UNL A   1      45.150  37.108  28.141  1.00  0.00     0.127 S 
ATOM     90  O   UNL A   1      43.723  37.426  28.105  1.00  0.00    -0.237 OA
ATOM     91  O   UNL A   1      45.967  38.056  28.900  1.00  0.00    -0.237 OA
ATOM     92  O   UNL A   1      45.723  36.692  26.869  1.00  0.00    -0.744 OA
ENDBRANCH  86  89
ENDBRANCH  59  82
ENDBRANCH  33  34
ENDBRANCH  25  28
ENDBRANCH  23  24
ENDBRANCH   1  23
TORSDOF 15
ENDMDL
MODEL 3
REMARK VINA RESULT:     -12.2      0.478      7.785
REMARK SMILES Cc1[nH]c2ccc(Br)cc2c(=O)c1CCC(=O)NCCCNC(=O)c1ccc(-c2c3nc(c(-c4cccc(S(=O)(=O)[O-])c4F)c4ccc([nH]4)c(-c4cccc(S(=O)(=O)[O-])c4F)c4nc(c(-c5cccc(S(=O)(=O)[O-])c5F)c5ccc2[nH]5)C=C4)C=C3)cc1
REMARK SMILES IDX 20 1 19 2 18 3 16 4 17 5 15 7 14 8 13 9 1 10 2 11 3 12 4 13
REMARK SMILES IDX 11 15 5 16 10 17 12 18 6 19 9 20 7 21 8 22 21 23 22 24 23 25
REMARK SMILES IDX 24 27 25 28 26 29 87 30 27 31 86 32 28 33 29 34 30 35 80 36
REMARK SMILES IDX 31 37 85 38 79 39 81 40 32 41 84 42 78 43 77 44 33 46 65 47
REMARK SMILES IDX 45 48 64 49 46 50 49 51 63 52 82 53 47 54 48 55 62 57 83 58
REMARK SMILES IDX 50 59 34 60 35 61 43 62 36 63 38 64 44 65 37 66 39 67 40 68
REMARK SMILES IDX 41 69 42 70 66 71 67 72 75 73 68 74 70 75 76 76 69 77 71 78
REMARK SMILES IDX 72 79 73 80 74 81 51 82 52 83 60 84 53 85 55 86 61 87 54 88
REMARK SMILES IDX 56 89 57 90 58 91 59 92
REMARK H PARENT 18 6 3 14 22 26 81 45 49 56
REMARK Flexibility Score: inf
ROOT
ATOM      1  C   UNL A   1      35.493  21.465  26.223  1.00  0.00     0.042 C 
ENDROOT
BRANCH   1   2
ATOM      2  C   UNL A   1      34.007  21.069  26.243  1.00  0.00     0.117 C 
BRANCH   2   3
ATOM      3  N   UNL A   1      33.200  22.005  27.032  1.00  0.00    -0.356 N 
ATOM      4  C   UNL A   1      32.109  22.771  26.731  1.00  0.00     0.220 C 
ATOM      5  O   UNL A   1      31.686  23.535  27.603  1.00  0.00    -0.275 OA
ATOM      6  H   UNL A   1      33.505  22.100  27.964  1.00  0.00     0.163 HD
BRANCH   4   7
ATOM      7  C   UNL A   1      31.364  22.636  25.414  1.00  0.00     0.105 C 
BRANCH   7   8
ATOM      8  C   UNL A   1      32.143  23.145  24.191  1.00  0.00     0.051 C 
BRANCH   8   9
ATOM      9  C   UNL A   1      32.218  24.647  24.218  1.00  0.00     0.020 A 
ATOM     10  C   UNL A   1      34.593  24.870  25.016  1.00  0.00     0.064 C 
ATOM     11  C   UNL A   1      33.225  25.414  24.690  1.00  0.00     0.019 A 
ATOM     12  N   UNL A   1      33.070  26.771  24.909  1.00  0.00    -0.358 N 
ATOM     13  C   UNL A   1      31.924  27.461  24.515  1.00  0.00     0.050 A 
ATOM     14  H   UNL A   1      33.794  27.266  25.358  1.00  0.00     0.166 HD
ATOM     15  C   UNL A   1      31.004  25.331  23.681  1.00  0.00     0.192 A 
ATOM     16  C   UNL A   1      31.739  28.807  24.810  1.00  0.00     0.028 A 
ATOM     17  C   UNL A   1      30.914  26.789  23.819  1.00  0.00     0.047 A 
ATOM     18  O   UNL A   1      30.086  24.705  23.164  1.00  0.00    -0.289 OA
ATOM     19  C   UNL A   1      30.654  29.485  24.251  1.00  0.00     0.018 A 
ATOM     20  C   UNL A   1      29.826  27.456  23.268  1.00  0.00     0.030 A 
ATOM     21  C   UNL A   1      29.759  28.826  23.409  1.00  0.00     0.018 A 
ATOM     22  Br  UNL A   1      28.560  29.765  22.298  1.00  0.00    -0.051 Br
ENDBRANCH   8   9
ENDBRANCH   7   8
ENDBRANCH   4   7
ENDBRANCH   2   3
ENDBRANCH   1   2
BRANCH   1  23
ATOM     23  C   UNL A   1      36.309  21.168  24.955  1.00  0.00     0.118 C 
BRANCH  23  24
ATOM     24  N   UNL A   1      37.539  20.422  25.202  1.00  0.00    -0.352 N 
ATOM     25  C   UNL A   1      38.773  20.704  25.751  1.00  0.00     0.251 C 
ATOM     26  H   UNL A   1      37.471  19.487  24.904  1.00  0.00     0.163 HD
ATOM     27  O   UNL A   1      39.584  19.771  25.733  1.00  0.00    -0.269 OA
BRANCH  25  28
ATOM     28  C   UNL A   1      39.233  22.017  26.315  1.00  0.00     0.039 A 
ATOM     29  C   UNL A   1      38.636  23.250  26.091  1.00  0.00     0.014 A 
ATOM     30  C   UNL A   1      40.310  21.993  27.226  1.00  0.00     0.014 A 
ATOM     31  C   UNL A   1      39.202  24.428  26.634  1.00  0.00     0.010 A 
ATOM     32  C   UNL A   1      40.847  23.170  27.797  1.00  0.00     0.010 A 
ATOM     33  C   UNL A   1      40.363  24.431  27.443  1.00  0.00    -0.014 A 
BRANCH  33  34
ATOM     34  C   UNL A   1      41.056  25.726  27.844  1.00  0.00     0.031 A 
ATOM     35  C   UNL A   1      42.487  26.069  27.412  1.00  0.00     0.074 A 
ATOM     36  C   UNL A   1      40.390  26.691  28.519  1.00  0.00     0.049 A 
ATOM     37  N   UNL A   1      43.134  27.213  27.501  1.00  0.00    -0.248 NA
ATOM     38  C   UNL A   1      43.287  25.015  26.774  1.00  0.00     0.031 C 
ATOM     39  C   UNL A   1      39.028  26.571  29.033  1.00  0.00     0.029 A 
ATOM     40  N   UNL A   1      40.760  27.974  28.868  1.00  0.00    -0.354 N 
ATOM     41  C   UNL A   1      44.381  27.017  26.906  1.00  0.00     0.074 A 
ATOM     42  C   UNL A   1      44.402  25.650  26.442  1.00  0.00     0.031 C 
ATOM     43  C   UNL A   1      38.653  27.744  29.565  1.00  0.00     0.029 A 
ATOM     44  C   UNL A   1      39.769  28.686  29.504  1.00  0.00     0.049 A 
ATOM     45  H   UNL A   1      41.652  28.346  28.679  1.00  0.00     0.167 HD
ATOM     46  C   UNL A   1      45.433  27.863  26.766  1.00  0.00     0.034 A 
ATOM     47  C   UNL A   1      39.738  29.939  30.008  1.00  0.00     0.034 A 
ATOM     48  C   UNL A   1      45.501  29.202  27.286  1.00  0.00     0.049 A 
ATOM     49  C   UNL A   1      40.943  30.834  29.932  1.00  0.00     0.074 A 
ATOM     50  C   UNL A   1      46.563  30.092  27.226  1.00  0.00     0.029 A 
ATOM     51  N   UNL A   1      44.493  29.836  27.987  1.00  0.00    -0.354 N 
ATOM     52  N   UNL A   1      42.080  30.629  29.318  1.00  0.00    -0.248 NA
ATOM     53  C   UNL A   1      40.862  32.132  30.625  1.00  0.00     0.031 C 
ATOM     54  C   UNL A   1      46.206  31.254  27.915  1.00  0.00     0.029 A 
ATOM     55  C   UNL A   1      44.913  31.097  28.381  1.00  0.00     0.049 A 
ATOM     56  H   UNL A   1      43.607  29.449  28.179  1.00  0.00     0.167 HD
ATOM     57  C   UNL A   1      42.848  31.766  29.548  1.00  0.00     0.074 A 
ATOM     58  C   UNL A   1      42.042  32.669  30.339  1.00  0.00     0.031 C 
ATOM     59  C   UNL A   1      44.117  32.019  29.147  1.00  0.00     0.034 A 
BRANCH  46  60
ATOM     60  C   UNL A   1      46.645  27.375  26.007  1.00  0.00     0.023 A 
ATOM     61  C   UNL A   1      46.748  27.654  24.629  1.00  0.00     0.012 A 
ATOM     62  C   UNL A   1      47.723  26.757  26.672  1.00  0.00     0.148 A 
ATOM     63  C   UNL A   1      47.904  27.318  23.923  1.00  0.00     0.002 A 
ATOM     64  C   UNL A   1      48.880  26.443  25.964  1.00  0.00     0.091 A 
ATOM     65  F   UNL A   1      47.598  26.496  27.980  1.00  0.00    -0.205 F 
ATOM     66  C   UNL A   1      48.971  26.722  24.591  1.00  0.00     0.022 A 
BRANCH  64  67
ATOM     67  S   UNL A   1      50.327  25.710  26.739  1.00  0.00     0.127 S 
ATOM     68  O   UNL A   1      49.778  24.455  27.251  1.00  0.00    -0.237 OA
ATOM     69  O   UNL A   1      51.242  25.559  25.608  1.00  0.00    -0.237 OA
ATOM     70  O   UNL A   1      50.763  26.657  27.755  1.00  0.00    -0.744 OA
ENDBRANCH  64  67
ENDBRANCH  46  60
BRANCH  47  71
ATOM     71  C   UNL A   1      38.479  30.421  30.644  1.00  0.00     0.023 A 
ATOM     72  C   UNL A   1      38.308  30.300  32.035  1.00  0.00     0.012 A 
ATOM     73  C   UNL A   1      37.505  31.093  29.881  1.00  0.00     0.148 A 
ATOM     74  C   UNL A   1      37.194  30.862  32.660  1.00  0.00     0.002 A 
ATOM     75  C   UNL A   1      36.431  31.702  30.517  1.00  0.00     0.091 A 
ATOM     76  F   UNL A   1      37.682  31.170  28.556  1.00  0.00    -0.205 F 
ATOM     77  C   UNL A   1      36.267  31.580  31.906  1.00  0.00     0.022 A 
BRANCH  75  78
ATOM     78  S   UNL A   1      35.280  32.770  29.644  1.00  0.00     0.127 S 
ATOM     79  O   UNL A   1      36.166  33.831  29.161  1.00  0.00    -0.237 OA
ATOM     80  O   UNL A   1      34.777  31.869  28.603  1.00  0.00    -0.237 OA
ATOM     81  O   UNL A   1      34.291  33.178  30.623  1.00  0.00    -0.744 OA
ENDBRANCH  75  78
ENDBRANCH  47  71
BRANCH  59  82
ATOM     82  C   UNL A   1      44.755  33.320  29.551  1.00  0.00     0.023 A 
ATOM     83  C   UNL A   1      45.559  33.365  30.708  1.00  0.00     0.012 A 
ATOM     84  C   UNL A   1      44.664  34.459  28.725  1.00  0.00     0.148 A 
ATOM     85  C   UNL A   1      46.254  34.528  31.043  1.00  0.00     0.002 A 
ATOM     86  C   UNL A   1      45.384  35.604  29.049  1.00  0.00     0.091 A 
ATOM     87  F   UNL A   1      43.891  34.393  27.633  1.00  0.00    -0.205 F 
ATOM     88  C   UNL A   1      46.175  35.641  30.210  1.00  0.00     0.022 A 
BRANCH  86  89
ATOM     89  S   UNL A   1      45.403  37.068  28.008  1.00  0.00     0.127 S 
ATOM     90  O   UNL A   1      46.279  37.961  28.764  1.00  0.00    -0.237 OA
ATOM     91  O   UNL A   1      45.982  36.556  26.765  1.00  0.00    -0.237 OA
ATOM     92  O   UNL A   1      44.018  37.506  27.900  1.00  0.00    -0.744 OA
ENDBRANCH  86  89
ENDBRANCH  59  82
ENDBRANCH  33  34
ENDBRANCH  25  28
ENDBRANCH  23  24
ENDBRANCH   1  23
TORSDOF 15
ENDMDL
