MODEL 1
REMARK VINA RESULT:     -12.9      0.000      0.000
REMARK SMILES Cc1ccc(OC(F)(F)F)cc1C(=O)NCCCNC(=O)c1ccc(-c2c3nc(c(-c4cccc(S(=O)(=O)[O-])c4F)c4ccc([nH]4)c(-c4cccc(S(=O)(=O)[O-])c4F)c4nc(c(-c5cccc(S(=O)(=O)[O-])c5F)c5ccc2[nH]5)C=C4)C=C3)cc1
REMARK SMILES IDX 17 1 16 2 15 3 13 4 14 5 12 7 1 8 2 9 3 10 4 11 11 12 5 13
REMARK SMILES IDX 6 14 7 15 8 16 9 17 10 18 18 19 19 20 20 21 21 23 22 24
REMARK SMILES IDX 23 25 84 26 24 27 83 28 25 29 26 30 27 31 77 32 28 33 82 34
REMARK SMILES IDX 76 35 78 36 29 37 81 38 75 39 74 40 30 42 62 43 42 44 61 45
REMARK SMILES IDX 43 46 46 47 60 48 79 49 44 50 45 51 59 53 80 54 47 55 31 56
REMARK SMILES IDX 32 57 40 58 33 59 35 60 41 61 34 62 36 63 37 64 38 65 39 66
REMARK SMILES IDX 63 67 64 68 72 69 65 70 67 71 73 72 66 73 68 74 69 75 70 76
REMARK SMILES IDX 71 77 48 78 49 79 57 80 50 81 52 82 58 83 51 84 53 85 54 86
REMARK SMILES IDX 55 87 56 88
REMARK H PARENT 15 6 19 22 78 41 46 52
REMARK Flexibility Score: inf
ROOT
ATOM      1  C   UNL A   1      33.094  31.299  27.265  1.00  0.00     0.042 C 
ENDROOT
BRANCH   1   2
ATOM      2  C   UNL A   1      32.037  30.546  26.460  1.00  0.00     0.118 C 
BRANCH   2   3
ATOM      3  N   UNL A   1      32.595  29.985  25.248  1.00  0.00    -0.352 N 
ATOM      4  C   UNL A   1      32.084  29.320  24.166  1.00  0.00     0.251 C 
ATOM      5  O   UNL A   1      32.912  28.998  23.306  1.00  0.00    -0.269 OA
ATOM      6  H   UNL A   1      33.569  30.113  25.187  1.00  0.00     0.163 HD
BRANCH   4   7
ATOM      7  C   UNL A   1      30.639  29.017  23.867  1.00  0.00     0.046 A 
ATOM      8  C   UNL A   1      30.631  26.429  23.784  1.00  0.00     0.045 C 
ATOM      9  C   UNL A   1      29.988  27.776  23.715  1.00  0.00    -0.038 A 
ATOM     10  C   UNL A   1      28.618  27.748  23.377  1.00  0.00     0.008 A 
ATOM     11  C   UNL A   1      27.922  28.909  23.065  1.00  0.00     0.047 A 
ATOM     12  C   UNL A   1      29.895  30.185  23.544  1.00  0.00     0.061 A 
ATOM     13  C   UNL A   1      28.572  30.133  23.098  1.00  0.00     0.130 A 
BRANCH  13  14
ATOM     14  O   UNL A   1      27.818  31.185  22.668  1.00  0.00    -0.406 OA
BRANCH  14  15
ATOM     15  C   UNL A   1      28.401  32.052  21.709  1.00  0.00     0.573 C 
ATOM     16  F   UNL A   1      29.231  32.930  22.308  1.00  0.00    -0.132 F 
ATOM     17  F   UNL A   1      29.058  31.373  20.748  1.00  0.00    -0.132 F 
ATOM     18  F   UNL A   1      27.407  32.754  21.116  1.00  0.00    -0.132 F 
ENDBRANCH  14  15
ENDBRANCH  13  14
ENDBRANCH   4   7
ENDBRANCH   2   3
ENDBRANCH   1   2
BRANCH   1  19
ATOM     19  C   UNL A   1      34.369  30.539  27.595  1.00  0.00     0.118 C 
BRANCH  19  20
ATOM     20  N   UNL A   1      35.360  31.473  28.150  1.00  0.00    -0.352 N 
ATOM     21  C   UNL A   1      36.678  31.270  28.525  1.00  0.00     0.251 C 
ATOM     22  H   UNL A   1      35.035  32.394  28.274  1.00  0.00     0.163 HD
ATOM     23  O   UNL A   1      37.350  32.173  28.979  1.00  0.00    -0.269 OA
BRANCH  21  24
ATOM     24  C   UNL A   1      37.233  29.933  28.265  1.00  0.00     0.039 A 
ATOM     25  C   UNL A   1      37.343  29.086  29.370  1.00  0.00     0.014 A 
ATOM     26  C   UNL A   1      38.008  29.761  27.121  1.00  0.00     0.014 A 
ATOM     27  C   UNL A   1      38.434  28.232  29.445  1.00  0.00     0.010 A 
ATOM     28  C   UNL A   1      39.125  28.959  27.224  1.00  0.00     0.010 A 
ATOM     29  C   UNL A   1      39.378  28.274  28.421  1.00  0.00    -0.014 A 
BRANCH  29  30
ATOM     30  C   UNL A   1      40.673  27.624  28.518  1.00  0.00     0.031 A 
ATOM     31  C   UNL A   1      40.736  26.165  28.365  1.00  0.00     0.074 A 
ATOM     32  C   UNL A   1      41.802  28.331  28.736  1.00  0.00     0.049 A 
ATOM     33  N   UNL A   1      41.692  25.430  28.814  1.00  0.00    -0.248 NA
ATOM     34  C   UNL A   1      39.654  25.418  27.745  1.00  0.00     0.031 C 
ATOM     35  C   UNL A   1      43.176  27.868  28.581  1.00  0.00     0.029 A 
ATOM     36  N   UNL A   1      41.926  29.556  29.396  1.00  0.00    -0.354 N 
ATOM     37  C   UNL A   1      41.506  24.168  28.299  1.00  0.00     0.074 A 
ATOM     38  C   UNL A   1      40.172  24.189  27.745  1.00  0.00     0.031 C 
ATOM     39  C   UNL A   1      43.975  28.619  29.352  1.00  0.00     0.029 A 
ATOM     40  C   UNL A   1      43.118  29.481  30.146  1.00  0.00     0.049 A 
ATOM     41  H   UNL A   1      41.306  30.318  29.348  1.00  0.00     0.167 HD
ATOM     42  C   UNL A   1      42.569  23.316  28.262  1.00  0.00     0.034 A 
ATOM     43  C   UNL A   1      43.183  29.648  31.500  1.00  0.00     0.034 A 
ATOM     44  C   UNL A   1      43.724  23.876  28.992  1.00  0.00     0.049 A 
ATOM     45  C   UNL A   1      43.803  28.463  32.231  1.00  0.00     0.074 A 
ATOM     46  C   UNL A   1      44.895  24.510  28.609  1.00  0.00     0.029 A 
ATOM     47  N   UNL A   1      43.625  24.063  30.365  1.00  0.00    -0.354 N 
ATOM     48  N   UNL A   1      44.269  27.386  31.660  1.00  0.00    -0.248 NA
ATOM     49  C   UNL A   1      43.806  28.360  33.689  1.00  0.00     0.031 C 
ATOM     50  C   UNL A   1      45.490  25.094  29.766  1.00  0.00     0.029 A 
ATOM     51  C   UNL A   1      44.695  24.797  30.858  1.00  0.00     0.049 A 
ATOM     52  H   UNL A   1      42.888  23.717  30.918  1.00  0.00     0.167 HD
ATOM     53  C   UNL A   1      44.448  26.404  32.610  1.00  0.00     0.074 A 
ATOM     54  C   UNL A   1      44.156  27.076  33.865  1.00  0.00     0.031 C 
ATOM     55  C   UNL A   1      44.739  25.101  32.287  1.00  0.00     0.034 A 
BRANCH  42  56
ATOM     56  C   UNL A   1      42.678  22.131  27.309  1.00  0.00     0.023 A 
ATOM     57  C   UNL A   1      41.851  21.015  27.568  1.00  0.00     0.012 A 
ATOM     58  C   UNL A   1      43.589  21.977  26.237  1.00  0.00     0.148 A 
ATOM     59  C   UNL A   1      41.998  19.795  26.897  1.00  0.00     0.002 A 
ATOM     60  C   UNL A   1      43.792  20.740  25.618  1.00  0.00     0.091 A 
ATOM     61  F   UNL A   1      44.206  23.041  25.725  1.00  0.00    -0.205 F 
ATOM     62  C   UNL A   1      42.999  19.643  25.950  1.00  0.00     0.022 A 
BRANCH  60  63
ATOM     63  S   UNL A   1      45.122  20.461  24.431  1.00  0.00     0.127 S 
ATOM     64  O   UNL A   1      45.020  19.020  24.190  1.00  0.00    -0.237 OA
ATOM     65  O   UNL A   1      44.716  21.296  23.302  1.00  0.00    -0.237 OA
ATOM     66  O   UNL A   1      46.355  20.865  25.096  1.00  0.00    -0.744 OA
ENDBRANCH  60  63
ENDBRANCH  42  56
BRANCH  43  67
ATOM     67  C   UNL A   1      42.064  30.483  32.040  1.00  0.00     0.023 A 
ATOM     68  C   UNL A   1      41.974  31.821  31.583  1.00  0.00     0.012 A 
ATOM     69  C   UNL A   1      40.929  29.887  32.611  1.00  0.00     0.148 A 
ATOM     70  C   UNL A   1      40.736  32.464  31.513  1.00  0.00     0.002 A 
ATOM     71  C   UNL A   1      39.706  30.545  32.558  1.00  0.00     0.091 A 
ATOM     72  F   UNL A   1      41.024  28.654  33.124  1.00  0.00    -0.205 F 
ATOM     73  C   UNL A   1      39.594  31.806  31.956  1.00  0.00     0.022 A 
BRANCH  71  74
ATOM     74  S   UNL A   1      38.229  29.723  33.157  1.00  0.00     0.127 S 
ATOM     75  O   UNL A   1      38.303  29.996  34.588  1.00  0.00    -0.237 OA
ATOM     76  O   UNL A   1      37.160  30.426  32.450  1.00  0.00    -0.237 OA
ATOM     77  O   UNL A   1      38.405  28.338  32.745  1.00  0.00    -0.744 OA
ENDBRANCH  71  74
ENDBRANCH  43  67
BRANCH  55  78
ATOM     78  C   UNL A   1      45.010  23.975  33.288  1.00  0.00     0.023 A 
ATOM     79  C   UNL A   1      43.995  23.111  33.743  1.00  0.00     0.012 A 
ATOM     80  C   UNL A   1      46.289  23.787  33.884  1.00  0.00     0.148 A 
ATOM     81  C   UNL A   1      44.251  22.031  34.598  1.00  0.00     0.002 A 
ATOM     82  C   UNL A   1      46.539  22.732  34.762  1.00  0.00     0.091 A 
ATOM     83  F   UNL A   1      47.269  24.666  33.655  1.00  0.00    -0.205 F 
ATOM     84  C   UNL A   1      45.529  21.827  35.091  1.00  0.00     0.022 A 
BRANCH  82  85
ATOM     85  S   UNL A   1      48.138  22.486  35.549  1.00  0.00     0.127 S 
ATOM     86  O   UNL A   1      49.049  22.639  34.415  1.00  0.00    -0.237 OA
ATOM     87  O   UNL A   1      48.175  23.588  36.512  1.00  0.00    -0.237 OA
ATOM     88  O   UNL A   1      48.100  21.159  36.146  1.00  0.00    -0.744 OA
ENDBRANCH  82  85
ENDBRANCH  55  78
ENDBRANCH  29  30
ENDBRANCH  21  24
ENDBRANCH  19  20
ENDBRANCH   1  19
TORSDOF 15
ENDMDL
MODEL 2
REMARK VINA RESULT:     -12.4      2.137      2.725
REMARK SMILES Cc1ccc(OC(F)(F)F)cc1C(=O)NCCCNC(=O)c1ccc(-c2c3nc(c(-c4cccc(S(=O)(=O)[O-])c4F)c4ccc([nH]4)c(-c4cccc(S(=O)(=O)[O-])c4F)c4nc(c(-c5cccc(S(=O)(=O)[O-])c5F)c5ccc2[nH]5)C=C4)C=C3)cc1
REMARK SMILES IDX 17 1 16 2 15 3 13 4 14 5 12 7 1 8 2 9 3 10 4 11 11 12 5 13
REMARK SMILES IDX 6 14 7 15 8 16 9 17 10 18 18 19 19 20 20 21 21 23 22 24
REMARK SMILES IDX 23 25 84 26 24 27 83 28 25 29 26 30 27 31 77 32 28 33 82 34
REMARK SMILES IDX 76 35 78 36 29 37 81 38 75 39 74 40 30 42 62 43 42 44 61 45
REMARK SMILES IDX 43 46 46 47 60 48 79 49 44 50 45 51 59 53 80 54 47 55 31 56
REMARK SMILES IDX 32 57 40 58 33 59 35 60 41 61 34 62 36 63 37 64 38 65 39 66
REMARK SMILES IDX 63 67 64 68 72 69 65 70 67 71 73 72 66 73 68 74 69 75 70 76
REMARK SMILES IDX 71 77 48 78 49 79 57 80 50 81 52 82 58 83 51 84 53 85 54 86
REMARK SMILES IDX 55 87 56 88
REMARK H PARENT 15 6 19 22 78 41 46 52
REMARK Flexibility Score: inf
ROOT
ATOM      1  C   UNL A   1      34.206  30.249  26.800  1.00  0.00     0.042 C 
ENDROOT
BRANCH   1   2
ATOM      2  C   UNL A   1      32.862  30.026  26.109  1.00  0.00     0.118 C 
BRANCH   2   3
ATOM      3  N   UNL A   1      33.035  29.708  24.707  1.00  0.00    -0.352 N 
ATOM      4  C   UNL A   1      32.501  28.780  23.854  1.00  0.00     0.251 C 
ATOM      5  O   UNL A   1      32.916  28.834  22.690  1.00  0.00    -0.269 OA
ATOM      6  H   UNL A   1      33.688  30.298  24.264  1.00  0.00     0.163 HD
BRANCH   4   7
ATOM      7  C   UNL A   1      31.421  27.772  24.145  1.00  0.00     0.046 A 
ATOM      8  C   UNL A   1      29.450  28.657  22.720  1.00  0.00     0.045 C 
ATOM      9  C   UNL A   1      30.102  27.691  23.654  1.00  0.00    -0.038 A 
ATOM     10  C   UNL A   1      29.248  26.671  24.124  1.00  0.00     0.008 A 
ATOM     11  C   UNL A   1      29.628  25.821  25.154  1.00  0.00     0.047 A 
ATOM     12  C   UNL A   1      31.778  26.882  25.196  1.00  0.00     0.061 A 
ATOM     13  C   UNL A   1      30.881  25.954  25.731  1.00  0.00     0.130 A 
BRANCH  13  14
ATOM     14  O   UNL A   1      31.100  25.138  26.802  1.00  0.00    -0.406 OA
BRANCH  14  15
ATOM     15  C   UNL A   1      31.453  23.791  26.530  1.00  0.00     0.573 C 
ATOM     16  F   UNL A   1      32.249  23.305  27.503  1.00  0.00    -0.132 F 
ATOM     17  F   UNL A   1      30.368  23.005  26.381  1.00  0.00    -0.132 F 
ATOM     18  F   UNL A   1      32.148  23.763  25.368  1.00  0.00    -0.132 F 
ENDBRANCH  14  15
ENDBRANCH  13  14
ENDBRANCH   4   7
ENDBRANCH   2   3
ENDBRANCH   1   2
BRANCH   1  19
ATOM     19  C   UNL A   1      34.161  30.652  28.265  1.00  0.00     0.118 C 
BRANCH  19  20
ATOM     20  N   UNL A   1      35.214  31.644  28.527  1.00  0.00    -0.352 N 
ATOM     21  C   UNL A   1      36.585  31.490  28.656  1.00  0.00     0.251 C 
ATOM     22  H   UNL A   1      34.894  32.570  28.627  1.00  0.00     0.163 HD
ATOM     23  O   UNL A   1      37.307  32.438  28.885  1.00  0.00    -0.269 OA
BRANCH  21  24
ATOM     24  C   UNL A   1      37.116  30.138  28.417  1.00  0.00     0.039 A 
ATOM     25  C   UNL A   1      37.262  29.326  29.543  1.00  0.00     0.014 A 
ATOM     26  C   UNL A   1      37.842  29.923  27.249  1.00  0.00     0.014 A 
ATOM     27  C   UNL A   1      38.346  28.462  29.602  1.00  0.00     0.010 A 
ATOM     28  C   UNL A   1      38.955  29.111  27.334  1.00  0.00     0.010 A 
ATOM     29  C   UNL A   1      39.248  28.461  28.541  1.00  0.00    -0.014 A 
BRANCH  29  30
ATOM     30  C   UNL A   1      40.539  27.800  28.607  1.00  0.00     0.031 A 
ATOM     31  C   UNL A   1      40.587  26.341  28.448  1.00  0.00     0.074 A 
ATOM     32  C   UNL A   1      41.680  28.497  28.803  1.00  0.00     0.049 A 
ATOM     33  N   UNL A   1      41.547  25.597  28.874  1.00  0.00    -0.248 NA
ATOM     34  C   UNL A   1      39.485  25.605  27.850  1.00  0.00     0.031 C 
ATOM     35  C   UNL A   1      43.046  28.023  28.616  1.00  0.00     0.029 A 
ATOM     36  N   UNL A   1      41.828  29.719  29.464  1.00  0.00    -0.354 N 
ATOM     37  C   UNL A   1      41.338  24.339  28.359  1.00  0.00     0.074 A 
ATOM     38  C   UNL A   1      39.993  24.373  27.834  1.00  0.00     0.031 C 
ATOM     39  C   UNL A   1      43.867  28.764  29.372  1.00  0.00     0.029 A 
ATOM     40  C   UNL A   1      43.036  29.631  30.188  1.00  0.00     0.049 A 
ATOM     41  H   UNL A   1      41.213  30.486  29.432  1.00  0.00     0.167 HD
ATOM     42  C   UNL A   1      42.393  23.477  28.295  1.00  0.00     0.034 A 
ATOM     43  C   UNL A   1      43.131  29.793  31.540  1.00  0.00     0.034 A 
ATOM     44  C   UNL A   1      43.568  24.025  29.002  1.00  0.00     0.049 A 
ATOM     45  C   UNL A   1      43.757  28.600  32.254  1.00  0.00     0.074 A 
ATOM     46  C   UNL A   1      44.736  24.651  28.595  1.00  0.00     0.029 A 
ATOM     47  N   UNL A   1      43.501  24.208  30.377  1.00  0.00    -0.354 N 
ATOM     48  N   UNL A   1      44.202  27.521  31.670  1.00  0.00    -0.248 NA
ATOM     49  C   UNL A   1      43.792  28.491  33.711  1.00  0.00     0.031 C 
ATOM     50  C   UNL A   1      45.361  25.225  29.742  1.00  0.00     0.029 A 
ATOM     51  C   UNL A   1      44.587  24.931  30.850  1.00  0.00     0.049 A 
ATOM     52  H   UNL A   1      42.773  23.867  30.946  1.00  0.00     0.167 HD
ATOM     53  C   UNL A   1      44.393  26.534  32.611  1.00  0.00     0.074 A 
ATOM     54  C   UNL A   1      44.134  27.205  33.875  1.00  0.00     0.031 C 
ATOM     55  C   UNL A   1      44.665  25.230  32.278  1.00  0.00     0.034 A 
BRANCH  42  56
ATOM     56  C   UNL A   1      42.471  22.295  27.337  1.00  0.00     0.023 A 
ATOM     57  C   UNL A   1      41.580  21.222  27.560  1.00  0.00     0.012 A 
ATOM     58  C   UNL A   1      43.407  22.101  26.293  1.00  0.00     0.148 A 
ATOM     59  C   UNL A   1      41.686  20.000  26.884  1.00  0.00     0.002 A 
ATOM     60  C   UNL A   1      43.565  20.860  25.670  1.00  0.00     0.091 A 
ATOM     61  F   UNL A   1      44.094  23.136  25.810  1.00  0.00    -0.205 F 
ATOM     62  C   UNL A   1      42.707  19.803  25.967  1.00  0.00     0.022 A 
BRANCH  60  63
ATOM     63  S   UNL A   1      44.916  20.521  24.523  1.00  0.00     0.127 S 
ATOM     64  O   UNL A   1      44.674  21.505  23.465  1.00  0.00    -0.237 OA
ATOM     65  O   UNL A   1      46.097  20.787  25.341  1.00  0.00    -0.237 OA
ATOM     66  O   UNL A   1      44.751  19.137  24.094  1.00  0.00    -0.744 OA
ENDBRANCH  60  63
ENDBRANCH  42  56
BRANCH  43  67
ATOM     67  C   UNL A   1      42.032  30.635  32.108  1.00  0.00     0.023 A 
ATOM     68  C   UNL A   1      41.922  31.965  31.632  1.00  0.00     0.012 A 
ATOM     69  C   UNL A   1      40.920  30.047  32.730  1.00  0.00     0.148 A 
ATOM     70  C   UNL A   1      40.682  32.605  31.597  1.00  0.00     0.002 A 
ATOM     71  C   UNL A   1      39.694  30.703  32.711  1.00  0.00     0.091 A 
ATOM     72  F   UNL A   1      41.036  28.824  33.260  1.00  0.00    -0.205 F 
ATOM     73  C   UNL A   1      39.558  31.953  32.093  1.00  0.00     0.022 A 
BRANCH  71  74
ATOM     74  S   UNL A   1      38.242  29.889  33.379  1.00  0.00     0.127 S 
ATOM     75  O   UNL A   1      38.447  30.056  34.813  1.00  0.00    -0.237 OA
ATOM     76  O   UNL A   1      37.146  30.676  32.816  1.00  0.00    -0.237 OA
ATOM     77  O   UNL A   1      38.329  28.532  32.859  1.00  0.00    -0.744 OA
ENDBRANCH  71  74
ENDBRANCH  43  67
BRANCH  55  78
ATOM     78  C   UNL A   1      44.949  24.098  33.270  1.00  0.00     0.023 A 
ATOM     79  C   UNL A   1      43.948  23.208  33.703  1.00  0.00     0.012 A 
ATOM     80  C   UNL A   1      46.225  23.930  33.879  1.00  0.00     0.148 A 
ATOM     81  C   UNL A   1      44.216  22.124  34.548  1.00  0.00     0.002 A 
ATOM     82  C   UNL A   1      46.487  22.871  34.747  1.00  0.00     0.091 A 
ATOM     83  F   UNL A   1      47.188  24.832  33.672  1.00  0.00    -0.205 F 
ATOM     84  C   UNL A   1      45.493  21.941  35.054  1.00  0.00     0.022 A 
BRANCH  82  85
ATOM     85  S   UNL A   1      48.081  22.649  35.551  1.00  0.00     0.127 S 
ATOM     86  O   UNL A   1      48.959  22.429  34.401  1.00  0.00    -0.237 OA
ATOM     87  O   UNL A   1      48.266  23.938  36.219  1.00  0.00    -0.237 OA
ATOM     88  O   UNL A   1      47.932  21.515  36.450  1.00  0.00    -0.744 OA
ENDBRANCH  82  85
ENDBRANCH  55  78
ENDBRANCH  29  30
ENDBRANCH  21  24
ENDBRANCH  19  20
ENDBRANCH   1  19
TORSDOF 15
ENDMDL
MODEL 3
REMARK VINA RESULT:     -12.4      5.325     13.224
REMARK SMILES Cc1ccc(OC(F)(F)F)cc1C(=O)NCCCNC(=O)c1ccc(-c2c3nc(c(-c4cccc(S(=O)(=O)[O-])c4F)c4ccc([nH]4)c(-c4cccc(S(=O)(=O)[O-])c4F)c4nc(c(-c5cccc(S(=O)(=O)[O-])c5F)c5ccc2[nH]5)C=C4)C=C3)cc1
REMARK SMILES IDX 17 1 16 2 15 3 13 4 14 5 12 7 1 8 2 9 3 10 4 11 11 12 5 13
REMARK SMILES IDX 6 14 7 15 8 16 9 17 10 18 18 19 19 20 20 21 21 23 22 24
REMARK SMILES IDX 23 25 84 26 24 27 83 28 25 29 26 30 27 31 77 32 28 33 82 34
REMARK SMILES IDX 76 35 78 36 29 37 81 38 75 39 74 40 30 42 62 43 42 44 61 45
REMARK SMILES IDX 43 46 46 47 60 48 79 49 44 50 45 51 59 53 80 54 47 55 31 56
REMARK SMILES IDX 32 57 40 58 33 59 35 60 41 61 34 62 36 63 37 64 38 65 39 66
REMARK SMILES IDX 63 67 64 68 72 69 65 70 67 71 73 72 66 73 68 74 69 75 70 76
REMARK SMILES IDX 71 77 48 78 49 79 57 80 50 81 52 82 58 83 51 84 53 85 54 86
REMARK SMILES IDX 55 87 56 88
REMARK H PARENT 15 6 19 22 78 41 46 52
REMARK Flexibility Score: inf
ROOT
ATOM      1  C   UNL A   1      43.850  25.106  29.820  1.00  0.00     0.042 C 
ENDROOT
BRANCH   1   2
ATOM      2  C   UNL A   1      44.660  23.857  29.476  1.00  0.00     0.118 C 
BRANCH   2   3
ATOM      3  N   UNL A   1      45.889  24.198  28.791  1.00  0.00    -0.352 N 
ATOM      4  C   UNL A   1      46.338  24.091  27.502  1.00  0.00     0.251 C 
ATOM      5  O   UNL A   1      47.484  24.512  27.307  1.00  0.00    -0.269 OA
ATOM      6  H   UNL A   1      46.557  24.600  29.392  1.00  0.00     0.163 HD
BRANCH   4   7
ATOM      7  C   UNL A   1      45.576  23.607  26.296  1.00  0.00     0.046 A 
ATOM      8  C   UNL A   1      44.384  25.764  25.503  1.00  0.00     0.045 C 
ATOM      9  C   UNL A   1      44.740  24.316  25.410  1.00  0.00    -0.038 A 
ATOM     10  C   UNL A   1      44.083  23.621  24.372  1.00  0.00     0.008 A 
ATOM     11  C   UNL A   1      44.134  22.237  24.276  1.00  0.00     0.047 A 
ATOM     12  C   UNL A   1      45.609  22.191  26.166  1.00  0.00     0.061 A 
ATOM     13  C   UNL A   1      44.860  21.508  25.205  1.00  0.00     0.130 A 
BRANCH  13  14
ATOM     14  O   UNL A   1      44.748  20.155  25.074  1.00  0.00    -0.406 OA
BRANCH  14  15
ATOM     15  C   UNL A   1      45.855  19.463  24.518  1.00  0.00     0.573 C 
ATOM     16  F   UNL A   1      45.519  18.903  23.339  1.00  0.00    -0.132 F 
ATOM     17  F   UNL A   1      46.925  20.268  24.361  1.00  0.00    -0.132 F 
ATOM     18  F   UNL A   1      46.203  18.471  25.369  1.00  0.00    -0.132 F 
ENDBRANCH  14  15
ENDBRANCH  13  14
ENDBRANCH   4   7
ENDBRANCH   2   3
ENDBRANCH   1   2
BRANCH   1  19
ATOM     19  C   UNL A   1      42.817  25.552  28.797  1.00  0.00     0.118 C 
BRANCH  19  20
ATOM     20  N   UNL A   1      42.169  24.367  28.216  1.00  0.00    -0.352 N 
ATOM     21  C   UNL A   1      40.859  24.162  27.816  1.00  0.00     0.251 C 
ATOM     22  H   UNL A   1      42.763  23.592  28.089  1.00  0.00     0.163 HD
ATOM     23  O   UNL A   1      40.498  23.097  27.359  1.00  0.00    -0.269 OA
BRANCH  21  24
ATOM     24  C   UNL A   1      39.961  25.326  27.896  1.00  0.00     0.039 A 
ATOM     25  C   UNL A   1      40.256  26.392  27.044  1.00  0.00     0.014 A 
ATOM     26  C   UNL A   1      39.214  25.492  29.060  1.00  0.00     0.014 A 
ATOM     27  C   UNL A   1      40.046  27.684  27.502  1.00  0.00     0.010 A 
ATOM     28  C   UNL A   1      39.065  26.777  29.539  1.00  0.00     0.010 A 
ATOM     29  C   UNL A   1      39.567  27.856  28.799  1.00  0.00    -0.014 A 
BRANCH  29  30
ATOM     30  C   UNL A   1      39.554  29.145  29.468  1.00  0.00     0.031 A 
ATOM     31  C   UNL A   1      38.614  30.169  28.996  1.00  0.00     0.074 A 
ATOM     32  C   UNL A   1      40.377  29.408  30.507  1.00  0.00     0.049 A 
ATOM     33  N   UNL A   1      38.758  31.432  29.196  1.00  0.00    -0.248 NA
ATOM     34  C   UNL A   1      37.461  29.824  28.181  1.00  0.00     0.031 C 
ATOM     35  C   UNL A   1      40.288  30.525  31.440  1.00  0.00     0.029 A 
ATOM     36  N   UNL A   1      41.625  28.840  30.769  1.00  0.00    -0.354 N 
ATOM     37  C   UNL A   1      37.589  32.038  28.798  1.00  0.00     0.074 A 
ATOM     38  C   UNL A   1      36.872  31.016  28.073  1.00  0.00     0.031 C 
ATOM     39  C   UNL A   1      41.502  30.746  31.966  1.00  0.00     0.029 A 
ATOM     40  C   UNL A   1      42.436  29.882  31.266  1.00  0.00     0.049 A 
ATOM     41  H   UNL A   1      41.888  27.901  30.634  1.00  0.00     0.167 HD
ATOM     42  C   UNL A   1      37.304  33.282  29.276  1.00  0.00     0.034 A 
ATOM     43  C   UNL A   1      43.617  30.270  30.701  1.00  0.00     0.034 A 
ATOM     44  C   UNL A   1      38.453  33.843  30.015  1.00  0.00     0.049 A 
ATOM     45  C   UNL A   1      43.654  31.745  30.318  1.00  0.00     0.074 A 
ATOM     46  C   UNL A   1      38.767  33.976  31.358  1.00  0.00     0.029 A 
ATOM     47  N   UNL A   1      39.625  34.123  29.324  1.00  0.00    -0.354 N 
ATOM     48  N   UNL A   1      42.689  32.599  30.520  1.00  0.00    -0.248 NA
ATOM     49  C   UNL A   1      44.750  32.324  29.543  1.00  0.00     0.031 C 
ATOM     50  C   UNL A   1      40.146  34.324  31.465  1.00  0.00     0.029 A 
ATOM     51  C   UNL A   1      40.668  34.426  30.189  1.00  0.00     0.049 A 
ATOM     52  H   UNL A   1      39.705  34.108  28.343  1.00  0.00     0.167 HD
ATOM     53  C   UNL A   1      42.918  33.735  29.776  1.00  0.00     0.074 A 
ATOM     54  C   UNL A   1      44.232  33.511  29.195  1.00  0.00     0.031 C 
ATOM     55  C   UNL A   1      41.982  34.729  29.626  1.00  0.00     0.034 A 
BRANCH  42  56
ATOM     56  C   UNL A   1      35.897  33.864  29.355  1.00  0.00     0.023 A 
ATOM     57  C   UNL A   1      35.249  34.156  28.134  1.00  0.00     0.012 A 
ATOM     58  C   UNL A   1      35.191  34.238  30.523  1.00  0.00     0.148 A 
ATOM     59  C   UNL A   1      34.050  34.874  28.070  1.00  0.00     0.002 A 
ATOM     60  C   UNL A   1      34.034  35.020  30.462  1.00  0.00     0.091 A 
ATOM     61  F   UNL A   1      35.563  33.762  31.711  1.00  0.00    -0.205 F 
ATOM     62  C   UNL A   1      33.462  35.346  29.234  1.00  0.00     0.022 A 
BRANCH  60  63
ATOM     63  S   UNL A   1      33.264  35.721  31.936  1.00  0.00     0.127 S 
ATOM     64  O   UNL A   1      32.768  34.524  32.621  1.00  0.00    -0.237 OA
ATOM     65  O   UNL A   1      34.391  36.376  32.598  1.00  0.00    -0.237 OA
ATOM     66  O   UNL A   1      32.212  36.613  31.464  1.00  0.00    -0.744 OA
ENDBRANCH  60  63
ENDBRANCH  42  56
BRANCH  43  67
ATOM     67  C   UNL A   1      44.278  29.178  29.920  1.00  0.00     0.023 A 
ATOM     68  C   UNL A   1      44.090  29.179  28.515  1.00  0.00     0.012 A 
ATOM     69  C   UNL A   1      45.359  28.460  30.454  1.00  0.00     0.148 A 
ATOM     70  C   UNL A   1      45.067  28.652  27.668  1.00  0.00     0.002 A 
ATOM     71  C   UNL A   1      46.314  27.918  29.602  1.00  0.00     0.091 A 
ATOM     72  F   UNL A   1      45.499  28.379  31.783  1.00  0.00    -0.205 F 
ATOM     73  C   UNL A   1      46.204  28.065  28.213  1.00  0.00     0.022 A 
BRANCH  71  74
ATOM     74  S   UNL A   1      47.770  27.126  30.290  1.00  0.00     0.127 S 
ATOM     75  O   UNL A   1      48.591  26.940  29.099  1.00  0.00    -0.237 OA
ATOM     76  O   UNL A   1      48.266  28.129  31.230  1.00  0.00    -0.237 OA
ATOM     77  O   UNL A   1      47.250  25.922  30.922  1.00  0.00    -0.744 OA
ENDBRANCH  71  74
ENDBRANCH  43  67
BRANCH  55  78
ATOM     78  C   UNL A   1      42.191  36.042  28.866  1.00  0.00     0.023 A 
ATOM     79  C   UNL A   1      41.785  36.210  27.528  1.00  0.00     0.012 A 
ATOM     80  C   UNL A   1      42.883  37.145  29.441  1.00  0.00     0.148 A 
ATOM     81  C   UNL A   1      41.902  37.431  26.852  1.00  0.00     0.002 A 
ATOM     82  C   UNL A   1      43.031  38.352  28.758  1.00  0.00     0.091 A 
ATOM     83  F   UNL A   1      43.463  37.019  30.637  1.00  0.00    -0.205 F 
ATOM     84  C   UNL A   1      42.505  38.512  27.476  1.00  0.00     0.022 A 
BRANCH  82  85
ATOM     85  S   UNL A   1      43.923  39.753  29.450  1.00  0.00     0.127 S 
ATOM     86  O   UNL A   1      45.287  39.227  29.511  1.00  0.00    -0.237 OA
ATOM     87  O   UNL A   1      43.713  40.781  28.430  1.00  0.00    -0.237 OA
ATOM     88  O   UNL A   1      43.305  40.037  30.736  1.00  0.00    -0.744 OA
ENDBRANCH  82  85
ENDBRANCH  55  78
ENDBRANCH  29  30
ENDBRANCH  21  24
ENDBRANCH  19  20
ENDBRANCH   1  19
TORSDOF 15
ENDMDL
