MODEL 1
REMARK VINA RESULT:     -11.6      0.000      0.000
REMARK SMILES C[C@@H]1[C@H](C)CC[C@H]1[NH2+]Cc1ccc(C(=O)NCCCNC(=O)c2ccc(-c3c4nc(c(-c5cccc(S(=O)(=O)[O-])c5F)c5ccc([nH]5)c(-c5cccc(S(=O)(=O)[O-])c5F)c5nc(c(-c6cccc(S(=O)(=O)[O-])c6F)c6ccc3[nH]6)C=C5)C=C4)cc2)cn1
REMARK SMILES IDX 18 1 17 2 16 3 14 4 15 5 13 7 10 8 11 9 87 10 12 11 86 12
REMARK SMILES IDX 9 13 8 14 7 17 1 18 2 19 3 20 4 21 5 22 6 23 19 24 20 25
REMARK SMILES IDX 21 26 22 28 23 29 24 30 85 31 25 32 84 33 26 34 27 35 28 36
REMARK SMILES IDX 78 37 29 38 83 39 77 40 79 41 30 42 82 43 76 44 75 45 31 47
REMARK SMILES IDX 63 48 43 49 62 50 44 51 47 52 61 53 80 54 45 55 46 56 60 58
REMARK SMILES IDX 81 59 48 60 32 61 33 62 41 63 34 64 36 65 42 66 35 67 37 68
REMARK SMILES IDX 38 69 39 70 40 71 64 72 65 73 73 74 66 75 68 76 74 77 67 78
REMARK SMILES IDX 69 79 70 80 71 81 72 82 49 83 50 84 58 85 51 86 53 87 59 88
REMARK SMILES IDX 52 89 54 90 55 91 56 92 57 93
REMARK H PARENT 16 6 8 15 8 16 20 27 79 46 47 57
REMARK Flexibility Score: inf
ROOT
ATOM      1  C   UNL A   1      33.160  28.722  24.959  1.00  0.00     0.042 C 
ENDROOT
BRANCH   1   2
ATOM      2  C   UNL A   1      31.776  29.342  25.134  1.00  0.00     0.118 C 
BRANCH   2   3
ATOM      3  N   UNL A   1      31.189  29.681  23.850  1.00  0.00    -0.352 N 
ATOM      4  C   UNL A   1      30.786  28.928  22.778  1.00  0.00     0.252 C 
ATOM      5  O   UNL A   1      30.293  29.533  21.823  1.00  0.00    -0.269 OA
ATOM      6  H   UNL A   1      31.054  30.648  23.723  1.00  0.00     0.163 HD
BRANCH   4   7
ATOM      7  C   UNL A   1      30.827  27.446  22.743  1.00  0.00     0.058 A 
ATOM      8  C   UNL A   1      30.853  24.712  23.161  1.00  0.00     0.094 A 
ATOM      9  C   UNL A   1      31.759  25.271  22.264  1.00  0.00     0.030 A 
ATOM     10  N   UNL A   1      29.869  25.441  23.738  1.00  0.00    -0.255 NA
ATOM     11  C   UNL A   1      31.730  26.651  22.043  1.00  0.00     0.017 A 
ATOM     12  C   UNL A   1      29.881  26.781  23.519  1.00  0.00     0.125 A 
BRANCH   8  13
ATOM     13  C   UNL A   1      31.050  23.293  23.660  1.00  0.00     0.318 C 
BRANCH  13  14
ATOM     14  N   UNL A   1      31.955  22.476  22.827  1.00  0.00    -0.339 N 
ATOM     15  H   UNL A   1      31.383  21.887  22.221  1.00  0.00     0.346 HD
ATOM     16  H   UNL A   1      32.542  23.132  22.313  1.00  0.00     0.346 HD
BRANCH  14  17
ATOM     17  C   UNL A   1      32.867  21.607  23.579  1.00  0.00     0.185 C 
ATOM     18  C   UNL A   1      34.889  23.198  23.497  1.00  0.00     0.014 C 
ATOM     19  C   UNL A   1      33.893  22.445  24.369  1.00  0.00     0.047 C 
ATOM     20  C   UNL A   1      34.510  21.439  25.367  1.00  0.00    -0.005 C 
ATOM     21  C   UNL A   1      35.754  20.705  24.867  1.00  0.00     0.008 C 
ATOM     22  C   UNL A   1      33.381  20.441  25.658  1.00  0.00     0.010 C 
ATOM     23  C   UNL A   1      32.238  20.788  24.710  1.00  0.00     0.065 C 
ENDBRANCH  14  17
ENDBRANCH  13  14
ENDBRANCH   8  13
ENDBRANCH   4   7
ENDBRANCH   2   3
ENDBRANCH   1   2
BRANCH   1  24
ATOM     24  C   UNL A   1      34.103  29.014  26.125  1.00  0.00     0.118 C 
BRANCH  24  25
ATOM     25  N   UNL A   1      33.860  30.327  26.707  1.00  0.00    -0.352 N 
ATOM     26  C   UNL A   1      34.513  30.973  27.727  1.00  0.00     0.251 C 
ATOM     27  H   UNL A   1      33.111  30.827  26.308  1.00  0.00     0.163 HD
ATOM     28  O   UNL A   1      34.004  31.975  28.224  1.00  0.00    -0.269 OA
BRANCH  26  29
ATOM     29  C   UNL A   1      35.812  30.476  28.231  1.00  0.00     0.039 A 
ATOM     30  C   UNL A   1      35.829  29.680  29.381  1.00  0.00     0.014 A 
ATOM     31  C   UNL A   1      37.014  30.831  27.612  1.00  0.00     0.014 A 
ATOM     32  C   UNL A   1      37.045  29.202  29.879  1.00  0.00     0.010 A 
ATOM     33  C   UNL A   1      38.217  30.296  28.067  1.00  0.00     0.010 A 
ATOM     34  C   UNL A   1      38.247  29.485  29.211  1.00  0.00    -0.014 A 
BRANCH  34  35
ATOM     35  C   UNL A   1      39.544  28.939  29.689  1.00  0.00     0.031 A 
ATOM     36  C   UNL A   1      40.292  29.620  30.804  1.00  0.00     0.074 A 
ATOM     37  C   UNL A   1      40.091  27.883  29.056  1.00  0.00     0.049 A 
ATOM     38  N   UNL A   1      41.463  29.331  31.308  1.00  0.00    -0.248 NA
ATOM     39  C   UNL A   1      39.651  30.797  31.415  1.00  0.00     0.031 C 
ATOM     40  C   UNL A   1      39.502  27.186  27.910  1.00  0.00     0.029 A 
ATOM     41  N   UNL A   1      41.280  27.230  29.265  1.00  0.00    -0.354 N 
ATOM     42  C   UNL A   1      41.719  30.308  32.263  1.00  0.00     0.074 A 
ATOM     43  C   UNL A   1      40.593  31.216  32.248  1.00  0.00     0.031 C 
ATOM     44  C   UNL A   1      40.330  26.204  27.519  1.00  0.00     0.029 A 
ATOM     45  C   UNL A   1      41.520  26.218  28.363  1.00  0.00     0.049 A 
ATOM     46  H   UNL A   1      41.903  27.463  29.991  1.00  0.00     0.167 HD
ATOM     47  C   UNL A   1      42.781  30.424  33.096  1.00  0.00     0.034 A 
ATOM     48  C   UNL A   1      42.581  25.400  28.227  1.00  0.00     0.034 A 
ATOM     49  C   UNL A   1      43.874  29.490  33.141  1.00  0.00     0.049 A 
ATOM     50  C   UNL A   1      43.724  25.518  29.199  1.00  0.00     0.074 A 
ATOM     51  C   UNL A   1      44.948  29.464  34.012  1.00  0.00     0.029 A 
ATOM     52  N   UNL A   1      44.035  28.418  32.276  1.00  0.00    -0.354 N 
ATOM     53  N   UNL A   1      43.870  26.349  30.202  1.00  0.00    -0.248 NA
ATOM     54  C   UNL A   1      44.829  24.560  29.046  1.00  0.00     0.031 C 
ATOM     55  C   UNL A   1      45.770  28.388  33.661  1.00  0.00     0.029 A 
ATOM     56  C   UNL A   1      45.195  27.729  32.586  1.00  0.00     0.049 A 
ATOM     57  H   UNL A   1      43.415  28.182  31.548  1.00  0.00     0.167 HD
ATOM     58  C   UNL A   1      45.064  25.994  30.820  1.00  0.00     0.074 A 
ATOM     59  C   UNL A   1      45.589  24.858  30.092  1.00  0.00     0.031 C 
ATOM     60  C   UNL A   1      45.677  26.566  31.886  1.00  0.00     0.034 A 
BRANCH  47  61
ATOM     61  C   UNL A   1      42.786  31.573  34.072  1.00  0.00     0.023 A 
ATOM     62  C   UNL A   1      43.366  32.802  33.696  1.00  0.00     0.012 A 
ATOM     63  C   UNL A   1      42.167  31.459  35.333  1.00  0.00     0.148 A 
ATOM     64  C   UNL A   1      43.363  33.888  34.570  1.00  0.00     0.002 A 
ATOM     65  C   UNL A   1      42.131  32.559  36.182  1.00  0.00     0.091 A 
ATOM     66  F   UNL A   1      41.639  30.278  35.683  1.00  0.00    -0.205 F 
ATOM     67  C   UNL A   1      42.737  33.769  35.808  1.00  0.00     0.022 A 
BRANCH  65  68
ATOM     68  S   UNL A   1      41.279  32.534  37.765  1.00  0.00     0.127 S 
ATOM     69  O   UNL A   1      39.961  32.032  37.381  1.00  0.00    -0.237 OA
ATOM     70  O   UNL A   1      42.089  31.590  38.535  1.00  0.00    -0.237 OA
ATOM     71  O   UNL A   1      41.309  33.903  38.259  1.00  0.00    -0.744 OA
ENDBRANCH  65  68
ENDBRANCH  47  61
BRANCH  48  72
ATOM     72  C   UNL A   1      42.576  24.347  27.173  1.00  0.00     0.023 A 
ATOM     73  C   UNL A   1      43.364  24.524  26.018  1.00  0.00     0.012 A 
ATOM     74  C   UNL A   1      41.830  23.161  27.319  1.00  0.00     0.148 A 
ATOM     75  C   UNL A   1      43.384  23.554  25.015  1.00  0.00     0.002 A 
ATOM     76  C   UNL A   1      41.899  22.175  26.342  1.00  0.00     0.091 A 
ATOM     77  F   UNL A   1      41.078  23.016  28.420  1.00  0.00    -0.205 F 
ATOM     78  C   UNL A   1      42.662  22.376  25.181  1.00  0.00     0.022 A 
BRANCH  76  79
ATOM     79  S   UNL A   1      41.113  20.571  26.538  1.00  0.00     0.127 S 
ATOM     80  O   UNL A   1      39.716  20.885  26.254  1.00  0.00    -0.237 OA
ATOM     81  O   UNL A   1      41.788  19.775  25.513  1.00  0.00    -0.237 OA
ATOM     82  O   UNL A   1      41.406  20.156  27.904  1.00  0.00    -0.744 OA
ENDBRANCH  76  79
ENDBRANCH  48  72
BRANCH  60  83
ATOM     83  C   UNL A   1      46.971  25.957  32.357  1.00  0.00     0.023 A 
ATOM     84  C   UNL A   1      48.192  26.402  31.814  1.00  0.00     0.012 A 
ATOM     85  C   UNL A   1      46.980  24.999  33.390  1.00  0.00     0.148 A 
ATOM     86  C   UNL A   1      49.402  25.879  32.272  1.00  0.00     0.002 A 
ATOM     87  C   UNL A   1      48.192  24.519  33.874  1.00  0.00     0.091 A 
ATOM     88  F   UNL A   1      45.806  24.574  33.880  1.00  0.00    -0.205 F 
ATOM     89  C   UNL A   1      49.402  24.950  33.308  1.00  0.00     0.022 A 
BRANCH  87  90
ATOM     90  S   UNL A   1      48.290  23.393  35.271  1.00  0.00     0.127 S 
ATOM     91  O   UNL A   1      47.617  24.159  36.319  1.00  0.00    -0.237 OA
ATOM     92  O   UNL A   1      47.542  22.232  34.788  1.00  0.00    -0.237 OA
ATOM     93  O   UNL A   1      49.709  23.148  35.487  1.00  0.00    -0.744 OA
ENDBRANCH  87  90
ENDBRANCH  60  83
ENDBRANCH  34  35
ENDBRANCH  26  29
ENDBRANCH  24  25
ENDBRANCH   1  24
TORSDOF 16
ENDMDL
MODEL 2
REMARK VINA RESULT:     -11.5      3.457      8.743
REMARK SMILES C[C@@H]1[C@H](C)CC[C@H]1[NH2+]Cc1ccc(C(=O)NCCCNC(=O)c2ccc(-c3c4nc(c(-c5cccc(S(=O)(=O)[O-])c5F)c5ccc([nH]5)c(-c5cccc(S(=O)(=O)[O-])c5F)c5nc(c(-c6cccc(S(=O)(=O)[O-])c6F)c6ccc3[nH]6)C=C5)C=C4)cc2)cn1
REMARK SMILES IDX 18 1 17 2 16 3 14 4 15 5 13 7 10 8 11 9 87 10 12 11 86 12
REMARK SMILES IDX 9 13 8 14 7 17 1 18 2 19 3 20 4 21 5 22 6 23 19 24 20 25
REMARK SMILES IDX 21 26 22 28 23 29 24 30 85 31 25 32 84 33 26 34 27 35 28 36
REMARK SMILES IDX 78 37 29 38 83 39 77 40 79 41 30 42 82 43 76 44 75 45 31 47
REMARK SMILES IDX 63 48 43 49 62 50 44 51 47 52 61 53 80 54 45 55 46 56 60 58
REMARK SMILES IDX 81 59 48 60 32 61 33 62 41 63 34 64 36 65 42 66 35 67 37 68
REMARK SMILES IDX 38 69 39 70 40 71 64 72 65 73 73 74 66 75 68 76 74 77 67 78
REMARK SMILES IDX 69 79 70 80 71 81 72 82 49 83 50 84 58 85 51 86 53 87 59 88
REMARK SMILES IDX 52 89 54 90 55 91 56 92 57 93
REMARK H PARENT 16 6 8 15 8 16 20 27 79 46 47 57
REMARK Flexibility Score: inf
ROOT
ATOM      1  C   UNL A   1      31.556  32.083  26.843  1.00  0.00     0.042 C 
ENDROOT
BRANCH   1   2
ATOM      2  C   UNL A   1      31.759  30.582  26.646  1.00  0.00     0.118 C 
BRANCH   2   3
ATOM      3  N   UNL A   1      33.069  30.167  27.114  1.00  0.00    -0.352 N 
ATOM      4  C   UNL A   1      33.902  29.136  26.766  1.00  0.00     0.252 C 
ATOM      5  O   UNL A   1      34.985  29.070  27.353  1.00  0.00    -0.269 OA
ATOM      6  H   UNL A   1      33.431  30.741  27.827  1.00  0.00     0.163 HD
BRANCH   4   7
ATOM      7  C   UNL A   1      33.616  28.168  25.680  1.00  0.00     0.058 A 
ATOM      8  C   UNL A   1      33.322  26.042  23.935  1.00  0.00     0.094 A 
ATOM      9  C   UNL A   1      33.657  27.296  23.430  1.00  0.00     0.030 A 
ATOM     10  N   UNL A   1      33.005  25.854  25.238  1.00  0.00    -0.255 NA
ATOM     11  C   UNL A   1      33.787  28.370  24.313  1.00  0.00     0.017 A 
ATOM     12  C   UNL A   1      33.160  26.912  26.073  1.00  0.00     0.125 A 
BRANCH   8  13
ATOM     13  C   UNL A   1      33.475  24.804  23.071  1.00  0.00     0.318 C 
BRANCH  13  14
ATOM     14  N   UNL A   1      34.433  23.812  23.598  1.00  0.00    -0.339 N 
ATOM     15  H   UNL A   1      35.210  23.740  22.942  1.00  0.00     0.346 HD
ATOM     16  H   UNL A   1      34.714  24.145  24.520  1.00  0.00     0.346 HD
BRANCH  14  17
ATOM     17  C   UNL A   1      33.879  22.468  23.797  1.00  0.00     0.185 C 
ATOM     18  C   UNL A   1      35.965  21.477  24.933  1.00  0.00     0.014 C 
ATOM     19  C   UNL A   1      34.484  21.808  25.054  1.00  0.00     0.047 C 
ATOM     20  C   UNL A   1      33.555  20.604  25.329  1.00  0.00    -0.005 C 
ATOM     21  C   UNL A   1      33.966  19.295  24.655  1.00  0.00     0.008 C 
ATOM     22  C   UNL A   1      32.177  21.055  24.825  1.00  0.00     0.010 C 
ATOM     23  C   UNL A   1      32.385  22.397  24.131  1.00  0.00     0.065 C 
ENDBRANCH  14  17
ENDBRANCH  13  14
ENDBRANCH   8  13
ENDBRANCH   4   7
ENDBRANCH   2   3
ENDBRANCH   1   2
BRANCH   1  24
ATOM     24  C   UNL A   1      32.857  32.838  27.104  1.00  0.00     0.118 C 
BRANCH  24  25
ATOM     25  N   UNL A   1      32.615  34.179  27.621  1.00  0.00    -0.352 N 
ATOM     26  C   UNL A   1      33.141  34.806  28.723  1.00  0.00     0.251 C 
ATOM     27  H   UNL A   1      31.975  34.717  27.101  1.00  0.00     0.163 HD
ATOM     28  O   UNL A   1      32.629  35.852  29.118  1.00  0.00    -0.269 OA
BRANCH  26  29
ATOM     29  C   UNL A   1      34.305  34.239  29.436  1.00  0.00     0.039 A 
ATOM     30  C   UNL A   1      34.082  33.404  30.536  1.00  0.00     0.014 A 
ATOM     31  C   UNL A   1      35.613  34.563  29.062  1.00  0.00     0.014 A 
ATOM     32  C   UNL A   1      35.168  32.859  31.228  1.00  0.00     0.010 A 
ATOM     33  C   UNL A   1      36.691  33.963  29.708  1.00  0.00     0.010 A 
ATOM     34  C   UNL A   1      36.482  33.113  30.804  1.00  0.00    -0.014 A 
BRANCH  34  35
ATOM     35  C   UNL A   1      37.648  32.498  31.489  1.00  0.00     0.031 A 
ATOM     36  C   UNL A   1      38.391  31.357  30.848  1.00  0.00     0.074 A 
ATOM     37  C   UNL A   1      37.979  32.908  32.730  1.00  0.00     0.049 A 
ATOM     38  N   UNL A   1      39.386  30.652  31.321  1.00  0.00    -0.248 NA
ATOM     39  C   UNL A   1      37.941  30.934  29.511  1.00  0.00     0.031 C 
ATOM     40  C   UNL A   1      37.285  33.949  33.489  1.00  0.00     0.029 A 
ATOM     41  N   UNL A   1      38.964  32.476  33.583  1.00  0.00    -0.354 N 
ATOM     42  C   UNL A   1      39.654  29.681  30.364  1.00  0.00     0.074 A 
ATOM     43  C   UNL A   1      38.698  29.868  29.295  1.00  0.00     0.031 C 
ATOM     44  C   UNL A   1      37.865  34.077  34.693  1.00  0.00     0.029 A 
ATOM     45  C   UNL A   1      38.951  33.109  34.805  1.00  0.00     0.049 A 
ATOM     46  H   UNL A   1      39.617  31.779  33.344  1.00  0.00     0.167 HD
ATOM     47  C   UNL A   1      40.625  28.736  30.361  1.00  0.00     0.034 A 
ATOM     48  C   UNL A   1      39.722  32.925  35.894  1.00  0.00     0.034 A 
ATOM     49  C   UNL A   1      41.605  28.587  31.403  1.00  0.00     0.049 A 
ATOM     50  C   UNL A   1      40.826  31.905  35.844  1.00  0.00     0.074 A 
ATOM     51  C   UNL A   1      42.687  27.725  31.449  1.00  0.00     0.029 A 
ATOM     52  N   UNL A   1      41.621  29.313  32.584  1.00  0.00    -0.354 N 
ATOM     53  N   UNL A   1      41.166  31.106  34.861  1.00  0.00    -0.248 NA
ATOM     54  C   UNL A   1      41.678  31.787  37.037  1.00  0.00     0.031 C 
ATOM     55  C   UNL A   1      43.346  27.917  32.669  1.00  0.00     0.029 A 
ATOM     56  C   UNL A   1      42.688  28.915  33.371  1.00  0.00     0.049 A 
ATOM     57  H   UNL A   1      40.969  30.009  32.828  1.00  0.00     0.167 HD
ATOM     58  C   UNL A   1      42.290  30.416  35.303  1.00  0.00     0.074 A 
ATOM     59  C   UNL A   1      42.586  30.908  36.632  1.00  0.00     0.031 C 
ATOM     60  C   UNL A   1      43.004  29.453  34.669  1.00  0.00     0.034 A 
BRANCH  47  61
ATOM     61  C   UNL A   1      40.715  27.824  29.163  1.00  0.00     0.023 A 
ATOM     62  C   UNL A   1      39.861  26.705  29.077  1.00  0.00     0.012 A 
ATOM     63  C   UNL A   1      41.596  28.104  28.099  1.00  0.00     0.148 A 
ATOM     64  C   UNL A   1      39.907  25.859  27.970  1.00  0.00     0.002 A 
ATOM     65  C   UNL A   1      41.604  27.281  26.980  1.00  0.00     0.091 A 
ATOM     66  F   UNL A   1      42.415  29.160  28.207  1.00  0.00    -0.205 F 
ATOM     67  C   UNL A   1      40.770  26.153  26.918  1.00  0.00     0.022 A 
BRANCH  65  68
ATOM     68  S   UNL A   1      42.622  27.617  25.537  1.00  0.00     0.127 S 
ATOM     69  O   UNL A   1      42.356  26.441  24.710  1.00  0.00    -0.237 OA
ATOM     70  O   UNL A   1      42.040  28.861  25.032  1.00  0.00    -0.237 OA
ATOM     71  O   UNL A   1      43.987  27.742  26.029  1.00  0.00    -0.744 OA
ENDBRANCH  65  68
ENDBRANCH  47  61
BRANCH  48  72
ATOM     72  C   UNL A   1      39.522  33.781  37.098  1.00  0.00     0.023 A 
ATOM     73  C   UNL A   1      39.978  35.114  37.079  1.00  0.00     0.012 A 
ATOM     74  C   UNL A   1      38.855  33.300  38.242  1.00  0.00     0.148 A 
ATOM     75  C   UNL A   1      39.801  35.942  38.188  1.00  0.00     0.002 A 
ATOM     76  C   UNL A   1      38.634  34.147  39.321  1.00  0.00     0.091 A 
ATOM     77  F   UNL A   1      38.439  32.025  38.244  1.00  0.00    -0.205 F 
ATOM     78  C   UNL A   1      39.120  35.463  39.304  1.00  0.00     0.022 A 
BRANCH  76  79
ATOM     79  S   UNL A   1      37.646  33.658  40.740  1.00  0.00     0.127 S 
ATOM     80  O   UNL A   1      36.460  33.095  40.101  1.00  0.00    -0.237 OA
ATOM     81  O   UNL A   1      38.517  32.681  41.393  1.00  0.00    -0.237 OA
ATOM     82  O   UNL A   1      37.436  34.877  41.510  1.00  0.00    -0.744 OA
ENDBRANCH  76  79
ENDBRANCH  48  72
BRANCH  60  83
ATOM     83  C   UNL A   1      44.198  28.883  35.388  1.00  0.00     0.023 A 
ATOM     84  C   UNL A   1      45.474  29.444  35.179  1.00  0.00     0.012 A 
ATOM     85  C   UNL A   1      44.043  27.842  36.325  1.00  0.00     0.148 A 
ATOM     86  C   UNL A   1      46.582  28.956  35.871  1.00  0.00     0.002 A 
ATOM     87  C   UNL A   1      45.145  27.395  37.046  1.00  0.00     0.091 A 
ATOM     88  F   UNL A   1      42.825  27.309  36.495  1.00  0.00    -0.205 F 
ATOM     89  C   UNL A   1      46.416  27.943  36.811  1.00  0.00     0.022 A 
BRANCH  87  90
ATOM     90  S   UNL A   1      45.006  26.162  38.345  1.00  0.00     0.127 S 
ATOM     91  O   UNL A   1      44.510  25.003  37.603  1.00  0.00    -0.237 OA
ATOM     92  O   UNL A   1      46.389  26.042  38.809  1.00  0.00    -0.237 OA
ATOM     93  O   UNL A   1      44.087  26.718  39.328  1.00  0.00    -0.744 OA
ENDBRANCH  87  90
ENDBRANCH  60  83
ENDBRANCH  34  35
ENDBRANCH  26  29
ENDBRANCH  24  25
ENDBRANCH   1  24
TORSDOF 16
ENDMDL
MODEL 3
REMARK VINA RESULT:     -11.5      2.637      8.203
REMARK SMILES C[C@@H]1[C@H](C)CC[C@H]1[NH2+]Cc1ccc(C(=O)NCCCNC(=O)c2ccc(-c3c4nc(c(-c5cccc(S(=O)(=O)[O-])c5F)c5ccc([nH]5)c(-c5cccc(S(=O)(=O)[O-])c5F)c5nc(c(-c6cccc(S(=O)(=O)[O-])c6F)c6ccc3[nH]6)C=C5)C=C4)cc2)cn1
REMARK SMILES IDX 18 1 17 2 16 3 14 4 15 5 13 7 10 8 11 9 87 10 12 11 86 12
REMARK SMILES IDX 9 13 8 14 7 17 1 18 2 19 3 20 4 21 5 22 6 23 19 24 20 25
REMARK SMILES IDX 21 26 22 28 23 29 24 30 85 31 25 32 84 33 26 34 27 35 28 36
REMARK SMILES IDX 78 37 29 38 83 39 77 40 79 41 30 42 82 43 76 44 75 45 31 47
REMARK SMILES IDX 63 48 43 49 62 50 44 51 47 52 61 53 80 54 45 55 46 56 60 58
REMARK SMILES IDX 81 59 48 60 32 61 33 62 41 63 34 64 36 65 42 66 35 67 37 68
REMARK SMILES IDX 38 69 39 70 40 71 64 72 65 73 73 74 66 75 68 76 74 77 67 78
REMARK SMILES IDX 69 79 70 80 71 81 72 82 49 83 50 84 58 85 51 86 53 87 59 88
REMARK SMILES IDX 52 89 54 90 55 91 56 92 57 93
REMARK H PARENT 16 6 8 15 8 16 20 27 79 46 47 57
REMARK Flexibility Score: inf
ROOT
ATOM      1  C   UNL A   1      31.040  31.508  25.850  1.00  0.00     0.042 C 
ENDROOT
BRANCH   1   2
ATOM      2  C   UNL A   1      31.304  30.175  25.154  1.00  0.00     0.118 C 
BRANCH   2   3
ATOM      3  N   UNL A   1      30.599  30.097  23.888  1.00  0.00    -0.352 N 
ATOM      4  C   UNL A   1      30.290  29.057  23.051  1.00  0.00     0.252 C 
ATOM      5  O   UNL A   1      29.645  29.328  22.037  1.00  0.00    -0.269 OA
ATOM      6  H   UNL A   1      30.278  30.970  23.563  1.00  0.00     0.163 HD
BRANCH   4   7
ATOM      7  C   UNL A   1      30.606  27.638  23.341  1.00  0.00     0.058 A 
ATOM      8  C   UNL A   1      31.067  24.911  23.418  1.00  0.00     0.094 A 
ATOM      9  C   UNL A   1      30.424  25.523  24.491  1.00  0.00     0.030 A 
ATOM     10  N   UNL A   1      31.594  25.624  22.394  1.00  0.00    -0.255 NA
ATOM     11  C   UNL A   1      30.210  26.903  24.455  1.00  0.00     0.017 A 
ATOM     12  C   UNL A   1      31.351  26.960  22.380  1.00  0.00     0.125 A 
BRANCH   8  13
ATOM     13  C   UNL A   1      31.041  23.401  23.271  1.00  0.00     0.318 C 
BRANCH  13  14
ATOM     14  N   UNL A   1      32.108  22.857  22.408  1.00  0.00    -0.339 N 
ATOM     15  H   UNL A   1      31.669  22.332  21.652  1.00  0.00     0.346 HD
ATOM     16  H   UNL A   1      32.649  23.657  22.082  1.00  0.00     0.346 HD
BRANCH  14  17
ATOM     17  C   UNL A   1      33.056  21.968  23.089  1.00  0.00     0.185 C 
ATOM     18  C   UNL A   1      34.726  23.809  23.758  1.00  0.00     0.014 C 
ATOM     19  C   UNL A   1      33.781  22.712  24.230  1.00  0.00     0.047 C 
ATOM     20  C   UNL A   1      34.435  21.583  25.058  1.00  0.00    -0.005 C 
ATOM     21  C   UNL A   1      35.854  21.203  24.637  1.00  0.00     0.008 C 
ATOM     22  C   UNL A   1      33.489  20.384  24.893  1.00  0.00     0.010 C 
ATOM     23  C   UNL A   1      32.444  20.793  23.859  1.00  0.00     0.065 C 
ENDBRANCH  14  17
ENDBRANCH  13  14
ENDBRANCH   8  13
ENDBRANCH   4   7
ENDBRANCH   2   3
ENDBRANCH   1   2
BRANCH   1  24
ATOM     24  C   UNL A   1      32.110  31.875  26.876  1.00  0.00     0.118 C 
BRANCH  24  25
ATOM     25  N   UNL A   1      32.144  33.307  27.142  1.00  0.00    -0.352 N 
ATOM     26  C   UNL A   1      32.929  34.024  28.009  1.00  0.00     0.251 C 
ATOM     27  H   UNL A   1      31.504  33.842  26.619  1.00  0.00     0.163 HD
ATOM     28  O   UNL A   1      32.638  35.193  28.253  1.00  0.00    -0.269 OA
BRANCH  26  29
ATOM     29  C   UNL A   1      34.110  33.407  28.651  1.00  0.00     0.039 A 
ATOM     30  C   UNL A   1      35.320  34.108  28.655  1.00  0.00     0.014 A 
ATOM     31  C   UNL A   1      34.047  32.123  29.202  1.00  0.00     0.014 A 
ATOM     32  C   UNL A   1      36.450  33.543  29.252  1.00  0.00     0.010 A 
ATOM     33  C   UNL A   1      35.154  31.593  29.860  1.00  0.00     0.010 A 
ATOM     34  C   UNL A   1      36.371  32.291  29.883  1.00  0.00    -0.014 A 
BRANCH  34  35
ATOM     35  C   UNL A   1      37.544  31.698  30.574  1.00  0.00     0.031 A 
ATOM     36  C   UNL A   1      38.384  30.654  29.889  1.00  0.00     0.074 A 
ATOM     37  C   UNL A   1      37.798  32.034  31.855  1.00  0.00     0.049 A 
ATOM     38  N   UNL A   1      39.401  29.977  30.355  1.00  0.00    -0.248 NA
ATOM     39  C   UNL A   1      38.017  30.304  28.506  1.00  0.00     0.031 C 
ATOM     40  C   UNL A   1      37.008  32.973  32.654  1.00  0.00     0.029 A 
ATOM     41  N   UNL A   1      38.771  31.600  32.720  1.00  0.00    -0.354 N 
ATOM     42  C   UNL A   1      39.769  29.097  29.345  1.00  0.00     0.074 A 
ATOM     43  C   UNL A   1      38.848  29.305  28.249  1.00  0.00     0.031 C 
ATOM     44  C   UNL A   1      37.528  33.046  33.890  1.00  0.00     0.029 A 
ATOM     45  C   UNL A   1      38.668  32.139  33.982  1.00  0.00     0.049 A 
ATOM     46  H   UNL A   1      39.477  30.964  32.462  1.00  0.00     0.167 HD
ATOM     47  C   UNL A   1      40.797  28.215  29.319  1.00  0.00     0.034 A 
ATOM     48  C   UNL A   1      39.403  31.922  35.090  1.00  0.00     0.034 A 
ATOM     49  C   UNL A   1      41.741  28.049  30.392  1.00  0.00     0.049 A 
ATOM     50  C   UNL A   1      40.571  30.976  35.018  1.00  0.00     0.074 A 
ATOM     51  C   UNL A   1      42.872  27.252  30.427  1.00  0.00     0.029 A 
ATOM     52  N   UNL A   1      41.662  28.684  31.622  1.00  0.00    -0.354 N 
ATOM     53  N   UNL A   1      41.000  30.274  33.997  1.00  0.00    -0.248 NA
ATOM     54  C   UNL A   1      41.378  30.822  36.236  1.00  0.00     0.031 C 
ATOM     55  C   UNL A   1      43.467  27.393  31.685  1.00  0.00     0.029 A 
ATOM     56  C   UNL A   1      42.719  28.294  32.426  1.00  0.00     0.049 A 
ATOM     57  H   UNL A   1      40.957  29.321  31.884  1.00  0.00     0.167 HD
ATOM     58  C   UNL A   1      42.147  29.622  34.439  1.00  0.00     0.074 A 
ATOM     59  C   UNL A   1      42.355  30.031  35.812  1.00  0.00     0.031 C 
ATOM     60  C   UNL A   1      42.945  28.753  33.773  1.00  0.00     0.034 A 
BRANCH  47  61
ATOM     61  C   UNL A   1      40.994  27.402  28.065  1.00  0.00     0.023 A 
ATOM     62  C   UNL A   1      41.540  28.014  26.918  1.00  0.00     0.012 A 
ATOM     63  C   UNL A   1      40.697  26.024  28.037  1.00  0.00     0.148 A 
ATOM     64  C   UNL A   1      41.754  27.280  25.753  1.00  0.00     0.002 A 
ATOM     65  C   UNL A   1      40.954  25.290  26.885  1.00  0.00     0.091 A 
ATOM     66  F   UNL A   1      40.159  25.462  29.128  1.00  0.00    -0.205 F 
ATOM     67  C   UNL A   1      41.471  25.917  25.740  1.00  0.00     0.022 A 
BRANCH  65  68
ATOM     68  S   UNL A   1      40.698  23.513  26.791  1.00  0.00     0.127 S 
ATOM     69  O   UNL A   1      41.605  23.143  25.706  1.00  0.00    -0.237 OA
ATOM     70  O   UNL A   1      41.125  23.070  28.119  1.00  0.00    -0.237 OA
ATOM     71  O   UNL A   1      39.281  23.325  26.515  1.00  0.00    -0.744 OA
ENDBRANCH  65  68
ENDBRANCH  47  61
BRANCH  48  72
ATOM     72  C   UNL A   1      39.100  32.673  36.340  1.00  0.00     0.023 A 
ATOM     73  C   UNL A   1      39.624  33.969  36.511  1.00  0.00     0.012 A 
ATOM     74  C   UNL A   1      38.270  32.132  37.342  1.00  0.00     0.148 A 
ATOM     75  C   UNL A   1      39.355  34.700  37.669  1.00  0.00     0.002 A 
ATOM     76  C   UNL A   1      37.960  32.887  38.467  1.00  0.00     0.091 A 
ATOM     77  F   UNL A   1      37.789  30.893  37.166  1.00  0.00    -0.205 F 
ATOM     78  C   UNL A   1      38.515  34.165  38.641  1.00  0.00     0.022 A 
BRANCH  76  79
ATOM     79  S   UNL A   1      36.778  32.333  39.701  1.00  0.00     0.127 S 
ATOM     80  O   UNL A   1      37.261  30.987  39.995  1.00  0.00    -0.237 OA
ATOM     81  O   UNL A   1      36.978  33.309  40.773  1.00  0.00    -0.237 OA
ATOM     82  O   UNL A   1      35.473  32.414  39.057  1.00  0.00    -0.744 OA
ENDBRANCH  76  79
ENDBRANCH  48  72
BRANCH  60  83
ATOM     83  C   UNL A   1      44.143  28.204  34.502  1.00  0.00     0.023 A 
ATOM     84  C   UNL A   1      45.370  28.894  34.453  1.00  0.00     0.012 A 
ATOM     85  C   UNL A   1      44.030  27.046  35.298  1.00  0.00     0.148 A 
ATOM     86  C   UNL A   1      46.475  28.423  35.160  1.00  0.00     0.002 A 
ATOM     87  C   UNL A   1      45.123  26.611  36.038  1.00  0.00     0.091 A 
ATOM     88  F   UNL A   1      42.860  26.393  35.316  1.00  0.00    -0.205 F 
ATOM     89  C   UNL A   1      46.349  27.291  35.961  1.00  0.00     0.022 A 
BRANCH  87  90
ATOM     90  S   UNL A   1      45.024  25.219  37.170  1.00  0.00     0.127 S 
ATOM     91  O   UNL A   1      43.954  25.645  38.071  1.00  0.00    -0.237 OA
ATOM     92  O   UNL A   1      44.666  24.116  36.277  1.00  0.00    -0.237 OA
ATOM     93  O   UNL A   1      46.343  25.100  37.775  1.00  0.00    -0.744 OA
ENDBRANCH  87  90
ENDBRANCH  60  83
ENDBRANCH  34  35
ENDBRANCH  26  29
ENDBRANCH  24  25
ENDBRANCH   1  24
TORSDOF 16
ENDMDL
