MODEL 1
REMARK VINA RESULT:     -11.8      0.000      0.000
REMARK SMILES Cc1nc(NCc2ccc(Cl)cc2Cl)sc1C(=O)NCCCNC(=O)c1ccc(-c2c3nc(c(-c4cccc(S(=O)(=O)[O-])c4F)c4ccc([nH]4)c(-c4cccc(S(=O)(=O)[O-])c4F)c4nc(c(-c5cccc(S(=O)(=O)[O-])c5F)c5ccc2[nH]5)C=C4)C=C3)cc1
REMARK SMILES IDX 21 1 20 2 19 3 17 4 18 5 16 7 1 8 2 9 3 10 4 11 15 12 5 13
REMARK SMILES IDX 6 15 7 16 8 17 13 18 9 19 12 20 14 21 10 22 11 23 22 24
REMARK SMILES IDX 23 25 24 26 25 28 26 29 27 30 88 31 28 32 87 33 29 34 30 35
REMARK SMILES IDX 31 36 81 37 32 38 86 39 80 40 82 41 33 42 85 43 79 44 78 45
REMARK SMILES IDX 34 47 66 48 46 49 65 50 47 51 50 52 64 53 83 54 48 55 49 56
REMARK SMILES IDX 63 58 84 59 51 60 35 61 36 62 44 63 37 64 39 65 45 66 38 67
REMARK SMILES IDX 40 68 41 69 42 70 43 71 67 72 68 73 76 74 69 75 71 76 77 77
REMARK SMILES IDX 70 78 72 79 73 80 74 81 75 82 52 83 53 84 61 85 54 86 56 87
REMARK SMILES IDX 62 88 55 89 57 90 58 91 59 92 60 93
REMARK H PARENT 19 6 5 14 23 27 82 46 50 57
REMARK Flexibility Score: inf
ROOT
ATOM      1  C   UNL A   1      37.382  19.466  25.005  1.00  0.00     0.042 C 
ENDROOT
BRANCH   1   2
ATOM      2  C   UNL A   1      36.159  20.364  24.835  1.00  0.00     0.118 C 
BRANCH   2   3
ATOM      3  N   UNL A   1      34.941  19.603  24.970  1.00  0.00    -0.351 N 
ATOM      4  C   UNL A   1      33.634  19.939  25.211  1.00  0.00     0.263 C 
ATOM      5  O   UNL A   1      32.887  18.951  25.214  1.00  0.00    -0.268 OA
ATOM      6  H   UNL A   1      35.077  18.633  24.866  1.00  0.00     0.163 HD
BRANCH   4   7
ATOM      7  C   UNL A   1      33.134  21.298  25.394  1.00  0.00     0.117 A 
ATOM      8  C   UNL A   1      33.355  22.214  27.858  1.00  0.00     0.068 C 
ATOM      9  C   UNL A   1      33.019  22.239  26.414  1.00  0.00     0.063 A 
ATOM     10  N   UNL A   1      32.453  23.447  26.033  1.00  0.00    -0.225 NA
ATOM     11  C   UNL A   1      32.080  23.441  24.785  1.00  0.00     0.183 A 
ATOM     12  S   UNL A   1      32.399  21.988  23.962  1.00  0.00    -0.092 S 
BRANCH  11  13
ATOM     13  N   UNL A   1      31.515  24.494  24.166  1.00  0.00    -0.357 N 
ATOM     14  H   UNL A   1      31.804  24.745  23.259  1.00  0.00     0.163 HD
BRANCH  13  15
ATOM     15  C   UNL A   1      30.491  25.254  24.829  1.00  0.00     0.152 C 
BRANCH  15  16
ATOM     16  C   UNL A   1      30.816  26.710  25.113  1.00  0.00    -0.010 A 
ATOM     17  C   UNL A   1      31.256  26.970  26.434  1.00  0.00     0.008 A 
ATOM     18  C   UNL A   1      30.812  27.788  24.211  1.00  0.00     0.047 A 
ATOM     19  C   UNL A   1      31.648  28.245  26.844  1.00  0.00     0.021 A 
ATOM     20  C   UNL A   1      31.201  29.071  24.627  1.00  0.00     0.041 A 
ATOM     21  Cl  UNL A   1      30.353  27.684  22.548  1.00  0.00    -0.084 Cl
ATOM     22  C   UNL A   1      31.613  29.293  25.936  1.00  0.00     0.042 A 
ATOM     23  Cl  UNL A   1      32.090  30.870  26.428  1.00  0.00    -0.084 Cl
ENDBRANCH  15  16
ENDBRANCH  13  15
ENDBRANCH  11  13
ENDBRANCH   4   7
ENDBRANCH   2   3
ENDBRANCH   1   2
BRANCH   1  24
ATOM     24  C   UNL A   1      38.634  20.213  25.444  1.00  0.00     0.118 C 
BRANCH  24  25
ATOM     25  N   UNL A   1      39.696  19.299  25.837  1.00  0.00    -0.352 N 
ATOM     26  C   UNL A   1      41.000  19.558  26.183  1.00  0.00     0.251 C 
ATOM     27  H   UNL A   1      39.441  18.349  25.857  1.00  0.00     0.163 HD
ATOM     28  O   UNL A   1      41.799  18.626  26.229  1.00  0.00    -0.269 OA
BRANCH  26  29
ATOM     29  C   UNL A   1      41.451  20.935  26.495  1.00  0.00     0.039 A 
ATOM     30  C   UNL A   1      41.914  21.218  27.784  1.00  0.00     0.014 A 
ATOM     31  C   UNL A   1      41.367  21.961  25.549  1.00  0.00     0.014 A 
ATOM     32  C   UNL A   1      42.334  22.512  28.109  1.00  0.00     0.010 A 
ATOM     33  C   UNL A   1      41.863  23.227  25.847  1.00  0.00     0.010 A 
ATOM     34  C   UNL A   1      42.336  23.522  27.134  1.00  0.00    -0.014 A 
BRANCH  34  35
ATOM     35  C   UNL A   1      42.817  24.895  27.437  1.00  0.00     0.031 A 
ATOM     36  C   UNL A   1      41.888  25.900  28.067  1.00  0.00     0.074 A 
ATOM     37  C   UNL A   1      44.056  25.265  27.058  1.00  0.00     0.049 A 
ATOM     38  N   UNL A   1      42.094  27.165  28.326  1.00  0.00    -0.248 NA
ATOM     39  C   UNL A   1      40.540  25.429  28.427  1.00  0.00     0.031 C 
ATOM     40  C   UNL A   1      45.021  24.406  26.369  1.00  0.00     0.029 A 
ATOM     41  N   UNL A   1      44.704  26.470  27.169  1.00  0.00    -0.354 N 
ATOM     42  C   UNL A   1      40.895  27.650  28.836  1.00  0.00     0.074 A 
ATOM     43  C   UNL A   1      39.956  26.551  28.822  1.00  0.00     0.031 C 
ATOM     44  C   UNL A   1      46.135  25.112  26.114  1.00  0.00     0.029 A 
ATOM     45  C   UNL A   1      45.954  26.478  26.595  1.00  0.00     0.049 A 
ATOM     46  H   UNL A   1      44.313  27.255  27.617  1.00  0.00     0.167 HD
ATOM     47  C   UNL A   1      40.611  28.889  29.303  1.00  0.00     0.034 A 
ATOM     48  C   UNL A   1      46.849  27.475  26.459  1.00  0.00     0.034 A 
ATOM     49  C   UNL A   1      41.563  29.964  29.362  1.00  0.00     0.049 A 
ATOM     50  C   UNL A   1      46.528  28.828  27.034  1.00  0.00     0.074 A 
ATOM     51  C   UNL A   1      41.402  31.228  29.902  1.00  0.00     0.029 A 
ATOM     52  N   UNL A   1      42.856  29.903  28.865  1.00  0.00    -0.354 N 
ATOM     53  N   UNL A   1      45.443  29.223  27.655  1.00  0.00    -0.248 NA
ATOM     54  C   UNL A   1      47.566  29.863  26.923  1.00  0.00     0.031 C 
ATOM     55  C   UNL A   1      42.592  31.938  29.713  1.00  0.00     0.029 A 
ATOM     56  C   UNL A   1      43.503  31.108  29.077  1.00  0.00     0.049 A 
ATOM     57  H   UNL A   1      43.255  29.119  28.424  1.00  0.00     0.167 HD
ATOM     58  C   UNL A   1      45.680  30.538  28.039  1.00  0.00     0.074 A 
ATOM     59  C   UNL A   1      47.021  30.865  27.599  1.00  0.00     0.031 C 
ATOM     60  C   UNL A   1      44.856  31.400  28.683  1.00  0.00     0.034 A 
BRANCH  47  61
ATOM     61  C   UNL A   1      39.225  29.134  29.845  1.00  0.00     0.023 A 
ATOM     62  C   UNL A   1      38.927  28.774  31.176  1.00  0.00     0.012 A 
ATOM     63  C   UNL A   1      38.239  29.769  29.064  1.00  0.00     0.148 A 
ATOM     64  C   UNL A   1      37.662  29.010  31.711  1.00  0.00     0.002 A 
ATOM     65  C   UNL A   1      36.993  30.041  29.619  1.00  0.00     0.091 A 
ATOM     66  F   UNL A   1      38.532  30.085  27.796  1.00  0.00    -0.205 F 
ATOM     67  C   UNL A   1      36.699  29.652  30.937  1.00  0.00     0.022 A 
BRANCH  65  68
ATOM     68  S   UNL A   1      35.709  30.933  28.733  1.00  0.00     0.127 S 
ATOM     69  O   UNL A   1      35.090  29.862  27.954  1.00  0.00    -0.237 OA
ATOM     70  O   UNL A   1      34.883  31.449  29.824  1.00  0.00    -0.237 OA
ATOM     71  O   UNL A   1      36.395  31.955  27.955  1.00  0.00    -0.744 OA
ENDBRANCH  65  68
ENDBRANCH  47  61
BRANCH  48  72
ATOM     72  C   UNL A   1      48.165  27.209  25.809  1.00  0.00     0.023 A 
ATOM     73  C   UNL A   1      49.216  26.667  26.573  1.00  0.00     0.012 A 
ATOM     74  C   UNL A   1      48.366  27.449  24.435  1.00  0.00     0.148 A 
ATOM     75  C   UNL A   1      50.454  26.398  25.990  1.00  0.00     0.002 A 
ATOM     76  C   UNL A   1      49.584  27.127  23.848  1.00  0.00     0.091 A 
ATOM     77  F   UNL A   1      47.357  27.976  23.727  1.00  0.00    -0.205 F 
ATOM     78  C   UNL A   1      50.635  26.617  24.626  1.00  0.00     0.022 A 
BRANCH  76  79
ATOM     79  S   UNL A   1      49.862  27.246  22.078  1.00  0.00     0.127 S 
ATOM     80  O   UNL A   1      48.858  26.325  21.554  1.00  0.00    -0.237 OA
ATOM     81  O   UNL A   1      49.594  28.662  21.823  1.00  0.00    -0.237 OA
ATOM     82  O   UNL A   1      51.251  26.856  21.872  1.00  0.00    -0.744 OA
ENDBRANCH  76  79
ENDBRANCH  48  72
BRANCH  60  83
ATOM     83  C   UNL A   1      45.386  32.778  28.988  1.00  0.00     0.023 A 
ATOM     84  C   UNL A   1      46.130  32.995  30.164  1.00  0.00     0.012 A 
ATOM     85  C   UNL A   1      45.216  33.832  28.069  1.00  0.00     0.148 A 
ATOM     86  C   UNL A   1      46.674  34.250  30.435  1.00  0.00     0.002 A 
ATOM     87  C   UNL A   1      45.801  35.067  28.323  1.00  0.00     0.091 A 
ATOM     88  F   UNL A   1      44.488  33.607  26.965  1.00  0.00    -0.205 F 
ATOM     89  C   UNL A   1      46.520  35.281  29.510  1.00  0.00     0.022 A 
BRANCH  87  90
ATOM     90  S   UNL A   1      45.738  36.421  27.145  1.00  0.00     0.127 S 
ATOM     91  O   UNL A   1      44.298  36.640  27.021  1.00  0.00    -0.237 OA
ATOM     92  O   UNL A   1      46.458  37.481  27.850  1.00  0.00    -0.237 OA
ATOM     93  O   UNL A   1      46.402  35.938  25.941  1.00  0.00    -0.744 OA
ENDBRANCH  87  90
ENDBRANCH  60  83
ENDBRANCH  34  35
ENDBRANCH  26  29
ENDBRANCH  24  25
ENDBRANCH   1  24
TORSDOF 16
ENDMDL
MODEL 2
REMARK VINA RESULT:     -11.7      1.545      7.760
REMARK SMILES Cc1nc(NCc2ccc(Cl)cc2Cl)sc1C(=O)NCCCNC(=O)c1ccc(-c2c3nc(c(-c4cccc(S(=O)(=O)[O-])c4F)c4ccc([nH]4)c(-c4cccc(S(=O)(=O)[O-])c4F)c4nc(c(-c5cccc(S(=O)(=O)[O-])c5F)c5ccc2[nH]5)C=C4)C=C3)cc1
REMARK SMILES IDX 21 1 20 2 19 3 17 4 18 5 16 7 1 8 2 9 3 10 4 11 15 12 5 13
REMARK SMILES IDX 6 15 7 16 8 17 13 18 9 19 12 20 14 21 10 22 11 23 22 24
REMARK SMILES IDX 23 25 24 26 25 28 26 29 27 30 88 31 28 32 87 33 29 34 30 35
REMARK SMILES IDX 31 36 81 37 32 38 86 39 80 40 82 41 33 42 85 43 79 44 78 45
REMARK SMILES IDX 34 47 66 48 46 49 65 50 47 51 50 52 64 53 83 54 48 55 49 56
REMARK SMILES IDX 63 58 84 59 51 60 35 61 36 62 44 63 37 64 39 65 45 66 38 67
REMARK SMILES IDX 40 68 41 69 42 70 43 71 67 72 68 73 76 74 69 75 71 76 77 77
REMARK SMILES IDX 70 78 72 79 73 80 74 81 75 82 52 83 53 84 61 85 54 86 56 87
REMARK SMILES IDX 62 88 55 89 57 90 58 91 59 92 60 93
REMARK H PARENT 19 6 5 14 23 27 82 46 50 57
REMARK Flexibility Score: inf
ROOT
ATOM      1  C   UNL A   1      36.716  20.647  24.971  1.00  0.00     0.042 C 
ENDROOT
BRANCH   1   2
ATOM      2  C   UNL A   1      35.427  21.280  25.491  1.00  0.00     0.118 C 
BRANCH   2   3
ATOM      3  N   UNL A   1      34.376  20.297  25.591  1.00  0.00    -0.351 N 
ATOM      4  C   UNL A   1      33.029  20.320  25.339  1.00  0.00     0.263 C 
ATOM      5  O   UNL A   1      32.495  19.219  25.531  1.00  0.00    -0.268 OA
ATOM      6  H   UNL A   1      34.695  19.421  25.908  1.00  0.00     0.163 HD
BRANCH   4   7
ATOM      7  C   UNL A   1      32.283  21.475  24.849  1.00  0.00     0.117 A 
ATOM      8  C   UNL A   1      32.247  21.706  22.220  1.00  0.00     0.068 C 
ATOM      9  C   UNL A   1      31.935  22.051  23.628  1.00  0.00     0.063 A 
ATOM     10  N   UNL A   1      31.159  23.196  23.724  1.00  0.00    -0.225 NA
ATOM     11  C   UNL A   1      30.955  23.548  24.962  1.00  0.00     0.183 A 
ATOM     12  S   UNL A   1      31.662  22.515  26.113  1.00  0.00    -0.092 S 
BRANCH  11  13
ATOM     13  N   UNL A   1      30.223  24.617  25.327  1.00  0.00    -0.357 N 
ATOM     14  H   UNL A   1      29.534  24.527  26.025  1.00  0.00     0.163 HD
BRANCH  13  15
ATOM     15  C   UNL A   1      30.445  25.890  24.697  1.00  0.00     0.152 C 
BRANCH  15  16
ATOM     16  C   UNL A   1      31.591  26.719  25.250  1.00  0.00    -0.010 A 
ATOM     17  C   UNL A   1      31.396  27.190  26.571  1.00  0.00     0.008 A 
ATOM     18  C   UNL A   1      32.831  26.991  24.644  1.00  0.00     0.047 A 
ATOM     19  C   UNL A   1      32.375  27.919  27.246  1.00  0.00     0.021 A 
ATOM     20  C   UNL A   1      33.811  27.731  25.324  1.00  0.00     0.041 A 
ATOM     21  Cl  UNL A   1      33.292  26.477  23.061  1.00  0.00    -0.084 Cl
ATOM     22  C   UNL A   1      33.580  28.190  26.615  1.00  0.00     0.042 A 
ATOM     23  Cl  UNL A   1      34.794  29.091  27.434  1.00  0.00    -0.084 Cl
ENDBRANCH  15  16
ENDBRANCH  13  15
ENDBRANCH  11  13
ENDBRANCH   4   7
ENDBRANCH   2   3
ENDBRANCH   1   2
BRANCH   1  24
ATOM     24  C   UNL A   1      37.977  21.383  25.402  1.00  0.00     0.118 C 
BRANCH  24  25
ATOM     25  N   UNL A   1      38.909  20.498  26.085  1.00  0.00    -0.352 N 
ATOM     26  C   UNL A   1      40.116  20.777  26.680  1.00  0.00     0.251 C 
ATOM     27  H   UNL A   1      38.633  19.554  26.127  1.00  0.00     0.163 HD
ATOM     28  O   UNL A   1      40.864  19.847  26.971  1.00  0.00    -0.269 OA
BRANCH  26  29
ATOM     29  C   UNL A   1      40.522  22.173  26.970  1.00  0.00     0.039 A 
ATOM     30  C   UNL A   1      41.347  22.420  28.072  1.00  0.00     0.014 A 
ATOM     31  C   UNL A   1      40.053  23.242  26.203  1.00  0.00     0.014 A 
ATOM     32  C   UNL A   1      41.735  23.729  28.375  1.00  0.00     0.010 A 
ATOM     33  C   UNL A   1      40.508  24.534  26.454  1.00  0.00     0.010 A 
ATOM     34  C   UNL A   1      41.340  24.794  27.552  1.00  0.00    -0.014 A 
BRANCH  34  35
ATOM     35  C   UNL A   1      41.772  26.190  27.823  1.00  0.00     0.031 A 
ATOM     36  C   UNL A   1      43.170  26.630  27.474  1.00  0.00     0.074 A 
ATOM     37  C   UNL A   1      40.941  27.030  28.471  1.00  0.00     0.049 A 
ATOM     38  N   UNL A   1      43.759  27.773  27.712  1.00  0.00    -0.248 NA
ATOM     39  C   UNL A   1      44.030  25.647  26.794  1.00  0.00     0.031 C 
ATOM     40  C   UNL A   1      39.593  26.696  28.932  1.00  0.00     0.029 A 
ATOM     41  N   UNL A   1      41.121  28.327  28.884  1.00  0.00    -0.354 N 
ATOM     42  C   UNL A   1      45.064  27.634  27.253  1.00  0.00     0.074 A 
ATOM     43  C   UNL A   1      45.190  26.284  26.749  1.00  0.00     0.031 C 
ATOM     44  C   UNL A   1      39.069  27.758  29.567  1.00  0.00     0.029 A 
ATOM     45  C   UNL A   1      40.052  28.836  29.584  1.00  0.00     0.049 A 
ATOM     46  H   UNL A   1      41.938  28.845  28.696  1.00  0.00     0.167 HD
ATOM     47  C   UNL A   1      46.057  28.554  27.223  1.00  0.00     0.034 A 
ATOM     48  C   UNL A   1      39.887  30.030  30.184  1.00  0.00     0.034 A 
ATOM     49  C   UNL A   1      45.909  29.910  27.677  1.00  0.00     0.049 A 
ATOM     50  C   UNL A   1      40.986  31.053  30.090  1.00  0.00     0.074 A 
ATOM     51  C   UNL A   1      46.824  30.946  27.607  1.00  0.00     0.029 A 
ATOM     52  N   UNL A   1      44.775  30.420  28.289  1.00  0.00    -0.354 N 
ATOM     53  N   UNL A   1      42.159  30.952  29.511  1.00  0.00    -0.248 NA
ATOM     54  C   UNL A   1      40.729  32.366  30.699  1.00  0.00     0.031 C 
ATOM     55  C   UNL A   1      46.248  32.078  28.192  1.00  0.00     0.029 A 
ATOM     56  C   UNL A   1      44.966  31.753  28.607  1.00  0.00     0.049 A 
ATOM     57  H   UNL A   1      43.953  29.909  28.470  1.00  0.00     0.167 HD
ATOM     58  C   UNL A   1      42.764  32.195  29.655  1.00  0.00     0.074 A 
ATOM     59  C   UNL A   1      41.819  33.040  30.358  1.00  0.00     0.031 C 
ATOM     60  C   UNL A   1      43.996  32.596  29.256  1.00  0.00     0.034 A 
BRANCH  47  61
ATOM     61  C   UNL A   1      47.378  28.142  26.624  1.00  0.00     0.023 A 
ATOM     62  C   UNL A   1      48.466  27.858  27.475  1.00  0.00     0.012 A 
ATOM     63  C   UNL A   1      47.528  27.980  25.233  1.00  0.00     0.148 A 
ATOM     64  C   UNL A   1      49.692  27.453  26.950  1.00  0.00     0.002 A 
ATOM     65  C   UNL A   1      48.742  27.532  24.720  1.00  0.00     0.091 A 
ATOM     66  F   UNL A   1      46.490  28.274  24.438  1.00  0.00    -0.205 F 
ATOM     67  C   UNL A   1      49.827  27.281  25.576  1.00  0.00     0.022 A 
BRANCH  65  68
ATOM     68  S   UNL A   1      48.994  27.204  22.972  1.00  0.00     0.127 S 
ATOM     69  O   UNL A   1      48.445  28.413  22.362  1.00  0.00    -0.237 OA
ATOM     70  O   UNL A   1      50.450  27.086  22.888  1.00  0.00    -0.237 OA
ATOM     71  O   UNL A   1      48.268  25.974  22.686  1.00  0.00    -0.744 OA
ENDBRANCH  65  68
ENDBRANCH  47  61
BRANCH  48  72
ATOM     72  C   UNL A   1      38.599  30.347  30.866  1.00  0.00     0.023 A 
ATOM     73  C   UNL A   1      38.373  29.869  32.171  1.00  0.00     0.012 A 
ATOM     74  C   UNL A   1      37.620  31.148  30.248  1.00  0.00     0.148 A 
ATOM     75  C   UNL A   1      37.182  30.157  32.838  1.00  0.00     0.002 A 
ATOM     76  C   UNL A   1      36.459  31.478  30.939  1.00  0.00     0.091 A 
ATOM     77  F   UNL A   1      37.848  31.584  29.001  1.00  0.00    -0.205 F 
ATOM     78  C   UNL A   1      36.230  30.970  32.227  1.00  0.00     0.022 A 
BRANCH  76  79
ATOM     79  S   UNL A   1      35.243  32.628  30.286  1.00  0.00     0.127 S 
ATOM     80  O   UNL A   1      34.745  31.907  29.119  1.00  0.00    -0.237 OA
ATOM     81  O   UNL A   1      34.298  32.735  31.397  1.00  0.00    -0.237 OA
ATOM     82  O   UNL A   1      35.978  33.857  30.007  1.00  0.00    -0.744 OA
ENDBRANCH  76  79
ENDBRANCH  48  72
BRANCH  60  83
ATOM     83  C   UNL A   1      44.391  34.023  29.534  1.00  0.00     0.023 A 
ATOM     84  C   UNL A   1      45.081  34.338  30.721  1.00  0.00     0.012 A 
ATOM     85  C   UNL A   1      44.152  35.033  28.581  1.00  0.00     0.148 A 
ATOM     86  C   UNL A   1      45.501  35.644  30.969  1.00  0.00     0.002 A 
ATOM     87  C   UNL A   1      44.616  36.322  28.814  1.00  0.00     0.091 A 
ATOM     88  F   UNL A   1      43.477  34.714  27.467  1.00  0.00    -0.205 F 
ATOM     89  C   UNL A   1      45.280  36.632  30.011  1.00  0.00     0.022 A 
BRANCH  87  90
ATOM     90  S   UNL A   1      44.464  37.633  27.596  1.00  0.00     0.127 S 
ATOM     91  O   UNL A   1      43.139  37.367  27.038  1.00  0.00    -0.237 OA
ATOM     92  O   UNL A   1      44.547  38.837  28.422  1.00  0.00    -0.237 OA
ATOM     93  O   UNL A   1      45.577  37.456  26.673  1.00  0.00    -0.744 OA
ENDBRANCH  87  90
ENDBRANCH  60  83
ENDBRANCH  34  35
ENDBRANCH  26  29
ENDBRANCH  24  25
ENDBRANCH   1  24
TORSDOF 16
ENDMDL
MODEL 3
REMARK VINA RESULT:     -11.6      6.242     10.651
REMARK SMILES Cc1nc(NCc2ccc(Cl)cc2Cl)sc1C(=O)NCCCNC(=O)c1ccc(-c2c3nc(c(-c4cccc(S(=O)(=O)[O-])c4F)c4ccc([nH]4)c(-c4cccc(S(=O)(=O)[O-])c4F)c4nc(c(-c5cccc(S(=O)(=O)[O-])c5F)c5ccc2[nH]5)C=C4)C=C3)cc1
REMARK SMILES IDX 21 1 20 2 19 3 17 4 18 5 16 7 1 8 2 9 3 10 4 11 15 12 5 13
REMARK SMILES IDX 6 15 7 16 8 17 13 18 9 19 12 20 14 21 10 22 11 23 22 24
REMARK SMILES IDX 23 25 24 26 25 28 26 29 27 30 88 31 28 32 87 33 29 34 30 35
REMARK SMILES IDX 31 36 81 37 32 38 86 39 80 40 82 41 33 42 85 43 79 44 78 45
REMARK SMILES IDX 34 47 66 48 46 49 65 50 47 51 50 52 64 53 83 54 48 55 49 56
REMARK SMILES IDX 63 58 84 59 51 60 35 61 36 62 44 63 37 64 39 65 45 66 38 67
REMARK SMILES IDX 40 68 41 69 42 70 43 71 67 72 68 73 76 74 69 75 71 76 77 77
REMARK SMILES IDX 70 78 72 79 73 80 74 81 75 82 52 83 53 84 61 85 54 86 56 87
REMARK SMILES IDX 62 88 55 89 57 90 58 91 59 92 60 93
REMARK H PARENT 19 6 5 14 23 27 82 46 50 57
REMARK Flexibility Score: inf
ROOT
ATOM      1  C   UNL A   1      34.734  34.451  27.636  1.00  0.00     0.042 C 
ENDROOT
BRANCH   1   2
ATOM      2  C   UNL A   1      34.768  35.487  28.757  1.00  0.00     0.118 C 
BRANCH   2   3
ATOM      3  N   UNL A   1      33.434  35.805  29.205  1.00  0.00    -0.351 N 
ATOM      4  C   UNL A   1      32.864  35.978  30.439  1.00  0.00     0.263 C 
ATOM      5  O   UNL A   1      31.665  36.282  30.365  1.00  0.00    -0.268 OA
ATOM      6  H   UNL A   1      32.796  35.922  28.464  1.00  0.00     0.163 HD
BRANCH   4   7
ATOM      7  C   UNL A   1      33.567  35.878  31.713  1.00  0.00     0.117 A 
ATOM      8  C   UNL A   1      34.010  38.197  32.892  1.00  0.00     0.068 C 
ATOM      9  C   UNL A   1      34.025  36.724  32.722  1.00  0.00     0.063 A 
ATOM     10  N   UNL A   1      34.649  36.083  33.782  1.00  0.00    -0.225 NA
ATOM     11  C   UNL A   1      34.738  34.798  33.594  1.00  0.00     0.183 A 
ATOM     12  S   UNL A   1      34.058  34.251  32.135  1.00  0.00    -0.092 S 
BRANCH  11  13
ATOM     13  N   UNL A   1      35.289  33.946  34.479  1.00  0.00    -0.357 N 
ATOM     14  H   UNL A   1      35.032  33.989  35.429  1.00  0.00     0.163 HD
BRANCH  13  15
ATOM     15  C   UNL A   1      36.253  32.975  34.039  1.00  0.00     0.152 C 
BRANCH  15  16
ATOM     16  C   UNL A   1      37.557  33.527  33.493  1.00  0.00    -0.010 A 
ATOM     17  C   UNL A   1      38.440  34.039  34.475  1.00  0.00     0.008 A 
ATOM     18  C   UNL A   1      38.014  33.509  32.162  1.00  0.00     0.047 A 
ATOM     19  C   UNL A   1      39.703  34.533  34.147  1.00  0.00     0.021 A 
ATOM     20  C   UNL A   1      39.282  34.013  31.835  1.00  0.00     0.041 A 
ATOM     21  Cl  UNL A   1      37.119  32.894  30.819  1.00  0.00    -0.084 Cl
ATOM     22  C   UNL A   1      40.116  34.521  32.823  1.00  0.00     0.042 A 
ATOM     23  Cl  UNL A   1      41.669  35.130  32.403  1.00  0.00    -0.084 Cl
ENDBRANCH  15  16
ENDBRANCH  13  15
ENDBRANCH  11  13
ENDBRANCH   4   7
ENDBRANCH   2   3
ENDBRANCH   1   2
BRANCH   1  24
ATOM     24  C   UNL A   1      35.387  33.127  28.005  1.00  0.00     0.118 C 
BRANCH  24  25
ATOM     25  N   UNL A   1      34.462  32.012  27.864  1.00  0.00    -0.352 N 
ATOM     26  C   UNL A   1      34.705  30.660  27.856  1.00  0.00     0.251 C 
ATOM     27  H   UNL A   1      33.518  32.266  27.757  1.00  0.00     0.163 HD
ATOM     28  O   UNL A   1      33.822  29.900  27.465  1.00  0.00    -0.269 OA
BRANCH  26  29
ATOM     29  C   UNL A   1      36.007  30.113  28.306  1.00  0.00     0.039 A 
ATOM     30  C   UNL A   1      37.100  30.171  27.435  1.00  0.00     0.014 A 
ATOM     31  C   UNL A   1      36.146  29.494  29.551  1.00  0.00     0.014 A 
ATOM     32  C   UNL A   1      38.337  29.651  27.829  1.00  0.00     0.010 A 
ATOM     33  C   UNL A   1      37.397  29.054  29.976  1.00  0.00     0.010 A 
ATOM     34  C   UNL A   1      38.502  29.112  29.115  1.00  0.00    -0.014 A 
BRANCH  34  35
ATOM     35  C   UNL A   1      39.815  28.592  29.578  1.00  0.00     0.031 A 
ATOM     36  C   UNL A   1      40.563  29.298  30.678  1.00  0.00     0.074 A 
ATOM     37  C   UNL A   1      40.376  27.543  28.944  1.00  0.00     0.049 A 
ATOM     38  N   UNL A   1      41.755  29.051  31.156  1.00  0.00    -0.248 NA
ATOM     39  C   UNL A   1      39.897  30.454  31.303  1.00  0.00     0.031 C 
ATOM     40  C   UNL A   1      39.786  26.825  27.814  1.00  0.00     0.029 A 
ATOM     41  N   UNL A   1      41.584  26.921  29.139  1.00  0.00    -0.354 N 
ATOM     42  C   UNL A   1      41.998  30.040  32.103  1.00  0.00     0.074 A 
ATOM     43  C   UNL A   1      40.844  30.910  32.110  1.00  0.00     0.031 C 
ATOM     44  C   UNL A   1      40.634  25.863  27.413  1.00  0.00     0.029 A 
ATOM     45  C   UNL A   1      41.838  25.915  28.236  1.00  0.00     0.049 A 
ATOM     46  H   UNL A   1      42.210  27.170  29.857  1.00  0.00     0.167 HD
ATOM     47  C   UNL A   1      43.071  30.192  32.915  1.00  0.00     0.034 A 
ATOM     48  C   UNL A   1      42.922  25.131  28.080  1.00  0.00     0.034 A 
ATOM     49  C   UNL A   1      44.194  29.294  32.940  1.00  0.00     0.049 A 
ATOM     50  C   UNL A   1      44.079  25.286  29.029  1.00  0.00     0.074 A 
ATOM     51  C   UNL A   1      45.287  29.306  33.788  1.00  0.00     0.029 A 
ATOM     52  N   UNL A   1      44.368  28.222  32.078  1.00  0.00    -0.354 N 
ATOM     53  N   UNL A   1      44.221  26.131  30.023  1.00  0.00    -0.248 NA
ATOM     54  C   UNL A   1      45.207  24.360  28.862  1.00  0.00     0.031 C 
ATOM     55  C   UNL A   1      46.132  28.252  33.426  1.00  0.00     0.029 A 
ATOM     56  C   UNL A   1      45.553  27.569  32.368  1.00  0.00     0.049 A 
ATOM     57  H   UNL A   1      43.741  27.963  31.365  1.00  0.00     0.167 HD
ATOM     58  C   UNL A   1      45.437  25.815  30.620  1.00  0.00     0.074 A 
ATOM     59  C   UNL A   1      45.980  24.688  29.889  1.00  0.00     0.031 C 
ATOM     60  C   UNL A   1      46.054  26.414  31.667  1.00  0.00     0.034 A 
BRANCH  47  61
ATOM     61  C   UNL A   1      43.057  31.342  33.889  1.00  0.00     0.023 A 
ATOM     62  C   UNL A   1      43.728  32.538  33.559  1.00  0.00     0.012 A 
ATOM     63  C   UNL A   1      42.337  31.265  35.098  1.00  0.00     0.148 A 
ATOM     64  C   UNL A   1      43.712  33.626  34.431  1.00  0.00     0.002 A 
ATOM     65  C   UNL A   1      42.289  32.371  35.941  1.00  0.00     0.091 A 
ATOM     66  F   UNL A   1      41.723  30.115  35.405  1.00  0.00    -0.205 F 
ATOM     67  C   UNL A   1      42.986  33.546  35.615  1.00  0.00     0.022 A 
BRANCH  65  68
ATOM     68  S   UNL A   1      41.318  32.397  37.453  1.00  0.00     0.127 S 
ATOM     69  O   UNL A   1      41.327  33.820  37.785  1.00  0.00    -0.237 OA
ATOM     70  O   UNL A   1      40.025  31.886  36.996  1.00  0.00    -0.237 OA
ATOM     71  O   UNL A   1      42.015  31.531  38.393  1.00  0.00    -0.744 OA
ENDBRANCH  65  68
ENDBRANCH  47  61
BRANCH  48  72
ATOM     72  C   UNL A   1      42.932  24.081  27.021  1.00  0.00     0.023 A 
ATOM     73  C   UNL A   1      43.642  24.310  25.827  1.00  0.00     0.012 A 
ATOM     74  C   UNL A   1      42.281  22.846  27.208  1.00  0.00     0.148 A 
ATOM     75  C   UNL A   1      43.677  23.342  24.823  1.00  0.00     0.002 A 
ATOM     76  C   UNL A   1      42.367  21.863  26.227  1.00  0.00     0.091 A 
ATOM     77  F   UNL A   1      41.602  22.650  28.346  1.00  0.00    -0.205 F 
ATOM     78  C   UNL A   1      43.050  22.115  25.028  1.00  0.00     0.022 A 
BRANCH  76  79
ATOM     79  S   UNL A   1      41.707  20.209  26.461  1.00  0.00     0.127 S 
ATOM     80  O   UNL A   1      42.262  19.500  25.313  1.00  0.00    -0.237 OA
ATOM     81  O   UNL A   1      42.280  19.834  27.755  1.00  0.00    -0.237 OA
ATOM     82  O   UNL A   1      40.258  20.364  26.473  1.00  0.00    -0.744 OA
ENDBRANCH  76  79
ENDBRANCH  48  72
BRANCH  60  83
ATOM     83  C   UNL A   1      47.375  25.847  32.118  1.00  0.00     0.023 A 
ATOM     84  C   UNL A   1      48.566  26.272  31.497  1.00  0.00     0.012 A 
ATOM     85  C   UNL A   1      47.439  24.960  33.210  1.00  0.00     0.148 A 
ATOM     86  C   UNL A   1      49.801  25.798  31.938  1.00  0.00     0.002 A 
ATOM     87  C   UNL A   1      48.677  24.529  33.674  1.00  0.00     0.091 A 
ATOM     88  F   UNL A   1      46.292  24.554  33.774  1.00  0.00    -0.205 F 
ATOM     89  C   UNL A   1      49.857  24.938  33.033  1.00  0.00     0.022 A 
BRANCH  87  90
ATOM     90  S   UNL A   1      48.850  23.500  35.136  1.00  0.00     0.127 S 
ATOM     91  O   UNL A   1      48.211  24.326  36.159  1.00  0.00    -0.237 OA
ATOM     92  O   UNL A   1      48.099  22.301  34.763  1.00  0.00    -0.237 OA
ATOM     93  O   UNL A   1      50.281  23.286  35.309  1.00  0.00    -0.744 OA
ENDBRANCH  87  90
ENDBRANCH  60  83
ENDBRANCH  34  35
ENDBRANCH  26  29
ENDBRANCH  24  25
ENDBRANCH   1  24
TORSDOF 16
ENDMDL
