MODEL 1
REMARK VINA RESULT:     -11.9      0.000      0.000
REMARK SMILES CCC[C@@H](C(=O)NCCCNC(=O)c1ccc(-c2c3nc(c(-c4cccc(S(=O)(=O)[O-])c4F)c4ccc([nH]4)c(-c4cccc(S(=O)(=O)[O-])c4F)c4nc(c(-c5cccc(S(=O)(=O)[O-])c5F)c5ccc2[nH]5)C=C4)C=C3)cc1)n1nc(/C=C/c2ccc(OC)cc2)ccc1=O
REMARK SMILES IDX 8 1 7 2 5 3 6 4 4 6 3 7 2 8 1 9 77 10 78 11 92 12 79 13
REMARK SMILES IDX 91 14 93 15 90 16 80 17 81 18 82 19 83 20 89 21 84 22 88 23
REMARK SMILES IDX 85 24 86 25 87 26 9 27 10 28 11 29 12 30 13 32 14 33 15 34
REMARK SMILES IDX 76 35 16 36 75 37 17 38 18 39 19 40 69 41 20 42 74 43 68 44
REMARK SMILES IDX 70 45 21 46 73 47 67 48 66 49 22 51 54 52 34 53 53 54 35 55
REMARK SMILES IDX 38 56 52 57 71 58 36 59 37 60 51 62 72 63 39 64 23 65 24 66
REMARK SMILES IDX 32 67 25 68 27 69 33 70 26 71 28 72 29 73 30 74 31 75 55 76
REMARK SMILES IDX 56 77 64 78 57 79 59 80 65 81 58 82 60 83 61 84 62 85 63 86
REMARK SMILES IDX 40 87 41 88 49 89 42 90 44 91 50 92 43 93 45 94 46 95 47 96
REMARK SMILES IDX 48 97
REMARK H PARENT 7 5 11 31 70 50 38 61
REMARK Flexibility Score: inf
ROOT
ATOM      1  C   UNL A   1      31.853  28.096  27.168  1.00  0.00     0.117 C 
ENDROOT
BRANCH   1   2
ATOM      2  N   UNL A   1      31.054  26.930  26.861  1.00  0.00    -0.354 N 
ATOM      3  C   UNL A   1      30.406  26.555  25.720  1.00  0.00     0.245 C 
ATOM      4  O   UNL A   1      29.750  25.510  25.820  1.00  0.00    -0.273 OA
ATOM      5  H   UNL A   1      30.961  26.296  27.607  1.00  0.00     0.163 HD
BRANCH   3   6
ATOM      6  C   UNL A   1      30.520  27.367  24.394  1.00  0.00     0.200 C 
BRANCH   6   7
ATOM      7  C   UNL A   1      29.263  27.367  23.492  1.00  0.00     0.037 C 
BRANCH   7   8
ATOM      8  C   UNL A   1      28.692  28.690  22.992  1.00  0.00    -0.001 C 
ATOM      9  C   UNL A   1      27.179  28.823  23.035  1.00  0.00     0.004 C 
ENDBRANCH   7   8
ENDBRANCH   6   7
BRANCH   6  10
ATOM     10  N   UNL A   1      31.646  26.724  23.662  1.00  0.00    -0.217 N 
ATOM     11  N   UNL A   1      31.817  25.371  23.881  1.00  0.00    -0.170 NA
ATOM     12  C   UNL A   1      32.531  27.494  22.926  1.00  0.00     0.267 A 
ATOM     13  C   UNL A   1      32.873  24.788  23.405  1.00  0.00     0.084 A 
ATOM     14  C   UNL A   1      33.707  26.778  22.379  1.00  0.00     0.075 A 
ATOM     15  O   UNL A   1      32.407  28.694  22.700  1.00  0.00    -0.268 OA
ATOM     16  C   UNL A   1      33.904  25.477  22.611  1.00  0.00     0.036 A 
BRANCH  13  17
ATOM     17  C   UNL A   1      33.000  23.324  23.657  1.00  0.00     0.031 C 
ATOM     18  C   UNL A   1      32.204  22.335  23.225  1.00  0.00     0.010 C 
BRANCH  18  19
ATOM     19  C   UNL A   1      32.412  20.940  23.638  1.00  0.00    -0.025 A 
ATOM     20  C   UNL A   1      32.232  19.903  22.719  1.00  0.00     0.012 A 
ATOM     21  C   UNL A   1      32.720  20.614  24.967  1.00  0.00     0.012 A 
ATOM     22  C   UNL A   1      32.377  18.571  23.120  1.00  0.00     0.047 A 
ATOM     23  C   UNL A   1      32.865  19.280  25.366  1.00  0.00     0.047 A 
ATOM     24  C   UNL A   1      32.697  18.252  24.442  1.00  0.00     0.118 A 
BRANCH  24  25
ATOM     25  O   UNL A   1      32.801  16.914  24.706  1.00  0.00    -0.497 OA
ATOM     26  C   UNL A   1      34.035  16.292  24.369  1.00  0.00     0.278 C 
ENDBRANCH  24  25
ENDBRANCH  18  19
ENDBRANCH  13  17
ENDBRANCH   6  10
ENDBRANCH   3   6
ENDBRANCH   1   2
BRANCH   1  27
ATOM     27  C   UNL A   1      33.326  27.842  26.859  1.00  0.00     0.042 C 
BRANCH  27  28
ATOM     28  C   UNL A   1      33.975  28.886  25.966  1.00  0.00     0.118 C 
BRANCH  28  29
ATOM     29  N   UNL A   1      33.863  30.231  26.504  1.00  0.00    -0.352 N 
ATOM     30  C   UNL A   1      34.602  30.862  27.476  1.00  0.00     0.251 C 
ATOM     31  H   UNL A   1      33.145  30.776  26.110  1.00  0.00     0.163 HD
ATOM     32  O   UNL A   1      34.213  31.949  27.898  1.00  0.00    -0.269 OA
BRANCH  30  33
ATOM     33  C   UNL A   1      35.835  30.252  28.034  1.00  0.00     0.039 A 
ATOM     34  C   UNL A   1      37.014  30.331  27.286  1.00  0.00     0.014 A 
ATOM     35  C   UNL A   1      35.844  29.567  29.252  1.00  0.00     0.014 A 
ATOM     36  C   UNL A   1      38.198  29.773  27.779  1.00  0.00     0.010 A 
ATOM     37  C   UNL A   1      37.044  29.102  29.788  1.00  0.00     0.010 A 
ATOM     38  C   UNL A   1      38.232  29.180  29.051  1.00  0.00    -0.014 A 
BRANCH  38  39
ATOM     39  C   UNL A   1      39.502  28.640  29.609  1.00  0.00     0.031 A 
ATOM     40  C   UNL A   1      40.129  29.255  30.834  1.00  0.00     0.074 A 
ATOM     41  C   UNL A   1      40.126  27.626  28.977  1.00  0.00     0.049 A 
ATOM     42  N   UNL A   1      41.223  28.906  31.464  1.00  0.00    -0.248 NA
ATOM     43  C   UNL A   1      39.461  30.432  31.414  1.00  0.00     0.031 C 
ATOM     44  C   UNL A   1      39.676  27.004  27.728  1.00  0.00     0.029 A 
ATOM     45  N   UNL A   1      41.278  26.946  29.287  1.00  0.00    -0.354 N 
ATOM     46  C   UNL A   1      41.390  29.834  32.485  1.00  0.00     0.074 A 
ATOM     47  C   UNL A   1      40.309  30.788  32.368  1.00  0.00     0.031 C 
ATOM     48  C   UNL A   1      40.531  26.026  27.391  1.00  0.00     0.029 A 
ATOM     49  C   UNL A   1      41.600  25.962  28.382  1.00  0.00     0.049 A 
ATOM     50  H   UNL A   1      41.822  27.144  30.083  1.00  0.00     0.167 HD
ATOM     51  C   UNL A   1      42.335  29.874  33.455  1.00  0.00     0.034 A 
ATOM     52  C   UNL A   1      42.636  25.101  28.353  1.00  0.00     0.034 A 
ATOM     53  C   UNL A   1      43.383  28.898  33.598  1.00  0.00     0.049 A 
ATOM     54  C   UNL A   1      43.632  25.120  29.481  1.00  0.00     0.074 A 
ATOM     55  C   UNL A   1      44.334  28.796  34.598  1.00  0.00     0.029 A 
ATOM     56  N   UNL A   1      43.622  27.858  32.714  1.00  0.00    -0.354 N 
ATOM     57  N   UNL A   1      43.672  25.902  30.533  1.00  0.00    -0.248 NA
ATOM     58  C   UNL A   1      44.698  24.110  29.441  1.00  0.00     0.031 C 
ATOM     59  C   UNL A   1      45.162  27.706  34.307  1.00  0.00     0.029 A 
ATOM     60  C   UNL A   1      44.707  27.111  33.140  1.00  0.00     0.049 A 
ATOM     61  H   UNL A   1      43.096  27.676  31.902  1.00  0.00     0.167 HD
ATOM     62  C   UNL A   1      44.744  25.457  31.297  1.00  0.00     0.074 A 
ATOM     63  C   UNL A   1      45.309  24.319  30.599  1.00  0.00     0.031 C 
ATOM     64  C   UNL A   1      45.229  25.953  32.462  1.00  0.00     0.034 A 
BRANCH  51  65
ATOM     65  C   UNL A   1      42.245  30.978  34.480  1.00  0.00     0.023 A 
ATOM     66  C   UNL A   1      41.502  30.773  35.660  1.00  0.00     0.012 A 
ATOM     67  C   UNL A   1      42.938  32.192  34.305  1.00  0.00     0.148 A 
ATOM     68  C   UNL A   1      41.418  31.768  36.633  1.00  0.00     0.002 A 
ATOM     69  C   UNL A   1      42.890  33.162  35.300  1.00  0.00     0.091 A 
ATOM     70  F   UNL A   1      43.624  32.380  33.169  1.00  0.00    -0.205 F 
ATOM     71  C   UNL A   1      42.120  32.958  36.458  1.00  0.00     0.022 A 
BRANCH  69  72
ATOM     72  S   UNL A   1      43.823  34.695  35.210  1.00  0.00     0.127 S 
ATOM     73  O   UNL A   1      43.461  35.337  36.472  1.00  0.00    -0.237 OA
ATOM     74  O   UNL A   1      45.202  34.212  35.145  1.00  0.00    -0.237 OA
ATOM     75  O   UNL A   1      43.362  35.375  34.007  1.00  0.00    -0.744 OA
ENDBRANCH  69  72
ENDBRANCH  51  65
BRANCH  52  76
ATOM     76  C   UNL A   1      42.733  24.091  27.261  1.00  0.00     0.023 A 
ATOM     77  C   UNL A   1      43.494  24.384  26.113  1.00  0.00     0.012 A 
ATOM     78  C   UNL A   1      42.104  22.836  27.365  1.00  0.00     0.148 A 
ATOM     79  C   UNL A   1      43.601  23.459  25.073  1.00  0.00     0.002 A 
ATOM     80  C   UNL A   1      42.261  21.897  26.352  1.00  0.00     0.091 A 
ATOM     81  F   UNL A   1      41.375  22.579  28.459  1.00  0.00    -0.205 F 
ATOM     82  C   UNL A   1      42.993  22.212  25.197  1.00  0.00     0.022 A 
BRANCH  80  83
ATOM     83  S   UNL A   1      41.631  20.220  26.488  1.00  0.00     0.127 S 
ATOM     84  O   UNL A   1      40.188  20.440  26.485  1.00  0.00    -0.237 OA
ATOM     85  O   UNL A   1      42.164  19.596  25.277  1.00  0.00    -0.237 OA
ATOM     86  O   UNL A   1      42.190  19.692  27.726  1.00  0.00    -0.744 OA
ENDBRANCH  80  83
ENDBRANCH  52  76
BRANCH  64  87
ATOM     87  C   UNL A   1      46.410  25.249  33.079  1.00  0.00     0.023 A 
ATOM     88  C   UNL A   1      47.716  25.719  32.834  1.00  0.00     0.012 A 
ATOM     89  C   UNL A   1      46.222  24.151  33.942  1.00  0.00     0.148 A 
ATOM     90  C   UNL A   1      48.818  25.080  33.401  1.00  0.00     0.002 A 
ATOM     91  C   UNL A   1      47.322  23.552  34.546  1.00  0.00     0.091 A 
ATOM     92  F   UNL A   1      44.975  23.704  34.150  1.00  0.00    -0.205 F 
ATOM     93  C   UNL A   1      48.620  24.006  34.264  1.00  0.00     0.022 A 
BRANCH  91  94
ATOM     94  S   UNL A   1      47.151  22.225  35.745  1.00  0.00     0.127 S 
ATOM     95  O   UNL A   1      46.605  21.148  34.922  1.00  0.00    -0.237 OA
ATOM     96  O   UNL A   1      48.533  22.019  36.181  1.00  0.00    -0.237 OA
ATOM     97  O   UNL A   1      46.265  22.738  36.780  1.00  0.00    -0.744 OA
ENDBRANCH  91  94
ENDBRANCH  64  87
ENDBRANCH  38  39
ENDBRANCH  30  33
ENDBRANCH  28  29
ENDBRANCH  27  28
ENDBRANCH   1  27
TORSDOF 19
ENDMDL
MODEL 2
REMARK VINA RESULT:     -11.7      1.981      2.362
REMARK SMILES CCC[C@@H](C(=O)NCCCNC(=O)c1ccc(-c2c3nc(c(-c4cccc(S(=O)(=O)[O-])c4F)c4ccc([nH]4)c(-c4cccc(S(=O)(=O)[O-])c4F)c4nc(c(-c5cccc(S(=O)(=O)[O-])c5F)c5ccc2[nH]5)C=C4)C=C3)cc1)n1nc(/C=C/c2ccc(OC)cc2)ccc1=O
REMARK SMILES IDX 8 1 7 2 5 3 6 4 4 6 3 7 2 8 1 9 77 10 78 11 92 12 79 13
REMARK SMILES IDX 91 14 93 15 90 16 80 17 81 18 82 19 83 20 89 21 84 22 88 23
REMARK SMILES IDX 85 24 86 25 87 26 9 27 10 28 11 29 12 30 13 32 14 33 15 34
REMARK SMILES IDX 76 35 16 36 75 37 17 38 18 39 19 40 69 41 20 42 74 43 68 44
REMARK SMILES IDX 70 45 21 46 73 47 67 48 66 49 22 51 54 52 34 53 53 54 35 55
REMARK SMILES IDX 38 56 52 57 71 58 36 59 37 60 51 62 72 63 39 64 23 65 24 66
REMARK SMILES IDX 32 67 25 68 27 69 33 70 26 71 28 72 29 73 30 74 31 75 55 76
REMARK SMILES IDX 56 77 64 78 57 79 59 80 65 81 58 82 60 83 61 84 62 85 63 86
REMARK SMILES IDX 40 87 41 88 49 89 42 90 44 91 50 92 43 93 45 94 46 95 47 96
REMARK SMILES IDX 48 97
REMARK H PARENT 7 5 11 31 70 50 38 61
REMARK Flexibility Score: inf
ROOT
ATOM      1  C   UNL A   1      31.996  28.018  27.010  1.00  0.00     0.117 C 
ENDROOT
BRANCH   1   2
ATOM      2  N   UNL A   1      31.114  26.874  26.919  1.00  0.00    -0.354 N 
ATOM      3  C   UNL A   1      30.350  26.403  25.892  1.00  0.00     0.245 C 
ATOM      4  O   UNL A   1      29.653  25.420  26.177  1.00  0.00    -0.273 OA
ATOM      5  H   UNL A   1      31.054  26.343  27.746  1.00  0.00     0.163 HD
BRANCH   3   6
ATOM      6  C   UNL A   1      30.388  27.037  24.468  1.00  0.00     0.200 C 
BRANCH   6   7
ATOM      7  C   UNL A   1      29.077  26.947  23.652  1.00  0.00     0.037 C 
BRANCH   7   8
ATOM      8  C   UNL A   1      28.492  28.206  23.020  1.00  0.00    -0.001 C 
ATOM      9  C   UNL A   1      27.070  28.556  23.421  1.00  0.00     0.004 C 
ENDBRANCH   7   8
ENDBRANCH   6   7
BRANCH   6  10
ATOM     10  N   UNL A   1      31.458  26.285  23.756  1.00  0.00    -0.217 N 
ATOM     11  N   UNL A   1      31.611  24.960  24.117  1.00  0.00    -0.170 NA
ATOM     12  C   UNL A   1      32.320  26.942  22.895  1.00  0.00     0.267 A 
ATOM     13  C   UNL A   1      32.625  24.298  23.657  1.00  0.00     0.084 A 
ATOM     14  C   UNL A   1      33.448  26.137  22.372  1.00  0.00     0.075 A 
ATOM     15  O   UNL A   1      32.211  28.114  22.541  1.00  0.00    -0.268 OA
ATOM     16  C   UNL A   1      33.628  24.865  22.738  1.00  0.00     0.036 A 
BRANCH  13  17
ATOM     17  C   UNL A   1      32.732  22.868  24.065  1.00  0.00     0.031 C 
ATOM     18  C   UNL A   1      32.441  21.775  23.345  1.00  0.00     0.010 C 
BRANCH  18  19
ATOM     19  C   UNL A   1      32.513  20.427  23.925  1.00  0.00    -0.025 A 
ATOM     20  C   UNL A   1      32.759  20.264  25.291  1.00  0.00     0.012 A 
ATOM     21  C   UNL A   1      32.413  19.284  23.119  1.00  0.00     0.012 A 
ATOM     22  C   UNL A   1      32.883  18.982  25.838  1.00  0.00     0.047 A 
ATOM     23  C   UNL A   1      32.536  18.002  23.669  1.00  0.00     0.047 A 
ATOM     24  C   UNL A   1      32.768  17.846  25.034  1.00  0.00     0.118 A 
BRANCH  24  25
ATOM     25  O   UNL A   1      32.916  16.655  25.689  1.00  0.00    -0.497 OA
ATOM     26  C   UNL A   1      33.882  15.753  25.161  1.00  0.00     0.278 C 
ENDBRANCH  24  25
ENDBRANCH  18  19
ENDBRANCH  13  17
ENDBRANCH   6  10
ENDBRANCH   3   6
ENDBRANCH   1   2
BRANCH   1  27
ATOM     27  C   UNL A   1      33.308  27.750  26.278  1.00  0.00     0.042 C 
BRANCH  27  28
ATOM     28  C   UNL A   1      33.902  28.963  25.580  1.00  0.00     0.118 C 
BRANCH  28  29
ATOM     29  N   UNL A   1      33.411  30.217  26.123  1.00  0.00    -0.352 N 
ATOM     30  C   UNL A   1      33.867  30.966  27.182  1.00  0.00     0.251 C 
ATOM     31  H   UNL A   1      32.627  30.590  25.659  1.00  0.00     0.163 HD
ATOM     32  O   UNL A   1      33.183  31.909  27.574  1.00  0.00    -0.269 OA
BRANCH  30  33
ATOM     33  C   UNL A   1      35.144  30.645  27.867  1.00  0.00     0.039 A 
ATOM     34  C   UNL A   1      35.187  29.529  28.709  1.00  0.00     0.014 A 
ATOM     35  C   UNL A   1      36.284  31.443  27.731  1.00  0.00     0.014 A 
ATOM     36  C   UNL A   1      36.373  29.190  29.367  1.00  0.00     0.010 A 
ATOM     37  C   UNL A   1      37.491  31.047  28.307  1.00  0.00     0.010 A 
ATOM     38  C   UNL A   1      37.547  29.928  29.148  1.00  0.00    -0.014 A 
BRANCH  38  39
ATOM     39  C   UNL A   1      38.829  29.537  29.796  1.00  0.00     0.031 A 
ATOM     40  C   UNL A   1      39.244  30.144  31.112  1.00  0.00     0.074 A 
ATOM     41  C   UNL A   1      39.652  28.673  29.170  1.00  0.00     0.049 A 
ATOM     42  N   UNL A   1      40.316  29.911  31.826  1.00  0.00    -0.248 NA
ATOM     43  C   UNL A   1      38.357  31.166  31.692  1.00  0.00     0.031 C 
ATOM     44  C   UNL A   1      39.416  28.088  27.847  1.00  0.00     0.029 A 
ATOM     45  N   UNL A   1      40.861  28.146  29.551  1.00  0.00    -0.354 N 
ATOM     46  C   UNL A   1      40.250  30.775  32.912  1.00  0.00     0.074 A 
ATOM     47  C   UNL A   1      39.052  31.568  32.745  1.00  0.00     0.031 C 
ATOM     48  C   UNL A   1      40.434  27.270  27.539  1.00  0.00     0.029 A 
ATOM     49  C   UNL A   1      41.408  27.288  28.626  1.00  0.00     0.049 A 
ATOM     50  H   UNL A   1      41.296  28.361  30.408  1.00  0.00     0.167 HD
ATOM     51  C   UNL A   1      41.087  30.879  33.972  1.00  0.00     0.034 A 
ATOM     52  C   UNL A   1      42.560  26.590  28.649  1.00  0.00     0.034 A 
ATOM     53  C   UNL A   1      42.253  30.056  34.161  1.00  0.00     0.049 A 
ATOM     54  C   UNL A   1      43.436  26.669  29.869  1.00  0.00     0.074 A 
ATOM     55  C   UNL A   1      43.115  30.019  35.242  1.00  0.00     0.029 A 
ATOM     56  N   UNL A   1      42.724  29.130  33.243  1.00  0.00    -0.354 N 
ATOM     57  N   UNL A   1      43.264  27.368  30.965  1.00  0.00    -0.248 NA
ATOM     58  C   UNL A   1      44.642  25.829  29.875  1.00  0.00     0.031 C 
ATOM     59  C   UNL A   1      44.120  29.084  34.970  1.00  0.00     0.029 A 
ATOM     60  C   UNL A   1      43.867  28.518  33.730  1.00  0.00     0.049 A 
ATOM     61  H   UNL A   1      42.307  28.935  32.374  1.00  0.00     0.167 HD
ATOM     62  C   UNL A   1      44.318  27.028  31.804  1.00  0.00     0.074 A 
ATOM     63  C   UNL A   1      45.109  26.038  31.099  1.00  0.00     0.031 C 
ATOM     64  C   UNL A   1      44.617  27.501  33.039  1.00  0.00     0.034 A 
BRANCH  51  65
ATOM     65  C   UNL A   1      40.740  31.880  35.047  1.00  0.00     0.023 A 
ATOM     66  C   UNL A   1      41.371  33.140  35.053  1.00  0.00     0.012 A 
ATOM     67  C   UNL A   1      39.753  31.599  36.013  1.00  0.00     0.148 A 
ATOM     68  C   UNL A   1      41.055  34.092  36.022  1.00  0.00     0.002 A 
ATOM     69  C   UNL A   1      39.408  32.569  36.947  1.00  0.00     0.091 A 
ATOM     70  F   UNL A   1      39.177  30.389  36.005  1.00  0.00    -0.205 F 
ATOM     71  C   UNL A   1      40.067  33.811  36.962  1.00  0.00     0.022 A 
BRANCH  69  72
ATOM     72  S   UNL A   1      38.092  32.337  38.148  1.00  0.00     0.127 S 
ATOM     73  O   UNL A   1      38.843  32.275  39.400  1.00  0.00    -0.237 OA
ATOM     74  O   UNL A   1      37.298  33.553  37.973  1.00  0.00    -0.237 OA
ATOM     75  O   UNL A   1      37.412  31.108  37.765  1.00  0.00    -0.744 OA
ENDBRANCH  69  72
ENDBRANCH  51  65
BRANCH  52  76
ATOM     76  C   UNL A   1      42.906  25.689  27.513  1.00  0.00     0.023 A 
ATOM     77  C   UNL A   1      43.843  26.114  26.552  1.00  0.00     0.012 A 
ATOM     78  C   UNL A   1      42.338  24.406  27.396  1.00  0.00     0.148 A 
ATOM     79  C   UNL A   1      44.184  25.293  25.476  1.00  0.00     0.002 A 
ATOM     80  C   UNL A   1      42.725  23.570  26.355  1.00  0.00     0.091 A 
ATOM     81  F   UNL A   1      41.439  24.023  28.314  1.00  0.00    -0.205 F 
ATOM     82  C   UNL A   1      43.633  24.017  25.383  1.00  0.00     0.022 A 
BRANCH  80  83
ATOM     83  S   UNL A   1      42.173  21.865  26.234  1.00  0.00     0.127 S 
ATOM     84  O   UNL A   1      42.993  21.360  25.137  1.00  0.00    -0.237 OA
ATOM     85  O   UNL A   1      42.518  21.339  27.555  1.00  0.00    -0.237 OA
ATOM     86  O   UNL A   1      40.740  21.935  25.975  1.00  0.00    -0.744 OA
ENDBRANCH  80  83
ENDBRANCH  52  76
BRANCH  64  87
ATOM     87  C   UNL A   1      45.830  26.931  33.727  1.00  0.00     0.023 A 
ATOM     88  C   UNL A   1      47.080  27.565  33.588  1.00  0.00     0.012 A 
ATOM     89  C   UNL A   1      45.721  25.793  34.553  1.00  0.00     0.148 A 
ATOM     90  C   UNL A   1      48.211  27.052  34.223  1.00  0.00     0.002 A 
ATOM     91  C   UNL A   1      46.841  25.318  35.223  1.00  0.00     0.091 A 
ATOM     92  F   UNL A   1      44.527  25.190  34.659  1.00  0.00    -0.205 F 
ATOM     93  C   UNL A   1      48.089  25.937  35.047  1.00  0.00     0.022 A 
BRANCH  91  94
ATOM     94  S   UNL A   1      46.754  23.947  36.380  1.00  0.00     0.127 S 
ATOM     95  O   UNL A   1      46.482  22.821  35.488  1.00  0.00    -0.237 OA
ATOM     96  O   UNL A   1      48.094  23.948  36.968  1.00  0.00    -0.237 OA
ATOM     97  O   UNL A   1      45.688  24.282  37.314  1.00  0.00    -0.744 OA
ENDBRANCH  91  94
ENDBRANCH  64  87
ENDBRANCH  38  39
ENDBRANCH  30  33
ENDBRANCH  28  29
ENDBRANCH  27  28
ENDBRANCH   1  27
TORSDOF 19
ENDMDL
MODEL 3
REMARK VINA RESULT:     -11.4      2.099      3.271
REMARK SMILES CCC[C@@H](C(=O)NCCCNC(=O)c1ccc(-c2c3nc(c(-c4cccc(S(=O)(=O)[O-])c4F)c4ccc([nH]4)c(-c4cccc(S(=O)(=O)[O-])c4F)c4nc(c(-c5cccc(S(=O)(=O)[O-])c5F)c5ccc2[nH]5)C=C4)C=C3)cc1)n1nc(/C=C/c2ccc(OC)cc2)ccc1=O
REMARK SMILES IDX 8 1 7 2 5 3 6 4 4 6 3 7 2 8 1 9 77 10 78 11 92 12 79 13
REMARK SMILES IDX 91 14 93 15 90 16 80 17 81 18 82 19 83 20 89 21 84 22 88 23
REMARK SMILES IDX 85 24 86 25 87 26 9 27 10 28 11 29 12 30 13 32 14 33 15 34
REMARK SMILES IDX 76 35 16 36 75 37 17 38 18 39 19 40 69 41 20 42 74 43 68 44
REMARK SMILES IDX 70 45 21 46 73 47 67 48 66 49 22 51 54 52 34 53 53 54 35 55
REMARK SMILES IDX 38 56 52 57 71 58 36 59 37 60 51 62 72 63 39 64 23 65 24 66
REMARK SMILES IDX 32 67 25 68 27 69 33 70 26 71 28 72 29 73 30 74 31 75 55 76
REMARK SMILES IDX 56 77 64 78 57 79 59 80 65 81 58 82 60 83 61 84 62 85 63 86
REMARK SMILES IDX 40 87 41 88 49 89 42 90 44 91 50 92 43 93 45 94 46 95 47 96
REMARK SMILES IDX 48 97
REMARK H PARENT 7 5 11 31 70 50 38 61
REMARK Flexibility Score: inf
ROOT
ATOM      1  C   UNL A   1      31.374  28.928  23.545  1.00  0.00     0.117 C 
ENDROOT
BRANCH   1   2
ATOM      2  N   UNL A   1      31.199  27.675  22.844  1.00  0.00    -0.354 N 
ATOM      3  C   UNL A   1      31.745  26.442  23.048  1.00  0.00     0.245 C 
ATOM      4  O   UNL A   1      31.423  25.589  22.210  1.00  0.00    -0.273 OA
ATOM      5  H   UNL A   1      30.574  27.720  22.084  1.00  0.00     0.163 HD
BRANCH   3   6
ATOM      6  C   UNL A   1      32.672  26.135  24.264  1.00  0.00     0.200 C 
BRANCH   6   7
ATOM      7  C   UNL A   1      34.030  25.474  23.929  1.00  0.00     0.037 C 
BRANCH   7   8
ATOM      8  C   UNL A   1      34.865  24.855  25.046  1.00  0.00    -0.001 C 
ATOM      9  C   UNL A   1      35.745  23.683  24.650  1.00  0.00     0.004 C 
ENDBRANCH   7   8
ENDBRANCH   6   7
BRANCH   6  10
ATOM     10  N   UNL A   1      31.874  25.206  25.112  1.00  0.00    -0.217 N 
ATOM     11  N   UNL A   1      32.186  23.864  25.001  1.00  0.00    -0.170 NA
ATOM     12  C   UNL A   1      30.801  25.679  25.848  1.00  0.00     0.267 A 
ATOM     13  C   UNL A   1      31.424  22.993  25.584  1.00  0.00     0.084 A 
ATOM     14  C   UNL A   1      29.976  24.648  26.520  1.00  0.00     0.075 A 
ATOM     15  O   UNL A   1      30.499  26.862  25.980  1.00  0.00    -0.268 OA
ATOM     16  C   UNL A   1      30.244  23.345  26.394  1.00  0.00     0.036 A 
BRANCH  13  17
ATOM     17  C   UNL A   1      31.815  21.562  25.446  1.00  0.00     0.031 C 
ATOM     18  C   UNL A   1      32.281  20.930  24.359  1.00  0.00     0.010 C 
BRANCH  18  19
ATOM     19  C   UNL A   1      32.538  19.483  24.357  1.00  0.00    -0.025 A 
ATOM     20  C   UNL A   1      32.846  18.825  25.551  1.00  0.00     0.012 A 
ATOM     21  C   UNL A   1      32.553  18.749  23.163  1.00  0.00     0.012 A 
ATOM     22  C   UNL A   1      33.144  17.458  25.548  1.00  0.00     0.047 A 
ATOM     23  C   UNL A   1      32.851  17.381  23.161  1.00  0.00     0.047 A 
ATOM     24  C   UNL A   1      33.145  16.729  24.357  1.00  0.00     0.118 A 
BRANCH  24  25
ATOM     25  O   UNL A   1      33.460  15.404  24.488  1.00  0.00    -0.497 OA
ATOM     26  C   UNL A   1      32.722  14.667  25.455  1.00  0.00     0.278 C 
ENDBRANCH  24  25
ENDBRANCH  18  19
ENDBRANCH  13  17
ENDBRANCH   6  10
ENDBRANCH   3   6
ENDBRANCH   1   2
BRANCH   1  27
ATOM     27  C   UNL A   1      32.854  29.233  23.750  1.00  0.00     0.042 C 
BRANCH  27  28
ATOM     28  C   UNL A   1      33.275  29.383  25.203  1.00  0.00     0.118 C 
BRANCH  28  29
ATOM     29  N   UNL A   1      32.828  30.634  25.789  1.00  0.00    -0.352 N 
ATOM     30  C   UNL A   1      33.286  31.311  26.894  1.00  0.00     0.251 C 
ATOM     31  H   UNL A   1      32.077  31.065  25.321  1.00  0.00     0.163 HD
ATOM     32  O   UNL A   1      32.636  32.268  27.309  1.00  0.00    -0.269 OA
BRANCH  30  33
ATOM     33  C   UNL A   1      34.527  30.900  27.597  1.00  0.00     0.039 A 
ATOM     34  C   UNL A   1      35.564  31.830  27.719  1.00  0.00     0.014 A 
ATOM     35  C   UNL A   1      34.706  29.607  28.100  1.00  0.00     0.014 A 
ATOM     36  C   UNL A   1      36.746  31.482  28.380  1.00  0.00     0.010 A 
ATOM     37  C   UNL A   1      35.842  29.295  28.845  1.00  0.00     0.010 A 
ATOM     38  C   UNL A   1      36.885  30.220  28.979  1.00  0.00    -0.014 A 
BRANCH  38  39
ATOM     39  C   UNL A   1      38.115  29.864  29.737  1.00  0.00     0.031 A 
ATOM     40  C   UNL A   1      38.346  30.401  31.127  1.00  0.00     0.074 A 
ATOM     41  C   UNL A   1      39.057  29.099  29.151  1.00  0.00     0.049 A 
ATOM     42  N   UNL A   1      39.351  30.185  31.938  1.00  0.00    -0.248 NA
ATOM     43  C   UNL A   1      37.334  31.323  31.670  1.00  0.00     0.031 C 
ATOM     44  C   UNL A   1      39.002  28.595  27.776  1.00  0.00     0.029 A 
ATOM     45  N   UNL A   1      40.253  28.623  29.629  1.00  0.00    -0.354 N 
ATOM     46  C   UNL A   1      39.111  30.965  33.063  1.00  0.00     0.074 A 
ATOM     47  C   UNL A   1      37.885  31.692  32.816  1.00  0.00     0.031 C 
ATOM     48  C   UNL A   1      40.102  27.866  27.530  1.00  0.00     0.029 A 
ATOM     49  C   UNL A   1      40.952  27.868  28.716  1.00  0.00     0.049 A 
ATOM     50  H   UNL A   1      40.579  28.804  30.540  1.00  0.00     0.167 HD
ATOM     51  C   UNL A   1      39.823  31.046  34.213  1.00  0.00     0.034 A 
ATOM     52  C   UNL A   1      42.141  27.243  28.821  1.00  0.00     0.034 A 
ATOM     53  C   UNL A   1      41.017  30.286  34.475  1.00  0.00     0.049 A 
ATOM     54  C   UNL A   1      42.877  27.290  30.132  1.00  0.00     0.074 A 
ATOM     55  C   UNL A   1      41.761  30.226  35.640  1.00  0.00     0.029 A 
ATOM     56  N   UNL A   1      41.645  29.457  33.558  1.00  0.00    -0.354 N 
ATOM     57  N   UNL A   1      42.543  27.898  31.246  1.00  0.00    -0.248 NA
ATOM     58  C   UNL A   1      44.131  26.528  30.217  1.00  0.00     0.031 C 
ATOM     59  C   UNL A   1      42.852  29.377  35.420  1.00  0.00     0.029 A 
ATOM     60  C   UNL A   1      42.769  28.885  34.127  1.00  0.00     0.049 A 
ATOM     61  H   UNL A   1      41.336  29.299  32.637  1.00  0.00     0.167 HD
ATOM     62  C   UNL A   1      43.523  27.565  32.172  1.00  0.00     0.074 A 
ATOM     63  C   UNL A   1      44.450  26.679  31.496  1.00  0.00     0.031 C 
ATOM     64  C   UNL A   1      43.657  27.968  33.459  1.00  0.00     0.034 A 
BRANCH  51  65
ATOM     65  C   UNL A   1      39.296  31.945  35.304  1.00  0.00     0.023 A 
ATOM     66  C   UNL A   1      38.322  31.456  36.198  1.00  0.00     0.012 A 
ATOM     67  C   UNL A   1      39.803  33.247  35.483  1.00  0.00     0.148 A 
ATOM     68  C   UNL A   1      37.832  32.258  37.228  1.00  0.00     0.002 A 
ATOM     69  C   UNL A   1      39.346  34.024  36.542  1.00  0.00     0.091 A 
ATOM     70  F   UNL A   1      40.716  33.704  34.614  1.00  0.00    -0.205 F 
ATOM     71  C   UNL A   1      38.351  33.537  37.406  1.00  0.00     0.022 A 
BRANCH  69  72
ATOM     72  S   UNL A   1      40.008  35.654  36.908  1.00  0.00     0.127 S 
ATOM     73  O   UNL A   1      39.588  36.414  35.732  1.00  0.00    -0.237 OA
ATOM     74  O   UNL A   1      39.304  36.002  38.142  1.00  0.00    -0.237 OA
ATOM     75  O   UNL A   1      41.446  35.478  37.058  1.00  0.00    -0.744 OA
ENDBRANCH  69  72
ENDBRANCH  51  65
BRANCH  52  76
ATOM     76  C   UNL A   1      42.666  26.447  27.676  1.00  0.00     0.023 A 
ATOM     77  C   UNL A   1      43.590  27.035  26.789  1.00  0.00     0.012 A 
ATOM     78  C   UNL A   1      42.282  25.107  27.476  1.00  0.00     0.148 A 
ATOM     79  C   UNL A   1      44.096  26.315  25.705  1.00  0.00     0.002 A 
ATOM     80  C   UNL A   1      42.834  24.377  26.429  1.00  0.00     0.091 A 
ATOM     81  F   UNL A   1      41.394  24.568  28.322  1.00  0.00    -0.205 F 
ATOM     82  C   UNL A   1      43.726  24.984  25.532  1.00  0.00     0.022 A 
BRANCH  80  83
ATOM     83  S   UNL A   1      42.522  22.622  26.211  1.00  0.00     0.127 S 
ATOM     84  O   UNL A   1      42.827  22.436  24.796  1.00  0.00    -0.237 OA
ATOM     85  O   UNL A   1      43.487  22.025  27.135  1.00  0.00    -0.237 OA
ATOM     86  O   UNL A   1      41.129  22.422  26.592  1.00  0.00    -0.744 OA
ENDBRANCH  80  83
ENDBRANCH  52  76
BRANCH  64  87
ATOM     87  C   UNL A   1      44.827  27.427  34.239  1.00  0.00     0.023 A 
ATOM     88  C   UNL A   1      46.039  28.145  34.276  1.00  0.00     0.012 A 
ATOM     89  C   UNL A   1      44.711  26.231  34.975  1.00  0.00     0.148 A 
ATOM     90  C   UNL A   1      47.130  27.659  34.996  1.00  0.00     0.002 A 
ATOM     91  C   UNL A   1      45.784  25.780  35.733  1.00  0.00     0.091 A 
ATOM     92  F   UNL A   1      43.557  25.550  34.914  1.00  0.00    -0.205 F 
ATOM     93  C   UNL A   1      46.999  26.485  35.733  1.00  0.00     0.022 A 
BRANCH  91  94
ATOM     94  S   UNL A   1      45.671  24.330  36.787  1.00  0.00     0.127 S 
ATOM     95  O   UNL A   1      44.761  24.791  37.833  1.00  0.00    -0.237 OA
ATOM     96  O   UNL A   1      45.102  23.330  35.882  1.00  0.00    -0.237 OA
ATOM     97  O   UNL A   1      47.033  24.045  37.217  1.00  0.00    -0.744 OA
ENDBRANCH  91  94
ENDBRANCH  64  87
ENDBRANCH  38  39
ENDBRANCH  30  33
ENDBRANCH  28  29
ENDBRANCH  27  28
ENDBRANCH   1  27
TORSDOF 19
ENDMDL
