MODEL 1
REMARK VINA RESULT:     -12.4      0.000      0.000
REMARK SMILES O=C(Cc1ccccc1Cl)Nc1ccc(C(=O)NCCCNC(=O)c2ccc(-c3c4nc(c(-c5cccc(S(=O)(=O)[O-])c5F)c5ccc([nH]5)c(-c5cccc(S(=O)(=O)[O-])c5F)c5nc(c(-c6cccc(S(=O)(=O)[O-])c6F)c6ccc3[nH]6)C=C5)C=C4)cc2)cc1
REMARK SMILES IDX 20 1 19 2 18 3 16 4 17 5 15 7 12 8 13 9 89 10 14 11 88 12
REMARK SMILES IDX 11 13 1 14 2 15 3 17 4 18 5 19 9 20 6 21 8 22 10 23 7 24
REMARK SMILES IDX 21 25 22 26 23 27 24 29 25 30 26 31 87 32 27 33 86 34 28 35
REMARK SMILES IDX 29 36 30 37 80 38 31 39 85 40 79 41 81 42 32 43 84 44 78 45
REMARK SMILES IDX 77 46 33 48 65 49 45 50 64 51 46 52 49 53 63 54 82 55 47 56
REMARK SMILES IDX 48 57 62 59 83 60 50 61 34 62 35 63 43 64 36 65 38 66 44 67
REMARK SMILES IDX 37 68 39 69 40 70 41 71 42 72 66 73 67 74 75 75 68 76 70 77
REMARK SMILES IDX 76 78 69 79 71 80 72 81 73 82 74 83 51 84 52 85 60 86 53 87
REMARK SMILES IDX 55 88 61 89 54 90 56 91 57 92 58 93 59 94
REMARK H PARENT 18 6 11 16 22 28 81 47 49 58
REMARK Flexibility Score: inf
ROOT
ATOM      1  C   UNL A   1      32.408  29.521  24.795  1.00  0.00     0.042 C 
ENDROOT
BRANCH   1   2
ATOM      2  C   UNL A   1      30.965  30.018  24.864  1.00  0.00     0.118 C 
BRANCH   2   3
ATOM      3  N   UNL A   1      30.375  30.075  23.539  1.00  0.00    -0.352 N 
ATOM      4  C   UNL A   1      30.084  29.101  22.622  1.00  0.00     0.251 C 
ATOM      5  O   UNL A   1      29.546  29.451  21.571  1.00  0.00    -0.269 OA
ATOM      6  H   UNL A   1      30.143  30.985  23.245  1.00  0.00     0.163 HD
BRANCH   4   7
ATOM      7  C   UNL A   1      30.312  27.649  22.871  1.00  0.00     0.039 A 
ATOM      8  C   UNL A   1      30.646  24.941  23.573  1.00  0.00     0.041 A 
ATOM      9  C   UNL A   1      29.537  25.657  24.030  1.00  0.00     0.027 A 
ATOM     10  C   UNL A   1      31.548  25.558  22.711  1.00  0.00     0.027 A 
ATOM     11  C   UNL A   1      29.385  27.005  23.702  1.00  0.00     0.016 A 
ATOM     12  C   UNL A   1      31.353  26.892  22.329  1.00  0.00     0.016 A 
BRANCH   8  13
ATOM     13  N   UNL A   1      30.748  23.598  23.959  1.00  0.00    -0.326 N 
ATOM     14  O   UNL A   1      31.308  23.767  26.200  1.00  0.00    -0.274 OA
ATOM     15  C   UNL A   1      31.159  23.100  25.178  1.00  0.00     0.228 C 
ATOM     16  H   UNL A   1      30.498  22.931  23.280  1.00  0.00     0.169 HD
BRANCH  15  17
ATOM     17  C   UNL A   1      31.493  21.613  25.161  1.00  0.00     0.137 C 
BRANCH  17  18
ATOM     18  C   UNL A   1      32.965  21.258  25.061  1.00  0.00    -0.020 A 
ATOM     19  C   UNL A   1      33.915  22.295  25.090  1.00  0.00     0.006 A 
ATOM     20  C   UNL A   1      33.436  19.940  24.912  1.00  0.00     0.044 A 
ATOM     21  C   UNL A   1      35.282  22.024  24.987  1.00  0.00     0.000 A 
ATOM     22  C   UNL A   1      34.806  19.668  24.848  1.00  0.00     0.021 A 
ATOM     23  Cl  UNL A   1      32.369  18.587  24.784  1.00  0.00    -0.084 Cl
ATOM     24  C   UNL A   1      35.729  20.710  24.881  1.00  0.00     0.002 A 
ENDBRANCH  17  18
ENDBRANCH  15  17
ENDBRANCH   8  13
ENDBRANCH   4   7
ENDBRANCH   2   3
ENDBRANCH   1   2
BRANCH   1  25
ATOM     25  C   UNL A   1      33.197  29.805  26.069  1.00  0.00     0.118 C 
BRANCH  25  26
ATOM     26  N   UNL A   1      33.020  31.181  26.509  1.00  0.00    -0.352 N 
ATOM     27  C   UNL A   1      33.691  31.895  27.466  1.00  0.00     0.251 C 
ATOM     28  H   UNL A   1      32.308  31.677  26.045  1.00  0.00     0.163 HD
ATOM     29  O   UNL A   1      33.217  32.960  27.852  1.00  0.00    -0.269 OA
BRANCH  27  30
ATOM     30  C   UNL A   1      34.971  31.406  28.028  1.00  0.00     0.039 A 
ATOM     31  C   UNL A   1      34.992  30.142  28.626  1.00  0.00     0.014 A 
ATOM     32  C   UNL A   1      36.117  32.206  28.049  1.00  0.00     0.014 A 
ATOM     33  C   UNL A   1      36.162  29.677  29.229  1.00  0.00     0.010 A 
ATOM     34  C   UNL A   1      37.304  31.712  28.588  1.00  0.00     0.010 A 
ATOM     35  C   UNL A   1      37.331  30.456  29.208  1.00  0.00    -0.014 A 
BRANCH  35  36
ATOM     36  C   UNL A   1      38.573  29.977  29.866  1.00  0.00     0.031 A 
ATOM     37  C   UNL A   1      38.952  30.490  31.232  1.00  0.00     0.074 A 
ATOM     38  C   UNL A   1      39.377  29.110  29.219  1.00  0.00     0.049 A 
ATOM     39  N   UNL A   1      39.998  30.196  31.961  1.00  0.00    -0.248 NA
ATOM     40  C   UNL A   1      38.051  31.475  31.852  1.00  0.00     0.031 C 
ATOM     41  C   UNL A   1      39.152  28.598  27.865  1.00  0.00     0.029 A 
ATOM     42  N   UNL A   1      40.553  28.519  29.606  1.00  0.00    -0.354 N 
ATOM     43  C   UNL A   1      39.891  30.971  33.110  1.00  0.00     0.074 A 
ATOM     44  C   UNL A   1      38.704  31.783  32.964  1.00  0.00     0.031 C 
ATOM     45  C   UNL A   1      40.153  27.765  27.539  1.00  0.00     0.029 A 
ATOM     46  C   UNL A   1      41.099  27.699  28.647  1.00  0.00     0.049 A 
ATOM     47  H   UNL A   1      40.967  28.669  30.487  1.00  0.00     0.167 HD
ATOM     48  C   UNL A   1      40.684  30.976  34.209  1.00  0.00     0.034 A 
ATOM     49  C   UNL A   1      42.235  26.973  28.664  1.00  0.00     0.034 A 
ATOM     50  C   UNL A   1      41.840  30.136  34.368  1.00  0.00     0.049 A 
ATOM     51  C   UNL A   1      43.078  26.973  29.911  1.00  0.00     0.074 A 
ATOM     52  C   UNL A   1      42.682  30.027  35.461  1.00  0.00     0.029 A 
ATOM     53  N   UNL A   1      42.311  29.252  33.410  1.00  0.00    -0.354 N 
ATOM     54  N   UNL A   1      42.879  27.604  31.043  1.00  0.00    -0.248 NA
ATOM     55  C   UNL A   1      44.281  26.127  29.899  1.00  0.00     0.031 C 
ATOM     56  C   UNL A   1      43.667  29.080  35.161  1.00  0.00     0.029 A 
ATOM     57  C   UNL A   1      43.429  28.589  33.887  1.00  0.00     0.049 A 
ATOM     58  H   UNL A   1      41.911  29.116  32.521  1.00  0.00     0.167 HD
ATOM     59  C   UNL A   1      43.906  27.203  31.889  1.00  0.00     0.074 A 
ATOM     60  C   UNL A   1      44.711  26.253  31.147  1.00  0.00     0.031 C 
ATOM     61  C   UNL A   1      44.176  27.598  33.157  1.00  0.00     0.034 A 
BRANCH  48  62
ATOM     62  C   UNL A   1      40.283  31.862  35.360  1.00  0.00     0.023 A 
ATOM     63  C   UNL A   1      40.872  33.138  35.479  1.00  0.00     0.012 A 
ATOM     64  C   UNL A   1      39.284  31.475  36.274  1.00  0.00     0.148 A 
ATOM     65  C   UNL A   1      40.497  34.003  36.506  1.00  0.00     0.002 A 
ATOM     66  C   UNL A   1      38.886  32.360  37.272  1.00  0.00     0.091 A 
ATOM     67  F   UNL A   1      38.746  30.253  36.155  1.00  0.00    -0.205 F 
ATOM     68  C   UNL A   1      39.498  33.619  37.395  1.00  0.00     0.022 A 
BRANCH  66  69
ATOM     69  S   UNL A   1      37.556  31.996  38.424  1.00  0.00     0.127 S 
ATOM     70  O   UNL A   1      38.206  32.238  39.712  1.00  0.00    -0.237 OA
ATOM     71  O   UNL A   1      36.548  32.989  38.054  1.00  0.00    -0.237 OA
ATOM     72  O   UNL A   1      37.172  30.613  38.173  1.00  0.00    -0.744 OA
ENDBRANCH  66  69
ENDBRANCH  48  62
BRANCH  49  73
ATOM     73  C   UNL A   1      42.606  26.128  27.493  1.00  0.00     0.023 A 
ATOM     74  C   UNL A   1      43.404  26.675  26.469  1.00  0.00     0.012 A 
ATOM     75  C   UNL A   1      42.179  24.791  27.386  1.00  0.00     0.148 A 
ATOM     76  C   UNL A   1      43.731  25.923  25.341  1.00  0.00     0.002 A 
ATOM     77  C   UNL A   1      42.555  24.027  26.287  1.00  0.00     0.091 A 
ATOM     78  F   UNL A   1      41.407  24.288  28.361  1.00  0.00    -0.205 F 
ATOM     79  C   UNL A   1      43.315  24.597  25.254  1.00  0.00     0.022 A 
BRANCH  77  80
ATOM     80  S   UNL A   1      42.170  22.278  26.167  1.00  0.00     0.127 S 
ATOM     81  O   UNL A   1      42.914  21.886  24.975  1.00  0.00    -0.237 OA
ATOM     82  O   UNL A   1      42.702  21.756  27.427  1.00  0.00    -0.237 OA
ATOM     83  O   UNL A   1      40.717  22.213  26.066  1.00  0.00    -0.744 OA
ENDBRANCH  77  80
ENDBRANCH  49  73
BRANCH  61  84
ATOM     84  C   UNL A   1      45.365  26.981  33.842  1.00  0.00     0.023 A 
ATOM     85  C   UNL A   1      46.617  27.625  33.782  1.00  0.00     0.012 A 
ATOM     86  C   UNL A   1      45.227  25.802  34.601  1.00  0.00     0.148 A 
ATOM     87  C   UNL A   1      47.721  27.086  34.439  1.00  0.00     0.002 A 
ATOM     88  C   UNL A   1      46.322  25.297  35.292  1.00  0.00     0.091 A 
ATOM     89  F   UNL A   1      44.032  25.195  34.629  1.00  0.00    -0.205 F 
ATOM     90  C   UNL A   1      47.572  25.932  35.203  1.00  0.00     0.022 A 
BRANCH  88  91
ATOM     91  S   UNL A   1      46.201  23.869  36.375  1.00  0.00     0.127 S 
ATOM     92  O   UNL A   1      45.192  24.309  37.337  1.00  0.00    -0.237 OA
ATOM     93  O   UNL A   1      45.754  22.820  35.457  1.00  0.00    -0.237 OA
ATOM     94  O   UNL A   1      47.537  23.666  36.918  1.00  0.00    -0.744 OA
ENDBRANCH  88  91
ENDBRANCH  61  84
ENDBRANCH  35  36
ENDBRANCH  27  30
ENDBRANCH  25  26
ENDBRANCH   1  25
TORSDOF 16
ENDMDL
MODEL 2
REMARK VINA RESULT:     -12.3      2.369      8.105
REMARK SMILES O=C(Cc1ccccc1Cl)Nc1ccc(C(=O)NCCCNC(=O)c2ccc(-c3c4nc(c(-c5cccc(S(=O)(=O)[O-])c5F)c5ccc([nH]5)c(-c5cccc(S(=O)(=O)[O-])c5F)c5nc(c(-c6cccc(S(=O)(=O)[O-])c6F)c6ccc3[nH]6)C=C5)C=C4)cc2)cc1
REMARK SMILES IDX 20 1 19 2 18 3 16 4 17 5 15 7 12 8 13 9 89 10 14 11 88 12
REMARK SMILES IDX 11 13 1 14 2 15 3 17 4 18 5 19 9 20 6 21 8 22 10 23 7 24
REMARK SMILES IDX 21 25 22 26 23 27 24 29 25 30 26 31 87 32 27 33 86 34 28 35
REMARK SMILES IDX 29 36 30 37 80 38 31 39 85 40 79 41 81 42 32 43 84 44 78 45
REMARK SMILES IDX 77 46 33 48 65 49 45 50 64 51 46 52 49 53 63 54 82 55 47 56
REMARK SMILES IDX 48 57 62 59 83 60 50 61 34 62 35 63 43 64 36 65 38 66 44 67
REMARK SMILES IDX 37 68 39 69 40 70 41 71 42 72 66 73 67 74 75 75 68 76 70 77
REMARK SMILES IDX 76 78 69 79 71 80 72 81 73 82 74 83 51 84 52 85 60 86 53 87
REMARK SMILES IDX 55 88 61 89 54 90 56 91 57 92 58 93 59 94
REMARK H PARENT 18 6 11 16 22 28 81 47 49 58
REMARK Flexibility Score: inf
ROOT
ATOM      1  C   UNL A   1      31.300  32.150  26.558  1.00  0.00     0.042 C 
ENDROOT
BRANCH   1   2
ATOM      2  C   UNL A   1      31.517  30.832  25.816  1.00  0.00     0.118 C 
BRANCH   2   3
ATOM      3  N   UNL A   1      30.677  30.760  24.636  1.00  0.00    -0.352 N 
ATOM      4  C   UNL A   1      30.273  29.706  23.861  1.00  0.00     0.251 C 
ATOM      5  O   UNL A   1      29.518  29.949  22.918  1.00  0.00    -0.269 OA
ATOM      6  H   UNL A   1      30.334  31.632  24.336  1.00  0.00     0.163 HD
BRANCH   4   7
ATOM      7  C   UNL A   1      30.637  28.290  24.151  1.00  0.00     0.039 A 
ATOM      8  C   UNL A   1      31.078  25.569  24.735  1.00  0.00     0.041 A 
ATOM      9  C   UNL A   1      29.933  25.966  24.039  1.00  0.00     0.027 A 
ATOM     10  C   UNL A   1      32.032  26.524  25.078  1.00  0.00     0.027 A 
ATOM     11  C   UNL A   1      29.704  27.315  23.770  1.00  0.00     0.016 A 
ATOM     12  C   UNL A   1      31.829  27.869  24.745  1.00  0.00     0.016 A 
BRANCH   8  13
ATOM     13  N   UNL A   1      31.234  24.200  24.991  1.00  0.00    -0.326 N 
ATOM     14  O   UNL A   1      30.944  24.088  27.286  1.00  0.00    -0.274 OA
ATOM     15  C   UNL A   1      31.261  23.570  26.217  1.00  0.00     0.228 C 
ATOM     16  H   UNL A   1      31.337  23.621  24.202  1.00  0.00     0.169 HD
BRANCH  15  17
ATOM     17  C   UNL A   1      31.794  22.142  26.169  1.00  0.00     0.137 C 
BRANCH  17  18
ATOM     18  C   UNL A   1      33.283  21.990  25.923  1.00  0.00    -0.020 A 
ATOM     19  C   UNL A   1      34.176  22.785  26.665  1.00  0.00     0.006 A 
ATOM     20  C   UNL A   1      33.825  21.112  24.966  1.00  0.00     0.044 A 
ATOM     21  C   UNL A   1      35.556  22.695  26.466  1.00  0.00     0.000 A 
ATOM     22  C   UNL A   1      35.207  20.996  24.797  1.00  0.00     0.021 A 
ATOM     23  Cl  UNL A   1      32.832  20.140  23.938  1.00  0.00    -0.084 Cl
ATOM     24  C   UNL A   1      36.074  21.790  25.544  1.00  0.00     0.002 A 
ENDBRANCH  17  18
ENDBRANCH  15  17
ENDBRANCH   8  13
ENDBRANCH   4   7
ENDBRANCH   2   3
ENDBRANCH   1   2
BRANCH   1  25
ATOM     25  C   UNL A   1      32.527  32.600  27.344  1.00  0.00     0.118 C 
BRANCH  25  26
ATOM     26  N   UNL A   1      32.500  34.031  27.601  1.00  0.00    -0.352 N 
ATOM     27  C   UNL A   1      33.135  34.768  28.565  1.00  0.00     0.251 C 
ATOM     28  H   UNL A   1      31.937  34.553  26.984  1.00  0.00     0.163 HD
ATOM     29  O   UNL A   1      32.777  35.927  28.758  1.00  0.00    -0.269 OA
BRANCH  27  30
ATOM     30  C   UNL A   1      34.241  34.192  29.363  1.00  0.00     0.039 A 
ATOM     31  C   UNL A   1      35.536  34.246  28.837  1.00  0.00     0.014 A 
ATOM     32  C   UNL A   1      34.007  33.530  30.572  1.00  0.00     0.014 A 
ATOM     33  C   UNL A   1      36.592  33.651  29.528  1.00  0.00     0.010 A 
ATOM     34  C   UNL A   1      35.074  33.000  31.296  1.00  0.00     0.010 A 
ATOM     35  C   UNL A   1      36.372  33.029  30.768  1.00  0.00    -0.014 A 
BRANCH  35  36
ATOM     36  C   UNL A   1      37.487  32.376  31.499  1.00  0.00     0.031 A 
ATOM     37  C   UNL A   1      38.239  31.232  30.867  1.00  0.00     0.074 A 
ATOM     38  C   UNL A   1      37.798  32.787  32.743  1.00  0.00     0.049 A 
ATOM     39  N   UNL A   1      39.234  30.533  31.351  1.00  0.00    -0.248 NA
ATOM     40  C   UNL A   1      37.806  30.805  29.526  1.00  0.00     0.031 C 
ATOM     41  C   UNL A   1      37.096  33.836  33.488  1.00  0.00     0.029 A 
ATOM     42  N   UNL A   1      38.774  32.363  33.610  1.00  0.00    -0.354 N 
ATOM     43  C   UNL A   1      39.529  29.576  30.387  1.00  0.00     0.074 A 
ATOM     44  C   UNL A   1      38.581  29.752  29.310  1.00  0.00     0.031 C 
ATOM     45  C   UNL A   1      37.669  33.978  34.694  1.00  0.00     0.029 A 
ATOM     46  C   UNL A   1      38.762  33.020  34.818  1.00  0.00     0.049 A 
ATOM     47  H   UNL A   1      39.420  31.655  33.387  1.00  0.00     0.167 HD
ATOM     48  C   UNL A   1      40.528  28.660  30.378  1.00  0.00     0.034 A 
ATOM     49  C   UNL A   1      39.548  32.866  35.902  1.00  0.00     0.034 A 
ATOM     50  C   UNL A   1      41.496  28.517  31.431  1.00  0.00     0.049 A 
ATOM     51  C   UNL A   1      40.670  31.864  35.849  1.00  0.00     0.074 A 
ATOM     52  C   UNL A   1      42.577  27.656  31.498  1.00  0.00     0.029 A 
ATOM     53  N   UNL A   1      41.505  29.261  32.601  1.00  0.00    -0.354 N 
ATOM     54  N   UNL A   1      41.022  31.069  34.868  1.00  0.00    -0.248 NA
ATOM     55  C   UNL A   1      41.531  31.767  37.038  1.00  0.00     0.031 C 
ATOM     56  C   UNL A   1      43.237  27.876  32.711  1.00  0.00     0.029 A 
ATOM     57  C   UNL A   1      42.575  28.884  33.393  1.00  0.00     0.049 A 
ATOM     58  H   UNL A   1      40.847  29.955  32.834  1.00  0.00     0.167 HD
ATOM     59  C   UNL A   1      42.163  30.407  35.305  1.00  0.00     0.074 A 
ATOM     60  C   UNL A   1      42.461  30.916  36.628  1.00  0.00     0.031 C 
ATOM     61  C   UNL A   1      42.891  29.450  34.679  1.00  0.00     0.034 A 
BRANCH  48  62
ATOM     62  C   UNL A   1      40.675  27.794  29.153  1.00  0.00     0.023 A 
ATOM     63  C   UNL A   1      39.867  26.646  29.026  1.00  0.00     0.012 A 
ATOM     64  C   UNL A   1      41.546  28.144  28.103  1.00  0.00     0.148 A 
ATOM     65  C   UNL A   1      39.944  25.842  27.890  1.00  0.00     0.002 A 
ATOM     66  C   UNL A   1      41.587  27.360  26.954  1.00  0.00     0.091 A 
ATOM     67  F   UNL A   1      42.317  29.231  28.247  1.00  0.00    -0.205 F 
ATOM     68  C   UNL A   1      40.795  26.204  26.850  1.00  0.00     0.022 A 
BRANCH  66  69
ATOM     69  S   UNL A   1      42.593  27.777  25.525  1.00  0.00     0.127 S 
ATOM     70  O   UNL A   1      42.404  26.600  24.677  1.00  0.00    -0.237 OA
ATOM     71  O   UNL A   1      41.943  28.992  25.035  1.00  0.00    -0.237 OA
ATOM     72  O   UNL A   1      43.947  27.969  26.027  1.00  0.00    -0.744 OA
ENDBRANCH  66  69
ENDBRANCH  48  62
BRANCH  49  73
ATOM     73  C   UNL A   1      39.352  33.729  37.102  1.00  0.00     0.023 A 
ATOM     74  C   UNL A   1      39.851  35.047  37.095  1.00  0.00     0.012 A 
ATOM     75  C   UNL A   1      38.677  33.260  38.245  1.00  0.00     0.148 A 
ATOM     76  C   UNL A   1      39.722  35.864  38.219  1.00  0.00     0.002 A 
ATOM     77  C   UNL A   1      38.501  34.097  39.340  1.00  0.00     0.091 A 
ATOM     78  F   UNL A   1      38.221  31.998  38.243  1.00  0.00    -0.205 F 
ATOM     79  C   UNL A   1      39.039  35.393  39.337  1.00  0.00     0.022 A 
BRANCH  77  80
ATOM     80  S   UNL A   1      37.520  33.608  40.763  1.00  0.00     0.127 S 
ATOM     81  O   UNL A   1      36.296  33.126  40.133  1.00  0.00    -0.237 OA
ATOM     82  O   UNL A   1      38.353  32.569  41.371  1.00  0.00    -0.237 OA
ATOM     83  O   UNL A   1      37.394  34.815  41.572  1.00  0.00    -0.744 OA
ENDBRANCH  77  80
ENDBRANCH  49  73
BRANCH  61  84
ATOM     84  C   UNL A   1      44.101  28.914  35.396  1.00  0.00     0.023 A 
ATOM     85  C   UNL A   1      45.361  29.506  35.177  1.00  0.00     0.012 A 
ATOM     86  C   UNL A   1      43.978  27.873  36.337  1.00  0.00     0.148 A 
ATOM     87  C   UNL A   1      46.486  29.046  35.857  1.00  0.00     0.002 A 
ATOM     88  C   UNL A   1      45.096  27.452  37.046  1.00  0.00     0.091 A 
ATOM     89  F   UNL A   1      42.774  27.311  36.516  1.00  0.00    -0.205 F 
ATOM     90  C   UNL A   1      46.353  28.030  36.800  1.00  0.00     0.022 A 
BRANCH  88  91
ATOM     91  S   UNL A   1      45.002  26.214  38.344  1.00  0.00     0.127 S 
ATOM     92  O   UNL A   1      46.396  26.129  38.777  1.00  0.00    -0.237 OA
ATOM     93  O   UNL A   1      44.100  26.844  39.310  1.00  0.00    -0.237 OA
ATOM     94  O   UNL A   1      44.468  25.014  37.714  1.00  0.00    -0.744 OA
ENDBRANCH  88  91
ENDBRANCH  61  84
ENDBRANCH  35  36
ENDBRANCH  27  30
ENDBRANCH  25  26
ENDBRANCH   1  25
TORSDOF 16
ENDMDL
MODEL 3
REMARK VINA RESULT:     -12.2      1.676      2.125
REMARK SMILES O=C(Cc1ccccc1Cl)Nc1ccc(C(=O)NCCCNC(=O)c2ccc(-c3c4nc(c(-c5cccc(S(=O)(=O)[O-])c5F)c5ccc([nH]5)c(-c5cccc(S(=O)(=O)[O-])c5F)c5nc(c(-c6cccc(S(=O)(=O)[O-])c6F)c6ccc3[nH]6)C=C5)C=C4)cc2)cc1
REMARK SMILES IDX 20 1 19 2 18 3 16 4 17 5 15 7 12 8 13 9 89 10 14 11 88 12
REMARK SMILES IDX 11 13 1 14 2 15 3 17 4 18 5 19 9 20 6 21 8 22 10 23 7 24
REMARK SMILES IDX 21 25 22 26 23 27 24 29 25 30 26 31 87 32 27 33 86 34 28 35
REMARK SMILES IDX 29 36 30 37 80 38 31 39 85 40 79 41 81 42 32 43 84 44 78 45
REMARK SMILES IDX 77 46 33 48 65 49 45 50 64 51 46 52 49 53 63 54 82 55 47 56
REMARK SMILES IDX 48 57 62 59 83 60 50 61 34 62 35 63 43 64 36 65 38 66 44 67
REMARK SMILES IDX 37 68 39 69 40 70 41 71 42 72 66 73 67 74 75 75 68 76 70 77
REMARK SMILES IDX 76 78 69 79 71 80 72 81 73 82 74 83 51 84 52 85 60 86 53 87
REMARK SMILES IDX 55 88 61 89 54 90 56 91 57 92 58 93 59 94
REMARK H PARENT 18 6 11 16 22 28 81 47 49 58
REMARK Flexibility Score: inf
ROOT
ATOM      1  C   UNL A   1      31.138  32.221  26.409  1.00  0.00     0.042 C 
ENDROOT
BRANCH   1   2
ATOM      2  C   UNL A   1      31.121  30.843  25.750  1.00  0.00     0.118 C 
BRANCH   2   3
ATOM      3  N   UNL A   1      30.364  30.871  24.513  1.00  0.00    -0.352 N 
ATOM      4  C   UNL A   1      30.165  29.931  23.537  1.00  0.00     0.251 C 
ATOM      5  O   UNL A   1      29.433  30.235  22.594  1.00  0.00    -0.269 OA
ATOM      6  H   UNL A   1      29.910  31.728  24.342  1.00  0.00     0.163 HD
BRANCH   4   7
ATOM      7  C   UNL A   1      30.723  28.551  23.606  1.00  0.00     0.039 A 
ATOM      8  C   UNL A   1      31.960  26.019  23.575  1.00  0.00     0.041 A 
ATOM      9  C   UNL A   1      32.731  27.183  23.513  1.00  0.00     0.027 A 
ATOM     10  C   UNL A   1      30.580  26.124  23.722  1.00  0.00     0.027 A 
ATOM     11  C   UNL A   1      32.116  28.436  23.504  1.00  0.00     0.016 A 
ATOM     12  C   UNL A   1      29.974  27.385  23.781  1.00  0.00     0.016 A 
BRANCH   8  13
ATOM     13  N   UNL A   1      32.640  24.795  23.557  1.00  0.00    -0.326 N 
ATOM     14  O   UNL A   1      33.184  24.562  21.317  1.00  0.00    -0.274 OA
ATOM     15  C   UNL A   1      33.108  24.107  22.457  1.00  0.00     0.228 C 
ATOM     16  H   UNL A   1      32.803  24.376  24.433  1.00  0.00     0.169 HD
BRANCH  15  17
ATOM     17  C   UNL A   1      33.483  22.657  22.745  1.00  0.00     0.137 C 
BRANCH  17  18
ATOM     18  C   UNL A   1      34.645  22.442  23.697  1.00  0.00    -0.020 A 
ATOM     19  C   UNL A   1      35.780  23.263  23.575  1.00  0.00     0.006 A 
ATOM     20  C   UNL A   1      34.660  21.441  24.686  1.00  0.00     0.044 A 
ATOM     21  C   UNL A   1      36.883  23.097  24.417  1.00  0.00     0.000 A 
ATOM     22  C   UNL A   1      35.749  21.303  25.553  1.00  0.00     0.021 A 
ATOM     23  Cl  UNL A   1      33.360  20.320  24.886  1.00  0.00    -0.084 Cl
ATOM     24  C   UNL A   1      36.862  22.127  25.416  1.00  0.00     0.002 A 
ENDBRANCH  17  18
ENDBRANCH  15  17
ENDBRANCH   8  13
ENDBRANCH   4   7
ENDBRANCH   2   3
ENDBRANCH   1   2
BRANCH   1  25
ATOM     25  C   UNL A   1      32.514  32.611  26.938  1.00  0.00     0.118 C 
BRANCH  25  26
ATOM     26  N   UNL A   1      32.494  33.930  27.551  1.00  0.00    -0.352 N 
ATOM     27  C   UNL A   1      33.226  34.430  28.595  1.00  0.00     0.251 C 
ATOM     28  H   UNL A   1      31.854  34.564  27.153  1.00  0.00     0.163 HD
ATOM     29  O   UNL A   1      32.875  35.486  29.114  1.00  0.00    -0.269 OA
BRANCH  27  30
ATOM     30  C   UNL A   1      34.427  33.722  29.095  1.00  0.00     0.039 A 
ATOM     31  C   UNL A   1      34.246  32.640  29.962  1.00  0.00     0.014 A 
ATOM     32  C   UNL A   1      35.719  34.162  28.789  1.00  0.00     0.014 A 
ATOM     33  C   UNL A   1      35.356  31.994  30.508  1.00  0.00     0.010 A 
ATOM     34  C   UNL A   1      36.826  33.471  29.279  1.00  0.00     0.010 A 
ATOM     35  C   UNL A   1      36.656  32.399  30.165  1.00  0.00    -0.014 A 
BRANCH  35  36
ATOM     36  C   UNL A   1      37.841  31.729  30.759  1.00  0.00     0.031 A 
ATOM     37  C   UNL A   1      38.273  32.061  32.165  1.00  0.00     0.074 A 
ATOM     38  C   UNL A   1      38.549  30.852  30.021  1.00  0.00     0.049 A 
ATOM     39  N   UNL A   1      39.282  31.588  32.850  1.00  0.00    -0.248 NA
ATOM     40  C   UNL A   1      37.480  33.069  32.890  1.00  0.00     0.031 C 
ATOM     41  C   UNL A   1      38.272  30.504  28.625  1.00  0.00     0.029 A 
ATOM     42  N   UNL A   1      39.656  30.105  30.335  1.00  0.00    -0.354 N 
ATOM     43  C   UNL A   1      39.257  32.252  34.071  1.00  0.00     0.074 A 
ATOM     44  C   UNL A   1      38.162  33.194  34.019  1.00  0.00     0.031 C 
ATOM     45  C   UNL A   1      39.179  29.607  28.207  1.00  0.00     0.029 A 
ATOM     46  C   UNL A   1      40.113  29.332  29.293  1.00  0.00     0.049 A 
ATOM     47  H   UNL A   1      40.084  30.123  31.222  1.00  0.00     0.167 HD
ATOM     48  C   UNL A   1      40.047  32.064  35.156  1.00  0.00     0.034 A 
ATOM     49  C   UNL A   1      41.166  28.493  29.226  1.00  0.00     0.034 A 
ATOM     50  C   UNL A   1      41.107  31.095  35.220  1.00  0.00     0.049 A 
ATOM     51  C   UNL A   1      42.005  28.281  30.458  1.00  0.00     0.074 A 
ATOM     52  C   UNL A   1      41.933  30.791  36.287  1.00  0.00     0.029 A 
ATOM     53  N   UNL A   1      41.483  30.267  34.174  1.00  0.00    -0.354 N 
ATOM     54  N   UNL A   1      41.873  28.813  31.649  1.00  0.00    -0.248 NA
ATOM     55  C   UNL A   1      43.112  27.319  30.350  1.00  0.00     0.031 C 
ATOM     56  C   UNL A   1      42.813  29.781  35.884  1.00  0.00     0.029 A 
ATOM     57  C   UNL A   1      42.524  29.447  34.571  1.00  0.00     0.049 A 
ATOM     58  H   UNL A   1      41.070  30.263  33.280  1.00  0.00     0.167 HD
ATOM     59  C   UNL A   1      42.853  28.224  32.440  1.00  0.00     0.074 A 
ATOM     60  C   UNL A   1      43.553  27.274  31.599  1.00  0.00     0.031 C 
ATOM     61  C   UNL A   1      43.163  28.461  33.738  1.00  0.00     0.034 A 
BRANCH  48  62
ATOM     62  C   UNL A   1      39.741  32.868  36.394  1.00  0.00     0.023 A 
ATOM     63  C   UNL A   1      40.325  34.143  36.543  1.00  0.00     0.012 A 
ATOM     64  C   UNL A   1      38.832  32.407  37.366  1.00  0.00     0.148 A 
ATOM     65  C   UNL A   1      40.034  34.935  37.653  1.00  0.00     0.002 A 
ATOM     66  C   UNL A   1      38.516  33.220  38.451  1.00  0.00     0.091 A 
ATOM     67  F   UNL A   1      38.299  31.187  37.216  1.00  0.00    -0.205 F 
ATOM     68  C   UNL A   1      39.123  34.478  38.601  1.00  0.00     0.022 A 
BRANCH  66  69
ATOM     69  S   UNL A   1      37.299  32.761  39.691  1.00  0.00     0.127 S 
ATOM     70  O   UNL A   1      37.389  33.885  40.623  1.00  0.00    -0.237 OA
ATOM     71  O   UNL A   1      36.064  32.716  38.908  1.00  0.00    -0.237 OA
ATOM     72  O   UNL A   1      37.731  31.476  40.224  1.00  0.00    -0.744 OA
ENDBRANCH  66  69
ENDBRANCH  48  62
BRANCH  49  73
ATOM     73  C   UNL A   1      41.445  27.735  27.973  1.00  0.00     0.023 A 
ATOM     74  C   UNL A   1      41.960  28.415  26.853  1.00  0.00     0.012 A 
ATOM     75  C   UNL A   1      41.210  26.350  27.884  1.00  0.00     0.148 A 
ATOM     76  C   UNL A   1      42.191  27.741  25.653  1.00  0.00     0.002 A 
ATOM     77  C   UNL A   1      41.495  25.672  26.704  1.00  0.00     0.091 A 
ATOM     78  F   UNL A   1      40.706  25.718  28.954  1.00  0.00    -0.205 F 
ATOM     79  C   UNL A   1      41.968  26.369  25.581  1.00  0.00     0.022 A 
BRANCH  77  80
ATOM     80  S   UNL A   1      41.359  23.886  26.576  1.00  0.00     0.127 S 
ATOM     81  O   UNL A   1      42.178  23.604  25.402  1.00  0.00    -0.237 OA
ATOM     82  O   UNL A   1      41.929  23.440  27.849  1.00  0.00    -0.237 OA
ATOM     83  O   UNL A   1      39.931  23.621  26.442  1.00  0.00    -0.744 OA
ENDBRANCH  77  80
ENDBRANCH  49  73
BRANCH  61  84
ATOM     84  C   UNL A   1      44.280  27.657  34.346  1.00  0.00     0.023 A 
ATOM     85  C   UNL A   1      45.601  28.145  34.290  1.00  0.00     0.012 A 
ATOM     86  C   UNL A   1      44.013  26.455  35.031  1.00  0.00     0.148 A 
ATOM     87  C   UNL A   1      46.644  27.431  34.877  1.00  0.00     0.002 A 
ATOM     88  C   UNL A   1      45.051  25.775  35.655  1.00  0.00     0.091 A 
ATOM     89  F   UNL A   1      42.753  25.999  35.056  1.00  0.00    -0.205 F 
ATOM     90  C   UNL A   1      46.369  26.255  35.569  1.00  0.00     0.022 A 
BRANCH  88  91
ATOM     91  S   UNL A   1      44.777  24.302  36.646  1.00  0.00     0.127 S 
ATOM     92  O   UNL A   1      46.143  23.931  37.012  1.00  0.00    -0.237 OA
ATOM     93  O   UNL A   1      43.968  24.817  37.752  1.00  0.00    -0.237 OA
ATOM     94  O   UNL A   1      44.084  23.359  35.779  1.00  0.00    -0.744 OA
ENDBRANCH  88  91
ENDBRANCH  61  84
ENDBRANCH  35  36
ENDBRANCH  27  30
ENDBRANCH  25  26
ENDBRANCH   1  25
TORSDOF 16
ENDMDL
