MODEL 1
REMARK VINA RESULT:     -12.4      0.000      0.000
REMARK SMILES CCC1(C(=O)NCCCNC(=O)c2ccc(-c3c4nc(c(-c5cccc(S(=O)(=O)[O-])c5F)c5ccc([nH]5)c(-c5cccc(S(=O)(=O)[O-])c5F)c5nc(c(-c6cccc(S(=O)(=O)[O-])c6F)c6ccc3[nH]6)C=C5)C=C4)cc2)CCN(C(=O)C[C@H]2CSCC[NH2+]2)CC1
REMARK SMILES IDX 8 1 7 2 6 3 4 4 5 5 3 7 76 8 89 9 77 10 88 11 78 12 79 13
REMARK SMILES IDX 80 14 2 15 1 16 81 17 82 18 83 19 87 20 84 21 86 22 85 25
REMARK SMILES IDX 9 26 10 27 11 28 12 30 13 31 14 32 75 33 15 34 74 35 16 36
REMARK SMILES IDX 17 37 18 38 68 39 19 40 73 41 67 42 69 43 20 44 72 45 66 46
REMARK SMILES IDX 65 47 21 49 53 50 33 51 52 52 34 53 37 54 51 55 70 56 35 57
REMARK SMILES IDX 36 58 50 60 71 61 38 62 22 63 23 64 31 65 24 66 26 67 32 68
REMARK SMILES IDX 25 69 27 70 28 71 29 72 30 73 54 74 55 75 63 76 56 77 58 78
REMARK SMILES IDX 64 79 57 80 59 81 60 82 61 83 62 84 39 85 40 86 48 87 41 88
REMARK SMILES IDX 43 89 49 90 42 91 44 92 45 93 46 94 47 95
REMARK H PARENT 6 6 87 23 87 24 10 29 69 48 37 59
REMARK Flexibility Score: inf
ROOT
ATOM      1  C   UNL A   1      31.597  32.253  26.528  1.00  0.00     0.042 C 
ENDROOT
BRANCH   1   2
ATOM      2  C   UNL A   1      31.763  30.773  26.205  1.00  0.00     0.117 C 
BRANCH   2   3
ATOM      3  N   UNL A   1      31.053  30.389  24.993  1.00  0.00    -0.356 N 
ATOM      4  C   UNL A   1      31.123  29.294  24.188  1.00  0.00     0.226 C 
ATOM      5  O   UNL A   1      30.288  29.245  23.280  1.00  0.00    -0.274 OA
ATOM      6  H   UNL A   1      30.389  31.054  24.696  1.00  0.00     0.163 HD
BRANCH   4   7
ATOM      7  C   UNL A   1      32.132  28.146  24.427  1.00  0.00     0.052 C 
ATOM      8  C   UNL A   1      32.196  27.775  25.934  1.00  0.00     0.038 C 
ATOM      9  C   UNL A   1      31.691  26.943  23.525  1.00  0.00     0.038 C 
ATOM     10  C   UNL A   1      32.771  26.390  26.189  1.00  0.00     0.120 C 
ATOM     11  C   UNL A   1      32.336  25.610  23.917  1.00  0.00     0.120 C 
ATOM     12  N   UNL A   1      32.138  25.390  25.338  1.00  0.00    -0.342 N 
ATOM     13  C   UNL A   1      31.177  24.545  25.878  1.00  0.00     0.228 C 
ATOM     14  O   UNL A   1      30.574  24.825  26.913  1.00  0.00    -0.275 OA
BRANCH   7  15
ATOM     15  C   UNL A   1      33.552  28.582  23.916  1.00  0.00     0.013 C 
ATOM     16  C   UNL A   1      33.861  28.370  22.435  1.00  0.00     0.005 C 
ENDBRANCH   7  15
BRANCH  13  17
ATOM     17  C   UNL A   1      31.000  23.181  25.231  1.00  0.00     0.166 C 
BRANCH  17  18
ATOM     18  C   UNL A   1      31.956  22.056  25.663  1.00  0.00     0.201 C 
ATOM     19  C   UNL A   1      32.795  21.684  24.412  1.00  0.00     0.135 C 
ATOM     20  N   UNL A   1      32.810  22.489  26.786  1.00  0.00    -0.342 N 
ATOM     21  S   UNL A   1      33.973  20.329  24.699  1.00  0.00    -0.150 SA
ATOM     22  C   UNL A   1      33.740  21.437  27.225  1.00  0.00     0.271 C 
ATOM     23  H   UNL A   1      32.212  22.745  27.571  1.00  0.00     0.346 HD
ATOM     24  H   UNL A   1      33.368  23.280  26.465  1.00  0.00     0.346 HD
ATOM     25  C   UNL A   1      34.776  21.048  26.164  1.00  0.00     0.131 C 
ENDBRANCH  17  18
ENDBRANCH  13  17
ENDBRANCH   4   7
ENDBRANCH   2   3
ENDBRANCH   1   2
BRANCH   1  26
ATOM     26  C   UNL A   1      32.720  32.823  27.383  1.00  0.00     0.118 C 
BRANCH  26  27
ATOM     27  N   UNL A   1      32.518  34.230  27.711  1.00  0.00    -0.352 N 
ATOM     28  C   UNL A   1      33.090  34.997  28.695  1.00  0.00     0.251 C 
ATOM     29  H   UNL A   1      31.872  34.703  27.137  1.00  0.00     0.163 HD
ATOM     30  O   UNL A   1      32.626  36.109  28.943  1.00  0.00    -0.269 OA
BRANCH  28  31
ATOM     31  C   UNL A   1      34.245  34.485  29.460  1.00  0.00     0.039 A 
ATOM     32  C   UNL A   1      34.030  33.903  30.712  1.00  0.00     0.014 A 
ATOM     33  C   UNL A   1      35.540  34.584  28.947  1.00  0.00     0.014 A 
ATOM     34  C   UNL A   1      35.108  33.360  31.415  1.00  0.00     0.010 A 
ATOM     35  C   UNL A   1      36.593  33.955  29.600  1.00  0.00     0.010 A 
ATOM     36  C   UNL A   1      36.393  33.346  30.847  1.00  0.00    -0.014 A 
BRANCH  36  37
ATOM     37  C   UNL A   1      37.538  32.698  31.536  1.00  0.00     0.031 A 
ATOM     38  C   UNL A   1      38.255  31.540  30.894  1.00  0.00     0.074 A 
ATOM     39  C   UNL A   1      37.876  33.093  32.780  1.00  0.00     0.049 A 
ATOM     40  N   UNL A   1      39.235  30.813  31.364  1.00  0.00    -0.248 NA
ATOM     41  C   UNL A   1      37.789  31.123  29.560  1.00  0.00     0.031 C 
ATOM     42  C   UNL A   1      37.207  34.147  33.545  1.00  0.00     0.029 A 
ATOM     43  N   UNL A   1      38.852  32.635  33.631  1.00  0.00    -0.354 N 
ATOM     44  C   UNL A   1      39.475  29.833  30.407  1.00  0.00     0.074 A 
ATOM     45  C   UNL A   1      38.511  30.033  29.347  1.00  0.00     0.031 C 
ATOM     46  C   UNL A   1      37.798  34.266  34.743  1.00  0.00     0.029 A 
ATOM     47  C   UNL A   1      38.863  33.273  34.850  1.00  0.00     0.049 A 
ATOM     48  H   UNL A   1      39.483  31.919  33.391  1.00  0.00     0.167 HD
ATOM     49  C   UNL A   1      40.430  28.874  30.394  1.00  0.00     0.034 A 
ATOM     50  C   UNL A   1      39.638  33.076  35.934  1.00  0.00     0.034 A 
ATOM     51  C   UNL A   1      41.409  28.701  31.433  1.00  0.00     0.049 A 
ATOM     52  C   UNL A   1      40.711  32.024  35.883  1.00  0.00     0.074 A 
ATOM     53  C   UNL A   1      42.473  27.818  31.473  1.00  0.00     0.029 A 
ATOM     54  N   UNL A   1      41.437  29.416  32.620  1.00  0.00    -0.354 N 
ATOM     55  N   UNL A   1      41.025  31.210  34.904  1.00  0.00    -0.248 NA
ATOM     56  C   UNL A   1      41.561  31.886  37.074  1.00  0.00     0.031 C 
ATOM     57  C   UNL A   1      43.124  27.976  32.702  1.00  0.00     0.029 A 
ATOM     58  C   UNL A   1      42.490  28.985  33.409  1.00  0.00     0.049 A 
ATOM     59  H   UNL A   1      40.801  30.126  32.867  1.00  0.00     0.167 HD
ATOM     60  C   UNL A   1      42.131  30.491  35.344  1.00  0.00     0.074 A 
ATOM     61  C   UNL A   1      42.442  30.979  36.672  1.00  0.00     0.031 C 
ATOM     62  C   UNL A   1      42.818  29.510  34.710  1.00  0.00     0.034 A 
BRANCH  49  63
ATOM     63  C   UNL A   1      40.485  27.960  29.195  1.00  0.00     0.023 A 
ATOM     64  C   UNL A   1      39.595  26.869  29.105  1.00  0.00     0.012 A 
ATOM     65  C   UNL A   1      41.386  28.202  28.139  1.00  0.00     0.148 A 
ATOM     66  C   UNL A   1      39.632  26.008  28.009  1.00  0.00     0.002 A 
ATOM     67  C   UNL A   1      41.382  27.369  27.027  1.00  0.00     0.091 A 
ATOM     68  F   UNL A   1      42.239  29.230  28.249  1.00  0.00    -0.205 F 
ATOM     69  C   UNL A   1      40.517  26.264  26.967  1.00  0.00     0.022 A 
BRANCH  67  70
ATOM     70  S   UNL A   1      42.425  27.662  25.594  1.00  0.00     0.127 S 
ATOM     71  O   UNL A   1      43.754  27.713  26.203  1.00  0.00    -0.237 OA
ATOM     72  O   UNL A   1      42.173  26.471  24.782  1.00  0.00    -0.237 OA
ATOM     73  O   UNL A   1      41.958  28.908  25.005  1.00  0.00    -0.744 OA
ENDBRANCH  67  70
ENDBRANCH  49  63
BRANCH  50  74
ATOM     74  C   UNL A   1      39.467  33.940  37.136  1.00  0.00     0.023 A 
ATOM     75  C   UNL A   1      39.903  35.278  37.094  1.00  0.00     0.012 A 
ATOM     76  C   UNL A   1      38.849  33.456  38.305  1.00  0.00     0.148 A 
ATOM     77  C   UNL A   1      39.757  36.110  38.204  1.00  0.00     0.002 A 
ATOM     78  C   UNL A   1      38.656  34.305  39.388  1.00  0.00     0.091 A 
ATOM     79  F   UNL A   1      38.446  32.178  38.327  1.00  0.00    -0.205 F 
ATOM     80  C   UNL A   1      39.124  35.627  39.346  1.00  0.00     0.022 A 
BRANCH  78  81
ATOM     81  S   UNL A   1      37.744  33.811  40.854  1.00  0.00     0.127 S 
ATOM     82  O   UNL A   1      37.520  35.095  41.515  1.00  0.00    -0.237 OA
ATOM     83  O   UNL A   1      36.549  33.200  40.272  1.00  0.00    -0.237 OA
ATOM     84  O   UNL A   1      38.611  32.881  41.565  1.00  0.00    -0.744 OA
ENDBRANCH  78  81
ENDBRANCH  50  74
BRANCH  62  85
ATOM     85  C   UNL A   1      44.009  28.919  35.420  1.00  0.00     0.023 A 
ATOM     86  C   UNL A   1      45.289  29.481  35.239  1.00  0.00     0.012 A 
ATOM     87  C   UNL A   1      43.844  27.850  36.322  1.00  0.00     0.148 A 
ATOM     88  C   UNL A   1      46.391  28.964  35.918  1.00  0.00     0.002 A 
ATOM     89  C   UNL A   1      44.937  27.375  37.036  1.00  0.00     0.091 A 
ATOM     90  F   UNL A   1      42.622  27.318  36.467  1.00  0.00    -0.205 F 
ATOM     91  C   UNL A   1      46.214  27.921  36.825  1.00  0.00     0.022 A 
BRANCH  89  92
ATOM     92  S   UNL A   1      44.788  26.104  38.297  1.00  0.00     0.127 S 
ATOM     93  O   UNL A   1      43.861  26.727  39.239  1.00  0.00    -0.237 OA
ATOM     94  O   UNL A   1      44.230  24.983  37.540  1.00  0.00    -0.237 OA
ATOM     95  O   UNL A   1      46.136  25.880  38.804  1.00  0.00    -0.744 OA
ENDBRANCH  89  92
ENDBRANCH  62  85
ENDBRANCH  36  37
ENDBRANCH  28  31
ENDBRANCH  26  27
ENDBRANCH   1  26
TORSDOF 16
ENDMDL
MODEL 2
REMARK VINA RESULT:     -12.3      2.393      8.222
REMARK SMILES CCC1(C(=O)NCCCNC(=O)c2ccc(-c3c4nc(c(-c5cccc(S(=O)(=O)[O-])c5F)c5ccc([nH]5)c(-c5cccc(S(=O)(=O)[O-])c5F)c5nc(c(-c6cccc(S(=O)(=O)[O-])c6F)c6ccc3[nH]6)C=C5)C=C4)cc2)CCN(C(=O)C[C@H]2CSCC[NH2+]2)CC1
REMARK SMILES IDX 8 1 7 2 6 3 4 4 5 5 3 7 76 8 89 9 77 10 88 11 78 12 79 13
REMARK SMILES IDX 80 14 2 15 1 16 81 17 82 18 83 19 87 20 84 21 86 22 85 25
REMARK SMILES IDX 9 26 10 27 11 28 12 30 13 31 14 32 75 33 15 34 74 35 16 36
REMARK SMILES IDX 17 37 18 38 68 39 19 40 73 41 67 42 69 43 20 44 72 45 66 46
REMARK SMILES IDX 65 47 21 49 53 50 33 51 52 52 34 53 37 54 51 55 70 56 35 57
REMARK SMILES IDX 36 58 50 60 71 61 38 62 22 63 23 64 31 65 24 66 26 67 32 68
REMARK SMILES IDX 25 69 27 70 28 71 29 72 30 73 54 74 55 75 63 76 56 77 58 78
REMARK SMILES IDX 64 79 57 80 59 81 60 82 61 83 62 84 39 85 40 86 48 87 41 88
REMARK SMILES IDX 43 89 49 90 42 91 44 92 45 93 46 94 47 95
REMARK H PARENT 6 6 87 23 87 24 10 29 69 48 37 59
REMARK Flexibility Score: inf
ROOT
ATOM      1  C   UNL A   1      31.418  29.526  25.083  1.00  0.00     0.042 C 
ENDROOT
BRANCH   1   2
ATOM      2  C   UNL A   1      30.927  28.088  25.185  1.00  0.00     0.117 C 
BRANCH   2   3
ATOM      3  N   UNL A   1      31.340  27.281  24.046  1.00  0.00    -0.356 N 
ATOM      4  C   UNL A   1      32.010  26.100  23.943  1.00  0.00     0.226 C 
ATOM      5  O   UNL A   1      32.105  25.638  22.802  1.00  0.00    -0.274 OA
ATOM      6  H   UNL A   1      31.084  27.665  23.176  1.00  0.00     0.163 HD
BRANCH   4   7
ATOM      7  C   UNL A   1      32.558  25.341  25.175  1.00  0.00     0.052 C 
ATOM      8  C   UNL A   1      31.424  24.550  25.883  1.00  0.00     0.038 C 
ATOM      9  C   UNL A   1      33.720  24.418  24.673  1.00  0.00     0.038 C 
ATOM     10  C   UNL A   1      31.938  23.432  26.777  1.00  0.00     0.120 C 
ATOM     11  C   UNL A   1      34.113  23.325  25.673  1.00  0.00     0.120 C 
ATOM     12  N   UNL A   1      32.920  22.608  26.081  1.00  0.00    -0.342 N 
ATOM     13  C   UNL A   1      32.540  21.365  25.590  1.00  0.00     0.228 C 
ATOM     14  O   UNL A   1      31.361  21.080  25.385  1.00  0.00    -0.275 OA
BRANCH   7  15
ATOM     15  C   UNL A   1      33.208  26.365  26.173  1.00  0.00     0.013 C 
ATOM     16  C   UNL A   1      34.424  27.149  25.682  1.00  0.00     0.005 C 
ENDBRANCH   7  15
BRANCH  13  17
ATOM     17  C   UNL A   1      33.621  20.305  25.457  1.00  0.00     0.166 C 
BRANCH  17  18
ATOM     18  C   UNL A   1      33.187  18.889  25.042  1.00  0.00     0.201 C 
ATOM     19  C   UNL A   1      34.398  18.251  24.312  1.00  0.00     0.135 C 
ATOM     20  N   UNL A   1      32.776  18.096  26.217  1.00  0.00    -0.342 N 
ATOM     21  S   UNL A   1      34.078  16.570  23.697  1.00  0.00    -0.150 SA
ATOM     22  C   UNL A   1      32.356  16.732  25.858  1.00  0.00     0.271 C 
ATOM     23  H   UNL A   1      31.997  18.569  26.674  1.00  0.00     0.346 HD
ATOM     24  H   UNL A   1      33.583  18.017  26.836  1.00  0.00     0.346 HD
ATOM     25  C   UNL A   1      33.482  15.876  25.269  1.00  0.00     0.131 C 
ENDBRANCH  17  18
ENDBRANCH  13  17
ENDBRANCH   4   7
ENDBRANCH   2   3
ENDBRANCH   1   2
BRANCH   1  26
ATOM     26  C   UNL A   1      32.274  29.966  26.263  1.00  0.00     0.118 C 
BRANCH  26  27
ATOM     27  N   UNL A   1      32.223  31.407  26.488  1.00  0.00    -0.352 N 
ATOM     28  C   UNL A   1      33.019  32.205  27.270  1.00  0.00     0.251 C 
ATOM     29  H   UNL A   1      31.506  31.879  26.005  1.00  0.00     0.163 HD
ATOM     30  O   UNL A   1      32.679  33.366  27.495  1.00  0.00    -0.269 OA
BRANCH  28  31
ATOM     31  C   UNL A   1      34.269  31.672  27.849  1.00  0.00     0.039 A 
ATOM     32  C   UNL A   1      35.324  32.546  28.118  1.00  0.00     0.014 A 
ATOM     33  C   UNL A   1      34.404  30.308  28.120  1.00  0.00     0.014 A 
ATOM     34  C   UNL A   1      36.486  32.061  28.723  1.00  0.00     0.010 A 
ATOM     35  C   UNL A   1      35.517  29.847  28.812  1.00  0.00     0.010 A 
ATOM     36  C   UNL A   1      36.577  30.714  29.111  1.00  0.00    -0.014 A 
BRANCH  36  37
ATOM     37  C   UNL A   1      37.766  30.194  29.833  1.00  0.00     0.031 A 
ATOM     38  C   UNL A   1      38.060  30.647  31.238  1.00  0.00     0.074 A 
ATOM     39  C   UNL A   1      38.630  29.381  29.192  1.00  0.00     0.049 A 
ATOM     40  N   UNL A   1      39.077  30.349  32.005  1.00  0.00    -0.248 NA
ATOM     41  C   UNL A   1      37.104  31.585  31.851  1.00  0.00     0.031 C 
ATOM     42  C   UNL A   1      38.502  28.935  27.804  1.00  0.00     0.029 A 
ATOM     43  N   UNL A   1      39.803  28.808  29.617  1.00  0.00    -0.354 N 
ATOM     44  C   UNL A   1      38.904  31.088  33.170  1.00  0.00     0.074 A 
ATOM     45  C   UNL A   1      37.707  31.882  32.993  1.00  0.00     0.031 C 
ATOM     46  C   UNL A   1      39.543  28.148  27.495  1.00  0.00     0.029 A 
ATOM     47  C   UNL A   1      40.434  28.063  28.648  1.00  0.00     0.049 A 
ATOM     48  H   UNL A   1      40.158  28.919  30.528  1.00  0.00     0.167 HD
ATOM     49  C   UNL A   1      39.653  31.086  34.297  1.00  0.00     0.034 A 
ATOM     50  C   UNL A   1      41.602  27.392  28.682  1.00  0.00     0.034 A 
ATOM     51  C   UNL A   1      40.822  30.270  34.482  1.00  0.00     0.049 A 
ATOM     52  C   UNL A   1      42.401  27.380  29.956  1.00  0.00     0.074 A 
ATOM     53  C   UNL A   1      41.600  30.126  35.617  1.00  0.00     0.029 A 
ATOM     54  N   UNL A   1      41.390  29.468  33.505  1.00  0.00    -0.354 N 
ATOM     55  N   UNL A   1      42.138  27.962  31.101  1.00  0.00    -0.248 NA
ATOM     56  C   UNL A   1      43.641  26.591  29.953  1.00  0.00     0.031 C 
ATOM     57  C   UNL A   1      42.660  29.264  35.314  1.00  0.00     0.029 A 
ATOM     58  C   UNL A   1      42.518  28.838  34.003  1.00  0.00     0.049 A 
ATOM     59  H   UNL A   1      41.043  29.361  32.589  1.00  0.00     0.167 HD
ATOM     60  C   UNL A   1      43.157  27.578  31.966  1.00  0.00     0.074 A 
ATOM     61  C   UNL A   1      44.031  26.700  31.216  1.00  0.00     0.031 C 
ATOM     62  C   UNL A   1      43.355  27.930  33.260  1.00  0.00     0.034 A 
BRANCH  49  63
ATOM     63  C   UNL A   1      39.206  31.969  35.435  1.00  0.00     0.023 A 
ATOM     64  C   UNL A   1      39.483  33.352  35.400  1.00  0.00     0.012 A 
ATOM     65  C   UNL A   1      38.475  31.441  36.519  1.00  0.00     0.148 A 
ATOM     66  C   UNL A   1      39.084  34.185  36.444  1.00  0.00     0.002 A 
ATOM     67  C   UNL A   1      38.037  32.287  37.530  1.00  0.00     0.091 A 
ATOM     68  F   UNL A   1      38.237  30.122  36.548  1.00  0.00    -0.205 F 
ATOM     69  C   UNL A   1      38.353  33.655  37.502  1.00  0.00     0.022 A 
BRANCH  67  70
ATOM     70  S   UNL A   1      37.016  31.718  38.894  1.00  0.00     0.127 S 
ATOM     71  O   UNL A   1      36.769  30.326  38.516  1.00  0.00    -0.237 OA
ATOM     72  O   UNL A   1      37.911  31.888  40.039  1.00  0.00    -0.237 OA
ATOM     73  O   UNL A   1      35.843  32.580  38.906  1.00  0.00    -0.744 OA
ENDBRANCH  67  70
ENDBRANCH  49  63
BRANCH  50  74
ATOM     74  C   UNL A   1      42.051  26.622  27.487  1.00  0.00     0.023 A 
ATOM     75  C   UNL A   1      42.745  27.285  26.457  1.00  0.00     0.012 A 
ATOM     76  C   UNL A   1      41.824  25.236  27.381  1.00  0.00     0.148 A 
ATOM     77  C   UNL A   1      43.177  26.590  25.328  1.00  0.00     0.002 A 
ATOM     78  C   UNL A   1      42.304  24.539  26.279  1.00  0.00     0.091 A 
ATOM     79  F   UNL A   1      41.156  24.625  28.369  1.00  0.00    -0.205 F 
ATOM     80  C   UNL A   1      42.966  25.216  25.243  1.00  0.00     0.022 A 
BRANCH  78  81
ATOM     81  S   UNL A   1      42.189  22.752  26.139  1.00  0.00     0.127 S 
ATOM     82  O   UNL A   1      42.865  22.507  24.868  1.00  0.00    -0.237 OA
ATOM     83  O   UNL A   1      42.927  22.312  27.324  1.00  0.00    -0.237 OA
ATOM     84  O   UNL A   1      40.766  22.444  26.166  1.00  0.00    -0.744 OA
ENDBRANCH  78  81
ENDBRANCH  50  74
BRANCH  62  85
ATOM     85  C   UNL A   1      44.541  27.334  33.974  1.00  0.00     0.023 A 
ATOM     86  C   UNL A   1      45.792  27.981  33.927  1.00  0.00     0.012 A 
ATOM     87  C   UNL A   1      44.394  26.167  34.751  1.00  0.00     0.148 A 
ATOM     88  C   UNL A   1      46.886  27.456  34.613  1.00  0.00     0.002 A 
ATOM     89  C   UNL A   1      45.475  25.680  35.475  1.00  0.00     0.091 A 
ATOM     90  F   UNL A   1      43.201  25.557  34.769  1.00  0.00    -0.205 F 
ATOM     91  C   UNL A   1      46.726  26.315  35.396  1.00  0.00     0.022 A 
BRANCH  89  92
ATOM     92  S   UNL A   1      45.337  24.277  36.588  1.00  0.00     0.127 S 
ATOM     93  O   UNL A   1      46.717  24.121  37.042  1.00  0.00    -0.237 OA
ATOM     94  O   UNL A   1      44.412  24.779  37.604  1.00  0.00    -0.237 OA
ATOM     95  O   UNL A   1      44.816  23.178  35.786  1.00  0.00    -0.744 OA
ENDBRANCH  89  92
ENDBRANCH  62  85
ENDBRANCH  36  37
ENDBRANCH  28  31
ENDBRANCH  26  27
ENDBRANCH   1  26
TORSDOF 16
ENDMDL
MODEL 3
REMARK VINA RESULT:     -11.9      6.431     11.825
REMARK SMILES CCC1(C(=O)NCCCNC(=O)c2ccc(-c3c4nc(c(-c5cccc(S(=O)(=O)[O-])c5F)c5ccc([nH]5)c(-c5cccc(S(=O)(=O)[O-])c5F)c5nc(c(-c6cccc(S(=O)(=O)[O-])c6F)c6ccc3[nH]6)C=C5)C=C4)cc2)CCN(C(=O)C[C@H]2CSCC[NH2+]2)CC1
REMARK SMILES IDX 8 1 7 2 6 3 4 4 5 5 3 7 76 8 89 9 77 10 88 11 78 12 79 13
REMARK SMILES IDX 80 14 2 15 1 16 81 17 82 18 83 19 87 20 84 21 86 22 85 25
REMARK SMILES IDX 9 26 10 27 11 28 12 30 13 31 14 32 75 33 15 34 74 35 16 36
REMARK SMILES IDX 17 37 18 38 68 39 19 40 73 41 67 42 69 43 20 44 72 45 66 46
REMARK SMILES IDX 65 47 21 49 53 50 33 51 52 52 34 53 37 54 51 55 70 56 35 57
REMARK SMILES IDX 36 58 50 60 71 61 38 62 22 63 23 64 31 65 24 66 26 67 32 68
REMARK SMILES IDX 25 69 27 70 28 71 29 72 30 73 54 74 55 75 63 76 56 77 58 78
REMARK SMILES IDX 64 79 57 80 59 81 60 82 61 83 62 84 39 85 40 86 48 87 41 88
REMARK SMILES IDX 43 89 49 90 42 91 44 92 45 93 46 94 47 95
REMARK H PARENT 6 6 87 23 87 24 10 29 69 48 37 59
REMARK Flexibility Score: inf
ROOT
ATOM      1  C   UNL A   1      37.846  19.663  25.019  1.00  0.00     0.042 C 
ENDROOT
BRANCH   1   2
ATOM      2  C   UNL A   1      36.565  20.424  25.337  1.00  0.00     0.117 C 
BRANCH   2   3
ATOM      3  N   UNL A   1      36.830  21.757  25.860  1.00  0.00    -0.356 N 
ATOM      4  C   UNL A   1      36.175  22.945  25.740  1.00  0.00     0.226 C 
ATOM      5  O   UNL A   1      36.632  23.875  26.412  1.00  0.00    -0.274 OA
ATOM      6  H   UNL A   1      37.645  21.811  26.411  1.00  0.00     0.163 HD
BRANCH   4   7
ATOM      7  C   UNL A   1      34.902  23.112  24.878  1.00  0.00     0.052 C 
ATOM      8  C   UNL A   1      33.763  22.192  25.395  1.00  0.00     0.038 C 
ATOM      9  C   UNL A   1      34.516  24.630  24.909  1.00  0.00     0.038 C 
ATOM     10  C   UNL A   1      32.381  22.628  24.934  1.00  0.00     0.120 C 
ATOM     11  C   UNL A   1      33.086  24.911  24.436  1.00  0.00     0.120 C 
ATOM     12  N   UNL A   1      32.171  24.052  25.165  1.00  0.00    -0.342 N 
ATOM     13  C   UNL A   1      31.395  24.460  26.242  1.00  0.00     0.228 C 
ATOM     14  O   UNL A   1      31.181  23.725  27.205  1.00  0.00    -0.275 OA
BRANCH   7  15
ATOM     15  C   UNL A   1      35.235  22.773  23.381  1.00  0.00     0.013 C 
ATOM     16  C   UNL A   1      36.637  23.114  22.878  1.00  0.00     0.005 C 
ENDBRANCH   7  15
BRANCH  13  17
ATOM     17  C   UNL A   1      30.682  25.798  26.124  1.00  0.00     0.166 C 
BRANCH  17  18
ATOM     18  C   UNL A   1      31.542  27.073  26.170  1.00  0.00     0.201 C 
ATOM     19  C   UNL A   1      31.169  27.904  24.915  1.00  0.00     0.135 C 
ATOM     20  N   UNL A   1      31.303  27.827  27.417  1.00  0.00    -0.342 N 
ATOM     21  S   UNL A   1      32.111  29.451  24.756  1.00  0.00    -0.150 SA
ATOM     22  C   UNL A   1      32.108  29.056  27.496  1.00  0.00     0.271 C 
ATOM     23  H   UNL A   1      31.539  27.230  28.210  1.00  0.00     0.346 HD
ATOM     24  H   UNL A   1      30.320  28.099  27.432  1.00  0.00     0.346 HD
ATOM     25  C   UNL A   1      31.758  30.091  26.421  1.00  0.00     0.131 C 
ENDBRANCH  17  18
ENDBRANCH  13  17
ENDBRANCH   4   7
ENDBRANCH   2   3
ENDBRANCH   1   2
BRANCH   1  26
ATOM     26  C   UNL A   1      39.081  20.226  25.708  1.00  0.00     0.118 C 
BRANCH  26  27
ATOM     27  N   UNL A   1      40.114  19.218  25.921  1.00  0.00    -0.352 N 
ATOM     28  C   UNL A   1      41.462  19.369  26.131  1.00  0.00     0.251 C 
ATOM     29  H   UNL A   1      39.795  18.286  25.913  1.00  0.00     0.163 HD
ATOM     30  O   UNL A   1      42.198  18.384  26.074  1.00  0.00    -0.269 OA
BRANCH  28  31
ATOM     31  C   UNL A   1      42.027  20.704  26.410  1.00  0.00     0.039 A 
ATOM     32  C   UNL A   1      42.298  21.566  25.345  1.00  0.00     0.014 A 
ATOM     33  C   UNL A   1      42.296  21.106  27.720  1.00  0.00     0.014 A 
ATOM     34  C   UNL A   1      42.774  22.854  25.602  1.00  0.00     0.010 A 
ATOM     35  C   UNL A   1      42.672  22.418  27.979  1.00  0.00     0.010 A 
ATOM     36  C   UNL A   1      42.927  23.305  26.924  1.00  0.00    -0.014 A 
BRANCH  36  37
ATOM     37  C   UNL A   1      43.348  24.697  27.225  1.00  0.00     0.031 A 
ATOM     38  C   UNL A   1      42.388  25.657  27.875  1.00  0.00     0.074 A 
ATOM     39  C   UNL A   1      44.565  25.124  26.831  1.00  0.00     0.049 A 
ATOM     40  N   UNL A   1      42.554  26.922  28.163  1.00  0.00    -0.248 NA
ATOM     41  C   UNL A   1      41.054  25.136  28.221  1.00  0.00     0.031 C 
ATOM     42  C   UNL A   1      45.555  24.316  26.117  1.00  0.00     0.029 A 
ATOM     43  N   UNL A   1      45.164  26.353  26.951  1.00  0.00    -0.354 N 
ATOM     44  C   UNL A   1      41.340  27.356  28.683  1.00  0.00     0.074 A 
ATOM     45  C   UNL A   1      40.433  26.231  28.634  1.00  0.00     0.031 C 
ATOM     46  C   UNL A   1      46.644  25.063  25.877  1.00  0.00     0.029 A 
ATOM     47  C   UNL A   1      46.416  26.413  26.382  1.00  0.00     0.049 A 
ATOM     48  H   UNL A   1      44.741  27.118  27.402  1.00  0.00     0.167 HD
ATOM     49  C   UNL A   1      41.017  28.571  29.185  1.00  0.00     0.034 A 
ATOM     50  C   UNL A   1      47.280  27.441  26.273  1.00  0.00     0.034 A 
ATOM     51  C   UNL A   1      41.932  29.677  29.265  1.00  0.00     0.049 A 
ATOM     52  C   UNL A   1      46.909  28.772  26.866  1.00  0.00     0.074 A 
ATOM     53  C   UNL A   1      41.732  30.920  29.837  1.00  0.00     0.029 A 
ATOM     54  N   UNL A   1      43.218  29.678  28.746  1.00  0.00    -0.354 N 
ATOM     55  N   UNL A   1      45.812  29.120  27.496  1.00  0.00    -0.248 NA
ATOM     56  C   UNL A   1      47.909  29.845  26.764  1.00  0.00     0.031 C 
ATOM     57  C   UNL A   1      42.885  31.686  29.632  1.00  0.00     0.029 A 
ATOM     58  C   UNL A   1      43.819  30.905  28.969  1.00  0.00     0.049 A 
ATOM     59  H   UNL A   1      43.642  28.918  28.286  1.00  0.00     0.167 HD
ATOM     60  C   UNL A   1      46.005  30.437  27.899  1.00  0.00     0.074 A 
ATOM     61  C   UNL A   1      47.331  30.817  27.457  1.00  0.00     0.031 C 
ATOM     62  C   UNL A   1      45.157  31.258  28.565  1.00  0.00     0.034 A 
BRANCH  49  63
ATOM     63  C   UNL A   1      39.621  28.755  29.725  1.00  0.00     0.023 A 
ATOM     64  C   UNL A   1      39.312  28.317  31.031  1.00  0.00     0.012 A 
ATOM     65  C   UNL A   1      38.625  29.396  28.961  1.00  0.00     0.148 A 
ATOM     66  C   UNL A   1      38.027  28.471  31.549  1.00  0.00     0.002 A 
ATOM     67  C   UNL A   1      37.361  29.592  29.504  1.00  0.00     0.091 A 
ATOM     68  F   UNL A   1      38.929  29.788  27.715  1.00  0.00    -0.205 F 
ATOM     69  C   UNL A   1      37.056  29.116  30.790  1.00  0.00     0.022 A 
BRANCH  67  70
ATOM     70  S   UNL A   1      36.065  30.487  28.641  1.00  0.00     0.127 S 
ATOM     71  O   UNL A   1      35.243  29.391  28.125  1.00  0.00    -0.237 OA
ATOM     72  O   UNL A   1      35.446  31.252  29.724  1.00  0.00    -0.237 OA
ATOM     73  O   UNL A   1      36.736  31.293  27.632  1.00  0.00    -0.744 OA
ENDBRANCH  67  70
ENDBRANCH  49  63
BRANCH  50  74
ATOM     74  C   UNL A   1      48.608  27.230  25.631  1.00  0.00     0.023 A 
ATOM     75  C   UNL A   1      49.686  26.763  26.407  1.00  0.00     0.012 A 
ATOM     76  C   UNL A   1      48.801  27.458  24.255  1.00  0.00     0.148 A 
ATOM     77  C   UNL A   1      50.940  26.558  25.833  1.00  0.00     0.002 A 
ATOM     78  C   UNL A   1      50.038  27.199  23.678  1.00  0.00     0.091 A 
ATOM     79  F   UNL A   1      47.763  27.908  23.535  1.00  0.00    -0.205 F 
ATOM     80  C   UNL A   1      51.114  26.765  24.467  1.00  0.00     0.022 A 
BRANCH  78  81
ATOM     81  S   UNL A   1      50.324  27.318  21.909  1.00  0.00     0.127 S 
ATOM     82  O   UNL A   1      50.172  28.753  21.676  1.00  0.00    -0.237 OA
ATOM     83  O   UNL A   1      51.693  26.817  21.793  1.00  0.00    -0.237 OA
ATOM     84  O   UNL A   1      49.317  26.470  21.286  1.00  0.00    -0.744 OA
ENDBRANCH  78  81
ENDBRANCH  50  74
BRANCH  62  85
ATOM     85  C   UNL A   1      45.644  32.643  28.902  1.00  0.00     0.023 A 
ATOM     86  C   UNL A   1      46.396  32.861  30.075  1.00  0.00     0.012 A 
ATOM     87  C   UNL A   1      45.417  33.715  28.017  1.00  0.00     0.148 A 
ATOM     88  C   UNL A   1      46.881  34.133  30.378  1.00  0.00     0.002 A 
ATOM     89  C   UNL A   1      45.950  34.967  28.298  1.00  0.00     0.091 A 
ATOM     90  F   UNL A   1      44.686  33.491  26.916  1.00  0.00    -0.205 F 
ATOM     91  C   UNL A   1      46.669  35.182  29.485  1.00  0.00     0.022 A 
BRANCH  89  92
ATOM     92  S   UNL A   1      45.815  36.351  27.161  1.00  0.00     0.127 S 
ATOM     93  O   UNL A   1      46.543  37.397  27.876  1.00  0.00    -0.237 OA
ATOM     94  O   UNL A   1      46.494  35.838  25.970  1.00  0.00    -0.237 OA
ATOM     95  O   UNL A   1      44.388  36.591  26.987  1.00  0.00    -0.744 OA
ENDBRANCH  89  92
ENDBRANCH  62  85
ENDBRANCH  36  37
ENDBRANCH  28  31
ENDBRANCH  26  27
ENDBRANCH   1  26
TORSDOF 16
ENDMDL
