MODEL 1
REMARK VINA RESULT:     -12.9      0.000      0.000
REMARK SMILES O=C(NCCCNC(=O)c1cccc2c1N[C@H](c1ccccc1Br)[C@H]1CC=C[C@H]21)c1ccc(-c2c3nc(c(-c4cccc(S(=O)(=O)[O-])c4F)c4ccc([nH]4)c(-c4cccc(S(=O)(=O)[O-])c4F)c4nc(c(-c5cccc(S(=O)(=O)[O-])c5F)c5ccc2[nH]5)C=C4)C=C3)cc1
REMARK SMILES IDX 4 1 3 2 1 3 2 4 30 6 31 7 92 8 32 9 91 10 33 11 34 12 35 13
REMARK SMILES IDX 85 14 36 15 90 16 84 17 86 18 37 19 89 20 83 21 82 22 38 24
REMARK SMILES IDX 70 25 50 26 69 27 51 28 54 29 68 30 87 31 52 32 53 33 67 35
REMARK SMILES IDX 88 36 55 37 39 38 40 39 48 40 41 41 43 42 49 43 42 44 44 45
REMARK SMILES IDX 45 46 46 47 47 48 71 49 72 50 80 51 73 52 75 53 81 54 74 55
REMARK SMILES IDX 76 56 77 57 78 58 79 59 56 60 57 61 65 62 58 63 60 64 66 65
REMARK SMILES IDX 59 66 61 67 62 68 63 69 64 70 5 71 6 72 7 73 8 74 9 76 10 77
REMARK SMILES IDX 11 78 15 79 12 80 14 81 16 82 13 83 29 84 17 85 25 87 28 88
REMARK SMILES IDX 26 89 27 90 18 91 19 92 23 93 20 94 22 95 24 96 21 97
REMARK H PARENT 3 5 86 23 54 34 7 75 16 86
REMARK Flexibility Score: inf
ROOT
ATOM      1  C   UNL A   1      35.881  22.281  25.738  1.00  0.00     0.118 C 
ENDROOT
BRANCH   1   2
ATOM      2  N   UNL A   1      36.835  21.183  25.645  1.00  0.00    -0.352 N 
ATOM      3  O   UNL A   1      38.830  20.164  25.456  1.00  0.00    -0.269 OA
ATOM      4  C   UNL A   1      38.204  21.180  25.751  1.00  0.00     0.251 C 
ATOM      5  H   UNL A   1      36.433  20.299  25.481  1.00  0.00     0.163 HD
BRANCH   4   6
ATOM      6  C   UNL A   1      38.928  22.388  26.206  1.00  0.00     0.039 A 
ATOM      7  C   UNL A   1      38.522  23.640  25.731  1.00  0.00     0.014 A 
ATOM      8  C   UNL A   1      40.031  22.295  27.058  1.00  0.00     0.014 A 
ATOM      9  C   UNL A   1      39.201  24.792  26.137  1.00  0.00     0.010 A 
ATOM     10  C   UNL A   1      40.631  23.446  27.550  1.00  0.00     0.010 A 
ATOM     11  C   UNL A   1      40.254  24.704  27.061  1.00  0.00    -0.014 A 
BRANCH  11  12
ATOM     12  C   UNL A   1      41.053  25.889  27.458  1.00  0.00     0.031 A 
ATOM     13  C   UNL A   1      40.410  26.958  28.302  1.00  0.00     0.074 A 
ATOM     14  C   UNL A   1      42.314  26.045  27.011  1.00  0.00     0.049 A 
ATOM     15  N   UNL A   1      40.874  28.131  28.643  1.00  0.00    -0.248 NA
ATOM     16  C   UNL A   1      39.046  26.690  28.796  1.00  0.00     0.031 C 
ATOM     17  C   UNL A   1      43.032  25.108  26.147  1.00  0.00     0.029 A 
ATOM     18  N   UNL A   1      43.208  27.066  27.214  1.00  0.00    -0.354 N 
ATOM     19  C   UNL A   1      39.844  28.757  29.335  1.00  0.00     0.074 A 
ATOM     20  C   UNL A   1      38.718  27.851  29.341  1.00  0.00     0.031 C 
ATOM     21  C   UNL A   1      44.264  25.589  25.908  1.00  0.00     0.029 A 
ATOM     22  C   UNL A   1      44.410  26.880  26.575  1.00  0.00     0.049 A 
ATOM     23  H   UNL A   1      43.007  27.857  27.763  1.00  0.00     0.167 HD
ATOM     24  C   UNL A   1      39.845  29.961  29.948  1.00  0.00     0.034 A 
ATOM     25  C   UNL A   1      45.507  27.662  26.532  1.00  0.00     0.034 A 
ATOM     26  C   UNL A   1      40.994  30.816  30.034  1.00  0.00     0.049 A 
ATOM     27  C   UNL A   1      45.508  28.969  27.276  1.00  0.00     0.074 A 
ATOM     28  C   UNL A   1      41.126  32.010  30.718  1.00  0.00     0.029 A 
ATOM     29  N   UNL A   1      42.215  30.555  29.435  1.00  0.00    -0.354 N 
ATOM     30  N   UNL A   1      44.557  29.501  28.004  1.00  0.00    -0.248 NA
ATOM     31  C   UNL A   1      46.736  29.775  27.208  1.00  0.00     0.031 C 
ATOM     32  C   UNL A   1      42.433  32.470  30.537  1.00  0.00     0.029 A 
ATOM     33  C   UNL A   1      43.111  31.563  29.738  1.00  0.00     0.049 A 
ATOM     34  H   UNL A   1      42.416  29.769  28.877  1.00  0.00     0.167 HD
ATOM     35  C   UNL A   1      45.073  30.694  28.494  1.00  0.00     0.074 A 
ATOM     36  C   UNL A   1      46.429  30.799  27.995  1.00  0.00     0.031 C 
ATOM     37  C   UNL A   1      44.471  31.626  29.271  1.00  0.00     0.034 A 
BRANCH  24  38
ATOM     38  C   UNL A   1      38.588  30.388  30.652  1.00  0.00     0.023 A 
ATOM     39  C   UNL A   1      38.422  30.066  32.014  1.00  0.00     0.012 A 
ATOM     40  C   UNL A   1      37.606  31.151  29.992  1.00  0.00     0.148 A 
ATOM     41  C   UNL A   1      37.284  30.477  32.705  1.00  0.00     0.002 A 
ATOM     42  C   UNL A   1      36.491  31.586  30.697  1.00  0.00     0.091 A 
ATOM     43  F   UNL A   1      37.779  31.427  28.692  1.00  0.00    -0.205 F 
ATOM     44  C   UNL A   1      36.325  31.245  32.050  1.00  0.00     0.022 A 
BRANCH  42  45
ATOM     45  S   UNL A   1      35.219  32.623  29.966  1.00  0.00     0.127 S 
ATOM     46  O   UNL A   1      34.702  31.754  28.909  1.00  0.00    -0.237 OA
ATOM     47  O   UNL A   1      34.306  32.827  31.090  1.00  0.00    -0.237 OA
ATOM     48  O   UNL A   1      35.896  33.825  29.501  1.00  0.00    -0.744 OA
ENDBRANCH  42  45
ENDBRANCH  24  38
BRANCH  25  49
ATOM     49  C   UNL A   1      46.720  27.177  25.821  1.00  0.00     0.023 A 
ATOM     50  C   UNL A   1      47.516  26.191  26.435  1.00  0.00     0.012 A 
ATOM     51  C   UNL A   1      47.043  27.619  24.524  1.00  0.00     0.148 A 
ATOM     52  C   UNL A   1      48.621  25.657  25.771  1.00  0.00     0.002 A 
ATOM     53  C   UNL A   1      48.123  27.056  23.854  1.00  0.00     0.091 A 
ATOM     54  F   UNL A   1      46.266  28.557  23.965  1.00  0.00    -0.205 F 
ATOM     55  C   UNL A   1      48.919  26.082  24.479  1.00  0.00     0.022 A 
BRANCH  53  56
ATOM     56  S   UNL A   1      48.532  27.462  22.153  1.00  0.00     0.127 S 
ATOM     57  O   UNL A   1      49.767  28.227  22.316  1.00  0.00    -0.237 OA
ATOM     58  O   UNL A   1      48.703  26.134  21.565  1.00  0.00    -0.237 OA
ATOM     59  O   UNL A   1      47.397  28.215  21.639  1.00  0.00    -0.744 OA
ENDBRANCH  53  56
ENDBRANCH  25  49
BRANCH  37  60
ATOM     60  C   UNL A   1      45.256  32.853  29.641  1.00  0.00     0.023 A 
ATOM     61  C   UNL A   1      46.073  32.821  30.786  1.00  0.00     0.012 A 
ATOM     62  C   UNL A   1      45.295  33.971  28.786  1.00  0.00     0.148 A 
ATOM     63  C   UNL A   1      46.918  33.890  31.081  1.00  0.00     0.002 A 
ATOM     64  C   UNL A   1      46.163  35.018  29.068  1.00  0.00     0.091 A 
ATOM     65  F   UNL A   1      44.500  33.976  27.706  1.00  0.00    -0.205 F 
ATOM     66  C   UNL A   1      46.973  34.980  30.216  1.00  0.00     0.022 A 
BRANCH  64  67
ATOM     67  S   UNL A   1      46.363  36.431  27.976  1.00  0.00     0.127 S 
ATOM     68  O   UNL A   1      46.945  35.808  26.788  1.00  0.00    -0.237 OA
ATOM     69  O   UNL A   1      44.985  36.892  27.811  1.00  0.00    -0.237 OA
ATOM     70  O   UNL A   1      47.236  37.363  28.678  1.00  0.00    -0.744 OA
ENDBRANCH  64  67
ENDBRANCH  37  60
ENDBRANCH  11  12
ENDBRANCH   4   6
ENDBRANCH   1   2
BRANCH   1  71
ATOM     71  C   UNL A   1      35.310  22.451  27.134  1.00  0.00     0.042 C 
BRANCH  71  72
ATOM     72  C   UNL A   1      34.223  21.453  27.473  1.00  0.00     0.118 C 
BRANCH  72  73
ATOM     73  N   UNL A   1      32.949  22.078  27.803  1.00  0.00    -0.352 N 
ATOM     74  C   UNL A   1      31.993  22.572  26.947  1.00  0.00     0.253 C 
ATOM     75  H   UNL A   1      32.746  22.158  28.763  1.00  0.00     0.163 HD
ATOM     76  O   UNL A   1      30.999  23.134  27.386  1.00  0.00    -0.269 OA
BRANCH  74  77
ATOM     77  C   UNL A   1      32.187  22.440  25.487  1.00  0.00     0.063 A 
ATOM     78  C   UNL A   1      31.790  21.225  24.916  1.00  0.00     0.016 A 
ATOM     79  C   UNL A   1      32.712  23.484  24.698  1.00  0.00     0.051 A 
ATOM     80  C   UNL A   1      31.868  21.048  23.538  1.00  0.00     0.001 A 
ATOM     81  C   UNL A   1      32.751  23.299  23.297  1.00  0.00    -0.017 A 
ATOM     82  N   UNL A   1      33.112  24.699  25.255  1.00  0.00    -0.377 N 
ATOM     83  C   UNL A   1      32.345  22.081  22.730  1.00  0.00     0.006 A 
ATOM     84  C   UNL A   1      33.314  24.436  22.492  1.00  0.00     0.049 C 
ATOM     85  C   UNL A   1      33.321  25.940  24.491  1.00  0.00     0.115 C 
ATOM     86  H   UNL A   1      33.266  24.729  26.227  1.00  0.00     0.161 HD
ATOM     87  C   UNL A   1      32.768  25.751  23.083  1.00  0.00     0.031 C 
ATOM     88  C   UNL A   1      32.944  24.640  21.053  1.00  0.00    -0.023 C 
ATOM     89  C   UNL A   1      33.115  26.779  22.010  1.00  0.00     0.034 C 
ATOM     90  C   UNL A   1      32.874  25.952  20.777  1.00  0.00    -0.030 C 
BRANCH  85  91
ATOM     91  C   UNL A   1      32.877  27.114  25.374  1.00  0.00    -0.011 A 
ATOM     92  C   UNL A   1      33.930  27.996  25.752  1.00  0.00     0.007 A 
ATOM     93  C   UNL A   1      31.606  27.401  25.911  1.00  0.00     0.023 A 
ATOM     94  C   UNL A   1      33.730  29.097  26.589  1.00  0.00     0.000 A 
ATOM     95  C   UNL A   1      31.408  28.536  26.724  1.00  0.00     0.016 A 
ATOM     96  Br  UNL A   1      30.046  26.330  25.748  1.00  0.00    -0.050 Br
ATOM     97  C   UNL A   1      32.461  29.376  27.065  1.00  0.00     0.001 A 
ENDBRANCH  85  91
ENDBRANCH  74  77
ENDBRANCH  72  73
ENDBRANCH  71  72
ENDBRANCH   1  71
TORSDOF 14
ENDMDL
MODEL 2
REMARK VINA RESULT:     -12.6      0.842      7.439
REMARK SMILES O=C(NCCCNC(=O)c1cccc2c1N[C@H](c1ccccc1Br)[C@H]1CC=C[C@H]21)c1ccc(-c2c3nc(c(-c4cccc(S(=O)(=O)[O-])c4F)c4ccc([nH]4)c(-c4cccc(S(=O)(=O)[O-])c4F)c4nc(c(-c5cccc(S(=O)(=O)[O-])c5F)c5ccc2[nH]5)C=C4)C=C3)cc1
REMARK SMILES IDX 4 1 3 2 1 3 2 4 30 6 31 7 92 8 32 9 91 10 33 11 34 12 35 13
REMARK SMILES IDX 85 14 36 15 90 16 84 17 86 18 37 19 89 20 83 21 82 22 38 24
REMARK SMILES IDX 70 25 50 26 69 27 51 28 54 29 68 30 87 31 52 32 53 33 67 35
REMARK SMILES IDX 88 36 55 37 39 38 40 39 48 40 41 41 43 42 49 43 42 44 44 45
REMARK SMILES IDX 45 46 46 47 47 48 71 49 72 50 80 51 73 52 75 53 81 54 74 55
REMARK SMILES IDX 76 56 77 57 78 58 79 59 56 60 57 61 65 62 58 63 60 64 66 65
REMARK SMILES IDX 59 66 61 67 62 68 63 69 64 70 5 71 6 72 7 73 8 74 9 76 10 77
REMARK SMILES IDX 11 78 15 79 12 80 14 81 16 82 13 83 29 84 17 85 25 87 28 88
REMARK SMILES IDX 26 89 27 90 18 91 19 92 23 93 20 94 22 95 24 96 21 97
REMARK H PARENT 3 5 86 23 54 34 7 75 16 86
REMARK Flexibility Score: inf
ROOT
ATOM      1  C   UNL A   1      36.724  22.281  25.380  1.00  0.00     0.118 C 
ENDROOT
BRANCH   1   2
ATOM      2  N   UNL A   1      37.745  21.288  25.690  1.00  0.00    -0.352 N 
ATOM      3  O   UNL A   1      39.788  20.471  26.148  1.00  0.00    -0.269 OA
ATOM      4  C   UNL A   1      39.038  21.444  26.125  1.00  0.00     0.251 C 
ATOM      5  H   UNL A   1      37.462  20.352  25.568  1.00  0.00     0.163 HD
BRANCH   4   6
ATOM      6  C   UNL A   1      39.535  22.770  26.554  1.00  0.00     0.039 A 
ATOM      7  C   UNL A   1      39.092  23.911  25.876  1.00  0.00     0.014 A 
ATOM      8  C   UNL A   1      40.468  22.897  27.585  1.00  0.00     0.014 A 
ATOM      9  C   UNL A   1      39.560  25.172  26.256  1.00  0.00     0.010 A 
ATOM     10  C   UNL A   1      40.843  24.155  28.037  1.00  0.00     0.010 A 
ATOM     11  C   UNL A   1      40.430  25.304  27.349  1.00  0.00    -0.014 A 
BRANCH  11  12
ATOM     12  C   UNL A   1      41.013  26.611  27.737  1.00  0.00     0.031 A 
ATOM     13  C   UNL A   1      42.455  26.898  27.404  1.00  0.00     0.074 A 
ATOM     14  C   UNL A   1      40.290  27.502  28.441  1.00  0.00     0.049 A 
ATOM     15  N   UNL A   1      43.201  27.907  27.768  1.00  0.00    -0.248 NA
ATOM     16  C   UNL A   1      43.163  25.896  26.585  1.00  0.00     0.031 C 
ATOM     17  C   UNL A   1      38.903  27.323  28.870  1.00  0.00     0.029 A 
ATOM     18  N   UNL A   1      40.636  28.736  28.935  1.00  0.00    -0.354 N 
ATOM     19  C   UNL A   1      44.471  27.633  27.276  1.00  0.00     0.074 A 
ATOM     20  C   UNL A   1      44.407  26.350  26.613  1.00  0.00     0.031 C 
ATOM     21  C   UNL A   1      38.509  28.415  29.547  1.00  0.00     0.029 A 
ATOM     22  C   UNL A   1      39.624  29.355  29.627  1.00  0.00     0.049 A 
ATOM     23  H   UNL A   1      41.525  29.137  28.806  1.00  0.00     0.167 HD
ATOM     24  C   UNL A   1      45.584  28.398  27.331  1.00  0.00     0.034 A 
ATOM     25  C   UNL A   1      39.598  30.548  30.255  1.00  0.00     0.034 A 
ATOM     26  C   UNL A   1      45.623  29.717  27.894  1.00  0.00     0.049 A 
ATOM     27  C   UNL A   1      40.830  31.410  30.248  1.00  0.00     0.074 A 
ATOM     28  C   UNL A   1      46.677  30.611  27.909  1.00  0.00     0.029 A 
ATOM     29  N   UNL A   1      44.555  30.337  28.519  1.00  0.00    -0.354 N 
ATOM     30  N   UNL A   1      41.994  31.175  29.695  1.00  0.00    -0.248 NA
ATOM     31  C   UNL A   1      40.740  32.707  30.934  1.00  0.00     0.031 C 
ATOM     32  C   UNL A   1      46.242  31.780  28.541  1.00  0.00     0.029 A 
ATOM     33  C   UNL A   1      44.921  31.608  28.921  1.00  0.00     0.049 A 
ATOM     34  H   UNL A   1      43.668  29.933  28.658  1.00  0.00     0.167 HD
ATOM     35  C   UNL A   1      42.772  32.297  29.951  1.00  0.00     0.074 A 
ATOM     36  C   UNL A   1      41.940  33.222  30.695  1.00  0.00     0.031 C 
ATOM     37  C   UNL A   1      44.064  32.532  29.617  1.00  0.00     0.034 A 
BRANCH  24  38
ATOM     38  C   UNL A   1      46.833  27.862  26.688  1.00  0.00     0.023 A 
ATOM     39  C   UNL A   1      47.773  27.175  27.483  1.00  0.00     0.012 A 
ATOM     40  C   UNL A   1      47.049  27.985  25.302  1.00  0.00     0.148 A 
ATOM     41  C   UNL A   1      48.923  26.635  26.911  1.00  0.00     0.002 A 
ATOM     42  C   UNL A   1      48.182  27.415  24.735  1.00  0.00     0.091 A 
ATOM     43  F   UNL A   1      46.150  28.659  24.572  1.00  0.00    -0.205 F 
ATOM     44  C   UNL A   1      49.122  26.746  25.538  1.00  0.00     0.022 A 
BRANCH  42  45
ATOM     45  S   UNL A   1      48.512  27.453  22.970  1.00  0.00     0.127 S 
ATOM     46  O   UNL A   1      49.815  28.115  22.928  1.00  0.00    -0.237 OA
ATOM     47  O   UNL A   1      48.540  26.030  22.632  1.00  0.00    -0.237 OA
ATOM     48  O   UNL A   1      47.418  28.203  22.371  1.00  0.00    -0.744 OA
ENDBRANCH  42  45
ENDBRANCH  24  38
BRANCH  25  49
ATOM     49  C   UNL A   1      38.327  31.020  30.867  1.00  0.00     0.023 A 
ATOM     50  C   UNL A   1      38.166  30.913  32.261  1.00  0.00     0.012 A 
ATOM     51  C   UNL A   1      37.323  31.640  30.099  1.00  0.00     0.148 A 
ATOM     52  C   UNL A   1      37.020  31.410  32.883  1.00  0.00     0.002 A 
ATOM     53  C   UNL A   1      36.200  32.164  30.729  1.00  0.00     0.091 A 
ATOM     54  F   UNL A   1      37.504  31.728  28.774  1.00  0.00    -0.205 F 
ATOM     55  C   UNL A   1      36.043  32.043  32.119  1.00  0.00     0.022 A 
BRANCH  53  56
ATOM     56  S   UNL A   1      34.932  33.085  29.851  1.00  0.00     0.127 S 
ATOM     57  O   UNL A   1      34.410  32.074  28.933  1.00  0.00    -0.237 OA
ATOM     58  O   UNL A   1      34.027  33.455  30.939  1.00  0.00    -0.237 OA
ATOM     59  O   UNL A   1      35.617  34.204  29.220  1.00  0.00    -0.744 OA
ENDBRANCH  53  56
ENDBRANCH  25  49
BRANCH  37  60
ATOM     60  C   UNL A   1      44.680  33.833  30.045  1.00  0.00     0.023 A 
ATOM     61  C   UNL A   1      45.423  33.876  31.240  1.00  0.00     0.012 A 
ATOM     62  C   UNL A   1      44.646  34.961  29.203  1.00  0.00     0.148 A 
ATOM     63  C   UNL A   1      46.122  35.029  31.595  1.00  0.00     0.002 A 
ATOM     64  C   UNL A   1      45.371  36.095  29.546  1.00  0.00     0.091 A 
ATOM     65  F   UNL A   1      43.924  34.892  28.074  1.00  0.00    -0.205 F 
ATOM     66  C   UNL A   1      46.107  36.131  30.743  1.00  0.00     0.022 A 
BRANCH  64  67
ATOM     67  S   UNL A   1      45.478  37.536  28.479  1.00  0.00     0.127 S 
ATOM     68  O   UNL A   1      46.469  38.352  29.180  1.00  0.00    -0.237 OA
ATOM     69  O   UNL A   1      45.944  36.956  27.220  1.00  0.00    -0.237 OA
ATOM     70  O   UNL A   1      44.135  38.100  28.427  1.00  0.00    -0.744 OA
ENDBRANCH  64  67
ENDBRANCH  37  60
ENDBRANCH  11  12
ENDBRANCH   4   6
ENDBRANCH   1   2
BRANCH   1  71
ATOM     71  C   UNL A   1      35.820  22.586  26.560  1.00  0.00     0.042 C 
BRANCH  71  72
ATOM     72  C   UNL A   1      34.883  21.451  26.918  1.00  0.00     0.118 C 
BRANCH  72  73
ATOM     73  N   UNL A   1      33.588  21.904  27.407  1.00  0.00    -0.352 N 
ATOM     74  C   UNL A   1      32.505  22.339  26.680  1.00  0.00     0.253 C 
ATOM     75  H   UNL A   1      33.472  21.898  28.384  1.00  0.00     0.163 HD
ATOM     76  O   UNL A   1      31.504  22.755  27.246  1.00  0.00    -0.269 OA
BRANCH  74  77
ATOM     77  C   UNL A   1      32.568  22.325  25.202  1.00  0.00     0.063 A 
ATOM     78  C   UNL A   1      32.194  21.129  24.577  1.00  0.00     0.016 A 
ATOM     79  C   UNL A   1      32.953  23.455  24.451  1.00  0.00     0.051 A 
ATOM     80  C   UNL A   1      32.153  21.055  23.189  1.00  0.00     0.001 A 
ATOM     81  C   UNL A   1      32.872  23.372  23.042  1.00  0.00    -0.017 A 
ATOM     82  N   UNL A   1      33.330  24.652  25.061  1.00  0.00    -0.377 N 
ATOM     83  C   UNL A   1      32.488  22.172  22.423  1.00  0.00     0.006 A 
ATOM     84  C   UNL A   1      33.288  24.598  22.279  1.00  0.00     0.049 C 
ATOM     85  C   UNL A   1      33.391  25.954  24.379  1.00  0.00     0.115 C 
ATOM     86  H   UNL A   1      33.573  24.622  26.016  1.00  0.00     0.161 HD
ATOM     87  C   UNL A   1      32.721  25.828  23.016  1.00  0.00     0.031 C 
ATOM     88  C   UNL A   1      32.772  24.878  20.900  1.00  0.00    -0.023 C 
ATOM     89  C   UNL A   1      32.903  26.951  21.998  1.00  0.00     0.034 C 
ATOM     90  C   UNL A   1      32.597  26.198  20.732  1.00  0.00    -0.030 C 
BRANCH  85  91
ATOM     91  C   UNL A   1      32.963  27.031  25.385  1.00  0.00    -0.011 A 
ATOM     92  C   UNL A   1      33.975  27.983  25.694  1.00  0.00     0.007 A 
ATOM     93  C   UNL A   1      31.748  27.168  26.088  1.00  0.00     0.023 A 
ATOM     94  C   UNL A   1      33.788  29.012  26.621  1.00  0.00     0.000 A 
ATOM     95  C   UNL A   1      31.557  28.232  26.993  1.00  0.00     0.016 A 
ATOM     96  Br  UNL A   1      30.277  25.968  26.040  1.00  0.00    -0.050 Br
ATOM     97  C   UNL A   1      32.569  29.146  27.262  1.00  0.00     0.001 A 
ENDBRANCH  85  91
ENDBRANCH  74  77
ENDBRANCH  72  73
ENDBRANCH  71  72
ENDBRANCH   1  71
TORSDOF 14
ENDMDL
MODEL 3
REMARK VINA RESULT:     -12.6      5.736     10.584
REMARK SMILES O=C(NCCCNC(=O)c1cccc2c1N[C@H](c1ccccc1Br)[C@H]1CC=C[C@H]21)c1ccc(-c2c3nc(c(-c4cccc(S(=O)(=O)[O-])c4F)c4ccc([nH]4)c(-c4cccc(S(=O)(=O)[O-])c4F)c4nc(c(-c5cccc(S(=O)(=O)[O-])c5F)c5ccc2[nH]5)C=C4)C=C3)cc1
REMARK SMILES IDX 4 1 3 2 1 3 2 4 30 6 31 7 92 8 32 9 91 10 33 11 34 12 35 13
REMARK SMILES IDX 85 14 36 15 90 16 84 17 86 18 37 19 89 20 83 21 82 22 38 24
REMARK SMILES IDX 70 25 50 26 69 27 51 28 54 29 68 30 87 31 52 32 53 33 67 35
REMARK SMILES IDX 88 36 55 37 39 38 40 39 48 40 41 41 43 42 49 43 42 44 44 45
REMARK SMILES IDX 45 46 46 47 47 48 71 49 72 50 80 51 73 52 75 53 81 54 74 55
REMARK SMILES IDX 76 56 77 57 78 58 79 59 56 60 57 61 65 62 58 63 60 64 66 65
REMARK SMILES IDX 59 66 61 67 62 68 63 69 64 70 5 71 6 72 7 73 8 74 9 76 10 77
REMARK SMILES IDX 11 78 15 79 12 80 14 81 16 82 13 83 29 84 17 85 25 87 28 88
REMARK SMILES IDX 26 89 27 90 18 91 19 92 23 93 20 94 22 95 24 96 21 97
REMARK H PARENT 3 5 86 23 54 34 7 75 16 86
REMARK Flexibility Score: inf
ROOT
ATOM      1  C   UNL A   1      32.544  32.067  27.588  1.00  0.00     0.118 C 
ENDROOT
BRANCH   1   2
ATOM      2  N   UNL A   1      32.490  33.519  27.710  1.00  0.00    -0.352 N 
ATOM      3  O   UNL A   1      32.870  35.554  28.584  1.00  0.00    -0.269 OA
ATOM      4  C   UNL A   1      33.208  34.375  28.509  1.00  0.00     0.251 C 
ATOM      5  H   UNL A   1      31.832  33.958  27.123  1.00  0.00     0.163 HD
BRANCH   4   6
ATOM      6  C   UNL A   1      34.371  33.887  29.283  1.00  0.00     0.039 A 
ATOM      7  C   UNL A   1      35.653  34.308  28.916  1.00  0.00     0.014 A 
ATOM      8  C   UNL A   1      34.214  32.983  30.336  1.00  0.00     0.014 A 
ATOM      9  C   UNL A   1      36.767  33.849  29.624  1.00  0.00     0.010 A 
ATOM     10  C   UNL A   1      35.307  32.618  31.110  1.00  0.00     0.010 A 
ATOM     11  C   UNL A   1      36.599  33.009  30.737  1.00  0.00    -0.014 A 
BRANCH  11  12
ATOM     12  C   UNL A   1      37.754  32.433  31.468  1.00  0.00     0.031 A 
ATOM     13  C   UNL A   1      38.529  31.304  30.841  1.00  0.00     0.074 A 
ATOM     14  C   UNL A   1      38.064  32.862  32.707  1.00  0.00     0.049 A 
ATOM     15  N   UNL A   1      39.476  30.565  31.358  1.00  0.00    -0.248 NA
ATOM     16  C   UNL A   1      38.164  30.927  29.463  1.00  0.00     0.031 C 
ATOM     17  C   UNL A   1      37.360  33.912  33.443  1.00  0.00     0.029 A 
ATOM     18  N   UNL A   1      39.047  32.449  33.570  1.00  0.00    -0.354 N 
ATOM     19  C   UNL A   1      39.774  29.608  30.396  1.00  0.00     0.074 A 
ATOM     20  C   UNL A   1      38.890  29.835  29.276  1.00  0.00     0.031 C 
ATOM     21  C   UNL A   1      37.946  34.074  34.642  1.00  0.00     0.029 A 
ATOM     22  C   UNL A   1      39.043  33.120  34.770  1.00  0.00     0.049 A 
ATOM     23  H   UNL A   1      39.692  31.739  33.352  1.00  0.00     0.167 HD
ATOM     24  C   UNL A   1      40.727  28.650  30.422  1.00  0.00     0.034 A 
ATOM     25  C   UNL A   1      39.837  32.980  35.850  1.00  0.00     0.034 A 
ATOM     26  C   UNL A   1      41.675  28.491  31.487  1.00  0.00     0.049 A 
ATOM     27  C   UNL A   1      40.932  31.950  35.831  1.00  0.00     0.074 A 
ATOM     28  C   UNL A   1      42.742  27.615  31.561  1.00  0.00     0.029 A 
ATOM     29  N   UNL A   1      41.683  29.240  32.651  1.00  0.00    -0.354 N 
ATOM     30  N   UNL A   1      41.261  31.118  34.874  1.00  0.00    -0.248 NA
ATOM     31  C   UNL A   1      41.778  31.852  37.030  1.00  0.00     0.031 C 
ATOM     32  C   UNL A   1      43.402  27.839  32.773  1.00  0.00     0.029 A 
ATOM     33  C   UNL A   1      42.742  28.851  33.451  1.00  0.00     0.049 A 
ATOM     34  H   UNL A   1      41.033  29.944  32.877  1.00  0.00     0.167 HD
ATOM     35  C   UNL A   1      42.357  30.407  35.345  1.00  0.00     0.074 A 
ATOM     36  C   UNL A   1      42.651  30.920  36.668  1.00  0.00     0.031 C 
ATOM     37  C   UNL A   1      43.046  29.407  34.744  1.00  0.00     0.034 A 
BRANCH  24  38
ATOM     38  C   UNL A   1      40.849  27.753  29.222  1.00  0.00     0.023 A 
ATOM     39  C   UNL A   1      40.063  26.585  29.157  1.00  0.00     0.012 A 
ATOM     40  C   UNL A   1      41.688  28.090  28.143  1.00  0.00     0.148 A 
ATOM     41  C   UNL A   1      40.126  25.751  28.042  1.00  0.00     0.002 A 
ATOM     42  C   UNL A   1      41.721  27.270  27.022  1.00  0.00     0.091 A 
ATOM     43  F   UNL A   1      42.440  29.195  28.239  1.00  0.00    -0.205 F 
ATOM     44  C   UNL A   1      40.946  26.099  26.973  1.00  0.00     0.022 A 
BRANCH  42  45
ATOM     45  S   UNL A   1      42.701  27.650  25.566  1.00  0.00     0.127 S 
ATOM     46  O   UNL A   1      42.480  26.462  24.743  1.00  0.00    -0.237 OA
ATOM     47  O   UNL A   1      42.056  28.865  25.069  1.00  0.00    -0.237 OA
ATOM     48  O   UNL A   1      44.068  27.831  26.035  1.00  0.00    -0.744 OA
ENDBRANCH  42  45
ENDBRANCH  24  38
BRANCH  25  49
ATOM     49  C   UNL A   1      39.666  33.905  37.003  1.00  0.00     0.023 A 
ATOM     50  C   UNL A   1      40.029  35.256  36.848  1.00  0.00     0.012 A 
ATOM     51  C   UNL A   1      39.078  33.480  38.209  1.00  0.00     0.148 A 
ATOM     52  C   UNL A   1      39.816  36.170  37.880  1.00  0.00     0.002 A 
ATOM     53  C   UNL A   1      38.837  34.403  39.220  1.00  0.00     0.091 A 
ATOM     54  F   UNL A   1      38.741  32.188  38.328  1.00  0.00    -0.205 F 
ATOM     55  C   UNL A   1      39.213  35.747  39.061  1.00  0.00     0.022 A 
BRANCH  53  56
ATOM     56  S   UNL A   1      37.976  33.981  40.739  1.00  0.00     0.127 S 
ATOM     57  O   UNL A   1      38.974  33.171  41.434  1.00  0.00    -0.237 OA
ATOM     58  O   UNL A   1      37.739  35.302  41.322  1.00  0.00    -0.237 OA
ATOM     59  O   UNL A   1      36.772  33.272  40.331  1.00  0.00    -0.744 OA
ENDBRANCH  53  56
ENDBRANCH  25  49
BRANCH  37  60
ATOM     60  C   UNL A   1      44.189  28.784  35.494  1.00  0.00     0.023 A 
ATOM     61  C   UNL A   1      45.472  29.351  35.376  1.00  0.00     0.012 A 
ATOM     62  C   UNL A   1      43.967  27.743  36.416  1.00  0.00     0.148 A 
ATOM     63  C   UNL A   1      46.524  28.885  36.163  1.00  0.00     0.002 A 
ATOM     64  C   UNL A   1      45.012  27.306  37.220  1.00  0.00     0.091 A 
ATOM     65  F   UNL A   1      42.736  27.219  36.501  1.00  0.00    -0.205 F 
ATOM     66  C   UNL A   1      46.291  27.874  37.092  1.00  0.00     0.022 A 
BRANCH  64  67
ATOM     67  S   UNL A   1      44.795  26.064  38.499  1.00  0.00     0.127 S 
ATOM     68  O   UNL A   1      44.011  25.048  37.799  1.00  0.00    -0.237 OA
ATOM     69  O   UNL A   1      46.175  25.676  38.791  1.00  0.00    -0.237 OA
ATOM     70  O   UNL A   1      44.107  26.731  39.597  1.00  0.00    -0.744 OA
ENDBRANCH  64  67
ENDBRANCH  37  60
ENDBRANCH  11  12
ENDBRANCH   4   6
ENDBRANCH   1   2
BRANCH   1  71
ATOM     71  C   UNL A   1      33.931  31.555  27.246  1.00  0.00     0.042 C 
BRANCH  71  72
ATOM     72  C   UNL A   1      33.948  30.120  26.761  1.00  0.00     0.118 C 
BRANCH  72  73
ATOM     73  N   UNL A   1      33.131  29.228  27.571  1.00  0.00    -0.352 N 
ATOM     74  C   UNL A   1      32.045  28.478  27.186  1.00  0.00     0.253 C 
ATOM     75  H   UNL A   1      33.390  29.150  28.518  1.00  0.00     0.163 HD
ATOM     76  O   UNL A   1      31.418  27.825  28.009  1.00  0.00    -0.269 OA
BRANCH  74  77
ATOM     77  C   UNL A   1      31.622  28.486  25.769  1.00  0.00     0.063 A 
ATOM     78  C   UNL A   1      31.152  29.707  25.269  1.00  0.00     0.016 A 
ATOM     79  C   UNL A   1      31.711  27.344  24.947  1.00  0.00     0.051 A 
ATOM     80  C   UNL A   1      30.806  29.820  23.927  1.00  0.00     0.001 A 
ATOM     81  C   UNL A   1      31.387  27.486  23.579  1.00  0.00    -0.017 A 
ATOM     82  N   UNL A   1      32.175  26.121  25.433  1.00  0.00    -0.377 N 
ATOM     83  C   UNL A   1      30.924  28.715  23.083  1.00  0.00     0.006 A 
ATOM     84  C   UNL A   1      31.497  26.246  22.737  1.00  0.00     0.049 C 
ATOM     85  C   UNL A   1      32.635  25.007  24.589  1.00  0.00     0.115 C 
ATOM     86  H   UNL A   1      32.196  25.995  26.410  1.00  0.00     0.161 HD
ATOM     87  C   UNL A   1      32.782  25.503  23.155  1.00  0.00     0.031 C 
ATOM     88  C   UNL A   1      31.724  26.318  21.257  1.00  0.00    -0.023 C 
ATOM     89  C   UNL A   1      32.966  24.481  22.036  1.00  0.00     0.034 C 
ATOM     90  C   UNL A   1      32.513  25.306  20.862  1.00  0.00    -0.030 C 
BRANCH  85  91
ATOM     91  C   UNL A   1      33.793  24.313  25.318  1.00  0.00    -0.011 A 
ATOM     92  C   UNL A   1      35.076  24.554  24.749  1.00  0.00     0.007 A 
ATOM     93  C   UNL A   1      33.759  23.428  26.415  1.00  0.00     0.023 A 
ATOM     94  C   UNL A   1      36.245  23.972  25.246  1.00  0.00     0.000 A 
ATOM     95  C   UNL A   1      34.949  22.877  26.932  1.00  0.00     0.016 A 
ATOM     96  Br  UNL A   1      32.203  22.765  27.280  1.00  0.00    -0.050 Br
ATOM     97  C   UNL A   1      36.183  23.143  26.351  1.00  0.00     0.001 A 
ENDBRANCH  85  91
ENDBRANCH  74  77
ENDBRANCH  72  73
ENDBRANCH  71  72
ENDBRANCH   1  71
TORSDOF 14
ENDMDL
