MODEL 1
REMARK VINA RESULT:     -12.8      0.000      0.000
REMARK SMILES CC1(C)CN(CC(=O)NCCCNC(=O)c2ccc(-c3c4nc(c(-c5cccc(S(=O)(=O)[O-])c5F)c5ccc([nH]5)c(-c5cccc(S(=O)(=O)[O-])c5F)c5nc(c(-c6cccc(S(=O)(=O)[O-])c6F)c6ccc3[nH]6)C=C5)C=C4)cc2)c2ccc(S(=O)(=O)N3CCCCC3)cc21
REMARK SMILES IDX 11 1 10 2 9 3 7 4 8 5 6 7 5 8 1 9 2 10 3 11 4 12 93 13 79 14
REMARK SMILES IDX 92 15 80 16 82 17 81 18 83 19 84 20 85 21 86 22 87 23 91 24
REMARK SMILES IDX 88 25 90 26 89 27 12 28 13 29 14 30 15 32 16 33 17 34 78 35
REMARK SMILES IDX 18 36 77 37 19 38 20 39 21 40 71 41 22 42 76 43 70 44 72 45
REMARK SMILES IDX 23 46 75 47 69 48 68 49 24 51 56 52 36 53 55 54 37 55 40 56
REMARK SMILES IDX 54 57 73 58 38 59 39 60 53 62 74 63 41 64 25 65 26 66 34 67
REMARK SMILES IDX 27 68 29 69 35 70 28 71 30 72 31 73 32 74 33 75 57 76 58 77
REMARK SMILES IDX 66 78 59 79 61 80 67 81 60 82 62 83 63 84 64 85 65 86 42 87
REMARK SMILES IDX 43 88 51 89 44 90 46 91 52 92 45 93 47 94 48 95 49 96 50 97
REMARK H PARENT 9 6 13 31 72 50 40 61
REMARK Flexibility Score: inf
ROOT
ATOM      1  C   UNL A   1      36.938  20.631  24.528  1.00  0.00     0.042 C 
ENDROOT
BRANCH   1   2
ATOM      2  C   UNL A   1      35.480  20.842  24.911  1.00  0.00     0.117 C 
BRANCH   2   3
ATOM      3  N   UNL A   1      34.820  19.604  25.276  1.00  0.00    -0.354 N 
ATOM      4  C   UNL A   1      33.600  19.142  24.863  1.00  0.00     0.239 C 
ATOM      5  O   UNL A   1      33.203  18.063  25.312  1.00  0.00    -0.273 OA
ATOM      6  H   UNL A   1      35.311  19.023  25.901  1.00  0.00     0.163 HD
BRANCH   4   7
ATOM      7  C   UNL A   1      32.795  19.923  23.814  1.00  0.00     0.216 C 
BRANCH   7   8
ATOM      8  N   UNL A   1      32.276  21.189  24.313  1.00  0.00    -0.361 N 
ATOM      9  C   UNL A   1      30.225  23.201  26.224  1.00  0.00     0.018 C 
ATOM     10  C   UNL A   1      31.704  22.946  25.912  1.00  0.00     0.009 C 
ATOM     11  C   UNL A   1      32.595  23.554  26.999  1.00  0.00     0.018 C 
ATOM     12  C   UNL A   1      32.011  21.424  25.735  1.00  0.00     0.128 C 
ATOM     13  C   UNL A   1      32.071  23.471  24.547  1.00  0.00    -0.016 A 
ATOM     14  C   UNL A   1      32.420  22.418  23.700  1.00  0.00     0.041 A 
ATOM     15  C   UNL A   1      32.094  24.795  24.123  1.00  0.00     0.028 A 
ATOM     16  C   UNL A   1      32.837  22.696  22.409  1.00  0.00     0.027 A 
ATOM     17  C   UNL A   1      32.501  25.073  22.815  1.00  0.00     0.083 A 
ATOM     18  C   UNL A   1      32.884  24.026  21.966  1.00  0.00     0.024 A 
BRANCH  17  19
ATOM     19  S   UNL A   1      32.492  26.796  22.349  1.00  0.00     0.243 S 
ATOM     20  O   UNL A   1      33.711  27.009  21.602  1.00  0.00    -0.207 OA
ATOM     21  O   UNL A   1      31.191  27.035  21.758  1.00  0.00    -0.207 OA
BRANCH  19  22
ATOM     22  N   UNL A   1      32.582  27.729  23.769  1.00  0.00    -0.198 NA
ATOM     23  C   UNL A   1      33.909  28.273  24.127  1.00  0.00     0.102 C 
ATOM     24  C   UNL A   1      31.392  28.537  24.124  1.00  0.00     0.102 C 
ATOM     25  C   UNL A   1      33.934  28.750  25.574  1.00  0.00     0.017 C 
ATOM     26  C   UNL A   1      31.466  29.034  25.563  1.00  0.00     0.017 C 
ATOM     27  C   UNL A   1      32.795  29.719  25.849  1.00  0.00     0.003 C 
ENDBRANCH  19  22
ENDBRANCH  17  19
ENDBRANCH   7   8
ENDBRANCH   4   7
ENDBRANCH   2   3
ENDBRANCH   1   2
BRANCH   1  28
ATOM     28  C   UNL A   1      37.929  21.325  25.454  1.00  0.00     0.118 C 
BRANCH  28  29
ATOM     29  N   UNL A   1      38.962  20.426  25.956  1.00  0.00    -0.352 N 
ATOM     30  C   UNL A   1      40.145  20.709  26.601  1.00  0.00     0.251 C 
ATOM     31  H   UNL A   1      38.787  19.469  25.809  1.00  0.00     0.163 HD
ATOM     32  O   UNL A   1      40.957  19.806  26.790  1.00  0.00    -0.269 OA
BRANCH  30  33
ATOM     33  C   UNL A   1      40.449  22.093  27.029  1.00  0.00     0.039 A 
ATOM     34  C   UNL A   1      39.832  23.183  26.415  1.00  0.00     0.014 A 
ATOM     35  C   UNL A   1      41.381  22.304  28.049  1.00  0.00     0.014 A 
ATOM     36  C   UNL A   1      40.286  24.471  26.676  1.00  0.00     0.010 A 
ATOM     37  C   UNL A   1      41.767  23.607  28.379  1.00  0.00     0.010 A 
ATOM     38  C   UNL A   1      41.267  24.700  27.655  1.00  0.00    -0.014 A 
BRANCH  38  39
ATOM     39  C   UNL A   1      41.763  26.083  27.888  1.00  0.00     0.031 A 
ATOM     40  C   UNL A   1      40.906  27.098  28.601  1.00  0.00     0.074 A 
ATOM     41  C   UNL A   1      43.013  26.411  27.502  1.00  0.00     0.049 A 
ATOM     42  N   UNL A   1      41.181  28.345  28.889  1.00  0.00    -0.248 NA
ATOM     43  C   UNL A   1      39.571  26.666  29.052  1.00  0.00     0.031 C 
ATOM     44  C   UNL A   1      43.945  25.519  26.809  1.00  0.00     0.029 A 
ATOM     45  N   UNL A   1      43.723  27.577  27.653  1.00  0.00    -0.354 N 
ATOM     46  C   UNL A   1      40.051  28.852  29.522  1.00  0.00     0.074 A 
ATOM     47  C   UNL A   1      39.077  27.784  29.568  1.00  0.00     0.031 C 
ATOM     48  C   UNL A   1      45.117  26.150  26.639  1.00  0.00     0.029 A 
ATOM     49  C   UNL A   1      45.003  27.510  27.155  1.00  0.00     0.049 A 
ATOM     50  H   UNL A   1      43.350  28.383  28.077  1.00  0.00     0.167 HD
ATOM     51  C   UNL A   1      39.852  30.085  30.041  1.00  0.00     0.034 A 
ATOM     52  C   UNL A   1      45.977  28.439  27.110  1.00  0.00     0.034 A 
ATOM     53  C   UNL A   1      40.838  31.131  30.049  1.00  0.00     0.049 A 
ATOM     54  C   UNL A   1      45.717  29.805  27.673  1.00  0.00     0.074 A 
ATOM     55  C   UNL A   1      40.727  32.406  30.577  1.00  0.00     0.029 A 
ATOM     56  N   UNL A   1      42.114  31.022  29.525  1.00  0.00    -0.354 N 
ATOM     57  N   UNL A   1      44.655  30.246  28.300  1.00  0.00    -0.248 NA
ATOM     58  C   UNL A   1      46.792  30.799  27.534  1.00  0.00     0.031 C 
ATOM     59  C   UNL A   1      41.936  33.072  30.365  1.00  0.00     0.029 A 
ATOM     60  C   UNL A   1      42.802  32.207  29.718  1.00  0.00     0.049 A 
ATOM     61  H   UNL A   1      42.478  30.222  29.082  1.00  0.00     0.167 HD
ATOM     62  C   UNL A   1      44.941  31.559  28.651  1.00  0.00     0.074 A 
ATOM     63  C   UNL A   1      46.281  31.840  28.180  1.00  0.00     0.031 C 
ATOM     64  C   UNL A   1      44.154  32.454  29.294  1.00  0.00     0.034 A 
BRANCH  51  65
ATOM     65  C   UNL A   1      38.538  30.381  30.710  1.00  0.00     0.023 A 
ATOM     66  C   UNL A   1      38.375  30.056  32.071  1.00  0.00     0.012 A 
ATOM     67  C   UNL A   1      37.534  31.111  30.043  1.00  0.00     0.148 A 
ATOM     68  C   UNL A   1      37.231  30.455  32.761  1.00  0.00     0.002 A 
ATOM     69  C   UNL A   1      36.410  31.530  30.745  1.00  0.00     0.091 A 
ATOM     70  F   UNL A   1      37.713  31.405  28.747  1.00  0.00    -0.205 F 
ATOM     71  C   UNL A   1      36.257  31.202  32.103  1.00  0.00     0.022 A 
BRANCH  69  72
ATOM     72  S   UNL A   1      35.119  32.540  30.009  1.00  0.00     0.127 S 
ATOM     73  O   UNL A   1      34.589  31.640  28.983  1.00  0.00    -0.237 OA
ATOM     74  O   UNL A   1      34.222  32.764  31.143  1.00  0.00    -0.237 OA
ATOM     75  O   UNL A   1      35.778  33.732  29.498  1.00  0.00    -0.744 OA
ENDBRANCH  69  72
ENDBRANCH  51  65
BRANCH  52  76
ATOM     76  C   UNL A   1      47.309  28.083  26.549  1.00  0.00     0.023 A 
ATOM     77  C   UNL A   1      48.383  27.854  27.430  1.00  0.00     0.012 A 
ATOM     78  C   UNL A   1      47.505  27.927  25.164  1.00  0.00     0.148 A 
ATOM     79  C   UNL A   1      49.636  27.486  26.939  1.00  0.00     0.002 A 
ATOM     80  C   UNL A   1      48.744  27.522  24.685  1.00  0.00     0.091 A 
ATOM     81  F   UNL A   1      46.466  28.157  24.349  1.00  0.00    -0.205 F 
ATOM     82  C   UNL A   1      49.814  27.311  25.569  1.00  0.00     0.022 A 
BRANCH  80  83
ATOM     83  S   UNL A   1      49.046  27.179  22.948  1.00  0.00     0.127 S 
ATOM     84  O   UNL A   1      48.240  25.979  22.737  1.00  0.00    -0.237 OA
ATOM     85  O   UNL A   1      48.528  28.389  22.310  1.00  0.00    -0.237 OA
ATOM     86  O   UNL A   1      50.485  26.998  22.822  1.00  0.00    -0.744 OA
ENDBRANCH  80  83
ENDBRANCH  52  76
BRANCH  64  87
ATOM     87  C   UNL A   1      44.711  33.826  29.556  1.00  0.00     0.023 A 
ATOM     88  C   UNL A   1      45.391  34.075  30.763  1.00  0.00     0.012 A 
ATOM     89  C   UNL A   1      44.672  34.818  28.557  1.00  0.00     0.148 A 
ATOM     90  C   UNL A   1      46.022  35.299  30.976  1.00  0.00     0.002 A 
ATOM     91  C   UNL A   1      45.333  36.022  28.763  1.00  0.00     0.091 A 
ATOM     92  F   UNL A   1      44.013  34.554  27.421  1.00  0.00    -0.205 F 
ATOM     93  C   UNL A   1      46.004  36.266  29.973  1.00  0.00     0.022 A 
BRANCH  91  94
ATOM     94  S   UNL A   1      45.428  37.304  27.508  1.00  0.00     0.127 S 
ATOM     95  O   UNL A   1      44.015  37.612  27.290  1.00  0.00    -0.237 OA
ATOM     96  O   UNL A   1      46.181  38.353  28.196  1.00  0.00    -0.237 OA
ATOM     97  O   UNL A   1      46.113  36.709  26.370  1.00  0.00    -0.744 OA
ENDBRANCH  91  94
ENDBRANCH  64  87
ENDBRANCH  38  39
ENDBRANCH  30  33
ENDBRANCH  28  29
ENDBRANCH   1  28
TORSDOF 16
ENDMDL
MODEL 2
REMARK VINA RESULT:     -12.7      2.572      3.507
REMARK SMILES CC1(C)CN(CC(=O)NCCCNC(=O)c2ccc(-c3c4nc(c(-c5cccc(S(=O)(=O)[O-])c5F)c5ccc([nH]5)c(-c5cccc(S(=O)(=O)[O-])c5F)c5nc(c(-c6cccc(S(=O)(=O)[O-])c6F)c6ccc3[nH]6)C=C5)C=C4)cc2)c2ccc(S(=O)(=O)N3CCCCC3)cc21
REMARK SMILES IDX 11 1 10 2 9 3 7 4 8 5 6 7 5 8 1 9 2 10 3 11 4 12 93 13 79 14
REMARK SMILES IDX 92 15 80 16 82 17 81 18 83 19 84 20 85 21 86 22 87 23 91 24
REMARK SMILES IDX 88 25 90 26 89 27 12 28 13 29 14 30 15 32 16 33 17 34 78 35
REMARK SMILES IDX 18 36 77 37 19 38 20 39 21 40 71 41 22 42 76 43 70 44 72 45
REMARK SMILES IDX 23 46 75 47 69 48 68 49 24 51 56 52 36 53 55 54 37 55 40 56
REMARK SMILES IDX 54 57 73 58 38 59 39 60 53 62 74 63 41 64 25 65 26 66 34 67
REMARK SMILES IDX 27 68 29 69 35 70 28 71 30 72 31 73 32 74 33 75 57 76 58 77
REMARK SMILES IDX 66 78 59 79 61 80 67 81 60 82 62 83 63 84 64 85 65 86 42 87
REMARK SMILES IDX 43 88 51 89 44 90 46 91 52 92 45 93 47 94 48 95 49 96 50 97
REMARK H PARENT 9 6 13 31 72 50 40 61
REMARK Flexibility Score: inf
ROOT
ATOM      1  C   UNL A   1      38.120  19.716  25.024  1.00  0.00     0.042 C 
ENDROOT
BRANCH   1   2
ATOM      2  C   UNL A   1      36.955  20.672  25.235  1.00  0.00     0.117 C 
BRANCH   2   3
ATOM      3  N   UNL A   1      37.340  21.859  25.971  1.00  0.00    -0.354 N 
ATOM      4  C   UNL A   1      37.365  23.156  25.533  1.00  0.00     0.239 C 
ATOM      5  O   UNL A   1      37.750  24.028  26.317  1.00  0.00    -0.273 OA
ATOM      6  H   UNL A   1      37.621  21.715  26.904  1.00  0.00     0.163 HD
BRANCH   4   7
ATOM      7  C   UNL A   1      36.854  23.503  24.127  1.00  0.00     0.216 C 
BRANCH   7   8
ATOM      8  N   UNL A   1      35.408  23.389  23.995  1.00  0.00    -0.361 N 
ATOM      9  C   UNL A   1      32.468  22.364  22.508  1.00  0.00     0.018 C 
ATOM     10  C   UNL A   1      33.210  22.332  23.848  1.00  0.00     0.009 C 
ATOM     11  C   UNL A   1      32.625  21.250  24.761  1.00  0.00     0.018 C 
ATOM     12  C   UNL A   1      34.747  22.124  23.662  1.00  0.00     0.128 C 
ATOM     13  C   UNL A   1      33.185  23.684  24.517  1.00  0.00    -0.016 A 
ATOM     14  C   UNL A   1      34.476  24.209  24.598  1.00  0.00     0.041 A 
ATOM     15  C   UNL A   1      32.081  24.365  25.017  1.00  0.00     0.028 A 
ATOM     16  C   UNL A   1      34.674  25.428  25.225  1.00  0.00     0.027 A 
ATOM     17  C   UNL A   1      32.280  25.603  25.636  1.00  0.00     0.083 A 
ATOM     18  C   UNL A   1      33.575  26.124  25.751  1.00  0.00     0.024 A 
BRANCH  17  19
ATOM     19  S   UNL A   1      30.809  26.414  26.239  1.00  0.00     0.243 S 
ATOM     20  O   UNL A   1      29.845  25.360  26.471  1.00  0.00    -0.207 OA
ATOM     21  O   UNL A   1      31.253  27.282  27.310  1.00  0.00    -0.207 OA
BRANCH  19  22
ATOM     22  N   UNL A   1      30.204  27.408  24.998  1.00  0.00    -0.198 NA
ATOM     23  C   UNL A   1      31.105  28.465  24.491  1.00  0.00     0.102 C 
ATOM     24  C   UNL A   1      29.263  26.790  24.036  1.00  0.00     0.102 C 
ATOM     25  C   UNL A   1      30.334  29.499  23.680  1.00  0.00     0.017 C 
ATOM     26  C   UNL A   1      28.538  27.847  23.210  1.00  0.00     0.017 C 
ATOM     27  C   UNL A   1      29.516  28.832  22.584  1.00  0.00     0.003 C 
ENDBRANCH  19  22
ENDBRANCH  17  19
ENDBRANCH   7   8
ENDBRANCH   4   7
ENDBRANCH   2   3
ENDBRANCH   1   2
BRANCH   1  28
ATOM     28  C   UNL A   1      39.424  20.175  25.664  1.00  0.00     0.118 C 
BRANCH  28  29
ATOM     29  N   UNL A   1      40.372  19.086  25.867  1.00  0.00    -0.352 N 
ATOM     30  C   UNL A   1      41.725  19.124  26.115  1.00  0.00     0.251 C 
ATOM     31  H   UNL A   1      39.983  18.183  25.818  1.00  0.00     0.163 HD
ATOM     32  O   UNL A   1      42.370  18.080  26.087  1.00  0.00    -0.269 OA
BRANCH  30  33
ATOM     33  C   UNL A   1      42.399  20.415  26.377  1.00  0.00     0.039 A 
ATOM     34  C   UNL A   1      42.330  21.016  27.635  1.00  0.00     0.014 A 
ATOM     35  C   UNL A   1      43.097  21.045  25.343  1.00  0.00     0.014 A 
ATOM     36  C   UNL A   1      42.781  22.321  27.802  1.00  0.00     0.010 A 
ATOM     37  C   UNL A   1      43.635  22.321  25.542  1.00  0.00     0.010 A 
ATOM     38  C   UNL A   1      43.430  22.994  26.755  1.00  0.00    -0.014 A 
BRANCH  38  39
ATOM     39  C   UNL A   1      43.868  24.403  26.948  1.00  0.00     0.031 A 
ATOM     40  C   UNL A   1      42.907  25.444  27.465  1.00  0.00     0.074 A 
ATOM     41  C   UNL A   1      45.152  24.736  26.705  1.00  0.00     0.049 A 
ATOM     42  N   UNL A   1      43.120  26.715  27.693  1.00  0.00    -0.248 NA
ATOM     43  C   UNL A   1      41.532  25.010  27.769  1.00  0.00     0.031 C 
ATOM     44  C   UNL A   1      46.183  23.822  26.208  1.00  0.00     0.029 A 
ATOM     45  N   UNL A   1      45.816  25.928  26.861  1.00  0.00    -0.354 N 
ATOM     46  C   UNL A   1      41.908  27.236  28.134  1.00  0.00     0.074 A 
ATOM     47  C   UNL A   1      40.955  26.148  28.131  1.00  0.00     0.031 C 
ATOM     48  C   UNL A   1      47.356  24.470  26.147  1.00  0.00     0.029 A 
ATOM     49  C   UNL A   1      47.151  25.860  26.541  1.00  0.00     0.049 A 
ATOM     50  H   UNL A   1      45.377  26.752  27.172  1.00  0.00     0.167 HD
ATOM     51  C   UNL A   1      41.622  28.497  28.529  1.00  0.00     0.034 A 
ATOM     52  C   UNL A   1      48.108  26.808  26.555  1.00  0.00     0.034 A 
ATOM     53  C   UNL A   1      42.581  29.567  28.589  1.00  0.00     0.049 A 
ATOM     54  C   UNL A   1      47.752  28.204  26.977  1.00  0.00     0.074 A 
ATOM     55  C   UNL A   1      42.379  30.873  29.002  1.00  0.00     0.029 A 
ATOM     56  N   UNL A   1      43.916  29.454  28.246  1.00  0.00    -0.354 N 
ATOM     57  N   UNL A   1      46.610  28.660  27.425  1.00  0.00    -0.248 NA
ATOM     58  C   UNL A   1      48.820  29.214  26.906  1.00  0.00     0.031 C 
ATOM     59  C   UNL A   1      43.594  31.553  28.901  1.00  0.00     0.029 A 
ATOM     60  C   UNL A   1      44.553  30.667  28.439  1.00  0.00     0.049 A 
ATOM     61  H   UNL A   1      44.349  28.634  27.915  1.00  0.00     0.167 HD
ATOM     62  C   UNL A   1      46.825  30.002  27.712  1.00  0.00     0.074 A 
ATOM     63  C   UNL A   1      48.210  30.284  27.401  1.00  0.00     0.031 C 
ATOM     64  C   UNL A   1      45.945  30.920  28.178  1.00  0.00     0.034 A 
BRANCH  51  65
ATOM     65  C   UNL A   1      40.226  28.806  28.997  1.00  0.00     0.023 A 
ATOM     66  C   UNL A   1      39.208  28.986  28.039  1.00  0.00     0.012 A 
ATOM     67  C   UNL A   1      39.894  28.763  30.365  1.00  0.00     0.148 A 
ATOM     68  C   UNL A   1      37.879  29.118  28.436  1.00  0.00     0.002 A 
ATOM     69  C   UNL A   1      38.563  28.868  30.752  1.00  0.00     0.091 A 
ATOM     70  F   UNL A   1      40.882  28.594  31.256  1.00  0.00    -0.205 F 
ATOM     71  C   UNL A   1      37.555  29.046  29.789  1.00  0.00     0.022 A 
BRANCH  69  72
ATOM     72  S   UNL A   1      38.030  28.737  32.462  1.00  0.00     0.127 S 
ATOM     73  O   UNL A   1      38.980  29.623  33.137  1.00  0.00    -0.237 OA
ATOM     74  O   UNL A   1      36.661  29.249  32.397  1.00  0.00    -0.237 OA
ATOM     75  O   UNL A   1      38.146  27.330  32.817  1.00  0.00    -0.744 OA
ENDBRANCH  69  72
ENDBRANCH  51  65
BRANCH  52  76
ATOM     76  C   UNL A   1      49.508  26.449  26.201  1.00  0.00     0.023 A 
ATOM     77  C   UNL A   1      50.235  25.603  27.061  1.00  0.00     0.012 A 
ATOM     78  C   UNL A   1      50.103  26.899  25.008  1.00  0.00     0.148 A 
ATOM     79  C   UNL A   1      51.538  25.219  26.742  1.00  0.00     0.002 A 
ATOM     80  C   UNL A   1      51.386  26.481  24.677  1.00  0.00     0.091 A 
ATOM     81  F   UNL A   1      49.390  27.707  24.211  1.00  0.00    -0.205 F 
ATOM     82  C   UNL A   1      52.109  25.650  25.547  1.00  0.00     0.022 A 
BRANCH  80  83
ATOM     83  S   UNL A   1      52.170  26.905  23.119  1.00  0.00     0.127 S 
ATOM     84  O   UNL A   1      52.567  28.292  23.353  1.00  0.00    -0.237 OA
ATOM     85  O   UNL A   1      53.275  25.948  23.070  1.00  0.00    -0.237 OA
ATOM     86  O   UNL A   1      51.154  26.709  22.095  1.00  0.00    -0.744 OA
ENDBRANCH  80  83
ENDBRANCH  52  76
BRANCH  64  87
ATOM     87  C   UNL A   1      46.438  32.321  28.408  1.00  0.00     0.023 A 
ATOM     88  C   UNL A   1      46.934  32.678  29.677  1.00  0.00     0.012 A 
ATOM     89  C   UNL A   1      46.531  33.233  27.339  1.00  0.00     0.148 A 
ATOM     90  C   UNL A   1      47.511  33.930  29.880  1.00  0.00     0.002 A 
ATOM     91  C   UNL A   1      47.138  34.466  27.542  1.00  0.00     0.091 A 
ATOM     92  F   UNL A   1      46.047  32.867  26.144  1.00  0.00    -0.205 F 
ATOM     93  C   UNL A   1      47.624  34.817  28.813  1.00  0.00     0.022 A 
BRANCH  91  94
ATOM     94  S   UNL A   1      47.396  35.650  26.217  1.00  0.00     0.127 S 
ATOM     95  O   UNL A   1      46.041  36.155  26.001  1.00  0.00    -0.237 OA
ATOM     96  O   UNL A   1      48.312  36.609  26.835  1.00  0.00    -0.237 OA
ATOM     97  O   UNL A   1      47.960  34.899  25.104  1.00  0.00    -0.744 OA
ENDBRANCH  91  94
ENDBRANCH  64  87
ENDBRANCH  38  39
ENDBRANCH  30  33
ENDBRANCH  28  29
ENDBRANCH   1  28
TORSDOF 16
ENDMDL
MODEL 3
REMARK VINA RESULT:     -12.6      0.794      7.374
REMARK SMILES CC1(C)CN(CC(=O)NCCCNC(=O)c2ccc(-c3c4nc(c(-c5cccc(S(=O)(=O)[O-])c5F)c5ccc([nH]5)c(-c5cccc(S(=O)(=O)[O-])c5F)c5nc(c(-c6cccc(S(=O)(=O)[O-])c6F)c6ccc3[nH]6)C=C5)C=C4)cc2)c2ccc(S(=O)(=O)N3CCCCC3)cc21
REMARK SMILES IDX 11 1 10 2 9 3 7 4 8 5 6 7 5 8 1 9 2 10 3 11 4 12 93 13 79 14
REMARK SMILES IDX 92 15 80 16 82 17 81 18 83 19 84 20 85 21 86 22 87 23 91 24
REMARK SMILES IDX 88 25 90 26 89 27 12 28 13 29 14 30 15 32 16 33 17 34 78 35
REMARK SMILES IDX 18 36 77 37 19 38 20 39 21 40 71 41 22 42 76 43 70 44 72 45
REMARK SMILES IDX 23 46 75 47 69 48 68 49 24 51 56 52 36 53 55 54 37 55 40 56
REMARK SMILES IDX 54 57 73 58 38 59 39 60 53 62 74 63 41 64 25 65 26 66 34 67
REMARK SMILES IDX 27 68 29 69 35 70 28 71 30 72 31 73 32 74 33 75 57 76 58 77
REMARK SMILES IDX 66 78 59 79 61 80 67 81 60 82 62 83 63 84 64 85 65 86 42 87
REMARK SMILES IDX 43 88 51 89 44 90 46 91 52 92 45 93 47 94 48 95 49 96 50 97
REMARK H PARENT 9 6 13 31 72 50 40 61
REMARK Flexibility Score: inf
ROOT
ATOM      1  C   UNL A   1      36.807  19.849  24.647  1.00  0.00     0.042 C 
ENDROOT
BRANCH   1   2
ATOM      2  C   UNL A   1      35.427  20.445  24.889  1.00  0.00     0.117 C 
BRANCH   2   3
ATOM      3  N   UNL A   1      34.453  19.445  25.277  1.00  0.00    -0.354 N 
ATOM      4  C   UNL A   1      33.149  19.334  24.877  1.00  0.00     0.239 C 
ATOM      5  O   UNL A   1      32.472  18.414  25.345  1.00  0.00    -0.273 OA
ATOM      6  H   UNL A   1      34.768  18.759  25.909  1.00  0.00     0.163 HD
BRANCH   4   7
ATOM      7  C   UNL A   1      32.583  20.293  23.819  1.00  0.00     0.216 C 
BRANCH   7   8
ATOM      8  N   UNL A   1      32.116  21.555  24.378  1.00  0.00    -0.361 N 
ATOM      9  C   UNL A   1      30.161  23.557  26.396  1.00  0.00     0.018 C 
ATOM     10  C   UNL A   1      31.625  23.261  26.057  1.00  0.00     0.009 C 
ATOM     11  C   UNL A   1      32.550  23.789  27.158  1.00  0.00     0.018 C 
ATOM     12  C   UNL A   1      31.874  21.738  25.812  1.00  0.00     0.128 C 
ATOM     13  C   UNL A   1      31.998  23.831  24.711  1.00  0.00    -0.016 A 
ATOM     14  C   UNL A   1      32.300  22.802  23.816  1.00  0.00     0.041 A 
ATOM     15  C   UNL A   1      32.066  25.169  24.344  1.00  0.00     0.028 A 
ATOM     16  C   UNL A   1      32.713  23.120  22.533  1.00  0.00     0.027 A 
ATOM     17  C   UNL A   1      32.469  25.488  23.043  1.00  0.00     0.083 A 
ATOM     18  C   UNL A   1      32.805  24.466  22.147  1.00  0.00     0.024 A 
BRANCH  17  19
ATOM     19  S   UNL A   1      32.520  27.229  22.652  1.00  0.00     0.243 S 
ATOM     20  O   UNL A   1      33.720  27.423  21.868  1.00  0.00    -0.207 OA
ATOM     21  O   UNL A   1      31.210  27.548  22.121  1.00  0.00    -0.207 OA
BRANCH  19  22
ATOM     22  N   UNL A   1      32.703  28.094  24.105  1.00  0.00    -0.198 NA
ATOM     23  C   UNL A   1      31.478  28.678  24.694  1.00  0.00     0.102 C 
ATOM     24  C   UNL A   1      33.759  27.635  25.036  1.00  0.00     0.102 C 
ATOM     25  C   UNL A   1      31.821  29.719  25.751  1.00  0.00     0.017 C 
ATOM     26  C   UNL A   1      34.050  28.680  26.107  1.00  0.00     0.017 C 
ATOM     27  C   UNL A   1      32.773  29.148  26.791  1.00  0.00     0.003 C 
ENDBRANCH  19  22
ENDBRANCH  17  19
ENDBRANCH   7   8
ENDBRANCH   4   7
ENDBRANCH   2   3
ENDBRANCH   1   2
BRANCH   1  28
ATOM     28  C   UNL A   1      37.934  20.586  25.357  1.00  0.00     0.118 C 
BRANCH  28  29
ATOM     29  N   UNL A   1      39.070  19.725  25.665  1.00  0.00    -0.352 N 
ATOM     30  C   UNL A   1      40.310  20.042  26.172  1.00  0.00     0.251 C 
ATOM     31  H   UNL A   1      38.928  18.769  25.481  1.00  0.00     0.163 HD
ATOM     32  O   UNL A   1      41.186  19.182  26.198  1.00  0.00    -0.269 OA
BRANCH  30  33
ATOM     33  C   UNL A   1      40.594  21.415  26.646  1.00  0.00     0.039 A 
ATOM     34  C   UNL A   1      40.141  22.526  25.931  1.00  0.00     0.014 A 
ATOM     35  C   UNL A   1      41.340  21.596  27.813  1.00  0.00     0.014 A 
ATOM     36  C   UNL A   1      40.598  23.795  26.268  1.00  0.00     0.010 A 
ATOM     37  C   UNL A   1      41.718  22.884  28.205  1.00  0.00     0.010 A 
ATOM     38  C   UNL A   1      41.400  23.991  27.403  1.00  0.00    -0.014 A 
BRANCH  38  39
ATOM     39  C   UNL A   1      41.907  25.354  27.719  1.00  0.00     0.031 A 
ATOM     40  C   UNL A   1      43.260  25.804  27.231  1.00  0.00     0.074 A 
ATOM     41  C   UNL A   1      41.122  26.209  28.405  1.00  0.00     0.049 A 
ATOM     42  N   UNL A   1      43.857  26.955  27.413  1.00  0.00    -0.248 NA
ATOM     43  C   UNL A   1      44.051  24.847  26.435  1.00  0.00     0.031 C 
ATOM     44  C   UNL A   1      39.789  25.898  28.928  1.00  0.00     0.029 A 
ATOM     45  N   UNL A   1      41.320  27.519  28.765  1.00  0.00    -0.354 N 
ATOM     46  C   UNL A   1      45.094  26.851  26.787  1.00  0.00     0.074 A 
ATOM     47  C   UNL A   1      45.175  25.520  26.228  1.00  0.00     0.031 C 
ATOM     48  C   UNL A   1      39.271  26.998  29.497  1.00  0.00     0.029 A 
ATOM     49  C   UNL A   1      40.254  28.073  29.433  1.00  0.00     0.049 A 
ATOM     50  H   UNL A   1      42.147  28.013  28.564  1.00  0.00     0.167 HD
ATOM     51  C   UNL A   1      46.063  27.787  26.665  1.00  0.00     0.034 A 
ATOM     52  C   UNL A   1      40.085  29.308  29.947  1.00  0.00     0.034 A 
ATOM     53  C   UNL A   1      45.962  29.130  27.168  1.00  0.00     0.049 A 
ATOM     54  C   UNL A   1      41.188  30.316  29.816  1.00  0.00     0.074 A 
ATOM     55  C   UNL A   1      46.891  30.152  27.067  1.00  0.00     0.029 A 
ATOM     56  N   UNL A   1      44.871  29.643  27.847  1.00  0.00    -0.354 N 
ATOM     57  N   UNL A   1      42.331  30.205  29.187  1.00  0.00    -0.248 NA
ATOM     58  C   UNL A   1      40.976  31.623  30.455  1.00  0.00     0.031 C 
ATOM     59  C   UNL A   1      46.362  31.283  27.693  1.00  0.00     0.029 A 
ATOM     60  C   UNL A   1      45.101  30.968  28.170  1.00  0.00     0.049 A 
ATOM     61  H   UNL A   1      44.053  29.141  28.066  1.00  0.00     0.167 HD
ATOM     62  C   UNL A   1      42.964  31.432  29.333  1.00  0.00     0.074 A 
ATOM     63  C   UNL A   1      42.073  32.279  30.099  1.00  0.00     0.031 C 
ATOM     64  C   UNL A   1      44.183  31.815  28.884  1.00  0.00     0.034 A 
BRANCH  51  65
ATOM     65  C   UNL A   1      47.313  27.435  25.906  1.00  0.00     0.023 A 
ATOM     66  C   UNL A   1      48.291  26.636  26.531  1.00  0.00     0.012 A 
ATOM     67  C   UNL A   1      47.447  27.760  24.542  1.00  0.00     0.148 A 
ATOM     68  C   UNL A   1      49.384  26.163  25.808  1.00  0.00     0.002 A 
ATOM     69  C   UNL A   1      48.526  27.262  23.821  1.00  0.00     0.091 A 
ATOM     70  F   UNL A   1      46.504  28.525  23.972  1.00  0.00    -0.205 F 
ATOM     71  C   UNL A   1      49.495  26.464  24.452  1.00  0.00     0.022 A 
BRANCH  69  72
ATOM     72  S   UNL A   1      48.738  27.544  22.059  1.00  0.00     0.127 S 
ATOM     73  O   UNL A   1      49.063  26.199  21.582  1.00  0.00    -0.237 OA
ATOM     74  O   UNL A   1      47.415  28.027  21.664  1.00  0.00    -0.237 OA
ATOM     75  O   UNL A   1      49.814  28.516  21.930  1.00  0.00    -0.744 OA
ENDBRANCH  69  72
ENDBRANCH  51  65
BRANCH  52  76
ATOM     76  C   UNL A   1      38.792  29.667  30.590  1.00  0.00     0.023 A 
ATOM     77  C   UNL A   1      38.525  29.208  31.894  1.00  0.00     0.012 A 
ATOM     78  C   UNL A   1      37.853  30.491  29.940  1.00  0.00     0.148 A 
ATOM     79  C   UNL A   1      37.337  29.554  32.537  1.00  0.00     0.002 A 
ATOM     80  C   UNL A   1      36.690  30.865  30.603  1.00  0.00     0.091 A 
ATOM     81  F   UNL A   1      38.130  30.909  28.698  1.00  0.00    -0.205 F 
ATOM     82  C   UNL A   1      36.425  30.389  31.897  1.00  0.00     0.022 A 
BRANCH  80  83
ATOM     83  S   UNL A   1      35.501  32.011  29.899  1.00  0.00     0.127 S 
ATOM     84  O   UNL A   1      34.607  32.246  31.030  1.00  0.00    -0.237 OA
ATOM     85  O   UNL A   1      36.353  33.144  29.541  1.00  0.00    -0.237 OA
ATOM     86  O   UNL A   1      34.906  31.319  28.764  1.00  0.00    -0.744 OA
ENDBRANCH  80  83
ENDBRANCH  52  76
BRANCH  64  87
ATOM     87  C   UNL A   1      44.638  33.217  29.179  1.00  0.00     0.023 A 
ATOM     88  C   UNL A   1      45.189  33.512  30.441  1.00  0.00     0.012 A 
ATOM     89  C   UNL A   1      44.641  34.198  28.168  1.00  0.00     0.148 A 
ATOM     90  C   UNL A   1      45.732  34.770  30.695  1.00  0.00     0.002 A 
ATOM     91  C   UNL A   1      45.214  35.438  28.419  1.00  0.00     0.091 A 
ATOM     92  F   UNL A   1      44.105  33.889  26.979  1.00  0.00    -0.205 F 
ATOM     93  C   UNL A   1      45.756  35.727  29.682  1.00  0.00     0.022 A 
BRANCH  91  94
ATOM     94  S   UNL A   1      45.357  36.713  27.161  1.00  0.00     0.127 S 
ATOM     95  O   UNL A   1      44.009  37.279  27.157  1.00  0.00    -0.237 OA
ATOM     96  O   UNL A   1      46.384  37.588  27.726  1.00  0.00    -0.237 OA
ATOM     97  O   UNL A   1      45.744  36.032  25.934  1.00  0.00    -0.744 OA
ENDBRANCH  91  94
ENDBRANCH  64  87
ENDBRANCH  38  39
ENDBRANCH  30  33
ENDBRANCH  28  29
ENDBRANCH   1  28
TORSDOF 16
ENDMDL
