MODEL 1
REMARK VINA RESULT:     -11.6      0.000      0.000
REMARK SMILES C[C@H]([C@@H](C)O)[NH+]1CCC(C)(C(=O)NCCCNC(=O)c2ccc(-c3c4nc(c(-c5cccc(S(=O)(=O)[O-])c5F)c5ccc([nH]5)c(-c5cccc(S(=O)(=O)[O-])c5F)c5nc(c(-c6cccc(S(=O)(=O)[O-])c6F)c6ccc3[nH]6)C=C5)C=C4)cc2)CC1
REMARK SMILES IDX 15 1 14 2 13 3 11 4 12 5 9 7 6 8 7 9 84 10 8 12 83 13 10 14
REMARK SMILES IDX 2 15 1 16 3 17 4 18 5 19 16 21 17 22 18 23 19 25 20 26 21 27
REMARK SMILES IDX 82 28 22 29 81 30 23 31 24 32 25 33 75 34 26 35 80 36 74 37
REMARK SMILES IDX 76 38 27 39 79 40 73 41 72 42 28 44 60 45 40 46 59 47 41 48
REMARK SMILES IDX 44 49 58 50 77 51 42 52 43 53 57 55 78 56 45 57 29 58 30 59
REMARK SMILES IDX 38 60 31 61 33 62 39 63 32 64 34 65 35 66 36 67 37 68 61 69
REMARK SMILES IDX 62 70 70 71 63 72 65 73 71 74 64 75 66 76 67 77 68 78 69 79
REMARK SMILES IDX 46 80 47 81 55 82 48 83 50 84 56 85 49 86 51 87 52 88 53 89
REMARK SMILES IDX 54 90
REMARK H PARENT 13 6 6 11 5 20 17 24 76 43 44 54
REMARK Flexibility Score: inf
ROOT
ATOM      1  C   UNL A   1      31.819  29.080  24.399  1.00  0.00     0.042 C 
ENDROOT
BRANCH   1   2
ATOM      2  C   UNL A   1      31.668  27.567  24.291  1.00  0.00     0.117 C 
BRANCH   2   3
ATOM      3  N   UNL A   1      32.450  27.015  23.193  1.00  0.00    -0.356 N 
ATOM      4  C   UNL A   1      33.378  26.021  23.122  1.00  0.00     0.226 C 
ATOM      5  O   UNL A   1      33.902  25.850  22.019  1.00  0.00    -0.274 OA
ATOM      6  H   UNL A   1      32.271  27.448  22.327  1.00  0.00     0.163 HD
BRANCH   4   7
ATOM      7  C   UNL A   1      33.730  25.134  24.334  1.00  0.00     0.057 C 
ATOM      8  N   UNL A   1      33.312  22.207  23.899  1.00  0.00    -0.331 N 
ATOM      9  C   UNL A   1      34.346  22.934  23.188  1.00  0.00     0.263 C 
ATOM     10  C   UNL A   1      32.147  23.060  24.122  1.00  0.00     0.263 C 
ATOM     11  H   UNL A   1      33.036  21.468  23.252  1.00  0.00     0.348 HD
ATOM     12  C   UNL A   1      34.851  24.135  23.976  1.00  0.00     0.078 C 
ATOM     13  C   UNL A   1      32.452  24.382  24.828  1.00  0.00     0.078 C 
ATOM     14  C   UNL A   1      34.144  26.045  25.512  1.00  0.00     0.022 C 
BRANCH   8  15
ATOM     15  C   UNL A   1      33.683  21.269  24.977  1.00  0.00     0.209 C 
ATOM     16  C   UNL A   1      35.131  20.749  25.004  1.00  0.00     0.078 C 
BRANCH  15  17
ATOM     17  C   UNL A   1      32.668  20.086  25.168  1.00  0.00     0.169 C 
ATOM     18  C   UNL A   1      32.564  19.085  24.015  1.00  0.00     0.045 C 
BRANCH  17  19
ATOM     19  O   UNL A   1      33.020  19.345  26.350  1.00  0.00    -0.387 OA
ATOM     20  H   UNL A   1      33.701  18.690  26.129  1.00  0.00     0.211 HD
ENDBRANCH  17  19
ENDBRANCH  15  17
ENDBRANCH   8  15
ENDBRANCH   4   7
ENDBRANCH   2   3
ENDBRANCH   1   2
BRANCH   1  21
ATOM     21  C   UNL A   1      32.706  29.529  25.551  1.00  0.00     0.118 C 
BRANCH  21  22
ATOM     22  N   UNL A   1      32.417  30.892  25.971  1.00  0.00    -0.352 N 
ATOM     23  C   UNL A   1      32.995  31.654  26.955  1.00  0.00     0.251 C 
ATOM     24  H   UNL A   1      31.694  31.337  25.473  1.00  0.00     0.163 HD
ATOM     25  O   UNL A   1      32.452  32.696  27.306  1.00  0.00    -0.269 OA
BRANCH  23  26
ATOM     26  C   UNL A   1      34.256  31.217  27.595  1.00  0.00     0.039 A 
ATOM     27  C   UNL A   1      35.250  32.168  27.841  1.00  0.00     0.014 A 
ATOM     28  C   UNL A   1      34.473  29.877  27.927  1.00  0.00     0.014 A 
ATOM     29  C   UNL A   1      36.434  31.781  28.470  1.00  0.00     0.010 A 
ATOM     30  C   UNL A   1      35.610  29.512  28.640  1.00  0.00     0.010 A 
ATOM     31  C   UNL A   1      36.610  30.457  28.906  1.00  0.00    -0.014 A 
BRANCH  31  32
ATOM     32  C   UNL A   1      37.830  30.052  29.651  1.00  0.00     0.031 A 
ATOM     33  C   UNL A   1      38.102  30.594  31.029  1.00  0.00     0.074 A 
ATOM     34  C   UNL A   1      38.730  29.247  29.052  1.00  0.00     0.049 A 
ATOM     35  N   UNL A   1      39.114  30.353  31.822  1.00  0.00    -0.248 NA
ATOM     36  C   UNL A   1      37.131  31.555  31.578  1.00  0.00     0.031 C 
ATOM     37  C   UNL A   1      38.627  28.735  27.683  1.00  0.00     0.029 A 
ATOM     38  N   UNL A   1      39.916  28.732  29.508  1.00  0.00    -0.354 N 
ATOM     39  C   UNL A   1      38.919  31.150  32.943  1.00  0.00     0.074 A 
ATOM     40  C   UNL A   1      37.713  31.915  32.711  1.00  0.00     0.031 C 
ATOM     41  C   UNL A   1      39.694  27.967  27.417  1.00  0.00     0.029 A 
ATOM     42  C   UNL A   1      40.570  27.951  28.584  1.00  0.00     0.049 A 
ATOM     43  H   UNL A   1      40.266  28.904  30.412  1.00  0.00     0.167 HD
ATOM     44  C   UNL A   1      39.656  31.217  34.077  1.00  0.00     0.034 A 
ATOM     45  C   UNL A   1      41.744  27.295  28.667  1.00  0.00     0.034 A 
ATOM     46  C   UNL A   1      40.831  30.424  34.319  1.00  0.00     0.049 A 
ATOM     47  C   UNL A   1      42.510  27.337  29.960  1.00  0.00     0.074 A 
ATOM     48  C   UNL A   1      41.597  30.348  35.469  1.00  0.00     0.029 A 
ATOM     49  N   UNL A   1      41.416  29.573  33.394  1.00  0.00    -0.354 N 
ATOM     50  N   UNL A   1      42.216  27.964  31.074  1.00  0.00    -0.248 NA
ATOM     51  C   UNL A   1      43.747  26.546  30.024  1.00  0.00     0.031 C 
ATOM     52  C   UNL A   1      42.659  29.468  35.231  1.00  0.00     0.029 A 
ATOM     53  C   UNL A   1      42.537  28.973  33.942  1.00  0.00     0.049 A 
ATOM     54  H   UNL A   1      41.082  29.418  32.481  1.00  0.00     0.167 HD
ATOM     55  C   UNL A   1      43.212  27.617  31.980  1.00  0.00     0.074 A 
ATOM     56  C   UNL A   1      44.100  26.701  31.293  1.00  0.00     0.031 C 
ATOM     57  C   UNL A   1      43.384  28.029  33.260  1.00  0.00     0.034 A 
BRANCH  44  58
ATOM     58  C   UNL A   1      39.181  32.142  35.169  1.00  0.00     0.023 A 
ATOM     59  C   UNL A   1      38.219  31.687  36.095  1.00  0.00     0.012 A 
ATOM     60  C   UNL A   1      39.723  33.433  35.317  1.00  0.00     0.148 A 
ATOM     61  C   UNL A   1      37.778  32.514  37.127  1.00  0.00     0.002 A 
ATOM     62  C   UNL A   1      39.313  34.234  36.377  1.00  0.00     0.091 A 
ATOM     63  F   UNL A   1      40.621  33.857  34.416  1.00  0.00    -0.205 F 
ATOM     64  C   UNL A   1      38.332  33.782  37.275  1.00  0.00     0.022 A 
BRANCH  62  65
ATOM     65  S   UNL A   1      40.026  35.851  36.704  1.00  0.00     0.127 S 
ATOM     66  O   UNL A   1      41.441  35.522  36.862  1.00  0.00    -0.237 OA
ATOM     67  O   UNL A   1      39.702  36.583  35.480  1.00  0.00    -0.237 OA
ATOM     68  O   UNL A   1      39.363  36.347  37.902  1.00  0.00    -0.744 OA
ENDBRANCH  62  65
ENDBRANCH  44  58
BRANCH  45  69
ATOM     69  C   UNL A   1      42.222  26.478  27.516  1.00  0.00     0.023 A 
ATOM     70  C   UNL A   1      43.031  27.076  26.531  1.00  0.00     0.012 A 
ATOM     71  C   UNL A   1      41.908  25.109  27.410  1.00  0.00     0.148 A 
ATOM     72  C   UNL A   1      43.491  26.335  25.441  1.00  0.00     0.002 A 
ATOM     73  C   UNL A   1      42.417  24.363  26.353  1.00  0.00     0.091 A 
ATOM     74  F   UNL A   1      41.129  24.561  28.352  1.00  0.00    -0.205 F 
ATOM     75  C   UNL A   1      43.193  24.977  25.358  1.00  0.00     0.022 A 
BRANCH  73  76
ATOM     76  S   UNL A   1      42.204  22.583  26.243  1.00  0.00     0.127 S 
ATOM     77  O   UNL A   1      40.750  22.461  26.170  1.00  0.00    -0.237 OA
ATOM     78  O   UNL A   1      42.914  22.269  25.002  1.00  0.00    -0.237 OA
ATOM     79  O   UNL A   1      42.827  22.039  27.442  1.00  0.00    -0.744 OA
ENDBRANCH  73  76
ENDBRANCH  45  69
BRANCH  57  80
ATOM     80  C   UNL A   1      44.562  27.468  34.016  1.00  0.00     0.023 A 
ATOM     81  C   UNL A   1      45.806  28.130  33.971  1.00  0.00     0.012 A 
ATOM     82  C   UNL A   1      44.422  26.313  34.810  1.00  0.00     0.148 A 
ATOM     83  C   UNL A   1      46.902  27.625  34.667  1.00  0.00     0.002 A 
ATOM     84  C   UNL A   1      45.505  25.846  35.544  1.00  0.00     0.091 A 
ATOM     85  F   UNL A   1      43.237  25.686  34.826  1.00  0.00    -0.205 F 
ATOM     86  C   UNL A   1      46.750  26.491  35.462  1.00  0.00     0.022 A 
BRANCH  84  87
ATOM     87  S   UNL A   1      45.371  24.451  36.667  1.00  0.00     0.127 S 
ATOM     88  O   UNL A   1      46.743  24.333  37.160  1.00  0.00    -0.237 OA
ATOM     89  O   UNL A   1      44.408  24.938  37.655  1.00  0.00    -0.237 OA
ATOM     90  O   UNL A   1      44.895  23.335  35.862  1.00  0.00    -0.744 OA
ENDBRANCH  84  87
ENDBRANCH  57  80
ENDBRANCH  31  32
ENDBRANCH  23  26
ENDBRANCH  21  22
ENDBRANCH   1  21
TORSDOF 16
ENDMDL
MODEL 2
REMARK VINA RESULT:     -11.5      4.779     10.195
REMARK SMILES C[C@H]([C@@H](C)O)[NH+]1CCC(C)(C(=O)NCCCNC(=O)c2ccc(-c3c4nc(c(-c5cccc(S(=O)(=O)[O-])c5F)c5ccc([nH]5)c(-c5cccc(S(=O)(=O)[O-])c5F)c5nc(c(-c6cccc(S(=O)(=O)[O-])c6F)c6ccc3[nH]6)C=C5)C=C4)cc2)CC1
REMARK SMILES IDX 15 1 14 2 13 3 11 4 12 5 9 7 6 8 7 9 84 10 8 12 83 13 10 14
REMARK SMILES IDX 2 15 1 16 3 17 4 18 5 19 16 21 17 22 18 23 19 25 20 26 21 27
REMARK SMILES IDX 82 28 22 29 81 30 23 31 24 32 25 33 75 34 26 35 80 36 74 37
REMARK SMILES IDX 76 38 27 39 79 40 73 41 72 42 28 44 60 45 40 46 59 47 41 48
REMARK SMILES IDX 44 49 58 50 77 51 42 52 43 53 57 55 78 56 45 57 29 58 30 59
REMARK SMILES IDX 38 60 31 61 33 62 39 63 32 64 34 65 35 66 36 67 37 68 61 69
REMARK SMILES IDX 62 70 70 71 63 72 65 73 71 74 64 75 66 76 67 77 68 78 69 79
REMARK SMILES IDX 46 80 47 81 55 82 48 83 50 84 56 85 49 86 51 87 52 88 53 89
REMARK SMILES IDX 54 90
REMARK H PARENT 13 6 6 11 5 20 17 24 76 43 44 54
REMARK Flexibility Score: inf
ROOT
ATOM      1  C   UNL A   1      35.037  21.663  26.067  1.00  0.00     0.042 C 
ENDROOT
BRANCH   1   2
ATOM      2  C   UNL A   1      33.823  22.207  25.322  1.00  0.00     0.117 C 
BRANCH   2   3
ATOM      3  N   UNL A   1      32.799  22.703  26.231  1.00  0.00    -0.356 N 
ATOM      4  C   UNL A   1      32.319  23.948  26.499  1.00  0.00     0.226 C 
ATOM      5  O   UNL A   1      31.472  24.020  27.393  1.00  0.00    -0.274 OA
ATOM      6  H   UNL A   1      32.365  21.992  26.757  1.00  0.00     0.163 HD
BRANCH   4   7
ATOM      7  C   UNL A   1      32.774  25.193  25.711  1.00  0.00     0.057 C 
ATOM      8  N   UNL A   1      30.547  26.830  24.574  1.00  0.00    -0.331 N 
ATOM      9  C   UNL A   1      30.761  26.740  26.005  1.00  0.00     0.263 C 
ATOM     10  C   UNL A   1      30.900  25.571  23.923  1.00  0.00     0.263 C 
ATOM     11  H   UNL A   1      29.539  26.958  24.478  1.00  0.00     0.348 HD
ATOM     12  C   UNL A   1      32.221  26.483  26.354  1.00  0.00     0.078 C 
ATOM     13  C   UNL A   1      32.315  25.074  24.222  1.00  0.00     0.078 C 
ATOM     14  C   UNL A   1      34.318  25.210  25.658  1.00  0.00     0.022 C 
BRANCH   8  15
ATOM     15  C   UNL A   1      30.878  28.080  23.858  1.00  0.00     0.209 C 
ATOM     16  C   UNL A   1      31.219  29.318  24.705  1.00  0.00     0.078 C 
BRANCH  15  17
ATOM     17  C   UNL A   1      29.859  28.450  22.722  1.00  0.00     0.169 C 
ATOM     18  C   UNL A   1      28.853  29.557  23.043  1.00  0.00     0.045 C 
BRANCH  17  19
ATOM     19  O   UNL A   1      30.586  28.857  21.549  1.00  0.00    -0.387 OA
ATOM     20  H   UNL A   1      30.516  29.819  21.443  1.00  0.00     0.211 HD
ENDBRANCH  17  19
ENDBRANCH  15  17
ENDBRANCH   8  15
ENDBRANCH   4   7
ENDBRANCH   2   3
ENDBRANCH   1   2
BRANCH   1  21
ATOM     21  C   UNL A   1      36.364  21.979  25.395  1.00  0.00     0.118 C 
BRANCH  21  22
ATOM     22  N   UNL A   1      37.349  20.927  25.596  1.00  0.00    -0.352 N 
ATOM     23  C   UNL A   1      38.681  21.014  25.916  1.00  0.00     0.251 C 
ATOM     24  H   UNL A   1      37.008  20.010  25.484  1.00  0.00     0.163 HD
ATOM     25  O   UNL A   1      39.391  20.019  25.812  1.00  0.00    -0.269 OA
BRANCH  23  26
ATOM     26  C   UNL A   1      39.258  22.298  26.373  1.00  0.00     0.039 A 
ATOM     27  C   UNL A   1      40.359  22.273  27.231  1.00  0.00     0.014 A 
ATOM     28  C   UNL A   1      38.704  23.519  25.981  1.00  0.00     0.014 A 
ATOM     29  C   UNL A   1      40.936  23.474  27.649  1.00  0.00     0.010 A 
ATOM     30  C   UNL A   1      39.337  24.710  26.319  1.00  0.00     0.010 A 
ATOM     31  C   UNL A   1      40.451  24.702  27.170  1.00  0.00    -0.014 A 
BRANCH  31  32
ATOM     32  C   UNL A   1      41.109  25.981  27.540  1.00  0.00     0.031 A 
ATOM     33  C   UNL A   1      42.533  26.257  27.137  1.00  0.00     0.074 A 
ATOM     34  C   UNL A   1      40.440  26.867  28.305  1.00  0.00     0.049 A 
ATOM     35  N   UNL A   1      43.264  27.315  27.375  1.00  0.00    -0.248 NA
ATOM     36  C   UNL A   1      43.239  25.198  26.396  1.00  0.00     0.031 C 
ATOM     37  C   UNL A   1      39.090  26.671  28.842  1.00  0.00     0.029 A 
ATOM     38  N   UNL A   1      40.807  28.100  28.780  1.00  0.00    -0.354 N 
ATOM     39  C   UNL A   1      44.519  27.039  26.846  1.00  0.00     0.074 A 
ATOM     40  C   UNL A   1      44.463  25.696  26.309  1.00  0.00     0.031 C 
ATOM     41  C   UNL A   1      38.738  27.751  29.555  1.00  0.00     0.029 A 
ATOM     42  C   UNL A   1      39.842  28.704  29.551  1.00  0.00     0.049 A 
ATOM     43  H   UNL A   1      41.680  28.513  28.586  1.00  0.00     0.167 HD
ATOM     44  C   UNL A   1      45.609  27.839  26.781  1.00  0.00     0.034 A 
ATOM     45  C   UNL A   1      39.846  29.894  30.183  1.00  0.00     0.034 A 
ATOM     46  C   UNL A   1      45.646  29.188  27.279  1.00  0.00     0.049 A 
ATOM     47  C   UNL A   1      41.047  30.789  30.042  1.00  0.00     0.074 A 
ATOM     48  C   UNL A   1      46.669  30.114  27.182  1.00  0.00     0.029 A 
ATOM     49  N   UNL A   1      44.617  29.802  27.976  1.00  0.00    -0.354 N 
ATOM     50  N   UNL A   1      42.163  30.576  29.386  1.00  0.00    -0.248 NA
ATOM     51  C   UNL A   1      40.971  32.106  30.689  1.00  0.00     0.031 C 
ATOM     52  C   UNL A   1      46.267  31.282  27.840  1.00  0.00     0.029 A 
ATOM     53  C   UNL A   1      44.981  31.093  28.322  1.00  0.00     0.049 A 
ATOM     54  H   UNL A   1      43.753  29.382  28.193  1.00  0.00     0.167 HD
ATOM     55  C   UNL A   1      42.908  31.742  29.515  1.00  0.00     0.074 A 
ATOM     56  C   UNL A   1      42.103  32.668  30.285  1.00  0.00     0.031 C 
ATOM     57  C   UNL A   1      44.151  32.018  29.049  1.00  0.00     0.034 A 
BRANCH  44  58
ATOM     58  C   UNL A   1      46.838  27.297  26.095  1.00  0.00     0.023 A 
ATOM     59  C   UNL A   1      47.002  27.488  24.708  1.00  0.00     0.012 A 
ATOM     60  C   UNL A   1      47.855  26.652  26.827  1.00  0.00     0.148 A 
ATOM     61  C   UNL A   1      48.138  27.016  24.053  1.00  0.00     0.002 A 
ATOM     62  C   UNL A   1      49.006  26.226  26.175  1.00  0.00     0.091 A 
ATOM     63  F   UNL A   1      47.673  26.460  28.141  1.00  0.00    -0.205 F 
ATOM     64  C   UNL A   1      49.145  26.396  24.787  1.00  0.00     0.022 A 
BRANCH  62  65
ATOM     65  S   UNL A   1      50.397  25.491  27.043  1.00  0.00     0.127 S 
ATOM     66  O   UNL A   1      51.340  25.265  25.949  1.00  0.00    -0.237 OA
ATOM     67  O   UNL A   1      50.780  26.557  27.968  1.00  0.00    -0.237 OA
ATOM     68  O   UNL A   1      49.882  24.288  27.681  1.00  0.00    -0.744 OA
ENDBRANCH  62  65
ENDBRANCH  44  58
BRANCH  45  69
ATOM     69  C   UNL A   1      38.640  30.339  30.938  1.00  0.00     0.023 A 
ATOM     70  C   UNL A   1      38.555  30.080  32.319  1.00  0.00     0.012 A 
ATOM     71  C   UNL A   1      37.598  31.042  30.304  1.00  0.00     0.148 A 
ATOM     72  C   UNL A   1      37.436  30.484  33.051  1.00  0.00     0.002 A 
ATOM     73  C   UNL A   1      36.515  31.492  31.049  1.00  0.00     0.091 A 
ATOM     74  F   UNL A   1      37.694  31.270  28.987  1.00  0.00    -0.205 F 
ATOM     75  C   UNL A   1      36.422  31.198  32.418  1.00  0.00     0.022 A 
BRANCH  73  76
ATOM     76  S   UNL A   1      35.235  32.539  30.349  1.00  0.00     0.127 S 
ATOM     77  O   UNL A   1      34.313  32.678  31.473  1.00  0.00    -0.237 OA
ATOM     78  O   UNL A   1      35.985  33.750  30.011  1.00  0.00    -0.237 OA
ATOM     79  O   UNL A   1      34.722  31.812  29.195  1.00  0.00    -0.744 OA
ENDBRANCH  73  76
ENDBRANCH  45  69
BRANCH  57  80
ATOM     80  C   UNL A   1      44.709  33.389  29.332  1.00  0.00     0.023 A 
ATOM     81  C   UNL A   1      45.406  33.631  30.533  1.00  0.00     0.012 A 
ATOM     82  C   UNL A   1      44.583  34.425  28.385  1.00  0.00     0.148 A 
ATOM     83  C   UNL A   1      45.930  34.893  30.807  1.00  0.00     0.002 A 
ATOM     84  C   UNL A   1      45.154  35.666  28.642  1.00  0.00     0.091 A 
ATOM     85  F   UNL A   1      43.900  34.183  27.257  1.00  0.00    -0.205 F 
ATOM     86  C   UNL A   1      45.814  35.906  29.858  1.00  0.00     0.022 A 
BRANCH  84  87
ATOM     87  S   UNL A   1      45.137  36.996  27.435  1.00  0.00     0.127 S 
ATOM     88  O   UNL A   1      45.789  38.076  28.173  1.00  0.00    -0.237 OA
ATOM     89  O   UNL A   1      45.933  36.436  26.343  1.00  0.00    -0.237 OA
ATOM     90  O   UNL A   1      43.735  37.217  27.106  1.00  0.00    -0.744 OA
ENDBRANCH  84  87
ENDBRANCH  57  80
ENDBRANCH  31  32
ENDBRANCH  23  26
ENDBRANCH  21  22
ENDBRANCH   1  21
TORSDOF 16
ENDMDL
MODEL 3
REMARK VINA RESULT:     -11.5      1.391      1.635
REMARK SMILES C[C@H]([C@@H](C)O)[NH+]1CCC(C)(C(=O)NCCCNC(=O)c2ccc(-c3c4nc(c(-c5cccc(S(=O)(=O)[O-])c5F)c5ccc([nH]5)c(-c5cccc(S(=O)(=O)[O-])c5F)c5nc(c(-c6cccc(S(=O)(=O)[O-])c6F)c6ccc3[nH]6)C=C5)C=C4)cc2)CC1
REMARK SMILES IDX 15 1 14 2 13 3 11 4 12 5 9 7 6 8 7 9 84 10 8 12 83 13 10 14
REMARK SMILES IDX 2 15 1 16 3 17 4 18 5 19 16 21 17 22 18 23 19 25 20 26 21 27
REMARK SMILES IDX 82 28 22 29 81 30 23 31 24 32 25 33 75 34 26 35 80 36 74 37
REMARK SMILES IDX 76 38 27 39 79 40 73 41 72 42 28 44 60 45 40 46 59 47 41 48
REMARK SMILES IDX 44 49 58 50 77 51 42 52 43 53 57 55 78 56 45 57 29 58 30 59
REMARK SMILES IDX 38 60 31 61 33 62 39 63 32 64 34 65 35 66 36 67 37 68 61 69
REMARK SMILES IDX 62 70 70 71 63 72 65 73 71 74 64 75 66 76 67 77 68 78 69 79
REMARK SMILES IDX 46 80 47 81 55 82 48 83 50 84 56 85 49 86 51 87 52 88 53 89
REMARK SMILES IDX 54 90
REMARK H PARENT 13 6 6 11 5 20 17 24 76 43 44 54
REMARK Flexibility Score: inf
ROOT
ATOM      1  C   UNL A   1      32.116  28.992  24.291  1.00  0.00     0.042 C 
ENDROOT
BRANCH   1   2
ATOM      2  C   UNL A   1      31.846  27.494  24.192  1.00  0.00     0.117 C 
BRANCH   2   3
ATOM      3  N   UNL A   1      32.608  26.869  23.120  1.00  0.00    -0.356 N 
ATOM      4  C   UNL A   1      33.515  25.854  23.095  1.00  0.00     0.226 C 
ATOM      5  O   UNL A   1      34.027  25.615  21.998  1.00  0.00    -0.274 OA
ATOM      6  H   UNL A   1      32.431  27.260  22.234  1.00  0.00     0.163 HD
BRANCH   4   7
ATOM      7  C   UNL A   1      33.858  25.025  24.349  1.00  0.00     0.057 C 
ATOM      8  N   UNL A   1      33.944  22.071  23.904  1.00  0.00    -0.331 N 
ATOM      9  C   UNL A   1      34.928  22.952  23.306  1.00  0.00     0.263 C 
ATOM     10  C   UNL A   1      32.645  22.734  23.984  1.00  0.00     0.263 C 
ATOM     11  H   UNL A   1      33.859  21.302  23.239  1.00  0.00     0.348 HD
ATOM     12  C   UNL A   1      35.152  24.211  24.132  1.00  0.00     0.078 C 
ATOM     13  C   UNL A   1      32.662  24.084  24.704  1.00  0.00     0.078 C 
ATOM     14  C   UNL A   1      33.992  25.981  25.555  1.00  0.00     0.022 C 
BRANCH   8  15
ATOM     15  C   UNL A   1      34.329  21.194  25.028  1.00  0.00     0.209 C 
ATOM     16  C   UNL A   1      35.736  20.573  24.999  1.00  0.00     0.078 C 
BRANCH  15  17
ATOM     17  C   UNL A   1      33.252  20.108  25.385  1.00  0.00     0.169 C 
ATOM     18  C   UNL A   1      33.390  18.755  24.684  1.00  0.00     0.045 C 
BRANCH  17  19
ATOM     19  O   UNL A   1      33.278  19.863  26.802  1.00  0.00    -0.387 OA
ATOM     20  H   UNL A   1      32.460  20.196  27.203  1.00  0.00     0.211 HD
ENDBRANCH  17  19
ENDBRANCH  15  17
ENDBRANCH   8  15
ENDBRANCH   4   7
ENDBRANCH   2   3
ENDBRANCH   1   2
BRANCH   1  21
ATOM     21  C   UNL A   1      32.927  29.391  25.514  1.00  0.00     0.118 C 
BRANCH  21  22
ATOM     22  N   UNL A   1      32.618  30.739  25.966  1.00  0.00    -0.352 N 
ATOM     23  C   UNL A   1      33.170  31.478  26.982  1.00  0.00     0.251 C 
ATOM     24  H   UNL A   1      31.901  31.191  25.466  1.00  0.00     0.163 HD
ATOM     25  O   UNL A   1      32.610  32.506  27.351  1.00  0.00    -0.269 OA
BRANCH  23  26
ATOM     26  C   UNL A   1      34.422  31.035  27.634  1.00  0.00     0.039 A 
ATOM     27  C   UNL A   1      35.430  31.974  27.864  1.00  0.00     0.014 A 
ATOM     28  C   UNL A   1      34.617  29.699  27.994  1.00  0.00     0.014 A 
ATOM     29  C   UNL A   1      36.607  31.582  28.505  1.00  0.00     0.010 A 
ATOM     30  C   UNL A   1      35.746  29.331  28.717  1.00  0.00     0.010 A 
ATOM     31  C   UNL A   1      36.761  30.264  28.968  1.00  0.00    -0.014 A 
BRANCH  31  32
ATOM     32  C   UNL A   1      37.972  29.856  29.724  1.00  0.00     0.031 A 
ATOM     33  C   UNL A   1      38.228  30.390  31.108  1.00  0.00     0.074 A 
ATOM     34  C   UNL A   1      38.879  29.055  29.130  1.00  0.00     0.049 A 
ATOM     35  N   UNL A   1      39.230  30.143  31.912  1.00  0.00    -0.248 NA
ATOM     36  C   UNL A   1      37.249  31.346  31.652  1.00  0.00     0.031 C 
ATOM     37  C   UNL A   1      38.792  28.552  27.757  1.00  0.00     0.029 A 
ATOM     38  N   UNL A   1      40.060  28.538  29.597  1.00  0.00    -0.354 N 
ATOM     39  C   UNL A   1      39.022  30.934  33.036  1.00  0.00     0.074 A 
ATOM     40  C   UNL A   1      37.818  31.699  32.794  1.00  0.00     0.031 C 
ATOM     41  C   UNL A   1      39.863  27.786  27.499  1.00  0.00     0.029 A 
ATOM     42  C   UNL A   1      40.726  27.764  28.675  1.00  0.00     0.049 A 
ATOM     43  H   UNL A   1      40.399  28.704  30.506  1.00  0.00     0.167 HD
ATOM     44  C   UNL A   1      39.745  30.994  34.178  1.00  0.00     0.034 A 
ATOM     45  C   UNL A   1      41.899  27.108  28.768  1.00  0.00     0.034 A 
ATOM     46  C   UNL A   1      40.918  30.200  34.429  1.00  0.00     0.049 A 
ATOM     47  C   UNL A   1      42.650  27.142  30.071  1.00  0.00     0.074 A 
ATOM     48  C   UNL A   1      41.671  30.117  35.587  1.00  0.00     0.029 A 
ATOM     49  N   UNL A   1      41.514  29.355  33.506  1.00  0.00    -0.354 N 
ATOM     50  N   UNL A   1      42.343  27.762  31.185  1.00  0.00    -0.248 NA
ATOM     51  C   UNL A   1      43.886  26.351  30.143  1.00  0.00     0.031 C 
ATOM     52  C   UNL A   1      42.736  29.240  35.356  1.00  0.00     0.029 A 
ATOM     53  C   UNL A   1      42.629  28.752  34.062  1.00  0.00     0.049 A 
ATOM     54  H   UNL A   1      41.191  29.206  32.587  1.00  0.00     0.167 HD
ATOM     55  C   UNL A   1      43.328  27.410  32.100  1.00  0.00     0.074 A 
ATOM     56  C   UNL A   1      44.225  26.499  31.417  1.00  0.00     0.031 C 
ATOM     57  C   UNL A   1      43.485  27.813  33.385  1.00  0.00     0.034 A 
BRANCH  44  58
ATOM     58  C   UNL A   1      39.257  31.911  35.271  1.00  0.00     0.023 A 
ATOM     59  C   UNL A   1      39.451  33.303  35.150  1.00  0.00     0.012 A 
ATOM     60  C   UNL A   1      38.557  31.407  36.385  1.00  0.00     0.148 A 
ATOM     61  C   UNL A   1      38.990  34.175  36.135  1.00  0.00     0.002 A 
ATOM     62  C   UNL A   1      38.059  32.288  37.340  1.00  0.00     0.091 A 
ATOM     63  F   UNL A   1      38.399  30.081  36.496  1.00  0.00    -0.205 F 
ATOM     64  C   UNL A   1      38.285  33.669  37.223  1.00  0.00     0.022 A 
BRANCH  62  65
ATOM     65  S   UNL A   1      37.066  31.746  38.735  1.00  0.00     0.127 S 
ATOM     66  O   UNL A   1      36.819  30.346  38.395  1.00  0.00    -0.237 OA
ATOM     67  O   UNL A   1      37.980  31.948  39.860  1.00  0.00    -0.237 OA
ATOM     68  O   UNL A   1      35.889  32.602  38.747  1.00  0.00    -0.744 OA
ENDBRANCH  62  65
ENDBRANCH  44  58
BRANCH  45  69
ATOM     69  C   UNL A   1      42.391  26.298  27.618  1.00  0.00     0.023 A 
ATOM     70  C   UNL A   1      43.286  26.876  26.697  1.00  0.00     0.012 A 
ATOM     71  C   UNL A   1      42.004  24.954  27.449  1.00  0.00     0.148 A 
ATOM     72  C   UNL A   1      43.762  26.142  25.610  1.00  0.00     0.002 A 
ATOM     73  C   UNL A   1      42.527  24.211  26.398  1.00  0.00     0.091 A 
ATOM     74  F   UNL A   1      41.144  24.426  28.331  1.00  0.00    -0.205 F 
ATOM     75  C   UNL A   1      43.390  24.807  25.465  1.00  0.00     0.022 A 
BRANCH  73  76
ATOM     76  S   UNL A   1      42.216  22.452  26.217  1.00  0.00     0.127 S 
ATOM     77  O   UNL A   1      42.959  22.140  24.999  1.00  0.00    -0.237 OA
ATOM     78  O   UNL A   1      42.795  21.914  27.449  1.00  0.00    -0.237 OA
ATOM     79  O   UNL A   1      40.768  22.317  26.129  1.00  0.00    -0.744 OA
ENDBRANCH  73  76
ENDBRANCH  45  69
BRANCH  57  80
ATOM     80  C   UNL A   1      44.654  27.249  34.151  1.00  0.00     0.023 A 
ATOM     81  C   UNL A   1      45.886  27.934  34.160  1.00  0.00     0.012 A 
ATOM     82  C   UNL A   1      44.517  26.065  34.901  1.00  0.00     0.148 A 
ATOM     83  C   UNL A   1      46.974  27.426  34.866  1.00  0.00     0.002 A 
ATOM     84  C   UNL A   1      45.591  25.592  35.646  1.00  0.00     0.091 A 
ATOM     85  F   UNL A   1      43.344  25.415  34.866  1.00  0.00    -0.205 F 
ATOM     86  C   UNL A   1      46.824  26.263  35.618  1.00  0.00     0.022 A 
BRANCH  84  87
ATOM     87  S   UNL A   1      45.456  24.157  36.717  1.00  0.00     0.127 S 
ATOM     88  O   UNL A   1      46.834  23.999  37.178  1.00  0.00    -0.237 OA
ATOM     89  O   UNL A   1      44.519  24.619  37.741  1.00  0.00    -0.237 OA
ATOM     90  O   UNL A   1      44.947  23.080  35.878  1.00  0.00    -0.744 OA
ENDBRANCH  84  87
ENDBRANCH  57  80
ENDBRANCH  31  32
ENDBRANCH  23  26
ENDBRANCH  21  22
ENDBRANCH   1  21
TORSDOF 16
ENDMDL
