MODEL 1
REMARK VINA RESULT:     -11.2      0.000      0.000
REMARK SMILES CCN(c1cccc(C)c1)c1nc(OCC(=O)NCCCNC(=O)c2ccc(-c3c4nc(c(-c5cccc(S(=O)(=O)[O-])c5F)c5ccc([nH]5)c(-c5cccc(S(=O)(=O)[O-])c5F)c5nc(c(-c6cccc(S(=O)(=O)[O-])c6F)c6ccc3[nH]6)C=C5)C=C4)cc2)cc(-c2ccc(C)cc2)n1
REMARK SMILES IDX 19 1 18 2 16 3 17 4 15 6 14 7 13 8 11 9 12 10 97 11 89 12
REMARK SMILES IDX 88 13 3 14 2 15 1 16 4 17 5 18 10 19 6 20 8 21 7 22 9 23
REMARK SMILES IDX 90 24 91 25 96 26 92 27 95 28 93 29 94 30 20 31 21 32 22 33
REMARK SMILES IDX 23 34 24 36 25 37 26 38 87 39 27 40 86 41 28 42 29 43 30 44
REMARK SMILES IDX 80 45 31 46 85 47 79 48 81 49 32 50 84 51 78 52 77 53 33 55
REMARK SMILES IDX 65 56 45 57 64 58 46 59 49 60 63 61 82 62 47 63 48 64 62 66
REMARK SMILES IDX 83 67 50 68 34 69 35 70 43 71 36 72 38 73 44 74 37 75 39 76
REMARK SMILES IDX 40 77 41 78 42 79 66 80 67 81 75 82 68 83 70 84 76 85 69 86
REMARK SMILES IDX 71 87 72 88 73 89 74 90 51 91 52 92 60 93 53 94 55 95 61 96
REMARK SMILES IDX 54 97 56 98 57 99 58 100 59 101
REMARK H PARENT 18 5 22 35 81 54 49 65
REMARK Flexibility Score: inf
ROOT
ATOM      1  C   UNL A   1      34.460  34.710  31.624  1.00  0.00     0.117 C 
ENDROOT
BRANCH   1   2
ATOM      2  N   UNL A   1      33.896  35.796  30.833  1.00  0.00    -0.353 N 
ATOM      3  C   UNL A   1      33.346  35.729  29.588  1.00  0.00     0.258 C 
ATOM      4  O   UNL A   1      32.821  36.729  29.098  1.00  0.00    -0.271 OA
ATOM      5  H   UNL A   1      33.916  36.687  31.250  1.00  0.00     0.163 HD
BRANCH   3   6
ATOM      6  C   UNL A   1      33.382  34.400  28.828  1.00  0.00     0.331 C 
BRANCH   6   7
ATOM      7  O   UNL A   1      34.596  34.098  28.161  1.00  0.00    -0.467 OA
BRANCH   7   8
ATOM      8  C   UNL A   1      34.934  32.778  28.027  1.00  0.00     0.219 A 
ATOM      9  C   UNL A   1      34.160  30.725  27.299  1.00  0.00     0.233 A 
ATOM     10  N   UNL A   1      33.966  32.049  27.452  1.00  0.00    -0.177 NA
ATOM     11  N   UNL A   1      35.298  30.126  27.671  1.00  0.00    -0.212 NA
ATOM     12  C   UNL A   1      36.272  30.884  28.202  1.00  0.00     0.080 A 
ATOM     13  C   UNL A   1      36.130  32.235  28.409  1.00  0.00     0.097 A 
BRANCH   9  14
ATOM     14  N   UNL A   1      33.155  29.960  26.680  1.00  0.00    -0.311 N 
BRANCH  14  15
ATOM     15  C   UNL A   1      31.769  30.376  26.946  1.00  0.00     0.122 C 
ATOM     16  C   UNL A   1      31.082  31.036  25.756  1.00  0.00     0.028 C 
ENDBRANCH  14  15
BRANCH  14  17
ATOM     17  C   UNL A   1      33.399  28.881  25.811  1.00  0.00     0.044 A 
ATOM     18  C   UNL A   1      33.691  29.050  24.450  1.00  0.00     0.026 A 
ATOM     19  C   UNL A   1      33.362  27.562  26.302  1.00  0.00     0.029 A 
ATOM     20  C   UNL A   1      33.923  27.950  23.616  1.00  0.00     0.002 A 
ATOM     21  C   UNL A   1      33.581  26.449  25.477  1.00  0.00    -0.049 A 
ATOM     22  C   UNL A   1      33.861  26.655  24.125  1.00  0.00     0.003 A 
ATOM     23  C   UNL A   1      33.493  25.069  26.056  1.00  0.00     0.044 C 
ENDBRANCH  14  17
ENDBRANCH   9  14
BRANCH  12  24
ATOM     24  C   UNL A   1      37.548  30.221  28.469  1.00  0.00     0.000 A 
ATOM     25  C   UNL A   1      37.740  28.865  28.166  1.00  0.00     0.010 A 
ATOM     26  C   UNL A   1      38.584  30.915  29.113  1.00  0.00     0.010 A 
ATOM     27  C   UNL A   1      38.925  28.214  28.519  1.00  0.00     0.004 A 
ATOM     28  C   UNL A   1      39.763  30.264  29.479  1.00  0.00     0.004 A 
ATOM     29  C   UNL A   1      39.940  28.906  29.189  1.00  0.00    -0.051 A 
ATOM     30  C   UNL A   1      41.202  28.211  29.601  1.00  0.00     0.044 C 
ENDBRANCH  12  24
ENDBRANCH   7   8
ENDBRANCH   6   7
ENDBRANCH   3   6
ENDBRANCH   1   2
BRANCH   1  31
ATOM     31  C   UNL A   1      34.656  35.044  33.107  1.00  0.00     0.042 C 
BRANCH  31  32
ATOM     32  C   UNL A   1      35.643  34.102  33.759  1.00  0.00     0.118 C 
BRANCH  32  33
ATOM     33  N   UNL A   1      35.610  32.772  33.168  1.00  0.00    -0.352 N 
ATOM     34  C   UNL A   1      36.471  32.146  32.303  1.00  0.00     0.251 C 
ATOM     35  H   UNL A   1      34.835  32.227  33.436  1.00  0.00     0.163 HD
ATOM     36  O   UNL A   1      36.027  31.171  31.686  1.00  0.00    -0.269 OA
BRANCH  34  37
ATOM     37  C   UNL A   1      37.896  32.527  32.180  1.00  0.00     0.039 A 
ATOM     38  C   UNL A   1      38.877  31.782  32.859  1.00  0.00     0.014 A 
ATOM     39  C   UNL A   1      38.249  33.744  31.613  1.00  0.00     0.014 A 
ATOM     40  C   UNL A   1      40.111  32.363  33.145  1.00  0.00     0.010 A 
ATOM     41  C   UNL A   1      39.497  34.257  31.767  1.00  0.00     0.010 A 
ATOM     42  C   UNL A   1      40.342  33.645  32.682  1.00  0.00    -0.014 A 
BRANCH  42  43
ATOM     43  C   UNL A   1      41.301  34.601  33.188  1.00  0.00     0.031 A 
ATOM     44  C   UNL A   1      41.004  35.294  34.437  1.00  0.00     0.074 A 
ATOM     45  C   UNL A   1      42.564  34.328  32.784  1.00  0.00     0.049 A 
ATOM     46  N   UNL A   1      41.790  36.138  34.999  1.00  0.00    -0.248 NA
ATOM     47  C   UNL A   1      39.768  35.059  35.171  1.00  0.00     0.031 C 
ATOM     48  C   UNL A   1      43.810  34.410  33.534  1.00  0.00     0.029 A 
ATOM     49  N   UNL A   1      42.981  33.824  31.564  1.00  0.00    -0.354 N 
ATOM     50  C   UNL A   1      41.352  36.274  36.298  1.00  0.00     0.074 A 
ATOM     51  C   UNL A   1      40.019  35.726  36.300  1.00  0.00     0.031 C 
ATOM     52  C   UNL A   1      44.845  34.222  32.688  1.00  0.00     0.029 A 
ATOM     53  C   UNL A   1      44.299  34.208  31.339  1.00  0.00     0.049 A 
ATOM     54  H   UNL A   1      42.433  33.281  30.953  1.00  0.00     0.167 HD
ATOM     55  C   UNL A   1      42.263  36.648  37.242  1.00  0.00     0.034 A 
ATOM     56  C   UNL A   1      44.533  35.176  30.394  1.00  0.00     0.034 A 
ATOM     57  C   UNL A   1      43.574  36.909  36.604  1.00  0.00     0.049 A 
ATOM     58  C   UNL A   1      44.954  36.505  31.011  1.00  0.00     0.074 A 
ATOM     59  C   UNL A   1      44.746  36.173  36.527  1.00  0.00     0.029 A 
ATOM     60  N   UNL A   1      43.683  37.911  35.642  1.00  0.00    -0.354 N 
ATOM     61  N   UNL A   1      44.908  36.770  32.288  1.00  0.00    -0.248 NA
ATOM     62  C   UNL A   1      45.495  37.625  30.247  1.00  0.00     0.031 C 
ATOM     63  C   UNL A   1      45.512  36.680  35.439  1.00  0.00     0.029 A 
ATOM     64  C   UNL A   1      44.826  37.741  34.873  1.00  0.00     0.049 A 
ATOM     65  H   UNL A   1      43.036  38.644  35.524  1.00  0.00     0.167 HD
ATOM     66  C   UNL A   1      45.259  38.069  32.524  1.00  0.00     0.074 A 
ATOM     67  C   UNL A   1      45.695  38.537  31.217  1.00  0.00     0.031 C 
ATOM     68  C   UNL A   1      45.112  38.650  33.758  1.00  0.00     0.034 A 
BRANCH  55  69
ATOM     69  C   UNL A   1      42.107  36.501  38.753  1.00  0.00     0.023 A 
ATOM     70  C   UNL A   1      43.163  35.857  39.439  1.00  0.00     0.012 A 
ATOM     71  C   UNL A   1      41.010  36.892  39.560  1.00  0.00     0.148 A 
ATOM     72  C   UNL A   1      43.111  35.556  40.805  1.00  0.00     0.002 A 
ATOM     73  C   UNL A   1      40.943  36.572  40.921  1.00  0.00     0.091 A 
ATOM     74  F   UNL A   1      40.027  37.629  39.050  1.00  0.00    -0.205 F 
ATOM     75  C   UNL A   1      41.991  35.896  41.545  1.00  0.00     0.022 A 
BRANCH  73  76
ATOM     76  S   UNL A   1      39.515  36.978  41.949  1.00  0.00     0.127 S 
ATOM     77  O   UNL A   1      38.405  36.450  41.154  1.00  0.00    -0.237 OA
ATOM     78  O   UNL A   1      39.792  36.229  43.174  1.00  0.00    -0.237 OA
ATOM     79  O   UNL A   1      39.507  38.428  42.098  1.00  0.00    -0.744 OA
ENDBRANCH  73  76
ENDBRANCH  55  69
BRANCH  56  80
ATOM     80  C   UNL A   1      43.624  34.998  29.204  1.00  0.00     0.023 A 
ATOM     81  C   UNL A   1      42.658  36.020  29.003  1.00  0.00     0.012 A 
ATOM     82  C   UNL A   1      44.006  34.213  28.097  1.00  0.00     0.148 A 
ATOM     83  C   UNL A   1      42.250  36.380  27.716  1.00  0.00     0.002 A 
ATOM     84  C   UNL A   1      43.573  34.566  26.816  1.00  0.00     0.091 A 
ATOM     85  F   UNL A   1      44.838  33.183  28.297  1.00  0.00    -0.205 F 
ATOM     86  C   UNL A   1      42.745  35.683  26.620  1.00  0.00     0.022 A 
BRANCH  84  87
ATOM     87  S   UNL A   1      44.139  33.676  25.357  1.00  0.00     0.127 S 
ATOM     88  O   UNL A   1      45.569  33.982  25.363  1.00  0.00    -0.237 OA
ATOM     89  O   UNL A   1      43.817  32.283  25.669  1.00  0.00    -0.237 OA
ATOM     90  O   UNL A   1      43.367  34.229  24.254  1.00  0.00    -0.744 OA
ENDBRANCH  84  87
ENDBRANCH  56  80
BRANCH  68  91
ATOM     91  C   UNL A   1      45.218  40.140  34.041  1.00  0.00     0.023 A 
ATOM     92  C   UNL A   1      46.456  40.801  34.149  1.00  0.00     0.012 A 
ATOM     93  C   UNL A   1      44.060  40.965  34.060  1.00  0.00     0.148 A 
ATOM     94  C   UNL A   1      46.547  42.183  34.342  1.00  0.00     0.002 A 
ATOM     95  C   UNL A   1      44.162  42.351  34.117  1.00  0.00     0.091 A 
ATOM     96  F   UNL A   1      42.839  40.410  34.047  1.00  0.00    -0.205 F 
ATOM     97  C   UNL A   1      45.402  42.963  34.299  1.00  0.00     0.022 A 
BRANCH  95  98
ATOM     98  S   UNL A   1      42.737  43.400  33.794  1.00  0.00     0.127 S 
ATOM     99  O   UNL A   1      42.267  42.886  32.511  1.00  0.00    -0.237 OA
ATOM    100  O   UNL A   1      41.862  43.097  34.929  1.00  0.00    -0.237 OA
ATOM    101  O   UNL A   1      43.257  44.760  33.792  1.00  0.00    -0.744 OA
ENDBRANCH  95  98
ENDBRANCH  68  91
ENDBRANCH  42  43
ENDBRANCH  34  37
ENDBRANCH  32  33
ENDBRANCH  31  32
ENDBRANCH   1  31
TORSDOF 19
ENDMDL
MODEL 2
REMARK VINA RESULT:     -10.7      5.917     12.446
REMARK SMILES CCN(c1cccc(C)c1)c1nc(OCC(=O)NCCCNC(=O)c2ccc(-c3c4nc(c(-c5cccc(S(=O)(=O)[O-])c5F)c5ccc([nH]5)c(-c5cccc(S(=O)(=O)[O-])c5F)c5nc(c(-c6cccc(S(=O)(=O)[O-])c6F)c6ccc3[nH]6)C=C5)C=C4)cc2)cc(-c2ccc(C)cc2)n1
REMARK SMILES IDX 19 1 18 2 16 3 17 4 15 6 14 7 13 8 11 9 12 10 97 11 89 12
REMARK SMILES IDX 88 13 3 14 2 15 1 16 4 17 5 18 10 19 6 20 8 21 7 22 9 23
REMARK SMILES IDX 90 24 91 25 96 26 92 27 95 28 93 29 94 30 20 31 21 32 22 33
REMARK SMILES IDX 23 34 24 36 25 37 26 38 87 39 27 40 86 41 28 42 29 43 30 44
REMARK SMILES IDX 80 45 31 46 85 47 79 48 81 49 32 50 84 51 78 52 77 53 33 55
REMARK SMILES IDX 65 56 45 57 64 58 46 59 49 60 63 61 82 62 47 63 48 64 62 66
REMARK SMILES IDX 83 67 50 68 34 69 35 70 43 71 36 72 38 73 44 74 37 75 39 76
REMARK SMILES IDX 40 77 41 78 42 79 66 80 67 81 75 82 68 83 70 84 76 85 69 86
REMARK SMILES IDX 71 87 72 88 73 89 74 90 51 91 52 92 60 93 53 94 55 95 61 96
REMARK SMILES IDX 54 97 56 98 57 99 58 100 59 101
REMARK H PARENT 18 5 22 35 81 54 49 65
REMARK Flexibility Score: inf
ROOT
ATOM      1  C   UNL A   1      41.678  33.890  33.805  1.00  0.00     0.117 C 
ENDROOT
BRANCH   1   2
ATOM      2  N   UNL A   1      42.245  34.763  32.786  1.00  0.00    -0.353 N 
ATOM      3  C   UNL A   1      42.092  34.686  31.434  1.00  0.00     0.258 C 
ATOM      4  O   UNL A   1      42.560  35.569  30.715  1.00  0.00    -0.271 OA
ATOM      5  H   UNL A   1      42.809  35.500  33.116  1.00  0.00     0.163 HD
BRANCH   3   6
ATOM      6  C   UNL A   1      41.325  33.502  30.838  1.00  0.00     0.331 C 
BRANCH   6   7
ATOM      7  O   UNL A   1      39.983  33.758  30.461  1.00  0.00    -0.467 OA
BRANCH   7   8
ATOM      8  C   UNL A   1      39.176  32.679  30.219  1.00  0.00     0.219 A 
ATOM      9  C   UNL A   1      36.970  32.000  30.088  1.00  0.00     0.233 A 
ATOM     10  N   UNL A   1      37.870  32.985  30.269  1.00  0.00    -0.177 NA
ATOM     11  N   UNL A   1      37.338  30.739  29.827  1.00  0.00    -0.212 NA
ATOM     12  C   UNL A   1      38.650  30.466  29.734  1.00  0.00     0.080 A 
ATOM     13  C   UNL A   1      39.621  31.418  29.933  1.00  0.00     0.097 A 
BRANCH   9  14
ATOM     14  N   UNL A   1      35.600  32.320  30.122  1.00  0.00    -0.311 N 
BRANCH  14  15
ATOM     15  C   UNL A   1      34.775  31.748  29.047  1.00  0.00     0.122 C 
ATOM     16  C   UNL A   1      34.795  32.558  27.755  1.00  0.00     0.028 C 
ENDBRANCH  14  15
BRANCH  14  17
ATOM     17  C   UNL A   1      34.990  33.096  31.124  1.00  0.00     0.044 A 
ATOM     18  C   UNL A   1      34.971  32.719  32.474  1.00  0.00     0.026 A 
ATOM     19  C   UNL A   1      34.370  34.314  30.787  1.00  0.00     0.029 A 
ATOM     20  C   UNL A   1      34.348  33.516  33.441  1.00  0.00     0.002 A 
ATOM     21  C   UNL A   1      33.732  35.119  31.743  1.00  0.00    -0.049 A 
ATOM     22  C   UNL A   1      33.725  34.708  33.077  1.00  0.00     0.003 A 
ATOM     23  C   UNL A   1      33.060  36.388  31.314  1.00  0.00     0.044 C 
ENDBRANCH  14  17
ENDBRANCH   9  14
BRANCH  12  24
ATOM     24  C   UNL A   1      39.011  29.113  29.313  1.00  0.00     0.000 A 
ATOM     25  C   UNL A   1      39.444  28.851  28.004  1.00  0.00     0.010 A 
ATOM     26  C   UNL A   1      38.851  28.032  30.193  1.00  0.00     0.010 A 
ATOM     27  C   UNL A   1      39.687  27.541  27.581  1.00  0.00     0.004 A 
ATOM     28  C   UNL A   1      39.081  26.722  29.768  1.00  0.00     0.004 A 
ATOM     29  C   UNL A   1      39.495  26.467  28.457  1.00  0.00    -0.051 A 
ATOM     30  C   UNL A   1      39.722  25.057  28.004  1.00  0.00     0.044 C 
ENDBRANCH  12  24
ENDBRANCH   7   8
ENDBRANCH   6   7
ENDBRANCH   3   6
ENDBRANCH   1   2
BRANCH   1  31
ATOM     31  C   UNL A   1      42.702  32.992  34.509  1.00  0.00     0.042 C 
BRANCH  31  32
ATOM     32  C   UNL A   1      42.575  31.554  34.061  1.00  0.00     0.118 C 
BRANCH  32  33
ATOM     33  N   UNL A   1      42.089  30.686  35.123  1.00  0.00    -0.352 N 
ATOM     34  C   UNL A   1      41.722  29.363  35.113  1.00  0.00     0.251 C 
ATOM     35  H   UNL A   1      42.010  31.122  36.002  1.00  0.00     0.163 HD
ATOM     36  O   UNL A   1      41.016  28.975  36.051  1.00  0.00    -0.269 OA
BRANCH  34  37
ATOM     37  C   UNL A   1      42.226  28.403  34.105  1.00  0.00     0.039 A 
ATOM     38  C   UNL A   1      43.555  27.952  34.176  1.00  0.00     0.014 A 
ATOM     39  C   UNL A   1      41.486  28.138  32.961  1.00  0.00     0.014 A 
ATOM     40  C   UNL A   1      44.178  27.452  33.034  1.00  0.00     0.010 A 
ATOM     41  C   UNL A   1      42.045  27.521  31.888  1.00  0.00     0.010 A 
ATOM     42  C   UNL A   1      43.423  27.359  31.878  1.00  0.00    -0.014 A 
BRANCH  42  43
ATOM     43  C   UNL A   1      43.907  27.302  30.518  1.00  0.00     0.031 A 
ATOM     44  C   UNL A   1      44.192  25.997  29.931  1.00  0.00     0.074 A 
ATOM     45  C   UNL A   1      43.504  28.364  29.781  1.00  0.00     0.049 A 
ATOM     46  N   UNL A   1      44.595  25.818  28.728  1.00  0.00    -0.248 NA
ATOM     47  C   UNL A   1      44.015  24.762  30.683  1.00  0.00     0.031 C 
ATOM     48  C   UNL A   1      43.042  28.405  28.400  1.00  0.00     0.029 A 
ATOM     49  N   UNL A   1      43.355  29.679  30.187  1.00  0.00    -0.354 N 
ATOM     50  C   UNL A   1      44.386  24.488  28.438  1.00  0.00     0.074 A 
ATOM     51  C   UNL A   1      44.190  23.856  29.719  1.00  0.00     0.031 C 
ATOM     52  C   UNL A   1      42.916  29.693  28.018  1.00  0.00     0.029 A 
ATOM     53  C   UNL A   1      43.479  30.514  29.081  1.00  0.00     0.049 A 
ATOM     54  H   UNL A   1      43.188  29.976  31.110  1.00  0.00     0.167 HD
ATOM     55  C   UNL A   1      44.204  24.140  27.132  1.00  0.00     0.034 A 
ATOM     56  C   UNL A   1      44.626  31.258  28.964  1.00  0.00     0.034 A 
ATOM     57  C   UNL A   1      44.355  25.332  26.266  1.00  0.00     0.049 A 
ATOM     58  C   UNL A   1      45.538  30.758  27.851  1.00  0.00     0.074 A 
ATOM     59  C   UNL A   1      43.439  26.151  25.625  1.00  0.00     0.029 A 
ATOM     60  N   UNL A   1      45.568  26.018  26.245  1.00  0.00    -0.354 N 
ATOM     61  N   UNL A   1      45.364  29.635  27.208  1.00  0.00    -0.248 NA
ATOM     62  C   UNL A   1      46.694  31.495  27.348  1.00  0.00     0.031 C 
ATOM     63  C   UNL A   1      44.091  27.379  25.313  1.00  0.00     0.029 A 
ATOM     64  C   UNL A   1      45.408  27.299  25.735  1.00  0.00     0.049 A 
ATOM     65  H   UNL A   1      46.425  25.644  26.552  1.00  0.00     0.167 HD
ATOM     66  C   UNL A   1      46.393  29.415  26.335  1.00  0.00     0.074 A 
ATOM     67  C   UNL A   1      47.158  30.652  26.407  1.00  0.00     0.031 C 
ATOM     68  C   UNL A   1      46.545  28.222  25.677  1.00  0.00     0.034 A 
BRANCH  55  69
ATOM     69  C   UNL A   1      43.600  22.834  26.623  1.00  0.00     0.023 A 
ATOM     70  C   UNL A   1      42.211  22.659  26.822  1.00  0.00     0.012 A 
ATOM     71  C   UNL A   1      44.266  21.745  26.009  1.00  0.00     0.148 A 
ATOM     72  C   UNL A   1      41.541  21.471  26.506  1.00  0.00     0.002 A 
ATOM     73  C   UNL A   1      43.606  20.547  25.713  1.00  0.00     0.091 A 
ATOM     74  F   UNL A   1      45.541  21.853  25.644  1.00  0.00    -0.205 F 
ATOM     75  C   UNL A   1      42.242  20.405  25.969  1.00  0.00     0.022 A 
BRANCH  73  76
ATOM     76  S   UNL A   1      44.452  19.111  25.017  1.00  0.00     0.127 S 
ATOM     77  O   UNL A   1      43.739  17.999  25.647  1.00  0.00    -0.237 OA
ATOM     78  O   UNL A   1      44.195  19.262  23.586  1.00  0.00    -0.237 OA
ATOM     79  O   UNL A   1      45.852  19.222  25.410  1.00  0.00    -0.744 OA
ENDBRANCH  73  76
ENDBRANCH  55  69
BRANCH  56  80
ATOM     80  C   UNL A   1      45.070  31.778  30.310  1.00  0.00     0.023 A 
ATOM     81  C   UNL A   1      45.624  30.816  31.194  1.00  0.00     0.012 A 
ATOM     82  C   UNL A   1      45.408  33.133  30.499  1.00  0.00     0.148 A 
ATOM     83  C   UNL A   1      46.635  31.163  32.094  1.00  0.00     0.002 A 
ATOM     84  C   UNL A   1      46.403  33.475  31.419  1.00  0.00     0.091 A 
ATOM     85  F   UNL A   1      44.811  34.058  29.736  1.00  0.00    -0.205 F 
ATOM     86  C   UNL A   1      47.057  32.485  32.172  1.00  0.00     0.022 A 
BRANCH  84  87
ATOM     87  S   UNL A   1      46.965  35.176  31.604  1.00  0.00     0.127 S 
ATOM     88  O   UNL A   1      48.023  35.029  32.602  1.00  0.00    -0.237 OA
ATOM     89  O   UNL A   1      47.441  35.519  30.263  1.00  0.00    -0.237 OA
ATOM     90  O   UNL A   1      45.785  35.920  32.021  1.00  0.00    -0.744 OA
ENDBRANCH  84  87
ENDBRANCH  56  80
BRANCH  68  91
ATOM     91  C   UNL A   1      47.789  27.799  24.910  1.00  0.00     0.023 A 
ATOM     92  C   UNL A   1      48.889  27.186  25.537  1.00  0.00     0.012 A 
ATOM     93  C   UNL A   1      47.832  27.872  23.491  1.00  0.00     0.148 A 
ATOM     94  C   UNL A   1      50.002  26.739  24.817  1.00  0.00     0.002 A 
ATOM     95  C   UNL A   1      48.880  27.306  22.771  1.00  0.00     0.091 A 
ATOM     96  F   UNL A   1      46.866  28.516  22.820  1.00  0.00    -0.205 F 
ATOM     97  C   UNL A   1      49.987  26.774  23.431  1.00  0.00     0.022 A 
BRANCH  95  98
ATOM     98  S   UNL A   1      48.770  27.090  20.988  1.00  0.00     0.127 S 
ATOM     99  O   UNL A   1      47.465  27.675  20.693  1.00  0.00    -0.237 OA
ATOM    100  O   UNL A   1      49.911  27.873  20.508  1.00  0.00    -0.237 OA
ATOM    101  O   UNL A   1      48.899  25.656  20.769  1.00  0.00    -0.744 OA
ENDBRANCH  95  98
ENDBRANCH  68  91
ENDBRANCH  42  43
ENDBRANCH  34  37
ENDBRANCH  32  33
ENDBRANCH  31  32
ENDBRANCH   1  31
TORSDOF 19
ENDMDL
MODEL 3
REMARK VINA RESULT:     -10.5      6.875     11.873
REMARK SMILES CCN(c1cccc(C)c1)c1nc(OCC(=O)NCCCNC(=O)c2ccc(-c3c4nc(c(-c5cccc(S(=O)(=O)[O-])c5F)c5ccc([nH]5)c(-c5cccc(S(=O)(=O)[O-])c5F)c5nc(c(-c6cccc(S(=O)(=O)[O-])c6F)c6ccc3[nH]6)C=C5)C=C4)cc2)cc(-c2ccc(C)cc2)n1
REMARK SMILES IDX 19 1 18 2 16 3 17 4 15 6 14 7 13 8 11 9 12 10 97 11 89 12
REMARK SMILES IDX 88 13 3 14 2 15 1 16 4 17 5 18 10 19 6 20 8 21 7 22 9 23
REMARK SMILES IDX 90 24 91 25 96 26 92 27 95 28 93 29 94 30 20 31 21 32 22 33
REMARK SMILES IDX 23 34 24 36 25 37 26 38 87 39 27 40 86 41 28 42 29 43 30 44
REMARK SMILES IDX 80 45 31 46 85 47 79 48 81 49 32 50 84 51 78 52 77 53 33 55
REMARK SMILES IDX 65 56 45 57 64 58 46 59 49 60 63 61 82 62 47 63 48 64 62 66
REMARK SMILES IDX 83 67 50 68 34 69 35 70 43 71 36 72 38 73 44 74 37 75 39 76
REMARK SMILES IDX 40 77 41 78 42 79 66 80 67 81 75 82 68 83 70 84 76 85 69 86
REMARK SMILES IDX 71 87 72 88 73 89 74 90 51 91 52 92 60 93 53 94 55 95 61 96
REMARK SMILES IDX 54 97 56 98 57 99 58 100 59 101
REMARK H PARENT 18 5 22 35 81 54 49 65
REMARK Flexibility Score: inf
ROOT
ATOM      1  C   UNL A   1      36.582  30.924  28.987  1.00  0.00     0.117 C 
ENDROOT
BRANCH   1   2
ATOM      2  N   UNL A   1      35.489  31.857  28.749  1.00  0.00    -0.353 N 
ATOM      3  C   UNL A   1      34.386  31.676  27.968  1.00  0.00     0.258 C 
ATOM      4  O   UNL A   1      33.500  32.532  27.954  1.00  0.00    -0.271 OA
ATOM      5  H   UNL A   1      35.556  32.725  29.208  1.00  0.00     0.163 HD
BRANCH   3   6
ATOM      6  C   UNL A   1      34.267  30.399  27.132  1.00  0.00     0.331 C 
BRANCH   6   7
ATOM      7  O   UNL A   1      33.160  29.564  27.425  1.00  0.00    -0.467 OA
BRANCH   7   8
ATOM      8  C   UNL A   1      32.410  29.113  26.373  1.00  0.00     0.219 A 
ATOM      9  C   UNL A   1      31.763  27.209  25.232  1.00  0.00     0.233 A 
ATOM     10  N   UNL A   1      32.431  27.777  26.254  1.00  0.00    -0.177 NA
ATOM     11  N   UNL A   1      31.055  27.934  24.357  1.00  0.00    -0.212 NA
ATOM     12  C   UNL A   1      31.009  29.266  24.523  1.00  0.00     0.080 A 
ATOM     13  C   UNL A   1      31.687  29.911  25.529  1.00  0.00     0.097 A 
BRANCH   9  14
ATOM     14  N   UNL A   1      31.768  25.807  25.115  1.00  0.00    -0.311 N 
BRANCH  14  15
ATOM     15  C   UNL A   1      30.551  25.116  25.565  1.00  0.00     0.122 C 
ATOM     16  C   UNL A   1      30.818  23.925  26.480  1.00  0.00     0.028 C 
ENDBRANCH  14  15
BRANCH  14  17
ATOM     17  C   UNL A   1      32.825  25.060  24.565  1.00  0.00     0.044 A 
ATOM     18  C   UNL A   1      32.776  24.504  23.279  1.00  0.00     0.026 A 
ATOM     19  C   UNL A   1      34.000  24.850  25.312  1.00  0.00     0.029 A 
ATOM     20  C   UNL A   1      33.847  23.761  22.768  1.00  0.00     0.002 A 
ATOM     21  C   UNL A   1      35.077  24.099  24.819  1.00  0.00    -0.049 A 
ATOM     22  C   UNL A   1      34.990  23.553  23.538  1.00  0.00     0.003 A 
ATOM     23  C   UNL A   1      36.286  23.884  25.680  1.00  0.00     0.044 C 
ENDBRANCH  14  17
ENDBRANCH   9  14
BRANCH  12  24
ATOM     24  C   UNL A   1      30.117  30.009  23.633  1.00  0.00     0.000 A 
ATOM     25  C   UNL A   1      29.911  29.602  22.306  1.00  0.00     0.010 A 
ATOM     26  C   UNL A   1      29.512  31.197  24.070  1.00  0.00     0.010 A 
ATOM     27  C   UNL A   1      29.140  30.375  21.434  1.00  0.00     0.004 A 
ATOM     28  C   UNL A   1      28.753  31.977  23.196  1.00  0.00     0.004 A 
ATOM     29  C   UNL A   1      28.566  31.574  21.869  1.00  0.00    -0.051 A 
ATOM     30  C   UNL A   1      27.765  32.427  20.933  1.00  0.00     0.044 C 
ENDBRANCH  12  24
ENDBRANCH   7   8
ENDBRANCH   6   7
ENDBRANCH   3   6
ENDBRANCH   1   2
BRANCH   1  31
ATOM     31  C   UNL A   1      36.249  29.798  29.972  1.00  0.00     0.042 C 
BRANCH  31  32
ATOM     32  C   UNL A   1      37.251  29.742  31.104  1.00  0.00     0.118 C 
BRANCH  32  33
ATOM     33  N   UNL A   1      38.077  30.938  31.169  1.00  0.00    -0.352 N 
ATOM     34  C   UNL A   1      39.437  31.093  31.266  1.00  0.00     0.251 C 
ATOM     35  H   UNL A   1      37.573  31.784  31.138  1.00  0.00     0.163 HD
ATOM     36  O   UNL A   1      39.845  32.191  31.663  1.00  0.00    -0.269 OA
BRANCH  34  37
ATOM     37  C   UNL A   1      40.392  30.055  30.817  1.00  0.00     0.039 A 
ATOM     38  C   UNL A   1      41.392  29.601  31.696  1.00  0.00     0.014 A 
ATOM     39  C   UNL A   1      40.469  29.708  29.475  1.00  0.00     0.014 A 
ATOM     40  C   UNL A   1      42.547  29.011  31.184  1.00  0.00     0.010 A 
ATOM     41  C   UNL A   1      41.525  29.008  28.988  1.00  0.00     0.010 A 
ATOM     42  C   UNL A   1      42.626  28.836  29.814  1.00  0.00    -0.014 A 
BRANCH  42  43
ATOM     43  C   UNL A   1      43.823  28.673  29.020  1.00  0.00     0.031 A 
ATOM     44  C   UNL A   1      44.532  29.867  28.571  1.00  0.00     0.074 A 
ATOM     45  C   UNL A   1      44.449  27.497  29.264  1.00  0.00     0.049 A 
ATOM     46  N   UNL A   1      45.617  29.849  27.890  1.00  0.00    -0.248 NA
ATOM     47  C   UNL A   1      44.058  31.207  28.890  1.00  0.00     0.031 C 
ATOM     48  C   UNL A   1      45.874  27.220  29.386  1.00  0.00     0.029 A 
ATOM     49  N   UNL A   1      43.879  26.266  29.538  1.00  0.00    -0.354 N 
ATOM     50  C   UNL A   1      46.164  31.109  27.990  1.00  0.00     0.074 A 
ATOM     51  C   UNL A   1      45.089  31.942  28.468  1.00  0.00     0.031 C 
ATOM     52  C   UNL A   1      46.057  25.885  29.451  1.00  0.00     0.029 A 
ATOM     53  C   UNL A   1      44.770  25.261  29.177  1.00  0.00     0.049 A 
ATOM     54  H   UNL A   1      42.985  26.124  29.926  1.00  0.00     0.167 HD
ATOM     55  C   UNL A   1      47.515  31.232  27.849  1.00  0.00     0.034 A 
ATOM     56  C   UNL A   1      44.486  24.524  28.054  1.00  0.00     0.034 A 
ATOM     57  C   UNL A   1      48.111  29.915  27.527  1.00  0.00     0.049 A 
ATOM     58  C   UNL A   1      45.417  24.847  26.892  1.00  0.00     0.074 A 
ATOM     59  C   UNL A   1      48.808  28.987  28.285  1.00  0.00     0.029 A 
ATOM     60  N   UNL A   1      47.729  29.253  26.362  1.00  0.00    -0.354 N 
ATOM     61  N   UNL A   1      46.259  25.844  26.879  1.00  0.00    -0.248 NA
ATOM     62  C   UNL A   1      45.502  24.053  25.669  1.00  0.00     0.031 C 
ATOM     63  C   UNL A   1      48.748  27.734  27.610  1.00  0.00     0.029 A 
ATOM     64  C   UNL A   1      48.044  27.903  26.429  1.00  0.00     0.049 A 
ATOM     65  H   UNL A   1      47.293  29.686  25.592  1.00  0.00     0.167 HD
ATOM     66  C   UNL A   1      46.886  25.931  25.668  1.00  0.00     0.074 A 
ATOM     67  C   UNL A   1      46.432  24.735  24.974  1.00  0.00     0.031 C 
ATOM     68  C   UNL A   1      47.677  27.000  25.334  1.00  0.00     0.034 A 
BRANCH  55  69
ATOM     69  C   UNL A   1      48.361  32.426  28.281  1.00  0.00     0.023 A 
ATOM     70  C   UNL A   1      48.617  32.551  29.667  1.00  0.00     0.012 A 
ATOM     71  C   UNL A   1      48.893  33.459  27.471  1.00  0.00     0.148 A 
ATOM     72  C   UNL A   1      49.285  33.651  30.220  1.00  0.00     0.002 A 
ATOM     73  C   UNL A   1      49.540  34.571  28.022  1.00  0.00     0.091 A 
ATOM     74  F   UNL A   1      48.836  33.372  26.145  1.00  0.00    -0.205 F 
ATOM     75  C   UNL A   1      49.730  34.673  29.400  1.00  0.00     0.022 A 
BRANCH  73  76
ATOM     76  S   UNL A   1      50.143  35.946  27.018  1.00  0.00     0.127 S 
ATOM     77  O   UNL A   1      48.957  36.296  26.234  1.00  0.00    -0.237 OA
ATOM     78  O   UNL A   1      50.512  36.933  28.031  1.00  0.00    -0.237 OA
ATOM     79  O   UNL A   1      51.251  35.427  26.225  1.00  0.00    -0.744 OA
ENDBRANCH  73  76
ENDBRANCH  55  69
BRANCH  56  80
ATOM     80  C   UNL A   1      43.007  24.242  27.955  1.00  0.00     0.023 A 
ATOM     81  C   UNL A   1      42.195  25.331  27.542  1.00  0.00     0.012 A 
ATOM     82  C   UNL A   1      42.519  22.934  27.763  1.00  0.00     0.148 A 
ATOM     83  C   UNL A   1      41.041  25.120  26.781  1.00  0.00     0.002 A 
ATOM     84  C   UNL A   1      41.352  22.733  27.021  1.00  0.00     0.091 A 
ATOM     85  F   UNL A   1      43.232  21.906  28.241  1.00  0.00    -0.205 F 
ATOM     86  C   UNL A   1      40.647  23.821  26.481  1.00  0.00     0.022 A 
BRANCH  84  87
ATOM     87  S   UNL A   1      40.759  21.077  26.636  1.00  0.00     0.127 S 
ATOM     88  O   UNL A   1      41.797  20.598  25.725  1.00  0.00    -0.237 OA
ATOM     89  O   UNL A   1      40.747  20.414  27.941  1.00  0.00    -0.237 OA
ATOM     90  O   UNL A   1      39.437  21.273  26.060  1.00  0.00    -0.744 OA
ENDBRANCH  84  87
ENDBRANCH  56  80
BRANCH  68  91
ATOM     91  C   UNL A   1      48.185  27.308  23.933  1.00  0.00     0.023 A 
ATOM     92  C   UNL A   1      47.374  27.907  22.952  1.00  0.00     0.012 A 
ATOM     93  C   UNL A   1      49.556  27.137  23.600  1.00  0.00     0.148 A 
ATOM     94  C   UNL A   1      47.865  28.248  21.688  1.00  0.00     0.002 A 
ATOM     95  C   UNL A   1      50.068  27.601  22.392  1.00  0.00     0.091 A 
ATOM     96  F   UNL A   1      50.380  26.499  24.443  1.00  0.00    -0.205 F 
ATOM     97  C   UNL A   1      49.218  28.120  21.416  1.00  0.00     0.022 A 
BRANCH  95  98
ATOM     98  S   UNL A   1      51.842  27.701  22.113  1.00  0.00     0.127 S 
ATOM     99  O   UNL A   1      52.298  28.395  23.315  1.00  0.00    -0.237 OA
ATOM    100  O   UNL A   1      52.228  26.290  22.042  1.00  0.00    -0.237 OA
ATOM    101  O   UNL A   1      51.991  28.423  20.857  1.00  0.00    -0.744 OA
ENDBRANCH  95  98
ENDBRANCH  68  91
ENDBRANCH  42  43
ENDBRANCH  34  37
ENDBRANCH  32  33
ENDBRANCH  31  32
ENDBRANCH   1  31
TORSDOF 19
ENDMDL
