MODEL 1
REMARK VINA RESULT:     -12.6      0.000      0.000
REMARK SMILES C[NH+]1CCN(C(=O)c2ccc3c(c2)N(CC(=O)NCCCNC(=O)c2ccc(-c4c5nc(c(-c6cccc(S(=O)(=O)[O-])c6F)c6ccc([nH]6)c(-c6cccc(S(=O)(=O)[O-])c6F)c6nc(c(-c7cccc(S(=O)(=O)[O-])c7F)c7ccc4[nH]7)C=C6)C=C5)cc2)C(=O)CO3)CC1
REMARK SMILES IDX 20 1 19 2 18 3 16 4 17 5 15 7 14 8 8 9 9 10 13 11 10 12
REMARK SMILES IDX 12 13 11 14 91 15 88 16 90 17 89 18 6 19 1 20 2 21 3 22
REMARK SMILES IDX 93 23 4 25 92 26 5 27 7 28 21 29 22 30 23 31 24 33 25 34
REMARK SMILES IDX 26 35 87 36 27 37 86 38 28 39 29 40 30 41 80 42 31 43 85 44
REMARK SMILES IDX 79 45 81 46 32 47 84 48 78 49 77 50 33 52 65 53 45 54 64 55
REMARK SMILES IDX 46 56 49 57 63 58 82 59 47 60 48 61 62 63 83 64 50 65 34 66
REMARK SMILES IDX 35 67 43 68 36 69 38 70 44 71 37 72 39 73 40 74 41 75 42 76
REMARK SMILES IDX 66 77 67 78 75 79 68 80 70 81 76 82 69 83 71 84 72 85 73 86
REMARK SMILES IDX 74 87 51 88 52 89 60 90 53 91 55 92 61 93 54 94 56 95 57 96
REMARK SMILES IDX 58 97 59 98
REMARK H PARENT 18 6 2 24 22 32 81 51 49 62
REMARK Flexibility Score: inf
ROOT
ATOM      1  C   UNL A   1      33.418  28.789  23.269  1.00  0.00     0.042 C 
ENDROOT
BRANCH   1   2
ATOM      2  C   UNL A   1      32.748  27.469  22.900  1.00  0.00     0.117 C 
BRANCH   2   3
ATOM      3  N   UNL A   1      33.693  26.377  22.774  1.00  0.00    -0.354 N 
ATOM      4  C   UNL A   1      33.460  25.034  22.760  1.00  0.00     0.240 C 
ATOM      5  O   UNL A   1      34.405  24.295  22.469  1.00  0.00    -0.273 OA
ATOM      6  H   UNL A   1      34.637  26.643  22.686  1.00  0.00     0.163 HD
BRANCH   4   7
ATOM      7  C   UNL A   1      32.062  24.456  23.009  1.00  0.00     0.225 C 
BRANCH   7   8
ATOM      8  N   UNL A   1      31.696  24.327  24.419  1.00  0.00    -0.296 N 
ATOM      9  C   UNL A   1      33.752  21.426  25.615  1.00  0.00     0.042 A 
ATOM     10  C   UNL A   1      33.564  21.516  26.994  1.00  0.00     0.018 A 
ATOM     11  C   UNL A   1      33.103  22.314  24.744  1.00  0.00     0.044 A 
ATOM     12  C   UNL A   1      32.753  22.525  27.507  1.00  0.00     0.049 A 
ATOM     13  C   UNL A   1      32.300  23.344  25.253  1.00  0.00     0.087 A 
ATOM     14  C   UNL A   1      32.123  23.424  26.644  1.00  0.00     0.143 A 
ATOM     15  O   UNL A   1      31.400  24.410  27.253  1.00  0.00    -0.482 OA
ATOM     16  C   UNL A   1      30.746  25.192  24.948  1.00  0.00     0.265 C 
ATOM     17  C   UNL A   1      30.412  24.977  26.419  1.00  0.00     0.330 C 
ATOM     18  O   UNL A   1      30.153  26.039  24.276  1.00  0.00    -0.270 OA
BRANCH   9  19
ATOM     19  C   UNL A   1      34.607  20.342  25.085  1.00  0.00     0.254 C 
ATOM     20  C   UNL A   1      32.868  15.046  25.377  1.00  0.00     0.332 C 
ATOM     21  N   UNL A   1      33.125  16.340  24.749  1.00  0.00    -0.334 N 
ATOM     22  C   UNL A   1      34.566  16.672  24.809  1.00  0.00     0.283 C 
ATOM     23  C   UNL A   1      32.351  17.403  25.424  1.00  0.00     0.283 C 
ATOM     24  H   UNL A   1      32.839  16.277  23.772  1.00  0.00     0.347 HD
ATOM     25  C   UNL A   1      34.880  18.060  24.214  1.00  0.00     0.181 C 
ATOM     26  C   UNL A   1      32.606  18.785  24.793  1.00  0.00     0.181 C 
ATOM     27  N   UNL A   1      34.038  19.110  24.793  1.00  0.00    -0.327 N 
ATOM     28  O   UNL A   1      35.798  20.598  24.926  1.00  0.00    -0.269 OA
ENDBRANCH   9  19
ENDBRANCH   7   8
ENDBRANCH   4   7
ENDBRANCH   2   3
ENDBRANCH   1   2
BRANCH   1  29
ATOM     29  C   UNL A   1      33.686  28.963  24.763  1.00  0.00     0.118 C 
BRANCH  29  30
ATOM     30  N   UNL A   1      33.003  30.120  25.328  1.00  0.00    -0.352 N 
ATOM     31  C   UNL A   1      33.202  30.779  26.514  1.00  0.00     0.251 C 
ATOM     32  H   UNL A   1      32.283  30.488  24.767  1.00  0.00     0.163 HD
ATOM     33  O   UNL A   1      32.383  31.627  26.872  1.00  0.00    -0.269 OA
BRANCH  31  34
ATOM     34  C   UNL A   1      34.372  30.481  27.368  1.00  0.00     0.039 A 
ATOM     35  C   UNL A   1      34.399  29.275  28.077  1.00  0.00     0.014 A 
ATOM     36  C   UNL A   1      35.421  31.394  27.508  1.00  0.00     0.014 A 
ATOM     37  C   UNL A   1      35.504  28.959  28.872  1.00  0.00     0.010 A 
ATOM     38  C   UNL A   1      36.553  31.045  28.241  1.00  0.00     0.010 A 
ATOM     39  C   UNL A   1      36.606  29.827  28.935  1.00  0.00    -0.014 A 
BRANCH  39  40
ATOM     40  C   UNL A   1      37.829  29.469  29.702  1.00  0.00     0.031 A 
ATOM     41  C   UNL A   1      38.093  30.081  31.050  1.00  0.00     0.074 A 
ATOM     42  C   UNL A   1      38.749  28.658  29.140  1.00  0.00     0.049 A 
ATOM     43  N   UNL A   1      39.134  29.941  31.831  1.00  0.00    -0.248 NA
ATOM     44  C   UNL A   1      37.066  30.992  31.584  1.00  0.00     0.031 C 
ATOM     45  C   UNL A   1      38.648  28.061  27.807  1.00  0.00     0.029 A 
ATOM     46  N   UNL A   1      39.964  28.221  29.607  1.00  0.00    -0.354 N 
ATOM     47  C   UNL A   1      38.908  30.769  32.923  1.00  0.00     0.074 A 
ATOM     48  C   UNL A   1      37.643  31.433  32.693  1.00  0.00     0.031 C 
ATOM     49  C   UNL A   1      39.753  27.339  27.563  1.00  0.00     0.029 A 
ATOM     50  C   UNL A   1      40.656  27.446  28.704  1.00  0.00     0.049 A 
ATOM     51  H   UNL A   1      40.309  28.443  30.502  1.00  0.00     0.167 HD
ATOM     52  C   UNL A   1      39.669  30.944  34.029  1.00  0.00     0.034 A 
ATOM     53  C   UNL A   1      41.883  26.894  28.780  1.00  0.00     0.034 A 
ATOM     54  C   UNL A   1      40.906  30.252  34.275  1.00  0.00     0.049 A 
ATOM     55  C   UNL A   1      42.690  27.074  30.038  1.00  0.00     0.074 A 
ATOM     56  C   UNL A   1      41.702  30.291  35.406  1.00  0.00     0.029 A 
ATOM     57  N   UNL A   1      41.531  29.402  33.376  1.00  0.00    -0.354 N 
ATOM     58  N   UNL A   1      42.383  27.732  31.128  1.00  0.00    -0.248 NA
ATOM     59  C   UNL A   1      43.997  26.403  30.090  1.00  0.00     0.031 C 
ATOM     60  C   UNL A   1      42.824  29.486  35.179  1.00  0.00     0.029 A 
ATOM     61  C   UNL A   1      42.710  28.920  33.920  1.00  0.00     0.049 A 
ATOM     62  H   UNL A   1      41.188  29.176  32.482  1.00  0.00     0.167 HD
ATOM     63  C   UNL A   1      43.438  27.526  32.008  1.00  0.00     0.074 A 
ATOM     64  C   UNL A   1      44.384  26.662  31.331  1.00  0.00     0.031 C 
ATOM     65  C   UNL A   1      43.616  28.018  33.259  1.00  0.00     0.034 A 
BRANCH  52  66
ATOM     66  C   UNL A   1      39.165  31.888  35.091  1.00  0.00     0.023 A 
ATOM     67  C   UNL A   1      38.168  31.457  35.990  1.00  0.00     0.012 A 
ATOM     68  C   UNL A   1      39.723  33.173  35.245  1.00  0.00     0.148 A 
ATOM     69  C   UNL A   1      37.712  32.298  37.004  1.00  0.00     0.002 A 
ATOM     70  C   UNL A   1      39.296  33.988  36.287  1.00  0.00     0.091 A 
ATOM     71  F   UNL A   1      40.656  33.573  34.369  1.00  0.00    -0.205 F 
ATOM     72  C   UNL A   1      38.283  33.558  37.159  1.00  0.00     0.022 A 
BRANCH  70  73
ATOM     73  S   UNL A   1      40.026  35.596  36.622  1.00  0.00     0.127 S 
ATOM     74  O   UNL A   1      39.409  35.936  37.904  1.00  0.00    -0.237 OA
ATOM     75  O   UNL A   1      41.451  35.274  36.699  1.00  0.00    -0.237 OA
ATOM     76  O   UNL A   1      39.652  36.449  35.504  1.00  0.00    -0.744 OA
ENDBRANCH  70  73
ENDBRANCH  52  66
BRANCH  53  77
ATOM     77  C   UNL A   1      42.401  26.070  27.651  1.00  0.00     0.023 A 
ATOM     78  C   UNL A   1      43.301  26.643  26.731  1.00  0.00     0.012 A 
ATOM     79  C   UNL A   1      42.026  24.721  27.495  1.00  0.00     0.148 A 
ATOM     80  C   UNL A   1      43.789  25.900  25.656  1.00  0.00     0.002 A 
ATOM     81  C   UNL A   1      42.560  23.970  26.455  1.00  0.00     0.091 A 
ATOM     82  F   UNL A   1      41.160  24.197  28.374  1.00  0.00    -0.205 F 
ATOM     83  C   UNL A   1      43.427  24.562  25.523  1.00  0.00     0.022 A 
BRANCH  81  84
ATOM     84  S   UNL A   1      42.254  22.208  26.287  1.00  0.00     0.127 S 
ATOM     85  O   UNL A   1      40.811  22.175  26.062  1.00  0.00    -0.237 OA
ATOM     86  O   UNL A   1      43.068  21.870  25.117  1.00  0.00    -0.237 OA
ATOM     87  O   UNL A   1      42.716  21.610  27.530  1.00  0.00    -0.744 OA
ENDBRANCH  81  84
ENDBRANCH  53  77
BRANCH  65  88
ATOM     88  C   UNL A   1      44.859  27.606  34.005  1.00  0.00     0.023 A 
ATOM     89  C   UNL A   1      46.012  28.413  33.950  1.00  0.00     0.012 A 
ATOM     90  C   UNL A   1      44.857  26.455  34.819  1.00  0.00     0.148 A 
ATOM     91  C   UNL A   1      47.156  28.064  34.668  1.00  0.00     0.002 A 
ATOM     92  C   UNL A   1      45.982  26.141  35.571  1.00  0.00     0.091 A 
ATOM     93  F   UNL A   1      43.756  25.691  34.842  1.00  0.00    -0.205 F 
ATOM     94  C   UNL A   1      47.137  26.936  35.487  1.00  0.00     0.022 A 
BRANCH  92  95
ATOM     95  S   UNL A   1      46.016  24.767  36.727  1.00  0.00     0.127 S 
ATOM     96  O   UNL A   1      47.356  24.892  37.299  1.00  0.00    -0.237 OA
ATOM     97  O   UNL A   1      44.927  25.106  37.643  1.00  0.00    -0.237 OA
ATOM     98  O   UNL A   1      45.786  23.567  35.932  1.00  0.00    -0.744 OA
ENDBRANCH  92  95
ENDBRANCH  65  88
ENDBRANCH  39  40
ENDBRANCH  31  34
ENDBRANCH  29  30
ENDBRANCH   1  29
TORSDOF 15
ENDMDL
MODEL 2
REMARK VINA RESULT:     -12.3      1.614      2.091
REMARK SMILES C[NH+]1CCN(C(=O)c2ccc3c(c2)N(CC(=O)NCCCNC(=O)c2ccc(-c4c5nc(c(-c6cccc(S(=O)(=O)[O-])c6F)c6ccc([nH]6)c(-c6cccc(S(=O)(=O)[O-])c6F)c6nc(c(-c7cccc(S(=O)(=O)[O-])c7F)c7ccc4[nH]7)C=C6)C=C5)cc2)C(=O)CO3)CC1
REMARK SMILES IDX 20 1 19 2 18 3 16 4 17 5 15 7 14 8 8 9 9 10 13 11 10 12
REMARK SMILES IDX 12 13 11 14 91 15 88 16 90 17 89 18 6 19 1 20 2 21 3 22
REMARK SMILES IDX 93 23 4 25 92 26 5 27 7 28 21 29 22 30 23 31 24 33 25 34
REMARK SMILES IDX 26 35 87 36 27 37 86 38 28 39 29 40 30 41 80 42 31 43 85 44
REMARK SMILES IDX 79 45 81 46 32 47 84 48 78 49 77 50 33 52 65 53 45 54 64 55
REMARK SMILES IDX 46 56 49 57 63 58 82 59 47 60 48 61 62 63 83 64 50 65 34 66
REMARK SMILES IDX 35 67 43 68 36 69 38 70 44 71 37 72 39 73 40 74 41 75 42 76
REMARK SMILES IDX 66 77 67 78 75 79 68 80 70 81 76 82 69 83 71 84 72 85 73 86
REMARK SMILES IDX 74 87 51 88 52 89 60 90 53 91 55 92 61 93 54 94 56 95 57 96
REMARK SMILES IDX 58 97 59 98
REMARK H PARENT 18 6 2 24 22 32 81 51 49 62
REMARK Flexibility Score: inf
ROOT
ATOM      1  C   UNL A   1      33.747  28.509  24.463  1.00  0.00     0.042 C 
ENDROOT
BRANCH   1   2
ATOM      2  C   UNL A   1      32.983  27.223  24.167  1.00  0.00     0.117 C 
BRANCH   2   3
ATOM      3  N   UNL A   1      33.795  26.231  23.492  1.00  0.00    -0.354 N 
ATOM      4  C   UNL A   1      33.425  25.033  22.959  1.00  0.00     0.240 C 
ATOM      5  O   UNL A   1      34.261  24.429  22.278  1.00  0.00    -0.273 OA
ATOM      6  H   UNL A   1      34.750  26.454  23.406  1.00  0.00     0.163 HD
BRANCH   4   7
ATOM      7  C   UNL A   1      32.002  24.484  23.118  1.00  0.00     0.225 C 
BRANCH   7   8
ATOM      8  N   UNL A   1      31.573  24.289  24.502  1.00  0.00    -0.296 N 
ATOM      9  C   UNL A   1      33.658  21.404  25.685  1.00  0.00     0.042 A 
ATOM     10  C   UNL A   1      33.401  21.433  27.056  1.00  0.00     0.018 A 
ATOM     11  C   UNL A   1      33.025  22.306  24.818  1.00  0.00     0.044 A 
ATOM     12  C   UNL A   1      32.536  22.397  27.567  1.00  0.00     0.049 A 
ATOM     13  C   UNL A   1      32.167  23.291  25.327  1.00  0.00     0.087 A 
ATOM     14  C   UNL A   1      31.921  23.311  26.709  1.00  0.00     0.143 A 
ATOM     15  O   UNL A   1      31.139  24.251  27.319  1.00  0.00    -0.482 OA
ATOM     16  C   UNL A   1      30.573  25.104  25.017  1.00  0.00     0.265 C 
ATOM     17  C   UNL A   1      30.175  24.822  26.460  1.00  0.00     0.330 C 
ATOM     18  O   UNL A   1      29.987  25.960  24.349  1.00  0.00    -0.270 OA
BRANCH   9  19
ATOM     19  C   UNL A   1      34.570  20.367  25.157  1.00  0.00     0.254 C 
ATOM     20  C   UNL A   1      33.052  14.997  25.314  1.00  0.00     0.332 C 
ATOM     21  N   UNL A   1      33.269  16.312  24.715  1.00  0.00    -0.334 N 
ATOM     22  C   UNL A   1      34.692  16.704  24.815  1.00  0.00     0.283 C 
ATOM     23  C   UNL A   1      32.434  17.329  25.390  1.00  0.00     0.283 C 
ATOM     24  H   UNL A   1      33.007  16.256  23.731  1.00  0.00     0.347 HD
ATOM     25  C   UNL A   1      34.960  18.115  24.252  1.00  0.00     0.181 C 
ATOM     26  C   UNL A   1      32.644  18.732  24.790  1.00  0.00     0.181 C 
ATOM     27  N   UNL A   1      34.061  19.117  24.829  1.00  0.00    -0.327 N 
ATOM     28  O   UNL A   1      35.753  20.676  25.030  1.00  0.00    -0.269 OA
ENDBRANCH   9  19
ENDBRANCH   7   8
ENDBRANCH   4   7
ENDBRANCH   2   3
ENDBRANCH   1   2
BRANCH   1  29
ATOM     29  C   UNL A   1      34.080  28.718  25.940  1.00  0.00     0.118 C 
BRANCH  29  30
ATOM     30  N   UNL A   1      33.817  30.078  26.391  1.00  0.00    -0.352 N 
ATOM     31  C   UNL A   1      34.438  30.832  27.354  1.00  0.00     0.251 C 
ATOM     32  H   UNL A   1      33.074  30.529  25.931  1.00  0.00     0.163 HD
ATOM     33  O   UNL A   1      33.929  31.901  27.698  1.00  0.00    -0.269 OA
BRANCH  31  34
ATOM     34  C   UNL A   1      35.695  30.379  27.989  1.00  0.00     0.039 A 
ATOM     35  C   UNL A   1      35.621  29.543  29.108  1.00  0.00     0.014 A 
ATOM     36  C   UNL A   1      36.940  30.800  27.516  1.00  0.00     0.014 A 
ATOM     37  C   UNL A   1      36.794  29.082  29.712  1.00  0.00     0.010 A 
ATOM     38  C   UNL A   1      38.107  30.281  28.073  1.00  0.00     0.010 A 
ATOM     39  C   UNL A   1      38.048  29.419  29.179  1.00  0.00    -0.014 A 
BRANCH  39  40
ATOM     40  C   UNL A   1      39.305  28.866  29.750  1.00  0.00     0.031 A 
ATOM     41  C   UNL A   1      39.933  29.491  30.966  1.00  0.00     0.074 A 
ATOM     42  C   UNL A   1      39.931  27.853  29.116  1.00  0.00     0.049 A 
ATOM     43  N   UNL A   1      41.058  29.189  31.561  1.00  0.00    -0.248 NA
ATOM     44  C   UNL A   1      39.218  30.622  31.581  1.00  0.00     0.031 C 
ATOM     45  C   UNL A   1      39.465  27.210  27.885  1.00  0.00     0.029 A 
ATOM     46  N   UNL A   1      41.107  27.206  29.402  1.00  0.00    -0.354 N 
ATOM     47  C   UNL A   1      41.205  30.109  32.591  1.00  0.00     0.074 A 
ATOM     48  C   UNL A   1      40.068  31.002  32.524  1.00  0.00     0.031 C 
ATOM     49  C   UNL A   1      40.347  26.265  27.521  1.00  0.00     0.029 A 
ATOM     50  C   UNL A   1      41.454  26.254  28.471  1.00  0.00     0.049 A 
ATOM     51  H   UNL A   1      41.652  27.406  30.197  1.00  0.00     0.167 HD
ATOM     52  C   UNL A   1      42.184  30.191  33.524  1.00  0.00     0.034 A 
ATOM     53  C   UNL A   1      42.546  25.470  28.383  1.00  0.00     0.034 A 
ATOM     54  C   UNL A   1      43.290  29.277  33.615  1.00  0.00     0.049 A 
ATOM     55  C   UNL A   1      43.598  25.556  29.456  1.00  0.00     0.074 A 
ATOM     56  C   UNL A   1      44.282  29.221  34.579  1.00  0.00     0.029 A 
ATOM     57  N   UNL A   1      43.560  28.266  32.706  1.00  0.00    -0.354 N 
ATOM     58  N   UNL A   1      43.635  26.327  30.514  1.00  0.00    -0.248 NA
ATOM     59  C   UNL A   1      44.741  24.638  29.342  1.00  0.00     0.031 C 
ATOM     60  C   UNL A   1      45.166  28.192  34.237  1.00  0.00     0.029 A 
ATOM     61  C   UNL A   1      44.708  27.588  33.078  1.00  0.00     0.049 A 
ATOM     62  H   UNL A   1      43.016  28.061  31.912  1.00  0.00     0.167 HD
ATOM     63  C   UNL A   1      44.781  25.963  31.212  1.00  0.00     0.074 A 
ATOM     64  C   UNL A   1      45.400  24.886  30.465  1.00  0.00     0.031 C 
ATOM     65  C   UNL A   1      45.285  26.482  32.358  1.00  0.00     0.034 A 
BRANCH  52  66
ATOM     66  C   UNL A   1      42.079  31.280  34.562  1.00  0.00     0.023 A 
ATOM     67  C   UNL A   1      41.462  31.005  35.800  1.00  0.00     0.012 A 
ATOM     68  C   UNL A   1      42.651  32.548  34.343  1.00  0.00     0.148 A 
ATOM     69  C   UNL A   1      41.387  31.983  36.790  1.00  0.00     0.002 A 
ATOM     70  C   UNL A   1      42.613  33.504  35.352  1.00  0.00     0.091 A 
ATOM     71  F   UNL A   1      43.217  32.798  33.154  1.00  0.00    -0.205 F 
ATOM     72  C   UNL A   1      41.971  33.228  36.570  1.00  0.00     0.022 A 
BRANCH  70  73
ATOM     73  S   UNL A   1      43.407  35.108  35.200  1.00  0.00     0.127 S 
ATOM     74  O   UNL A   1      44.822  34.745  35.294  1.00  0.00    -0.237 OA
ATOM     75  O   UNL A   1      42.976  35.538  33.869  1.00  0.00    -0.237 OA
ATOM     76  O   UNL A   1      42.897  35.917  36.297  1.00  0.00    -0.744 OA
ENDBRANCH  70  73
ENDBRANCH  52  66
BRANCH  53  77
ATOM     77  C   UNL A   1      42.674  24.492  27.265  1.00  0.00     0.023 A 
ATOM     78  C   UNL A   1      43.392  24.852  26.108  1.00  0.00     0.012 A 
ATOM     79  C   UNL A   1      42.108  23.204  27.349  1.00  0.00     0.148 A 
ATOM     80  C   UNL A   1      43.513  23.963  25.040  1.00  0.00     0.002 A 
ATOM     81  C   UNL A   1      42.281  22.303  26.305  1.00  0.00     0.091 A 
ATOM     82  F   UNL A   1      41.419  22.884  28.453  1.00  0.00    -0.205 F 
ATOM     83  C   UNL A   1      42.967  22.686  25.142  1.00  0.00     0.022 A 
BRANCH  81  84
ATOM     84  S   UNL A   1      41.728  20.597  26.409  1.00  0.00     0.127 S 
ATOM     85  O   UNL A   1      40.293  20.733  26.171  1.00  0.00    -0.237 OA
ATOM     86  O   UNL A   1      42.477  19.970  25.316  1.00  0.00    -0.237 OA
ATOM     87  O   UNL A   1      42.112  20.140  27.735  1.00  0.00    -0.744 OA
ENDBRANCH  81  84
ENDBRANCH  53  77
BRANCH  65  88
ATOM     88  C   UNL A   1      46.546  25.871  32.910  1.00  0.00     0.023 A 
ATOM     89  C   UNL A   1      47.798  26.436  32.596  1.00  0.00     0.012 A 
ATOM     90  C   UNL A   1      46.483  24.780  33.801  1.00  0.00     0.148 A 
ATOM     91  C   UNL A   1      48.970  25.904  33.133  1.00  0.00     0.002 A 
ATOM     92  C   UNL A   1      47.651  24.288  34.371  1.00  0.00     0.091 A 
ATOM     93  F   UNL A   1      45.284  24.245  34.073  1.00  0.00    -0.205 F 
ATOM     94  C   UNL A   1      48.896  24.839  34.029  1.00  0.00     0.022 A 
BRANCH  92  95
ATOM     95  S   UNL A   1      47.644  22.987  35.609  1.00  0.00     0.127 S 
ATOM     96  O   UNL A   1      49.069  22.853  35.909  1.00  0.00    -0.237 OA
ATOM     97  O   UNL A   1      46.848  23.582  36.682  1.00  0.00    -0.237 OA
ATOM     98  O   UNL A   1      47.029  21.829  34.972  1.00  0.00    -0.744 OA
ENDBRANCH  92  95
ENDBRANCH  65  88
ENDBRANCH  39  40
ENDBRANCH  31  34
ENDBRANCH  29  30
ENDBRANCH   1  29
TORSDOF 15
ENDMDL
MODEL 3
REMARK VINA RESULT:     -12.1      2.510      3.676
REMARK SMILES C[NH+]1CCN(C(=O)c2ccc3c(c2)N(CC(=O)NCCCNC(=O)c2ccc(-c4c5nc(c(-c6cccc(S(=O)(=O)[O-])c6F)c6ccc([nH]6)c(-c6cccc(S(=O)(=O)[O-])c6F)c6nc(c(-c7cccc(S(=O)(=O)[O-])c7F)c7ccc4[nH]7)C=C6)C=C5)cc2)C(=O)CO3)CC1
REMARK SMILES IDX 20 1 19 2 18 3 16 4 17 5 15 7 14 8 8 9 9 10 13 11 10 12
REMARK SMILES IDX 12 13 11 14 91 15 88 16 90 17 89 18 6 19 1 20 2 21 3 22
REMARK SMILES IDX 93 23 4 25 92 26 5 27 7 28 21 29 22 30 23 31 24 33 25 34
REMARK SMILES IDX 26 35 87 36 27 37 86 38 28 39 29 40 30 41 80 42 31 43 85 44
REMARK SMILES IDX 79 45 81 46 32 47 84 48 78 49 77 50 33 52 65 53 45 54 64 55
REMARK SMILES IDX 46 56 49 57 63 58 82 59 47 60 48 61 62 63 83 64 50 65 34 66
REMARK SMILES IDX 35 67 43 68 36 69 38 70 44 71 37 72 39 73 40 74 41 75 42 76
REMARK SMILES IDX 66 77 67 78 75 79 68 80 70 81 76 82 69 83 71 84 72 85 73 86
REMARK SMILES IDX 74 87 51 88 52 89 60 90 53 91 55 92 61 93 54 94 56 95 57 96
REMARK SMILES IDX 58 97 59 98
REMARK H PARENT 18 6 2 24 22 32 81 51 49 62
REMARK Flexibility Score: inf
ROOT
ATOM      1  C   UNL A   1      32.827  27.761  25.649  1.00  0.00     0.042 C 
ENDROOT
BRANCH   1   2
ATOM      2  C   UNL A   1      31.454  27.700  26.311  1.00  0.00     0.117 C 
BRANCH   2   3
ATOM      3  N   UNL A   1      31.129  26.377  26.805  1.00  0.00    -0.354 N 
ATOM      4  C   UNL A   1      30.300  25.437  26.270  1.00  0.00     0.240 C 
ATOM      5  O   UNL A   1      30.310  24.312  26.779  1.00  0.00    -0.273 OA
ATOM      6  H   UNL A   1      31.569  26.121  27.648  1.00  0.00     0.163 HD
BRANCH   4   7
ATOM      7  C   UNL A   1      29.448  25.727  25.028  1.00  0.00     0.225 C 
BRANCH   7   8
ATOM      8  N   UNL A   1      30.198  26.218  23.873  1.00  0.00    -0.296 N 
ATOM      9  C   UNL A   1      32.797  23.574  23.304  1.00  0.00     0.042 A 
ATOM     10  C   UNL A   1      33.300  23.958  22.060  1.00  0.00     0.018 A 
ATOM     11  C   UNL A   1      31.808  24.337  23.942  1.00  0.00     0.044 A 
ATOM     12  C   UNL A   1      32.782  25.088  21.434  1.00  0.00     0.049 A 
ATOM     13  C   UNL A   1      31.268  25.465  23.310  1.00  0.00     0.087 A 
ATOM     14  C   UNL A   1      31.781  25.837  22.058  1.00  0.00     0.143 A 
ATOM     15  O   UNL A   1      31.301  26.890  21.332  1.00  0.00    -0.482 OA
ATOM     16  C   UNL A   1      29.845  27.440  23.314  1.00  0.00     0.265 C 
ATOM     17  C   UNL A   1      30.688  27.884  22.125  1.00  0.00     0.330 C 
ATOM     18  O   UNL A   1      28.957  28.163  23.772  1.00  0.00    -0.270 OA
BRANCH   9  19
ATOM     19  C   UNL A   1      33.367  22.378  23.960  1.00  0.00     0.254 C 
ATOM     20  C   UNL A   1      38.520  22.575  26.096  1.00  0.00     0.332 C 
ATOM     21  N   UNL A   1      37.059  22.601  26.114  1.00  0.00    -0.334 N 
ATOM     22  C   UNL A   1      36.508  21.339  25.573  1.00  0.00     0.283 C 
ATOM     23  C   UNL A   1      36.554  23.737  25.315  1.00  0.00     0.283 C 
ATOM     24  H   UNL A   1      36.760  22.706  27.083  1.00  0.00     0.347 HD
ATOM     25  C   UNL A   1      34.966  21.343  25.512  1.00  0.00     0.181 C 
ATOM     26  C   UNL A   1      35.014  23.790  25.304  1.00  0.00     0.181 C 
ATOM     27  N   UNL A   1      34.446  22.525  24.821  1.00  0.00    -0.327 N 
ATOM     28  O   UNL A   1      32.839  21.298  23.706  1.00  0.00    -0.269 OA
ENDBRANCH   9  19
ENDBRANCH   7   8
ENDBRANCH   4   7
ENDBRANCH   2   3
ENDBRANCH   1   2
BRANCH   1  29
ATOM     29  C   UNL A   1      33.934  28.313  26.546  1.00  0.00     0.118 C 
BRANCH  29  30
ATOM     30  N   UNL A   1      33.755  29.725  26.860  1.00  0.00    -0.352 N 
ATOM     31  C   UNL A   1      34.505  30.564  27.644  1.00  0.00     0.251 C 
ATOM     32  H   UNL A   1      32.969  30.145  26.441  1.00  0.00     0.163 HD
ATOM     33  O   UNL A   1      34.064  31.682  27.915  1.00  0.00    -0.269 OA
BRANCH  31  34
ATOM     34  C   UNL A   1      35.822  30.146  28.171  1.00  0.00     0.039 A 
ATOM     35  C   UNL A   1      35.890  29.604  29.459  1.00  0.00     0.014 A 
ATOM     36  C   UNL A   1      36.991  30.318  27.427  1.00  0.00     0.014 A 
ATOM     37  C   UNL A   1      37.118  29.178  29.972  1.00  0.00     0.010 A 
ATOM     38  C   UNL A   1      38.202  29.826  27.910  1.00  0.00     0.010 A 
ATOM     39  C   UNL A   1      38.281  29.255  29.189  1.00  0.00    -0.014 A 
BRANCH  39  40
ATOM     40  C   UNL A   1      39.580  28.724  29.680  1.00  0.00     0.031 A 
ATOM     41  C   UNL A   1      40.332  29.434  30.774  1.00  0.00     0.074 A 
ATOM     42  C   UNL A   1      40.129  27.651  29.076  1.00  0.00     0.049 A 
ATOM     43  N   UNL A   1      41.505  29.158  31.281  1.00  0.00    -0.248 NA
ATOM     44  C   UNL A   1      39.694  30.625  31.359  1.00  0.00     0.031 C 
ATOM     45  C   UNL A   1      39.538  26.919  27.953  1.00  0.00     0.029 A 
ATOM     46  N   UNL A   1      41.320  27.006  29.300  1.00  0.00    -0.354 N 
ATOM     47  C   UNL A   1      41.764  30.157  32.213  1.00  0.00     0.074 A 
ATOM     48  C   UNL A   1      40.637  31.063  32.181  1.00  0.00     0.031 C 
ATOM     49  C   UNL A   1      40.368  25.930  27.586  1.00  0.00     0.029 A 
ATOM     50  C   UNL A   1      41.563  25.974  28.422  1.00  0.00     0.049 A 
ATOM     51  H   UNL A   1      41.942  27.259  30.020  1.00  0.00     0.167 HD
ATOM     52  C   UNL A   1      42.829  30.294  33.037  1.00  0.00     0.034 A 
ATOM     53  C   UNL A   1      42.631  25.163  28.295  1.00  0.00     0.034 A 
ATOM     54  C   UNL A   1      43.928  29.368  33.097  1.00  0.00     0.049 A 
ATOM     55  C   UNL A   1      43.783  25.315  29.251  1.00  0.00     0.074 A 
ATOM     56  C   UNL A   1      45.008  29.371  33.963  1.00  0.00     0.029 A 
ATOM     57  N   UNL A   1      44.096  28.281  32.253  1.00  0.00    -0.354 N 
ATOM     58  N   UNL A   1      43.933  26.169  30.233  1.00  0.00    -0.248 NA
ATOM     59  C   UNL A   1      44.898  24.367  29.105  1.00  0.00     0.031 C 
ATOM     60  C   UNL A   1      45.842  28.300  33.624  1.00  0.00     0.029 A 
ATOM     61  C   UNL A   1      45.266  27.612  32.569  1.00  0.00     0.049 A 
ATOM     62  H   UNL A   1      43.474  28.024  31.535  1.00  0.00     0.167 HD
ATOM     63  C   UNL A   1      45.137  25.840  30.845  1.00  0.00     0.074 A 
ATOM     64  C   UNL A   1      45.666  24.693  30.135  1.00  0.00     0.031 C 
ATOM     65  C   UNL A   1      45.756  26.440  31.891  1.00  0.00     0.034 A 
BRANCH  52  66
ATOM     66  C   UNL A   1      42.840  31.466  33.986  1.00  0.00     0.023 A 
ATOM     67  C   UNL A   1      43.382  32.698  33.566  1.00  0.00     0.012 A 
ATOM     68  C   UNL A   1      42.252  31.371  35.263  1.00  0.00     0.148 A 
ATOM     69  C   UNL A   1      43.369  33.806  34.411  1.00  0.00     0.002 A 
ATOM     70  C   UNL A   1      42.201  32.492  36.082  1.00  0.00     0.091 A 
ATOM     71  F   UNL A   1      41.758  30.186  35.653  1.00  0.00    -0.205 F 
ATOM     72  C   UNL A   1      42.769  33.706  35.664  1.00  0.00     0.022 A 
BRANCH  70  73
ATOM     73  S   UNL A   1      41.379  32.490  37.680  1.00  0.00     0.127 S 
ATOM     74  O   UNL A   1      41.414  33.910  38.030  1.00  0.00    -0.237 OA
ATOM     75  O   UNL A   1      40.050  31.981  37.340  1.00  0.00    -0.237 OA
ATOM     76  O   UNL A   1      42.166  31.617  38.538  1.00  0.00    -0.744 OA
ENDBRANCH  70  73
ENDBRANCH  52  66
BRANCH  53  77
ATOM     77  C   UNL A   1      42.638  24.095  27.255  1.00  0.00     0.023 A 
ATOM     78  C   UNL A   1      43.163  24.373  25.979  1.00  0.00     0.012 A 
ATOM     79  C   UNL A   1      42.146  22.803  27.529  1.00  0.00     0.148 A 
ATOM     80  C   UNL A   1      43.166  23.398  24.982  1.00  0.00     0.002 A 
ATOM     81  C   UNL A   1      42.204  21.819  26.549  1.00  0.00     0.091 A 
ATOM     82  F   UNL A   1      41.640  22.560  28.746  1.00  0.00    -0.205 F 
ATOM     83  C   UNL A   1      42.697  22.119  25.269  1.00  0.00     0.022 A 
BRANCH  81  84
ATOM     84  S   UNL A   1      41.747  20.112  26.874  1.00  0.00     0.127 S 
ATOM     85  O   UNL A   1      40.373  20.257  27.352  1.00  0.00    -0.237 OA
ATOM     86  O   UNL A   1      41.876  19.507  25.546  1.00  0.00    -0.237 OA
ATOM     87  O   UNL A   1      42.710  19.626  27.849  1.00  0.00    -0.744 OA
ENDBRANCH  81  84
ENDBRANCH  53  77
BRANCH  65  88
ATOM     88  C   UNL A   1      47.058  25.851  32.368  1.00  0.00     0.023 A 
ATOM     89  C   UNL A   1      48.274  26.280  31.802  1.00  0.00     0.012 A 
ATOM     90  C   UNL A   1      47.077  24.924  33.430  1.00  0.00     0.148 A 
ATOM     91  C   UNL A   1      49.489  25.771  32.262  1.00  0.00     0.002 A 
ATOM     92  C   UNL A   1      48.293  24.461  33.918  1.00  0.00     0.091 A 
ATOM     93  F   UNL A   1      45.908  24.514  33.943  1.00  0.00    -0.205 F 
ATOM     94  C   UNL A   1      49.499  24.872  33.327  1.00  0.00     0.022 A 
BRANCH  92  95
ATOM     95  S   UNL A   1      48.409  23.380  35.347  1.00  0.00     0.127 S 
ATOM     96  O   UNL A   1      47.463  22.320  34.998  1.00  0.00    -0.237 OA
ATOM     97  O   UNL A   1      49.815  22.976  35.319  1.00  0.00    -0.237 OA
ATOM     98  O   UNL A   1      48.038  24.194  36.498  1.00  0.00    -0.744 OA
ENDBRANCH  92  95
ENDBRANCH  65  88
ENDBRANCH  39  40
ENDBRANCH  31  34
ENDBRANCH  29  30
ENDBRANCH   1  29
TORSDOF 15
ENDMDL
