MODEL 1
REMARK VINA RESULT:     -12.8      0.000      0.000
REMARK SMILES O=C(NCCCNC(=O)c1[nH]ncc1C[NH+]1CCC([N@H+]2CCC[C@@H](C(=O)N3CCCC3)C2)CC1)c1ccc(-c2c3nc(c(-c4cccc(S(=O)(=O)[O-])c4F)c4ccc([nH]4)c(-c4cccc(S(=O)(=O)[O-])c4F)c4nc(c(-c5cccc(S(=O)(=O)[O-])c5F)c5ccc2[nH]5)C=C4)C=C3)cc1
REMARK SMILES IDX 5 1 4 2 3 3 1 4 2 5 35 7 36 8 97 9 37 10 96 11 38 12 39 13
REMARK SMILES IDX 40 14 90 15 41 16 95 17 89 18 91 19 42 20 94 21 88 22 87 23
REMARK SMILES IDX 43 25 75 26 55 27 74 28 56 29 59 30 73 31 92 32 57 33 58 34
REMARK SMILES IDX 72 36 93 37 60 38 44 39 45 40 53 41 46 42 48 43 54 44 47 45
REMARK SMILES IDX 49 46 50 47 51 48 52 49 76 50 77 51 85 52 78 53 80 54 86 55
REMARK SMILES IDX 79 56 81 57 82 58 83 59 84 60 61 61 62 62 70 63 63 64 65 65
REMARK SMILES IDX 71 66 64 67 66 68 67 69 68 70 69 71 6 72 7 73 8 74 9 76
REMARK SMILES IDX 10 77 11 78 14 79 12 80 13 82 15 83 16 84 17 85 34 86 18 88
REMARK SMILES IDX 33 89 19 90 20 91 21 92 32 93 22 95 24 96 23 97 25 98 26 99
REMARK SMILES IDX 27 100 28 101 31 102 29 103 30 104
REMARK H PARENT 3 6 91 24 59 35 7 75 11 81 16 87 20 94
REMARK Flexibility Score: inf
ROOT
ATOM      1  C   UNL A   1      33.249  27.999  25.001  1.00  0.00     0.042 C 
ENDROOT
BRANCH   1   2
ATOM      2  C   UNL A   1      34.160  28.785  25.930  1.00  0.00     0.118 C 
BRANCH   2   3
ATOM      3  N   UNL A   1      33.623  30.094  26.278  1.00  0.00    -0.352 N 
ATOM      4  O   UNL A   1      33.240  31.942  27.489  1.00  0.00    -0.269 OA
ATOM      5  C   UNL A   1      33.983  30.993  27.256  1.00  0.00     0.251 C 
ATOM      6  H   UNL A   1      32.869  30.387  25.714  1.00  0.00     0.163 HD
BRANCH   5   7
ATOM      7  C   UNL A   1      35.225  30.810  28.043  1.00  0.00     0.039 A 
ATOM      8  C   UNL A   1      35.444  29.650  28.780  1.00  0.00     0.014 A 
ATOM      9  C   UNL A   1      36.218  31.797  28.007  1.00  0.00     0.014 A 
ATOM     10  C   UNL A   1      36.539  29.561  29.629  1.00  0.00     0.010 A 
ATOM     11  C   UNL A   1      37.388  31.647  28.765  1.00  0.00     0.010 A 
ATOM     12  C   UNL A   1      37.542  30.546  29.616  1.00  0.00    -0.014 A 
BRANCH  12  13
ATOM     13  C   UNL A   1      38.756  30.324  30.446  1.00  0.00     0.031 A 
ATOM     14  C   UNL A   1      38.877  30.874  31.839  1.00  0.00     0.074 A 
ATOM     15  C   UNL A   1      39.735  29.541  29.944  1.00  0.00     0.049 A 
ATOM     16  N   UNL A   1      39.815  30.653  32.726  1.00  0.00    -0.248 NA
ATOM     17  C   UNL A   1      37.829  31.798  32.301  1.00  0.00     0.031 C 
ATOM     18  C   UNL A   1      39.758  29.003  28.581  1.00  0.00     0.029 A 
ATOM     19  N   UNL A   1      40.866  29.024  30.521  1.00  0.00    -0.354 N 
ATOM     20  C   UNL A   1      39.497  31.437  33.827  1.00  0.00     0.074 A 
ATOM     21  C   UNL A   1      38.278  32.145  33.501  1.00  0.00     0.031 C 
ATOM     22  C   UNL A   1      40.795  28.164  28.455  1.00  0.00     0.029 A 
ATOM     23  C   UNL A   1      41.544  28.145  29.706  1.00  0.00     0.049 A 
ATOM     24  H   UNL A   1      41.165  29.259  31.429  1.00  0.00     0.167 HD
ATOM     25  C   UNL A   1      40.151  31.543  35.009  1.00  0.00     0.034 A 
ATOM     26  C   UNL A   1      42.636  27.393  29.940  1.00  0.00     0.034 A 
ATOM     27  C   UNL A   1      41.330  30.793  35.352  1.00  0.00     0.049 A 
ATOM     28  C   UNL A   1      43.283  27.459  31.291  1.00  0.00     0.074 A 
ATOM     29  C   UNL A   1      42.045  30.809  36.538  1.00  0.00     0.029 A 
ATOM     30  N   UNL A   1      41.961  29.884  34.517  1.00  0.00    -0.354 N 
ATOM     31  N   UNL A   1      42.903  28.131  32.351  1.00  0.00    -0.248 NA
ATOM     32  C   UNL A   1      44.498  26.657  31.486  1.00  0.00     0.031 C 
ATOM     33  C   UNL A   1      43.104  29.901  36.423  1.00  0.00     0.029 A 
ATOM     34  C   UNL A   1      43.052  29.325  35.163  1.00  0.00     0.049 A 
ATOM     35  H   UNL A   1      41.676  29.667  33.601  1.00  0.00     0.167 HD
ATOM     36  C   UNL A   1      43.838  27.844  33.336  1.00  0.00     0.074 A 
ATOM     37  C   UNL A   1      44.771  26.893  32.763  1.00  0.00     0.031 C 
ATOM     38  C   UNL A   1      43.941  28.351  34.588  1.00  0.00     0.034 A 
BRANCH  25  39
ATOM     39  C   UNL A   1      39.573  32.462  36.051  1.00  0.00     0.023 A 
ATOM     40  C   UNL A   1      38.641  31.950  36.975  1.00  0.00     0.012 A 
ATOM     41  C   UNL A   1      40.005  33.797  36.170  1.00  0.00     0.148 A 
ATOM     42  C   UNL A   1      38.137  32.756  37.995  1.00  0.00     0.002 A 
ATOM     43  C   UNL A   1      39.519  34.587  37.207  1.00  0.00     0.091 A 
ATOM     44  F   UNL A   1      40.872  34.273  35.265  1.00  0.00    -0.205 F 
ATOM     45  C   UNL A   1      38.583  34.069  38.117  1.00  0.00     0.022 A 
BRANCH  43  46
ATOM     46  S   UNL A   1      40.077  36.274  37.480  1.00  0.00     0.127 S 
ATOM     47  O   UNL A   1      41.458  36.060  37.913  1.00  0.00    -0.237 OA
ATOM     48  O   UNL A   1      39.941  36.868  36.149  1.00  0.00    -0.237 OA
ATOM     49  O   UNL A   1      39.182  36.830  38.485  1.00  0.00    -0.744 OA
ENDBRANCH  43  46
ENDBRANCH  25  39
BRANCH  26  50
ATOM     50  C   UNL A   1      43.126  26.462  28.885  1.00  0.00     0.023 A 
ATOM     51  C   UNL A   1      42.560  25.177  28.779  1.00  0.00     0.012 A 
ATOM     52  C   UNL A   1      44.083  26.866  27.936  1.00  0.00     0.148 A 
ATOM     53  C   UNL A   1      42.944  24.312  27.752  1.00  0.00     0.002 A 
ATOM     54  C   UNL A   1      44.412  26.024  26.880  1.00  0.00     0.091 A 
ATOM     55  F   UNL A   1      44.636  28.082  28.057  1.00  0.00    -0.205 F 
ATOM     56  C   UNL A   1      43.858  24.742  26.791  1.00  0.00     0.022 A 
BRANCH  54  57
ATOM     57  S   UNL A   1      45.443  26.626  25.537  1.00  0.00     0.127 S 
ATOM     58  O   UNL A   1      46.687  26.953  26.225  1.00  0.00    -0.237 OA
ATOM     59  O   UNL A   1      45.520  25.470  24.642  1.00  0.00    -0.237 OA
ATOM     60  O   UNL A   1      44.685  27.745  24.987  1.00  0.00    -0.744 OA
ENDBRANCH  54  57
ENDBRANCH  26  50
BRANCH  38  61
ATOM     61  C   UNL A   1      45.123  27.912  35.406  1.00  0.00     0.023 A 
ATOM     62  C   UNL A   1      46.295  28.693  35.379  1.00  0.00     0.012 A 
ATOM     63  C   UNL A   1      45.067  26.773  36.227  1.00  0.00     0.148 A 
ATOM     64  C   UNL A   1      47.404  28.333  36.142  1.00  0.00     0.002 A 
ATOM     65  C   UNL A   1      46.167  26.437  37.009  1.00  0.00     0.091 A 
ATOM     66  F   UNL A   1      43.953  26.025  36.218  1.00  0.00    -0.205 F 
ATOM     67  C   UNL A   1      47.337  27.211  36.964  1.00  0.00     0.022 A 
BRANCH  65  68
ATOM     68  S   UNL A   1      46.114  25.040  38.138  1.00  0.00     0.127 S 
ATOM     69  O   UNL A   1      47.363  25.201  38.878  1.00  0.00    -0.237 OA
ATOM     70  O   UNL A   1      44.905  25.301  38.920  1.00  0.00    -0.237 OA
ATOM     71  O   UNL A   1      46.025  23.864  37.281  1.00  0.00    -0.744 OA
ENDBRANCH  65  68
ENDBRANCH  38  61
ENDBRANCH  12  13
ENDBRANCH   5   7
ENDBRANCH   2   3
ENDBRANCH   1   2
BRANCH   1  72
ATOM     72  C   UNL A   1      32.205  27.172  25.736  1.00  0.00     0.118 C 
BRANCH  72  73
ATOM     73  N   UNL A   1      30.972  27.025  24.972  1.00  0.00    -0.351 N 
ATOM     74  C   UNL A   1      30.236  25.906  24.701  1.00  0.00     0.269 C 
ATOM     75  H   UNL A   1      30.615  27.861  24.593  1.00  0.00     0.163 HD
ATOM     76  O   UNL A   1      29.399  25.967  23.799  1.00  0.00    -0.268 OA
BRANCH  74  77
ATOM     77  C   UNL A   1      30.471  24.697  25.433  1.00  0.00     0.131 A 
ATOM     78  N   UNL A   1      29.892  24.483  26.654  1.00  0.00    -0.272 N 
ATOM     79  C   UNL A   1      31.306  23.606  25.221  1.00  0.00     0.057 A 
ATOM     80  N   UNL A   1      30.174  23.285  27.189  1.00  0.00    -0.183 NA
ATOM     81  H   UNL A   1      29.319  25.147  27.100  1.00  0.00     0.190 HD
ATOM     82  C   UNL A   1      31.030  22.753  26.316  1.00  0.00     0.145 A 
BRANCH  79  83
ATOM     83  C   UNL A   1      32.258  23.354  24.099  1.00  0.00     0.303 C 
BRANCH  83  84
ATOM     84  N   UNL A   1      33.659  23.254  24.500  1.00  0.00    -0.331 N 
ATOM     85  C   UNL A   1      34.405  22.187  23.834  1.00  0.00     0.268 C 
ATOM     86  C   UNL A   1      34.375  24.526  24.491  1.00  0.00     0.268 C 
ATOM     87  H   UNL A   1      33.607  22.975  25.479  1.00  0.00     0.348 HD
ATOM     88  C   UNL A   1      35.739  21.947  24.546  1.00  0.00     0.126 C 
ATOM     89  C   UNL A   1      35.687  24.373  25.253  1.00  0.00     0.126 C 
ATOM     90  C   UNL A   1      36.552  23.250  24.644  1.00  0.00     0.195 C 
BRANCH  90  91
ATOM     91  N   UNL A   1      37.849  23.144  25.341  1.00  0.00    -0.331 N 
ATOM     92  C   UNL A   1      37.939  23.870  26.613  1.00  0.00     0.262 C 
ATOM     93  C   UNL A   1      38.311  21.750  25.496  1.00  0.00     0.275 C 
ATOM     94  H   UNL A   1      38.490  23.622  24.707  1.00  0.00     0.348 HD
ATOM     95  C   UNL A   1      39.401  23.972  27.048  1.00  0.00     0.062 C 
ATOM     96  C   UNL A   1      39.773  21.735  25.948  1.00  0.00     0.134 C 
ATOM     97  C   UNL A   1      40.041  22.598  27.188  1.00  0.00     0.025 C 
BRANCH  96  98
ATOM     98  C   UNL A   1      40.375  20.341  26.090  1.00  0.00     0.231 C 
ATOM     99  O   UNL A   1      39.616  19.363  26.112  1.00  0.00    -0.274 OA
ATOM    100  N   UNL A   1      41.736  20.156  26.093  1.00  0.00    -0.342 N 
ATOM    101  C   UNL A   1      42.822  21.098  26.300  1.00  0.00     0.119 C 
ATOM    102  C   UNL A   1      42.272  18.838  25.792  1.00  0.00     0.119 C 
ATOM    103  C   UNL A   1      43.909  20.566  25.384  1.00  0.00     0.023 C 
ATOM    104  C   UNL A   1      43.759  19.053  25.519  1.00  0.00     0.023 C 
ENDBRANCH  96  98
ENDBRANCH  90  91
ENDBRANCH  83  84
ENDBRANCH  79  83
ENDBRANCH  74  77
ENDBRANCH  72  73
ENDBRANCH   1  72
TORSDOF 17
ENDMDL
MODEL 2
REMARK VINA RESULT:     -12.2      4.547     11.010
REMARK SMILES O=C(NCCCNC(=O)c1[nH]ncc1C[NH+]1CCC([N@H+]2CCC[C@@H](C(=O)N3CCCC3)C2)CC1)c1ccc(-c2c3nc(c(-c4cccc(S(=O)(=O)[O-])c4F)c4ccc([nH]4)c(-c4cccc(S(=O)(=O)[O-])c4F)c4nc(c(-c5cccc(S(=O)(=O)[O-])c5F)c5ccc2[nH]5)C=C4)C=C3)cc1
REMARK SMILES IDX 5 1 4 2 3 3 1 4 2 5 35 7 36 8 97 9 37 10 96 11 38 12 39 13
REMARK SMILES IDX 40 14 90 15 41 16 95 17 89 18 91 19 42 20 94 21 88 22 87 23
REMARK SMILES IDX 43 25 75 26 55 27 74 28 56 29 59 30 73 31 92 32 57 33 58 34
REMARK SMILES IDX 72 36 93 37 60 38 44 39 45 40 53 41 46 42 48 43 54 44 47 45
REMARK SMILES IDX 49 46 50 47 51 48 52 49 76 50 77 51 85 52 78 53 80 54 86 55
REMARK SMILES IDX 79 56 81 57 82 58 83 59 84 60 61 61 62 62 70 63 63 64 65 65
REMARK SMILES IDX 71 66 64 67 66 68 67 69 68 70 69 71 6 72 7 73 8 74 9 76
REMARK SMILES IDX 10 77 11 78 14 79 12 80 13 82 15 83 16 84 17 85 34 86 18 88
REMARK SMILES IDX 33 89 19 90 20 91 21 92 32 93 22 95 24 96 23 97 25 98 26 99
REMARK SMILES IDX 27 100 28 101 31 102 29 103 30 104
REMARK H PARENT 3 6 91 24 59 35 7 75 11 81 16 87 20 94
REMARK Flexibility Score: inf
ROOT
ATOM      1  C   UNL A   1      35.499  23.569  24.985  1.00  0.00     0.042 C 
ENDROOT
BRANCH   1   2
ATOM      2  C   UNL A   1      36.525  23.600  26.107  1.00  0.00     0.118 C 
BRANCH   2   3
ATOM      3  N   UNL A   1      37.359  22.406  26.146  1.00  0.00    -0.352 N 
ATOM      4  O   UNL A   1      39.219  21.153  26.108  1.00  0.00    -0.269 OA
ATOM      5  C   UNL A   1      38.715  22.252  26.327  1.00  0.00     0.251 C 
ATOM      6  H   UNL A   1      36.867  21.562  26.020  1.00  0.00     0.163 HD
BRANCH   5   7
ATOM      7  C   UNL A   1      39.566  23.390  26.746  1.00  0.00     0.039 A 
ATOM      8  C   UNL A   1      39.482  24.623  26.106  1.00  0.00     0.014 A 
ATOM      9  C   UNL A   1      40.433  23.241  27.835  1.00  0.00     0.014 A 
ATOM     10  C   UNL A   1      40.390  25.628  26.409  1.00  0.00     0.010 A 
ATOM     11  C   UNL A   1      41.260  24.303  28.228  1.00  0.00     0.010 A 
ATOM     12  C   UNL A   1      41.276  25.494  27.493  1.00  0.00    -0.014 A 
BRANCH  12  13
ATOM     13  C   UNL A   1      42.126  26.660  27.853  1.00  0.00     0.031 A 
ATOM     14  C   UNL A   1      43.520  26.823  27.314  1.00  0.00     0.074 A 
ATOM     15  C   UNL A   1      41.587  27.625  28.628  1.00  0.00     0.049 A 
ATOM     16  N   UNL A   1      44.327  27.848  27.434  1.00  0.00    -0.248 NA
ATOM     17  C   UNL A   1      44.094  25.701  26.555  1.00  0.00     0.031 C 
ATOM     18  C   UNL A   1      40.268  27.548  29.262  1.00  0.00     0.029 A 
ATOM     19  N   UNL A   1      42.048  28.868  28.979  1.00  0.00    -0.354 N 
ATOM     20  C   UNL A   1      45.511  27.480  26.809  1.00  0.00     0.074 A 
ATOM     21  C   UNL A   1      45.323  26.135  26.309  1.00  0.00     0.031 C 
ATOM     22  C   UNL A   1      39.989  28.721  29.845  1.00  0.00     0.029 A 
ATOM     23  C   UNL A   1      41.127  29.616  29.678  1.00  0.00     0.049 A 
ATOM     24  H   UNL A   1      42.950  29.193  28.753  1.00  0.00     0.167 HD
ATOM     25  C   UNL A   1      46.645  28.204  26.651  1.00  0.00     0.034 A 
ATOM     26  C   UNL A   1      41.182  30.886  30.122  1.00  0.00     0.034 A 
ATOM     27  C   UNL A   1      46.809  29.562  27.098  1.00  0.00     0.049 A 
ATOM     28  C   UNL A   1      42.414  31.695  29.847  1.00  0.00     0.074 A 
ATOM     29  C   UNL A   1      47.910  30.389  26.954  1.00  0.00     0.029 A 
ATOM     30  N   UNL A   1      45.841  30.298  27.763  1.00  0.00    -0.354 N 
ATOM     31  N   UNL A   1      43.482  31.359  29.164  1.00  0.00    -0.248 NA
ATOM     32  C   UNL A   1      42.449  33.060  30.390  1.00  0.00     0.031 C 
ATOM     33  C   UNL A   1      47.604  31.630  27.525  1.00  0.00     0.029 A 
ATOM     34  C   UNL A   1      46.315  31.572  28.031  1.00  0.00     0.049 A 
ATOM     35  H   UNL A   1      44.949  29.965  28.010  1.00  0.00     0.167 HD
ATOM     36  C   UNL A   1      44.321  32.465  29.204  1.00  0.00     0.074 A 
ATOM     37  C   UNL A   1      43.613  33.500  29.932  1.00  0.00     0.031 C 
ATOM     38  C   UNL A   1      45.578  32.599  28.720  1.00  0.00     0.034 A 
BRANCH  25  39
ATOM     39  C   UNL A   1      47.787  27.566  25.907  1.00  0.00     0.023 A 
ATOM     40  C   UNL A   1      47.879  27.739  24.512  1.00  0.00     0.012 A 
ATOM     41  C   UNL A   1      48.806  26.871  26.588  1.00  0.00     0.148 A 
ATOM     42  C   UNL A   1      48.960  27.218  23.802  1.00  0.00     0.002 A 
ATOM     43  C   UNL A   1      49.895  26.378  25.877  1.00  0.00     0.091 A 
ATOM     44  F   UNL A   1      48.687  26.694  27.911  1.00  0.00    -0.205 F 
ATOM     45  C   UNL A   1      49.972  26.548  24.485  1.00  0.00     0.022 A 
BRANCH  43  46
ATOM     46  S   UNL A   1      51.277  25.551  26.676  1.00  0.00     0.127 S 
ATOM     47  O   UNL A   1      50.601  24.461  27.379  1.00  0.00    -0.237 OA
ATOM     48  O   UNL A   1      52.091  25.128  25.536  1.00  0.00    -0.237 OA
ATOM     49  O   UNL A   1      51.902  26.555  27.525  1.00  0.00    -0.744 OA
ENDBRANCH  43  46
ENDBRANCH  25  39
BRANCH  26  50
ATOM     50  C   UNL A   1      39.996  31.478  30.803  1.00  0.00     0.023 A 
ATOM     51  C   UNL A   1      39.013  32.133  30.036  1.00  0.00     0.012 A 
ATOM     52  C   UNL A   1      39.791  31.324  32.186  1.00  0.00     0.148 A 
ATOM     53  C   UNL A   1      37.854  32.628  30.637  1.00  0.00     0.002 A 
ATOM     54  C   UNL A   1      38.606  31.762  32.766  1.00  0.00     0.091 A 
ATOM     55  F   UNL A   1      40.742  30.720  32.914  1.00  0.00    -0.205 F 
ATOM     56  C   UNL A   1      37.641  32.427  31.999  1.00  0.00     0.022 A 
BRANCH  54  57
ATOM     57  S   UNL A   1      38.234  31.350  34.475  1.00  0.00     0.127 S 
ATOM     58  O   UNL A   1      38.174  29.893  34.435  1.00  0.00    -0.237 OA
ATOM     59  O   UNL A   1      39.382  31.898  35.199  1.00  0.00    -0.237 OA
ATOM     60  O   UNL A   1      36.982  32.050  34.740  1.00  0.00    -0.744 OA
ENDBRANCH  54  57
ENDBRANCH  26  50
BRANCH  38  61
ATOM     61  C   UNL A   1      46.279  33.899  28.993  1.00  0.00     0.023 A 
ATOM     62  C   UNL A   1      47.050  34.022  30.166  1.00  0.00     0.012 A 
ATOM     63  C   UNL A   1      46.219  34.972  28.087  1.00  0.00     0.148 A 
ATOM     64  C   UNL A   1      47.734  35.204  30.445  1.00  0.00     0.002 A 
ATOM     65  C   UNL A   1      46.930  36.138  28.356  1.00  0.00     0.091 A 
ATOM     66  F   UNL A   1      45.457  34.849  26.990  1.00  0.00    -0.205 F 
ATOM     67  C   UNL A   1      47.682  36.258  29.536  1.00  0.00     0.022 A 
BRANCH  65  68
ATOM     68  S   UNL A   1      46.954  37.503  27.189  1.00  0.00     0.127 S 
ATOM     69  O   UNL A   1      45.551  37.909  27.170  1.00  0.00    -0.237 OA
ATOM     70  O   UNL A   1      47.856  38.461  27.829  1.00  0.00    -0.237 OA
ATOM     71  O   UNL A   1      47.472  36.934  25.951  1.00  0.00    -0.744 OA
ENDBRANCH  65  68
ENDBRANCH  38  61
ENDBRANCH  12  13
ENDBRANCH   5   7
ENDBRANCH   2   3
ENDBRANCH   1   2
BRANCH   1  72
ATOM     72  C   UNL A   1      34.212  24.305  25.322  1.00  0.00     0.118 C 
BRANCH  72  73
ATOM     73  N   UNL A   1      33.029  23.478  25.125  1.00  0.00    -0.351 N 
ATOM     74  C   UNL A   1      31.996  23.618  24.240  1.00  0.00     0.269 C 
ATOM     75  H   UNL A   1      32.963  22.697  25.722  1.00  0.00     0.163 HD
ATOM     76  O   UNL A   1      30.966  22.976  24.446  1.00  0.00    -0.268 OA
BRANCH  74  77
ATOM     77  C   UNL A   1      32.118  24.518  23.132  1.00  0.00     0.131 A 
ATOM     78  N   UNL A   1      32.906  24.216  22.056  1.00  0.00    -0.272 N 
ATOM     79  C   UNL A   1      31.647  25.805  22.898  1.00  0.00     0.057 A 
ATOM     80  N   UNL A   1      32.878  25.140  21.082  1.00  0.00    -0.183 NA
ATOM     81  H   UNL A   1      33.446  23.395  22.000  1.00  0.00     0.190 HD
ATOM     82  C   UNL A   1      32.110  26.101  21.594  1.00  0.00     0.145 A 
BRANCH  79  83
ATOM     83  C   UNL A   1      30.821  26.680  23.783  1.00  0.00     0.303 C 
BRANCH  83  84
ATOM     84  N   UNL A   1      31.591  27.517  24.700  1.00  0.00    -0.331 N 
ATOM     85  C   UNL A   1      31.129  28.902  24.788  1.00  0.00     0.268 C 
ATOM     86  C   UNL A   1      31.812  26.917  26.012  1.00  0.00     0.268 C 
ATOM     87  H   UNL A   1      32.510  27.567  24.263  1.00  0.00     0.348 HD
ATOM     88  C   UNL A   1      32.175  29.766  25.497  1.00  0.00     0.126 C 
ATOM     89  C   UNL A   1      32.902  27.692  26.745  1.00  0.00     0.126 C 
ATOM     90  C   UNL A   1      32.527  29.182  26.877  1.00  0.00     0.195 C 
BRANCH  90  91
ATOM     91  N   UNL A   1      33.552  29.921  27.642  1.00  0.00    -0.331 N 
ATOM     92  C   UNL A   1      34.929  29.447  27.465  1.00  0.00     0.262 C 
ATOM     93  C   UNL A   1      33.470  31.383  27.458  1.00  0.00     0.275 C 
ATOM     94  H   UNL A   1      33.311  29.709  28.611  1.00  0.00     0.348 HD
ATOM     95  C   UNL A   1      35.825  30.044  28.550  1.00  0.00     0.062 C 
ATOM     96  C   UNL A   1      34.350  32.087  28.493  1.00  0.00     0.134 C 
ATOM     97  C   UNL A   1      35.793  31.565  28.528  1.00  0.00     0.025 C 
BRANCH  96  98
ATOM     98  C   UNL A   1      34.302  33.610  28.430  1.00  0.00     0.231 C 
ATOM     99  O   UNL A   1      34.276  34.161  27.322  1.00  0.00    -0.274 OA
ATOM    100  N   UNL A   1      34.188  34.361  29.576  1.00  0.00    -0.342 N 
ATOM    101  C   UNL A   1      34.414  34.010  30.967  1.00  0.00     0.119 C 
ATOM    102  C   UNL A   1      33.713  35.732  29.479  1.00  0.00     0.119 C 
ATOM    103  C   UNL A   1      33.372  34.838  31.696  1.00  0.00     0.023 C 
ATOM    104  C   UNL A   1      33.359  36.144  30.907  1.00  0.00     0.023 C 
ENDBRANCH  96  98
ENDBRANCH  90  91
ENDBRANCH  83  84
ENDBRANCH  79  83
ENDBRANCH  74  77
ENDBRANCH  72  73
ENDBRANCH   1  72
TORSDOF 17
ENDMDL
MODEL 3
REMARK VINA RESULT:     -12.0      0.841      7.264
REMARK SMILES O=C(NCCCNC(=O)c1[nH]ncc1C[NH+]1CCC([N@H+]2CCC[C@@H](C(=O)N3CCCC3)C2)CC1)c1ccc(-c2c3nc(c(-c4cccc(S(=O)(=O)[O-])c4F)c4ccc([nH]4)c(-c4cccc(S(=O)(=O)[O-])c4F)c4nc(c(-c5cccc(S(=O)(=O)[O-])c5F)c5ccc2[nH]5)C=C4)C=C3)cc1
REMARK SMILES IDX 5 1 4 2 3 3 1 4 2 5 35 7 36 8 97 9 37 10 96 11 38 12 39 13
REMARK SMILES IDX 40 14 90 15 41 16 95 17 89 18 91 19 42 20 94 21 88 22 87 23
REMARK SMILES IDX 43 25 75 26 55 27 74 28 56 29 59 30 73 31 92 32 57 33 58 34
REMARK SMILES IDX 72 36 93 37 60 38 44 39 45 40 53 41 46 42 48 43 54 44 47 45
REMARK SMILES IDX 49 46 50 47 51 48 52 49 76 50 77 51 85 52 78 53 80 54 86 55
REMARK SMILES IDX 79 56 81 57 82 58 83 59 84 60 61 61 62 62 70 63 63 64 65 65
REMARK SMILES IDX 71 66 64 67 66 68 67 69 68 70 69 71 6 72 7 73 8 74 9 76
REMARK SMILES IDX 10 77 11 78 14 79 12 80 13 82 15 83 16 84 17 85 34 86 18 88
REMARK SMILES IDX 33 89 19 90 20 91 21 92 32 93 22 95 24 96 23 97 25 98 26 99
REMARK SMILES IDX 27 100 28 101 31 102 29 103 30 104
REMARK H PARENT 3 6 91 24 59 35 7 75 11 81 16 87 20 94
REMARK Flexibility Score: inf
ROOT
ATOM      1  C   UNL A   1      33.574  28.221  25.077  1.00  0.00     0.042 C 
ENDROOT
BRANCH   1   2
ATOM      2  C   UNL A   1      34.101  28.814  26.375  1.00  0.00     0.118 C 
BRANCH   2   3
ATOM      3  N   UNL A   1      33.922  30.258  26.453  1.00  0.00    -0.352 N 
ATOM      4  O   UNL A   1      33.998  32.331  27.305  1.00  0.00    -0.269 OA
ATOM      5  C   UNL A   1      34.466  31.195  27.301  1.00  0.00     0.251 C 
ATOM      6  H   UNL A   1      33.303  30.628  25.782  1.00  0.00     0.163 HD
BRANCH   5   7
ATOM      7  C   UNL A   1      35.575  30.845  28.220  1.00  0.00     0.039 A 
ATOM      8  C   UNL A   1      36.712  31.643  28.310  1.00  0.00     0.014 A 
ATOM      9  C   UNL A   1      35.459  29.722  29.048  1.00  0.00     0.014 A 
ATOM     10  C   UNL A   1      37.802  31.220  29.059  1.00  0.00     0.010 A 
ATOM     11  C   UNL A   1      36.510  29.366  29.905  1.00  0.00     0.010 A 
ATOM     12  C   UNL A   1      37.709  30.090  29.889  1.00  0.00    -0.014 A 
BRANCH  12  13
ATOM     13  C   UNL A   1      38.863  29.769  30.771  1.00  0.00     0.031 A 
ATOM     14  C   UNL A   1      40.016  28.930  30.297  1.00  0.00     0.074 A 
ATOM     15  C   UNL A   1      38.891  30.317  32.005  1.00  0.00     0.049 A 
ATOM     16  N   UNL A   1      41.147  28.679  30.907  1.00  0.00    -0.248 NA
ATOM     17  C   UNL A   1      39.891  28.279  28.984  1.00  0.00     0.031 C 
ATOM     18  C   UNL A   1      37.800  31.096  32.599  1.00  0.00     0.029 A 
ATOM     19  N   UNL A   1      39.875  30.349  32.959  1.00  0.00    -0.354 N 
ATOM     20  C   UNL A   1      41.846  27.811  30.078  1.00  0.00     0.074 A 
ATOM     21  C   UNL A   1      41.014  27.575  28.919  1.00  0.00     0.031 C 
ATOM     22  C   UNL A   1      38.207  31.601  33.771  1.00  0.00     0.029 A 
ATOM     23  C   UNL A   1      39.563  31.140  34.042  1.00  0.00     0.049 A 
ATOM     24  H   UNL A   1      40.722  29.853  32.878  1.00  0.00     0.167 HD
ATOM     25  C   UNL A   1      43.078  27.275  30.259  1.00  0.00     0.034 A 
ATOM     26  C   UNL A   1      40.289  31.474  35.126  1.00  0.00     0.034 A 
ATOM     27  C   UNL A   1      43.928  27.559  31.385  1.00  0.00     0.049 A 
ATOM     28  C   UNL A   1      41.686  30.942  35.251  1.00  0.00     0.074 A 
ATOM     29  C   UNL A   1      45.205  27.088  31.639  1.00  0.00     0.029 A 
ATOM     30  N   UNL A   1      43.593  28.396  32.438  1.00  0.00    -0.354 N 
ATOM     31  N   UNL A   1      42.363  30.206  34.403  1.00  0.00    -0.248 NA
ATOM     32  C   UNL A   1      42.424  31.295  36.471  1.00  0.00     0.031 C 
ATOM     33  C   UNL A   1      45.647  27.650  32.843  1.00  0.00     0.029 A 
ATOM     34  C   UNL A   1      44.642  28.464  33.341  1.00  0.00     0.049 A 
ATOM     35  H   UNL A   1      42.737  28.872  32.530  1.00  0.00     0.167 HD
ATOM     36  C   UNL A   1      43.603  29.996  34.991  1.00  0.00     0.074 A 
ATOM     37  C   UNL A   1      43.602  30.730  36.242  1.00  0.00     0.031 C 
ATOM     38  C   UNL A   1      44.634  29.232  34.558  1.00  0.00     0.034 A 
BRANCH  25  39
ATOM     39  C   UNL A   1      43.615  26.371  29.183  1.00  0.00     0.023 A 
ATOM     40  C   UNL A   1      43.363  24.987  29.262  1.00  0.00     0.012 A 
ATOM     41  C   UNL A   1      44.292  26.889  28.062  1.00  0.00     0.148 A 
ATOM     42  C   UNL A   1      43.788  24.129  28.247  1.00  0.00     0.002 A 
ATOM     43  C   UNL A   1      44.689  26.032  27.041  1.00  0.00     0.091 A 
ATOM     44  F   UNL A   1      44.545  28.205  28.019  1.00  0.00    -0.205 F 
ATOM     45  C   UNL A   1      44.440  24.653  27.134  1.00  0.00     0.022 A 
BRANCH  43  46
ATOM     46  S   UNL A   1      45.484  26.619  25.540  1.00  0.00     0.127 S 
ATOM     47  O   UNL A   1      44.513  27.599  25.056  1.00  0.00    -0.237 OA
ATOM     48  O   UNL A   1      46.729  27.195  26.051  1.00  0.00    -0.237 OA
ATOM     49  O   UNL A   1      45.664  25.443  24.700  1.00  0.00    -0.744 OA
ENDBRANCH  43  46
ENDBRANCH  25  39
BRANCH  26  50
ATOM     50  C   UNL A   1      39.721  32.419  36.128  1.00  0.00     0.023 A 
ATOM     51  C   UNL A   1      38.929  31.919  37.179  1.00  0.00     0.012 A 
ATOM     52  C   UNL A   1      40.028  33.791  36.099  1.00  0.00     0.148 A 
ATOM     53  C   UNL A   1      38.449  32.770  38.176  1.00  0.00     0.002 A 
ATOM     54  C   UNL A   1      39.601  34.621  37.129  1.00  0.00     0.091 A 
ATOM     55  F   UNL A   1      40.763  34.265  35.082  1.00  0.00    -0.205 F 
ATOM     56  C   UNL A   1      38.799  34.119  38.162  1.00  0.00     0.022 A 
BRANCH  54  57
ATOM     57  S   UNL A   1      40.193  36.315  37.226  1.00  0.00     0.127 S 
ATOM     58  O   UNL A   1      39.829  36.844  35.916  1.00  0.00    -0.237 OA
ATOM     59  O   UNL A   1      39.425  36.865  38.345  1.00  0.00    -0.237 OA
ATOM     60  O   UNL A   1      41.617  36.174  37.503  1.00  0.00    -0.744 OA
ENDBRANCH  54  57
ENDBRANCH  26  50
BRANCH  38  61
ATOM     61  C   UNL A   1      45.830  29.127  35.460  1.00  0.00     0.023 A 
ATOM     62  C   UNL A   1      46.908  30.014  35.267  1.00  0.00     0.012 A 
ATOM     63  C   UNL A   1      45.876  28.200  36.516  1.00  0.00     0.148 A 
ATOM     64  C   UNL A   1      48.025  29.964  36.098  1.00  0.00     0.002 A 
ATOM     65  C   UNL A   1      46.981  28.176  37.361  1.00  0.00     0.091 A 
ATOM     66  F   UNL A   1      44.855  27.343  36.668  1.00  0.00    -0.205 F 
ATOM     67  C   UNL A   1      48.058  29.052  37.150  1.00  0.00     0.022 A 
BRANCH  65  68
ATOM     68  S   UNL A   1      47.049  27.068  38.773  1.00  0.00     0.127 S 
ATOM     69  O   UNL A   1      47.053  25.757  38.130  1.00  0.00    -0.237 OA
ATOM     70  O   UNL A   1      48.313  27.436  39.414  1.00  0.00    -0.237 OA
ATOM     71  O   UNL A   1      45.867  27.389  39.563  1.00  0.00    -0.744 OA
ENDBRANCH  65  68
ENDBRANCH  38  61
ENDBRANCH  12  13
ENDBRANCH   5   7
ENDBRANCH   2   3
ENDBRANCH   1   2
BRANCH   1  72
ATOM     72  C   UNL A   1      32.983  26.831  25.244  1.00  0.00     0.118 C 
BRANCH  72  73
ATOM     73  N   UNL A   1      31.828  26.609  24.383  1.00  0.00    -0.351 N 
ATOM     74  C   UNL A   1      31.000  25.526  24.285  1.00  0.00     0.269 C 
ATOM     75  H   UNL A   1      31.611  27.356  23.779  1.00  0.00     0.163 HD
ATOM     76  O   UNL A   1      30.275  25.439  23.293  1.00  0.00    -0.268 OA
BRANCH  74  77
ATOM     77  C   UNL A   1      31.018  24.515  25.300  1.00  0.00     0.131 A 
ATOM     78  N   UNL A   1      30.388  24.704  26.499  1.00  0.00    -0.272 N 
ATOM     79  C   UNL A   1      31.664  23.289  25.408  1.00  0.00     0.057 A 
ATOM     80  N   UNL A   1      30.457  23.647  27.324  1.00  0.00    -0.183 NA
ATOM     81  H   UNL A   1      29.925  25.539  26.737  1.00  0.00     0.190 HD
ATOM     82  C   UNL A   1      31.229  22.788  26.658  1.00  0.00     0.145 A 
BRANCH  79  83
ATOM     83  C   UNL A   1      32.582  22.621  24.438  1.00  0.00     0.303 C 
BRANCH  83  84
ATOM     84  N   UNL A   1      33.998  22.694  24.791  1.00  0.00    -0.331 N 
ATOM     85  C   UNL A   1      34.748  21.463  24.545  1.00  0.00     0.268 C 
ATOM     86  C   UNL A   1      34.681  23.878  24.277  1.00  0.00     0.268 C 
ATOM     87  H   UNL A   1      33.985  22.803  25.804  1.00  0.00     0.348 HD
ATOM     88  C   UNL A   1      36.110  21.523  25.241  1.00  0.00     0.126 C 
ATOM     89  C   UNL A   1      36.021  24.036  24.987  1.00  0.00     0.126 C 
ATOM     90  C   UNL A   1      36.893  22.776  24.810  1.00  0.00     0.195 C 
BRANCH  90  91
ATOM     91  N   UNL A   1      38.215  22.953  25.444  1.00  0.00    -0.331 N 
ATOM     92  C   UNL A   1      38.264  23.942  26.527  1.00  0.00     0.262 C 
ATOM     93  C   UNL A   1      38.832  21.680  25.863  1.00  0.00     0.275 C 
ATOM     94  H   UNL A   1      38.779  23.346  24.689  1.00  0.00     0.348 HD
ATOM     95  C   UNL A   1      39.719  24.282  26.852  1.00  0.00     0.062 C 
ATOM     96  C   UNL A   1      40.300  21.910  26.230  1.00  0.00     0.134 C 
ATOM     97  C   UNL A   1      40.509  23.042  27.244  1.00  0.00     0.025 C 
BRANCH  96  98
ATOM     98  C   UNL A   1      41.055  20.646  26.630  1.00  0.00     0.231 C 
ATOM     99  O   UNL A   1      40.447  19.755  27.236  1.00  0.00    -0.274 OA
ATOM    100  N   UNL A   1      42.358  20.450  26.242  1.00  0.00    -0.342 N 
ATOM    101  C   UNL A   1      43.351  21.384  25.741  1.00  0.00     0.119 C 
ATOM    102  C   UNL A   1      42.904  19.102  26.249  1.00  0.00     0.119 C 
ATOM    103  C   UNL A   1      44.140  20.542  24.756  1.00  0.00     0.023 C 
ATOM    104  C   UNL A   1      44.197  19.179  25.440  1.00  0.00     0.023 C 
ENDBRANCH  96  98
ENDBRANCH  90  91
ENDBRANCH  83  84
ENDBRANCH  79  83
ENDBRANCH  74  77
ENDBRANCH  72  73
ENDBRANCH   1  72
TORSDOF 17
ENDMDL
