MODEL 1
REMARK VINA RESULT:     -10.2      0.000      0.000
REMARK SMILES C[C@H](C[NH3+])S[C@H](C)c1ccc(C(=O)NCCCNC(=O)c2ccc(-c3c4nc(c(-c5cccc(S(=O)(=O)[O-])c5F)c5ccc([nH]5)c(-c5cccc(S(=O)(=O)[O-])c5F)c5nc(c(-c6cccc(S(=O)(=O)[O-])c6F)c6ccc3[nH]6)C=C5)C=C4)cc2)o1
REMARK SMILES IDX 15 1 14 2 12 3 13 4 11 6 8 7 9 8 84 9 10 10 6 11 7 12 5 13
REMARK SMILES IDX 2 14 1 15 3 16 4 17 16 21 17 22 18 23 19 24 20 26 21 27
REMARK SMILES IDX 22 28 83 29 23 30 82 31 24 32 25 33 26 34 76 35 27 36 81 37
REMARK SMILES IDX 75 38 77 39 28 40 80 41 74 42 73 43 29 45 61 46 41 47 60 48
REMARK SMILES IDX 42 49 45 50 59 51 78 52 43 53 44 54 58 56 79 57 46 58 30 59
REMARK SMILES IDX 31 60 39 61 32 62 34 63 40 64 33 65 35 66 36 67 37 68 38 69
REMARK SMILES IDX 62 70 63 71 71 72 64 73 66 74 72 75 65 76 67 77 68 78 69 79
REMARK SMILES IDX 70 80 47 81 48 82 56 83 49 84 51 85 57 86 50 87 52 88 53 89
REMARK SMILES IDX 54 90 55 91
REMARK H PARENT 14 5 4 18 4 19 4 20 18 25 77 44 45 55
REMARK Flexibility Score: inf
ROOT
ATOM      1  C   UNL A   1      32.403  28.159  24.392  1.00  0.00     0.118 C 
ENDROOT
BRANCH   1   2
ATOM      2  N   UNL A   1      31.405  27.696  25.335  1.00  0.00    -0.349 N 
ATOM      3  C   UNL A   1      31.250  26.464  25.934  1.00  0.00     0.286 C 
ATOM      4  O   UNL A   1      30.444  26.415  26.866  1.00  0.00    -0.266 OA
ATOM      5  H   UNL A   1      30.731  28.368  25.589  1.00  0.00     0.163 HD
BRANCH   3   6
ATOM      6  C   UNL A   1      32.010  25.311  25.484  1.00  0.00     0.191 A 
ATOM      7  C   UNL A   1      33.478  23.672  25.785  1.00  0.00     0.117 A 
ATOM      8  C   UNL A   1      32.975  23.521  24.511  1.00  0.00     0.047 A 
ATOM      9  O   UNL A   1      32.901  24.759  26.376  1.00  0.00    -0.455 OA
ATOM     10  C   UNL A   1      32.032  24.558  24.324  1.00  0.00     0.056 A 
BRANCH   7  11
ATOM     11  C   UNL A   1      34.442  22.892  26.629  1.00  0.00     0.110 C 
ATOM     12  C   UNL A   1      33.694  22.233  27.786  1.00  0.00     0.028 C 
BRANCH  11  13
ATOM     13  S   UNL A   1      35.286  21.623  25.600  1.00  0.00    -0.142 SA
BRANCH  13  14
ATOM     14  C   UNL A   1      36.713  22.518  24.865  1.00  0.00     0.099 C 
ATOM     15  C   UNL A   1      36.584  22.702  23.357  1.00  0.00     0.025 C 
BRANCH  14  16
ATOM     16  C   UNL A   1      38.104  22.033  25.339  1.00  0.00     0.273 C 
BRANCH  16  17
ATOM     17  N   UNL A   1      38.595  22.589  26.602  1.00  0.00    -0.357 N 
ATOM     18  H   UNL A   1      38.184  22.075  27.381  1.00  0.00     0.344 HD
ATOM     19  H   UNL A   1      38.332  23.572  26.666  1.00  0.00     0.344 HD
ATOM     20  H   UNL A   1      39.610  22.506  26.638  1.00  0.00     0.344 HD
ENDBRANCH  16  17
ENDBRANCH  14  16
ENDBRANCH  13  14
ENDBRANCH  11  13
ENDBRANCH   7  11
ENDBRANCH   3   6
ENDBRANCH   1   2
BRANCH   1  21
ATOM     21  C   UNL A   1      33.767  28.381  25.041  1.00  0.00     0.042 C 
BRANCH  21  22
ATOM     22  C   UNL A   1      33.699  28.691  26.536  1.00  0.00     0.118 C 
BRANCH  22  23
ATOM     23  N   UNL A   1      33.740  30.124  26.804  1.00  0.00    -0.352 N 
ATOM     24  C   UNL A   1      34.598  30.866  27.575  1.00  0.00     0.251 C 
ATOM     25  H   UNL A   1      33.034  30.645  26.356  1.00  0.00     0.163 HD
ATOM     26  O   UNL A   1      34.308  32.033  27.828  1.00  0.00    -0.269 OA
BRANCH  24  27
ATOM     27  C   UNL A   1      35.853  30.288  28.105  1.00  0.00     0.039 A 
ATOM     28  C   UNL A   1      36.986  30.276  27.283  1.00  0.00     0.014 A 
ATOM     29  C   UNL A   1      35.911  29.700  29.371  1.00  0.00     0.014 A 
ATOM     30  C   UNL A   1      38.183  29.723  27.748  1.00  0.00     0.010 A 
ATOM     31  C   UNL A   1      37.122  29.209  29.859  1.00  0.00     0.010 A 
ATOM     32  C   UNL A   1      38.268  29.207  29.051  1.00  0.00    -0.014 A 
BRANCH  32  33
ATOM     33  C   UNL A   1      39.548  28.677  29.587  1.00  0.00     0.031 A 
ATOM     34  C   UNL A   1      40.266  29.390  30.701  1.00  0.00     0.074 A 
ATOM     35  C   UNL A   1      40.114  27.601  29.004  1.00  0.00     0.049 A 
ATOM     36  N   UNL A   1      41.417  29.107  31.254  1.00  0.00    -0.248 NA
ATOM     37  C   UNL A   1      39.622  30.596  31.246  1.00  0.00     0.031 C 
ATOM     38  C   UNL A   1      39.562  26.876  27.858  1.00  0.00     0.029 A 
ATOM     39  N   UNL A   1      41.293  26.952  29.271  1.00  0.00    -0.354 N 
ATOM     40  C   UNL A   1      41.655  30.116  32.179  1.00  0.00     0.074 A 
ATOM     41  C   UNL A   1      40.540  31.034  32.095  1.00  0.00     0.031 C 
ATOM     42  C   UNL A   1      40.403  25.886  27.517  1.00  0.00     0.029 A 
ATOM     43  C   UNL A   1      41.563  25.920  28.403  1.00  0.00     0.049 A 
ATOM     44  H   UNL A   1      41.889  27.201  30.014  1.00  0.00     0.167 HD
ATOM     45  C   UNL A   1      42.692  30.252  33.041  1.00  0.00     0.034 A 
ATOM     46  C   UNL A   1      42.628  25.099  28.321  1.00  0.00     0.034 A 
ATOM     47  C   UNL A   1      43.771  29.309  33.159  1.00  0.00     0.049 A 
ATOM     48  C   UNL A   1      43.733  25.230  29.332  1.00  0.00     0.074 A 
ATOM     49  C   UNL A   1      44.809  29.299  34.074  1.00  0.00     0.029 A 
ATOM     50  N   UNL A   1      43.956  28.212  32.333  1.00  0.00    -0.354 N 
ATOM     51  N   UNL A   1      43.850  26.086  30.318  1.00  0.00    -0.248 NA
ATOM     52  C   UNL A   1      44.832  24.258  29.247  1.00  0.00     0.031 C 
ATOM     53  C   UNL A   1      45.633  28.204  33.789  1.00  0.00     0.029 A 
ATOM     54  C   UNL A   1      45.097  27.521  32.709  1.00  0.00     0.049 A 
ATOM     55  H   UNL A   1      43.364  27.959  31.588  1.00  0.00     0.167 HD
ATOM     56  C   UNL A   1      45.018  25.739  30.988  1.00  0.00     0.074 A 
ATOM     57  C   UNL A   1      45.558  24.578  30.311  1.00  0.00     0.031 C 
ATOM     58  C   UNL A   1      45.598  26.338  32.057  1.00  0.00     0.034 A 
BRANCH  45  59
ATOM     59  C   UNL A   1      42.681  31.439  33.969  1.00  0.00     0.023 A 
ATOM     60  C   UNL A   1      43.234  32.663  33.538  1.00  0.00     0.012 A 
ATOM     61  C   UNL A   1      42.074  31.366  35.239  1.00  0.00     0.148 A 
ATOM     62  C   UNL A   1      43.216  33.783  34.369  1.00  0.00     0.002 A 
ATOM     63  C   UNL A   1      42.022  32.499  36.044  1.00  0.00     0.091 A 
ATOM     64  F   UNL A   1      41.572  30.190  35.642  1.00  0.00    -0.205 F 
ATOM     65  C   UNL A   1      42.602  33.704  35.615  1.00  0.00     0.022 A 
BRANCH  63  66
ATOM     66  S   UNL A   1      41.185  32.519  37.633  1.00  0.00     0.127 S 
ATOM     67  O   UNL A   1      41.222  33.942  37.968  1.00  0.00    -0.237 OA
ATOM     68  O   UNL A   1      39.856  32.009  37.290  1.00  0.00    -0.237 OA
ATOM     69  O   UNL A   1      41.961  31.649  38.505  1.00  0.00    -0.744 OA
ENDBRANCH  63  66
ENDBRANCH  45  59
BRANCH  46  70
ATOM     70  C   UNL A   1      42.658  24.031  27.282  1.00  0.00     0.023 A 
ATOM     71  C   UNL A   1      43.306  24.276  26.056  1.00  0.00     0.012 A 
ATOM     72  C   UNL A   1      42.093  22.763  27.519  1.00  0.00     0.148 A 
ATOM     73  C   UNL A   1      43.368  23.288  25.074  1.00  0.00     0.002 A 
ATOM     74  C   UNL A   1      42.207  21.764  26.558  1.00  0.00     0.091 A 
ATOM     75  F   UNL A   1      41.469  22.552  28.686  1.00  0.00    -0.205 F 
ATOM     76  C   UNL A   1      42.829  22.030  25.328  1.00  0.00     0.022 A 
BRANCH  74  77
ATOM     77  S   UNL A   1      41.667  20.077  26.857  1.00  0.00     0.127 S 
ATOM     78  O   UNL A   1      40.291  20.277  27.302  1.00  0.00    -0.237 OA
ATOM     79  O   UNL A   1      41.806  19.475  25.530  1.00  0.00    -0.237 OA
ATOM     80  O   UNL A   1      42.586  19.544  27.853  1.00  0.00    -0.744 OA
ENDBRANCH  74  77
ENDBRANCH  46  70
BRANCH  58  81
ATOM     81  C   UNL A   1      46.877  25.740  32.582  1.00  0.00     0.023 A 
ATOM     82  C   UNL A   1      46.837  24.866  33.686  1.00  0.00     0.012 A 
ATOM     83  C   UNL A   1      48.105  25.986  31.938  1.00  0.00     0.148 A 
ATOM     84  C   UNL A   1      48.004  24.270  34.160  1.00  0.00     0.002 A 
ATOM     85  C   UNL A   1      49.258  25.351  32.389  1.00  0.00     0.091 A 
ATOM     86  F   UNL A   1      48.128  26.837  30.902  1.00  0.00    -0.205 F 
ATOM     87  C   UNL A   1      49.211  24.502  33.505  1.00  0.00     0.022 A 
BRANCH  85  88
ATOM     88  S   UNL A   1      50.836  25.520  31.546  1.00  0.00     0.127 S 
ATOM     89  O   UNL A   1      51.708  24.692  32.378  1.00  0.00    -0.237 OA
ATOM     90  O   UNL A   1      50.546  24.962  30.224  1.00  0.00    -0.237 OA
ATOM     91  O   UNL A   1      51.138  26.945  31.545  1.00  0.00    -0.744 OA
ENDBRANCH  85  88
ENDBRANCH  58  81
ENDBRANCH  32  33
ENDBRANCH  24  27
ENDBRANCH  22  23
ENDBRANCH  21  22
ENDBRANCH   1  21
TORSDOF 18
ENDMDL
MODEL 2
REMARK VINA RESULT:      -9.9      2.424      2.792
REMARK SMILES C[C@H](C[NH3+])S[C@H](C)c1ccc(C(=O)NCCCNC(=O)c2ccc(-c3c4nc(c(-c5cccc(S(=O)(=O)[O-])c5F)c5ccc([nH]5)c(-c5cccc(S(=O)(=O)[O-])c5F)c5nc(c(-c6cccc(S(=O)(=O)[O-])c6F)c6ccc3[nH]6)C=C5)C=C4)cc2)o1
REMARK SMILES IDX 15 1 14 2 12 3 13 4 11 6 8 7 9 8 84 9 10 10 6 11 7 12 5 13
REMARK SMILES IDX 2 14 1 15 3 16 4 17 16 21 17 22 18 23 19 24 20 26 21 27
REMARK SMILES IDX 22 28 83 29 23 30 82 31 24 32 25 33 26 34 76 35 27 36 81 37
REMARK SMILES IDX 75 38 77 39 28 40 80 41 74 42 73 43 29 45 61 46 41 47 60 48
REMARK SMILES IDX 42 49 45 50 59 51 78 52 43 53 44 54 58 56 79 57 46 58 30 59
REMARK SMILES IDX 31 60 39 61 32 62 34 63 40 64 33 65 35 66 36 67 37 68 38 69
REMARK SMILES IDX 62 70 63 71 71 72 64 73 66 74 72 75 65 76 67 77 68 78 69 79
REMARK SMILES IDX 70 80 47 81 48 82 56 83 49 84 51 85 57 86 50 87 52 88 53 89
REMARK SMILES IDX 54 90 55 91
REMARK H PARENT 14 5 4 18 4 19 4 20 18 25 77 44 45 55
REMARK Flexibility Score: inf
ROOT
ATOM      1  C   UNL A   1      33.528  26.341  25.587  1.00  0.00     0.118 C 
ENDROOT
BRANCH   1   2
ATOM      2  N   UNL A   1      32.293  25.898  26.205  1.00  0.00    -0.349 N 
ATOM      3  C   UNL A   1      31.599  24.716  26.060  1.00  0.00     0.286 C 
ATOM      4  O   UNL A   1      30.696  24.517  26.876  1.00  0.00    -0.266 OA
ATOM      5  H   UNL A   1      31.886  26.544  26.827  1.00  0.00     0.163 HD
BRANCH   3   6
ATOM      6  C   UNL A   1      31.939  23.772  25.009  1.00  0.00     0.191 A 
ATOM      7  C   UNL A   1      32.967  21.962  24.235  1.00  0.00     0.117 A 
ATOM      8  C   UNL A   1      32.209  22.459  23.197  1.00  0.00     0.047 A 
ATOM      9  O   UNL A   1      32.811  22.758  25.334  1.00  0.00    -0.455 OA
ATOM     10  C   UNL A   1      31.546  23.604  23.694  1.00  0.00     0.056 A 
BRANCH   7  11
ATOM     11  C   UNL A   1      33.842  20.756  24.409  1.00  0.00     0.110 C 
ATOM     12  C   UNL A   1      34.965  21.075  25.393  1.00  0.00     0.028 C 
BRANCH  11  13
ATOM     13  S   UNL A   1      32.837  19.340  25.016  1.00  0.00    -0.142 SA
BRANCH  13  14
ATOM     14  C   UNL A   1      33.206  17.987  23.829  1.00  0.00     0.099 C 
ATOM     15  C   UNL A   1      32.429  18.115  22.524  1.00  0.00     0.025 C 
BRANCH  14  16
ATOM     16  C   UNL A   1      33.213  16.564  24.438  1.00  0.00     0.273 C 
BRANCH  16  17
ATOM     17  N   UNL A   1      33.981  16.386  25.673  1.00  0.00    -0.357 N 
ATOM     18  H   UNL A   1      33.582  15.619  26.213  1.00  0.00     0.344 HD
ATOM     19  H   UNL A   1      33.945  17.244  26.222  1.00  0.00     0.344 HD
ATOM     20  H   UNL A   1      34.950  16.170  25.442  1.00  0.00     0.344 HD
ENDBRANCH  16  17
ENDBRANCH  14  16
ENDBRANCH  13  14
ENDBRANCH  11  13
ENDBRANCH   7  11
ENDBRANCH   3   6
ENDBRANCH   1   2
BRANCH   1  21
ATOM     21  C   UNL A   1      33.708  27.856  25.655  1.00  0.00     0.042 C 
BRANCH  21  22
ATOM     22  C   UNL A   1      33.389  28.458  27.023  1.00  0.00     0.118 C 
BRANCH  22  23
ATOM     23  N   UNL A   1      33.484  29.912  27.021  1.00  0.00    -0.352 N 
ATOM     24  C   UNL A   1      34.412  30.749  27.587  1.00  0.00     0.251 C 
ATOM     25  H   UNL A   1      32.762  30.370  26.531  1.00  0.00     0.163 HD
ATOM     26  O   UNL A   1      34.170  31.953  27.640  1.00  0.00    -0.269 OA
BRANCH  24  27
ATOM     27  C   UNL A   1      35.687  30.231  28.133  1.00  0.00     0.039 A 
ATOM     28  C   UNL A   1      35.718  29.787  29.459  1.00  0.00     0.014 A 
ATOM     29  C   UNL A   1      36.862  30.239  27.378  1.00  0.00     0.014 A 
ATOM     30  C   UNL A   1      36.910  29.307  30.010  1.00  0.00     0.010 A 
ATOM     31  C   UNL A   1      38.035  29.698  27.905  1.00  0.00     0.010 A 
ATOM     32  C   UNL A   1      38.074  29.235  29.228  1.00  0.00    -0.014 A 
BRANCH  32  33
ATOM     33  C   UNL A   1      39.334  28.665  29.773  1.00  0.00     0.031 A 
ATOM     34  C   UNL A   1      40.001  29.286  30.971  1.00  0.00     0.074 A 
ATOM     35  C   UNL A   1      39.929  27.642  29.128  1.00  0.00     0.049 A 
ATOM     36  N   UNL A   1      41.129  28.960  31.547  1.00  0.00    -0.248 NA
ATOM     37  C   UNL A   1      39.328  30.442  31.585  1.00  0.00     0.031 C 
ATOM     38  C   UNL A   1      39.428  27.012  27.905  1.00  0.00     0.029 A 
ATOM     39  N   UNL A   1      41.099  26.974  29.391  1.00  0.00    -0.354 N 
ATOM     40  C   UNL A   1      41.323  29.890  32.561  1.00  0.00     0.074 A 
ATOM     41  C   UNL A   1      40.208  30.811  32.505  1.00  0.00     0.031 C 
ATOM     42  C   UNL A   1      40.288  26.055  27.520  1.00  0.00     0.029 A 
ATOM     43  C   UNL A   1      41.410  26.018  28.453  1.00  0.00     0.049 A 
ATOM     44  H   UNL A   1      41.662  27.163  30.176  1.00  0.00     0.167 HD
ATOM     45  C   UNL A   1      42.322  29.957  33.474  1.00  0.00     0.034 A 
ATOM     46  C   UNL A   1      42.481  25.207  28.349  1.00  0.00     0.034 A 
ATOM     47  C   UNL A   1      43.400  29.008  33.560  1.00  0.00     0.049 A 
ATOM     48  C   UNL A   1      43.542  25.257  29.414  1.00  0.00     0.074 A 
ATOM     49  C   UNL A   1      44.399  28.925  34.514  1.00  0.00     0.029 A 
ATOM     50  N   UNL A   1      43.625  27.983  32.655  1.00  0.00    -0.354 N 
ATOM     51  N   UNL A   1      43.613  26.029  30.471  1.00  0.00    -0.248 NA
ATOM     52  C   UNL A   1      44.649  24.296  29.296  1.00  0.00     0.031 C 
ATOM     53  C   UNL A   1      45.239  27.858  34.175  1.00  0.00     0.029 A 
ATOM     54  C   UNL A   1      44.752  27.266  33.021  1.00  0.00     0.049 A 
ATOM     55  H   UNL A   1      43.066  27.791  31.868  1.00  0.00     0.167 HD
ATOM     56  C   UNL A   1      44.754  25.630  31.159  1.00  0.00     0.074 A 
ATOM     57  C   UNL A   1      45.328  24.529  30.412  1.00  0.00     0.031 C 
ATOM     58  C   UNL A   1      45.286  26.140  32.297  1.00  0.00     0.034 A 
BRANCH  45  59
ATOM     59  C   UNL A   1      42.266  31.064  34.495  1.00  0.00     0.023 A 
ATOM     60  C   UNL A   1      41.663  30.823  35.747  1.00  0.00     0.012 A 
ATOM     61  C   UNL A   1      42.858  32.318  34.244  1.00  0.00     0.148 A 
ATOM     62  C   UNL A   1      41.619  31.822  36.719  1.00  0.00     0.002 A 
ATOM     63  C   UNL A   1      42.847  33.294  35.234  1.00  0.00     0.091 A 
ATOM     64  F   UNL A   1      43.408  32.538  33.041  1.00  0.00    -0.205 F 
ATOM     65  C   UNL A   1      42.219  33.052  36.467  1.00  0.00     0.022 A 
BRANCH  63  66
ATOM     66  S   UNL A   1      43.661  34.884  35.034  1.00  0.00     0.127 S 
ATOM     67  O   UNL A   1      43.029  35.673  36.091  1.00  0.00    -0.237 OA
ATOM     68  O   UNL A   1      45.063  34.547  35.282  1.00  0.00    -0.237 OA
ATOM     69  O   UNL A   1      43.372  35.312  33.673  1.00  0.00    -0.744 OA
ENDBRANCH  63  66
ENDBRANCH  45  59
BRANCH  46  70
ATOM     70  C   UNL A   1      42.560  24.228  27.229  1.00  0.00     0.023 A 
ATOM     71  C   UNL A   1      43.277  24.565  26.065  1.00  0.00     0.012 A 
ATOM     72  C   UNL A   1      41.971  22.952  27.329  1.00  0.00     0.148 A 
ATOM     73  C   UNL A   1      43.386  23.660  25.009  1.00  0.00     0.002 A 
ATOM     74  C   UNL A   1      42.131  22.035  26.296  1.00  0.00     0.091 A 
ATOM     75  F   UNL A   1      41.281  22.655  28.438  1.00  0.00    -0.205 F 
ATOM     76  C   UNL A   1      42.823  22.392  25.128  1.00  0.00     0.022 A 
BRANCH  74  77
ATOM     77  S   UNL A   1      41.560  20.336  26.424  1.00  0.00     0.127 S 
ATOM     78  O   UNL A   1      40.125  20.483  26.197  1.00  0.00    -0.237 OA
ATOM     79  O   UNL A   1      42.295  19.687  25.337  1.00  0.00    -0.237 OA
ATOM     80  O   UNL A   1      41.951  19.893  27.755  1.00  0.00    -0.744 OA
ENDBRANCH  74  77
ENDBRANCH  46  70
BRANCH  58  81
ATOM     81  C   UNL A   1      46.545  25.503  32.825  1.00  0.00     0.023 A 
ATOM     82  C   UNL A   1      47.799  26.022  32.450  1.00  0.00     0.012 A 
ATOM     83  C   UNL A   1      46.483  24.440  33.747  1.00  0.00     0.148 A 
ATOM     84  C   UNL A   1      48.974  25.474  32.960  1.00  0.00     0.002 A 
ATOM     85  C   UNL A   1      47.658  23.929  34.288  1.00  0.00     0.091 A 
ATOM     86  F   UNL A   1      45.281  23.945  34.076  1.00  0.00    -0.205 F 
ATOM     87  C   UNL A   1      48.904  24.437  33.888  1.00  0.00     0.022 A 
BRANCH  85  88
ATOM     88  S   UNL A   1      47.655  22.658  35.558  1.00  0.00     0.127 S 
ATOM     89  O   UNL A   1      46.915  23.315  36.635  1.00  0.00    -0.237 OA
ATOM     90  O   UNL A   1      46.936  21.564  34.904  1.00  0.00    -0.237 OA
ATOM     91  O   UNL A   1      49.056  22.373  35.841  1.00  0.00    -0.744 OA
ENDBRANCH  85  88
ENDBRANCH  58  81
ENDBRANCH  32  33
ENDBRANCH  24  27
ENDBRANCH  22  23
ENDBRANCH  21  22
ENDBRANCH   1  21
TORSDOF 18
ENDMDL
MODEL 3
REMARK VINA RESULT:      -9.8      5.050      8.571
REMARK SMILES C[C@H](C[NH3+])S[C@H](C)c1ccc(C(=O)NCCCNC(=O)c2ccc(-c3c4nc(c(-c5cccc(S(=O)(=O)[O-])c5F)c5ccc([nH]5)c(-c5cccc(S(=O)(=O)[O-])c5F)c5nc(c(-c6cccc(S(=O)(=O)[O-])c6F)c6ccc3[nH]6)C=C5)C=C4)cc2)o1
REMARK SMILES IDX 15 1 14 2 12 3 13 4 11 6 8 7 9 8 84 9 10 10 6 11 7 12 5 13
REMARK SMILES IDX 2 14 1 15 3 16 4 17 16 21 17 22 18 23 19 24 20 26 21 27
REMARK SMILES IDX 22 28 83 29 23 30 82 31 24 32 25 33 26 34 76 35 27 36 81 37
REMARK SMILES IDX 75 38 77 39 28 40 80 41 74 42 73 43 29 45 61 46 41 47 60 48
REMARK SMILES IDX 42 49 45 50 59 51 78 52 43 53 44 54 58 56 79 57 46 58 30 59
REMARK SMILES IDX 31 60 39 61 32 62 34 63 40 64 33 65 35 66 36 67 37 68 38 69
REMARK SMILES IDX 62 70 63 71 71 72 64 73 66 74 72 75 65 76 67 77 68 78 69 79
REMARK SMILES IDX 70 80 47 81 48 82 56 83 49 84 51 85 57 86 50 87 52 88 53 89
REMARK SMILES IDX 54 90 55 91
REMARK H PARENT 14 5 4 18 4 19 4 20 18 25 77 44 45 55
REMARK Flexibility Score: inf
ROOT
ATOM      1  C   UNL A   1      37.231  20.843  24.618  1.00  0.00     0.118 C 
ENDROOT
BRANCH   1   2
ATOM      2  N   UNL A   1      37.760  22.084  25.150  1.00  0.00    -0.349 N 
ATOM      3  C   UNL A   1      37.184  23.333  25.234  1.00  0.00     0.286 C 
ATOM      4  O   UNL A   1      37.778  24.155  25.935  1.00  0.00    -0.266 OA
ATOM      5  H   UNL A   1      38.675  22.024  25.508  1.00  0.00     0.163 HD
BRANCH   3   6
ATOM      6  C   UNL A   1      35.944  23.635  24.538  1.00  0.00     0.191 A 
ATOM      7  C   UNL A   1      34.021  24.722  24.309  1.00  0.00     0.117 A 
ATOM      8  C   UNL A   1      34.159  23.926  23.193  1.00  0.00     0.047 A 
ATOM      9  O   UNL A   1      35.098  24.544  25.130  1.00  0.00    -0.455 OA
ATOM     10  C   UNL A   1      35.388  23.243  23.334  1.00  0.00     0.056 A 
BRANCH   7  11
ATOM     11  C   UNL A   1      33.006  25.732  24.756  1.00  0.00     0.110 C 
ATOM     12  C   UNL A   1      33.532  26.482  25.978  1.00  0.00     0.028 C 
BRANCH  11  13
ATOM     13  S   UNL A   1      32.649  26.905  23.385  1.00  0.00    -0.142 SA
BRANCH  13  14
ATOM     14  C   UNL A   1      30.912  26.529  22.915  1.00  0.00     0.099 C 
ATOM     15  C   UNL A   1      30.060  27.781  22.744  1.00  0.00     0.025 C 
BRANCH  14  16
ATOM     16  C   UNL A   1      30.241  25.400  23.734  1.00  0.00     0.273 C 
BRANCH  16  17
ATOM     17  N   UNL A   1      30.266  24.061  23.143  1.00  0.00    -0.357 N 
ATOM     18  H   UNL A   1      31.214  23.842  22.836  1.00  0.00     0.344 HD
ATOM     19  H   UNL A   1      29.634  24.030  22.344  1.00  0.00     0.344 HD
ATOM     20  H   UNL A   1      29.968  23.377  23.838  1.00  0.00     0.344 HD
ENDBRANCH  16  17
ENDBRANCH  14  16
ENDBRANCH  13  14
ENDBRANCH  11  13
ENDBRANCH   7  11
ENDBRANCH   3   6
ENDBRANCH   1   2
BRANCH   1  21
ATOM     21  C   UNL A   1      38.086  19.633  24.990  1.00  0.00     0.042 C 
BRANCH  21  22
ATOM     22  C   UNL A   1      39.016  19.873  26.178  1.00  0.00     0.118 C 
BRANCH  22  23
ATOM     23  N   UNL A   1      40.209  19.037  26.122  1.00  0.00    -0.352 N 
ATOM     24  C   UNL A   1      41.539  19.374  26.117  1.00  0.00     0.251 C 
ATOM     25  H   UNL A   1      40.030  18.069  26.080  1.00  0.00     0.163 HD
ATOM     26  O   UNL A   1      42.369  18.509  25.844  1.00  0.00    -0.269 OA
BRANCH  24  27
ATOM     27  C   UNL A   1      41.986  20.750  26.429  1.00  0.00     0.039 A 
ATOM     28  C   UNL A   1      42.005  21.700  25.401  1.00  0.00     0.014 A 
ATOM     29  C   UNL A   1      42.448  21.098  27.701  1.00  0.00     0.014 A 
ATOM     30  C   UNL A   1      42.438  23.003  25.659  1.00  0.00     0.010 A 
ATOM     31  C   UNL A   1      42.816  22.415  27.974  1.00  0.00     0.010 A 
ATOM     32  C   UNL A   1      42.824  23.379  26.956  1.00  0.00    -0.014 A 
BRANCH  32  33
ATOM     33  C   UNL A   1      43.222  24.777  27.266  1.00  0.00     0.031 A 
ATOM     34  C   UNL A   1      42.247  25.727  27.908  1.00  0.00     0.074 A 
ATOM     35  C   UNL A   1      44.436  25.219  26.881  1.00  0.00     0.049 A 
ATOM     36  N   UNL A   1      42.400  26.993  28.199  1.00  0.00    -0.248 NA
ATOM     37  C   UNL A   1      40.917  25.193  28.242  1.00  0.00     0.031 C 
ATOM     38  C   UNL A   1      45.437  24.421  26.170  1.00  0.00     0.029 A 
ATOM     39  N   UNL A   1      45.021  26.455  27.003  1.00  0.00    -0.354 N 
ATOM     40  C   UNL A   1      41.179  27.418  28.709  1.00  0.00     0.074 A 
ATOM     41  C   UNL A   1      40.287  26.280  28.665  1.00  0.00     0.031 C 
ATOM     42  C   UNL A   1      46.509  25.189  25.913  1.00  0.00     0.029 A 
ATOM     43  C   UNL A   1      46.264  26.536  26.419  1.00  0.00     0.049 A 
ATOM     44  H   UNL A   1      44.592  27.211  27.463  1.00  0.00     0.167 HD
ATOM     45  C   UNL A   1      40.839  28.635  29.196  1.00  0.00     0.034 A 
ATOM     46  C   UNL A   1      47.109  27.578  26.295  1.00  0.00     0.034 A 
ATOM     47  C   UNL A   1      41.745  29.749  29.288  1.00  0.00     0.049 A 
ATOM     48  C   UNL A   1      46.733  28.900  26.905  1.00  0.00     0.074 A 
ATOM     49  C   UNL A   1      41.530  30.988  29.866  1.00  0.00     0.029 A 
ATOM     50  N   UNL A   1      43.036  29.762  28.784  1.00  0.00    -0.354 N 
ATOM     51  N   UNL A   1      45.639  29.231  27.546  1.00  0.00    -0.248 NA
ATOM     52  C   UNL A   1      47.725  29.982  26.812  1.00  0.00     0.031 C 
ATOM     53  C   UNL A   1      42.687  31.757  29.694  1.00  0.00     0.029 A 
ATOM     54  C   UNL A   1      43.628  30.990  29.028  1.00  0.00     0.049 A 
ATOM     55  H   UNL A   1      43.469  29.009  28.321  1.00  0.00     0.167 HD
ATOM     56  C   UNL A   1      45.820  30.546  27.958  1.00  0.00     0.074 A 
ATOM     57  C   UNL A   1      47.141  30.943  27.516  1.00  0.00     0.031 C 
ATOM     58  C   UNL A   1      44.963  31.357  28.627  1.00  0.00     0.034 A 
BRANCH  45  59
ATOM     59  C   UNL A   1      39.439  28.813  29.725  1.00  0.00     0.023 A 
ATOM     60  C   UNL A   1      39.150  28.454  31.057  1.00  0.00     0.012 A 
ATOM     61  C   UNL A   1      38.427  29.387  28.930  1.00  0.00     0.148 A 
ATOM     62  C   UNL A   1      37.868  28.629  31.580  1.00  0.00     0.002 A 
ATOM     63  C   UNL A   1      37.163  29.598  29.471  1.00  0.00     0.091 A 
ATOM     64  F   UNL A   1      38.712  29.703  27.659  1.00  0.00    -0.205 F 
ATOM     65  C   UNL A   1      36.880  29.210  30.791  1.00  0.00     0.022 A 
BRANCH  63  66
ATOM     66  S   UNL A   1      35.845  30.411  28.560  1.00  0.00     0.127 S 
ATOM     67  O   UNL A   1      35.144  31.122  29.629  1.00  0.00    -0.237 OA
ATOM     68  O   UNL A   1      36.588  31.273  27.641  1.00  0.00    -0.237 OA
ATOM     69  O   UNL A   1      35.090  29.346  27.915  1.00  0.00    -0.744 OA
ENDBRANCH  63  66
ENDBRANCH  45  59
BRANCH  46  70
ATOM     70  C   UNL A   1      48.426  27.385  25.627  1.00  0.00     0.023 A 
ATOM     71  C   UNL A   1      49.539  26.986  26.392  1.00  0.00     0.012 A 
ATOM     72  C   UNL A   1      48.571  27.545  24.235  1.00  0.00     0.148 A 
ATOM     73  C   UNL A   1      50.779  26.777  25.789  1.00  0.00     0.002 A 
ATOM     74  C   UNL A   1      49.796  27.280  23.632  1.00  0.00     0.091 A 
ATOM     75  F   UNL A   1      47.504  27.937  23.525  1.00  0.00    -0.205 F 
ATOM     76  C   UNL A   1      50.905  26.913  24.409  1.00  0.00     0.022 A 
BRANCH  74  77
ATOM     77  S   UNL A   1      50.012  27.293  21.848  1.00  0.00     0.127 S 
ATOM     78  O   UNL A   1      48.967  26.371  21.413  1.00  0.00    -0.237 OA
ATOM     79  O   UNL A   1      49.768  28.700  21.524  1.00  0.00    -0.237 OA
ATOM     80  O   UNL A   1      51.382  26.857  21.618  1.00  0.00    -0.744 OA
ENDBRANCH  74  77
ENDBRANCH  46  70
BRANCH  58  81
ATOM     81  C   UNL A   1      45.429  32.753  28.946  1.00  0.00     0.023 A 
ATOM     82  C   UNL A   1      46.051  33.016  30.182  1.00  0.00     0.012 A 
ATOM     83  C   UNL A   1      45.317  33.785  27.994  1.00  0.00     0.148 A 
ATOM     84  C   UNL A   1      46.527  34.291  30.479  1.00  0.00     0.002 A 
ATOM     85  C   UNL A   1      45.836  35.044  28.279  1.00  0.00     0.091 A 
ATOM     86  F   UNL A   1      44.704  33.523  26.831  1.00  0.00    -0.205 F 
ATOM     87  C   UNL A   1      46.432  35.301  29.525  1.00  0.00     0.022 A 
BRANCH  85  88
ATOM     88  S   UNL A   1      45.841  36.375  27.073  1.00  0.00     0.127 S 
ATOM     89  O   UNL A   1      46.906  37.237  27.584  1.00  0.00    -0.237 OA
ATOM     90  O   UNL A   1      46.169  35.672  25.832  1.00  0.00    -0.237 OA
ATOM     91  O   UNL A   1      44.501  36.947  27.104  1.00  0.00    -0.744 OA
ENDBRANCH  85  88
ENDBRANCH  58  81
ENDBRANCH  32  33
ENDBRANCH  24  27
ENDBRANCH  22  23
ENDBRANCH  21  22
ENDBRANCH   1  21
TORSDOF 18
ENDMDL
