MODEL 1
REMARK VINA RESULT:     -12.6      0.000      0.000
REMARK SMILES CC(C)CN(C)c1cc2c(cc1Cl)C=C(C(=O)NCCCNC(=O)c1ccc(-c3c4nc(c(-c5cccc(S(=O)(=O)[O-])c5F)c5ccc([nH]5)c(-c5cccc(S(=O)(=O)[O-])c5F)c5nc(c(-c6cccc(S(=O)(=O)[O-])c6F)c6ccc3[nH]6)C=C5)C=C4)cc1)[C@@H](C(F)(F)F)O2
REMARK SMILES IDX 20 1 19 2 18 3 16 4 17 5 15 7 7 8 8 9 12 10 9 11 11 12 13 13
REMARK SMILES IDX 10 14 93 15 14 16 88 17 5 18 6 19 4 20 2 21 1 22 3 23 89 24
REMARK SMILES IDX 90 25 91 26 92 27 21 28 22 29 23 30 24 32 25 33 26 34 87 35
REMARK SMILES IDX 27 36 86 37 28 38 29 39 30 40 80 41 31 42 85 43 79 44 81 45
REMARK SMILES IDX 32 46 84 47 78 48 77 49 33 51 65 52 45 53 64 54 46 55 49 56
REMARK SMILES IDX 63 57 82 58 47 59 48 60 62 62 83 63 50 64 34 65 35 66 43 67
REMARK SMILES IDX 36 68 38 69 44 70 37 71 39 72 40 73 41 74 42 75 66 76 67 77
REMARK SMILES IDX 75 78 68 79 70 80 76 81 69 82 71 83 72 84 73 85 74 86 51 87
REMARK SMILES IDX 52 88 60 89 53 90 55 91 61 92 54 93 56 94 57 95 58 96 59 97
REMARK H PARENT 18 6 22 31 81 50 49 61
REMARK Flexibility Score: inf
ROOT
ATOM      1  C   UNL A   1      31.532  28.842  25.679  1.00  0.00     0.042 C 
ENDROOT
BRANCH   1   2
ATOM      2  C   UNL A   1      31.112  28.886  24.219  1.00  0.00     0.118 C 
BRANCH   2   3
ATOM      3  N   UNL A   1      29.891  28.135  23.982  1.00  0.00    -0.352 N 
ATOM      4  C   UNL A   1      29.548  26.833  23.864  1.00  0.00     0.251 C 
ATOM      5  O   UNL A   1      28.342  26.613  23.714  1.00  0.00    -0.270 OA
ATOM      6  H   UNL A   1      29.111  28.729  23.882  1.00  0.00     0.163 HD
BRANCH   4   7
ATOM      7  C   UNL A   1      30.504  25.695  23.897  1.00  0.00     0.067 C 
ATOM      8  C   UNL A   1      33.051  21.534  25.167  1.00  0.00     0.059 A 
ATOM      9  C   UNL A   1      32.568  22.063  23.958  1.00  0.00     0.074 A 
ATOM     10  C   UNL A   1      32.813  22.275  26.348  1.00  0.00     0.065 A 
ATOM     11  C   UNL A   1      31.847  23.252  23.945  1.00  0.00     0.130 A 
ATOM     12  C   UNL A   1      32.004  23.417  26.339  1.00  0.00     0.034 A 
ATOM     13  Cl  UNL A   1      33.514  21.825  27.867  1.00  0.00    -0.082 Cl
ATOM     14  C   UNL A   1      31.504  23.898  25.134  1.00  0.00     0.019 A 
ATOM     15  O   UNL A   1      31.487  23.762  22.724  1.00  0.00    -0.475 OA
ATOM     16  C   UNL A   1      30.614  25.050  25.074  1.00  0.00     0.025 C 
ATOM     17  C   UNL A   1      31.320  25.213  22.729  1.00  0.00     0.314 C 
BRANCH   8  18
ATOM     18  N   UNL A   1      33.707  20.292  25.183  1.00  0.00    -0.373 N 
ATOM     19  C   UNL A   1      35.151  20.353  24.968  1.00  0.00     0.143 C 
BRANCH  18  20
ATOM     20  C   UNL A   1      32.989  19.185  24.515  1.00  0.00     0.119 C 
BRANCH  20  21
ATOM     21  C   UNL A   1      33.834  17.896  24.433  1.00  0.00     0.002 C 
ATOM     22  C   UNL A   1      33.434  16.868  25.495  1.00  0.00     0.009 C 
ATOM     23  C   UNL A   1      33.711  17.246  23.052  1.00  0.00     0.009 C 
ENDBRANCH  20  21
ENDBRANCH  18  20
ENDBRANCH   8  18
BRANCH  17  24
ATOM     24  C   UNL A   1      32.694  25.925  22.651  1.00  0.00     0.429 C 
ATOM     25  F   UNL A   1      33.626  25.105  22.109  1.00  0.00    -0.167 F 
ATOM     26  F   UNL A   1      32.653  27.035  21.871  1.00  0.00    -0.167 F 
ATOM     27  F   UNL A   1      33.161  26.326  23.854  1.00  0.00    -0.167 F 
ENDBRANCH  17  24
ENDBRANCH   4   7
ENDBRANCH   2   3
ENDBRANCH   1   2
BRANCH   1  28
ATOM     28  C   UNL A   1      32.796  29.643  25.948  1.00  0.00     0.118 C 
BRANCH  28  29
ATOM     29  N   UNL A   1      32.509  31.008  26.381  1.00  0.00    -0.352 N 
ATOM     30  C   UNL A   1      33.216  31.835  27.222  1.00  0.00     0.251 C 
ATOM     31  H   UNL A   1      31.682  31.397  26.013  1.00  0.00     0.163 HD
ATOM     32  O   UNL A   1      32.710  32.882  27.614  1.00  0.00    -0.269 OA
BRANCH  30  33
ATOM     33  C   UNL A   1      34.565  31.436  27.671  1.00  0.00     0.039 A 
ATOM     34  C   UNL A   1      34.842  30.096  27.938  1.00  0.00     0.014 A 
ATOM     35  C   UNL A   1      35.545  32.411  27.875  1.00  0.00     0.014 A 
ATOM     36  C   UNL A   1      36.006  29.761  28.614  1.00  0.00     0.010 A 
ATOM     37  C   UNL A   1      36.768  32.051  28.450  1.00  0.00     0.010 A 
ATOM     38  C   UNL A   1      36.982  30.734  28.885  1.00  0.00    -0.014 A 
BRANCH  38  39
ATOM     39  C   UNL A   1      38.199  30.337  29.640  1.00  0.00     0.031 A 
ATOM     40  C   UNL A   1      38.399  30.763  31.072  1.00  0.00     0.074 A 
ATOM     41  C   UNL A   1      39.095  29.520  29.049  1.00  0.00     0.049 A 
ATOM     42  N   UNL A   1      39.377  30.459  31.886  1.00  0.00    -0.248 NA
ATOM     43  C   UNL A   1      37.381  31.643  31.670  1.00  0.00     0.031 C 
ATOM     44  C   UNL A   1      39.019  29.052  27.662  1.00  0.00     0.029 A 
ATOM     45  N   UNL A   1      40.221  28.911  29.542  1.00  0.00    -0.354 N 
ATOM     46  C   UNL A   1      39.122  31.147  33.066  1.00  0.00     0.074 A 
ATOM     47  C   UNL A   1      37.896  31.887  32.868  1.00  0.00     0.031 C 
ATOM     48  C   UNL A   1      40.010  28.179  27.437  1.00  0.00     0.029 A 
ATOM     49  C   UNL A   1      40.830  28.074  28.639  1.00  0.00     0.049 A 
ATOM     50  H   UNL A   1      40.559  29.060  30.454  1.00  0.00     0.167 HD
ATOM     51  C   UNL A   1      39.833  31.145  34.217  1.00  0.00     0.034 A 
ATOM     52  C   UNL A   1      41.932  27.306  28.756  1.00  0.00     0.034 A 
ATOM     53  C   UNL A   1      41.009  30.350  34.440  1.00  0.00     0.049 A 
ATOM     54  C   UNL A   1      42.685  27.304  30.051  1.00  0.00     0.074 A 
ATOM     55  C   UNL A   1      41.762  30.242  35.596  1.00  0.00     0.029 A 
ATOM     56  N   UNL A   1      41.596  29.523  33.497  1.00  0.00    -0.354 N 
ATOM     57  N   UNL A   1      42.387  27.911  31.173  1.00  0.00    -0.248 NA
ATOM     58  C   UNL A   1      43.922  26.514  30.102  1.00  0.00     0.031 C 
ATOM     59  C   UNL A   1      42.808  29.348  35.351  1.00  0.00     0.029 A 
ATOM     60  C   UNL A   1      42.704  28.901  34.043  1.00  0.00     0.049 A 
ATOM     61  H   UNL A   1      41.272  29.396  32.576  1.00  0.00     0.167 HD
ATOM     62  C   UNL A   1      43.398  27.577  32.064  1.00  0.00     0.074 A 
ATOM     63  C   UNL A   1      44.303  26.691  31.361  1.00  0.00     0.031 C 
ATOM     64  C   UNL A   1      43.571  27.990  33.343  1.00  0.00     0.034 A 
BRANCH  51  65
ATOM     65  C   UNL A   1      39.336  31.987  35.359  1.00  0.00     0.023 A 
ATOM     66  C   UNL A   1      38.468  31.416  36.311  1.00  0.00     0.012 A 
ATOM     67  C   UNL A   1      39.808  33.302  35.548  1.00  0.00     0.148 A 
ATOM     68  C   UNL A   1      38.068  32.145  37.431  1.00  0.00     0.002 A 
ATOM     69  C   UNL A   1      39.427  34.011  36.681  1.00  0.00     0.091 A 
ATOM     70  F   UNL A   1      40.623  33.825  34.622  1.00  0.00    -0.205 F 
ATOM     71  C   UNL A   1      38.554  33.435  37.620  1.00  0.00     0.022 A 
BRANCH  69  72
ATOM     72  S   UNL A   1      40.035  35.660  37.050  1.00  0.00     0.127 S 
ATOM     73  O   UNL A   1      39.633  36.397  35.852  1.00  0.00    -0.237 OA
ATOM     74  O   UNL A   1      39.282  36.001  38.257  1.00  0.00    -0.237 OA
ATOM     75  O   UNL A   1      41.473  35.528  37.241  1.00  0.00    -0.744 OA
ENDBRANCH  69  72
ENDBRANCH  51  65
BRANCH  52  76
ATOM     76  C   UNL A   1      42.345  26.452  27.610  1.00  0.00     0.023 A 
ATOM     77  C   UNL A   1      43.262  26.956  26.670  1.00  0.00     0.012 A 
ATOM     78  C   UNL A   1      41.909  25.117  27.505  1.00  0.00     0.148 A 
ATOM     79  C   UNL A   1      43.740  26.144  25.643  1.00  0.00     0.002 A 
ATOM     80  C   UNL A   1      42.424  24.300  26.507  1.00  0.00     0.091 A 
ATOM     81  F   UNL A   1      41.030  24.665  28.411  1.00  0.00    -0.205 F 
ATOM     82  C   UNL A   1      43.332  24.814  25.568  1.00  0.00     0.022 A 
BRANCH  80  83
ATOM     83  S   UNL A   1      42.054  22.545  26.408  1.00  0.00     0.127 S 
ATOM     84  O   UNL A   1      42.740  22.165  25.176  1.00  0.00    -0.237 OA
ATOM     85  O   UNL A   1      42.669  22.041  27.637  1.00  0.00    -0.237 OA
ATOM     86  O   UNL A   1      40.601  22.447  26.376  1.00  0.00    -0.744 OA
ENDBRANCH  80  83
ENDBRANCH  52  76
BRANCH  64  87
ATOM     87  C   UNL A   1      44.785  27.507  34.079  1.00  0.00     0.023 A 
ATOM     88  C   UNL A   1      45.952  28.296  34.065  1.00  0.00     0.012 A 
ATOM     89  C   UNL A   1      44.729  26.356  34.888  1.00  0.00     0.148 A 
ATOM     90  C   UNL A   1      47.050  27.943  34.845  1.00  0.00     0.002 A 
ATOM     91  C   UNL A   1      45.817  26.029  35.689  1.00  0.00     0.091 A 
ATOM     92  F   UNL A   1      43.608  25.623  34.876  1.00  0.00    -0.205 F 
ATOM     93  C   UNL A   1      46.978  26.819  35.666  1.00  0.00     0.022 A 
BRANCH  91  94
ATOM     94  S   UNL A   1      45.795  24.647  36.834  1.00  0.00     0.127 S 
ATOM     95  O   UNL A   1      44.811  25.091  37.819  1.00  0.00    -0.237 OA
ATOM     96  O   UNL A   1      45.350  23.546  35.979  1.00  0.00    -0.237 OA
ATOM     97  O   UNL A   1      47.156  24.515  37.337  1.00  0.00    -0.744 OA
ENDBRANCH  91  94
ENDBRANCH  64  87
ENDBRANCH  38  39
ENDBRANCH  30  33
ENDBRANCH  28  29
ENDBRANCH   1  28
TORSDOF 17
ENDMDL
MODEL 2
REMARK VINA RESULT:     -12.3      5.071      8.257
REMARK SMILES CC(C)CN(C)c1cc2c(cc1Cl)C=C(C(=O)NCCCNC(=O)c1ccc(-c3c4nc(c(-c5cccc(S(=O)(=O)[O-])c5F)c5ccc([nH]5)c(-c5cccc(S(=O)(=O)[O-])c5F)c5nc(c(-c6cccc(S(=O)(=O)[O-])c6F)c6ccc3[nH]6)C=C5)C=C4)cc1)[C@@H](C(F)(F)F)O2
REMARK SMILES IDX 20 1 19 2 18 3 16 4 17 5 15 7 7 8 8 9 12 10 9 11 11 12 13 13
REMARK SMILES IDX 10 14 93 15 14 16 88 17 5 18 6 19 4 20 2 21 1 22 3 23 89 24
REMARK SMILES IDX 90 25 91 26 92 27 21 28 22 29 23 30 24 32 25 33 26 34 87 35
REMARK SMILES IDX 27 36 86 37 28 38 29 39 30 40 80 41 31 42 85 43 79 44 81 45
REMARK SMILES IDX 32 46 84 47 78 48 77 49 33 51 65 52 45 53 64 54 46 55 49 56
REMARK SMILES IDX 63 57 82 58 47 59 48 60 62 62 83 63 50 64 34 65 35 66 43 67
REMARK SMILES IDX 36 68 38 69 44 70 37 71 39 72 40 73 41 74 42 75 66 76 67 77
REMARK SMILES IDX 75 78 68 79 70 80 76 81 69 82 71 83 72 84 73 85 74 86 51 87
REMARK SMILES IDX 52 88 60 89 53 90 55 91 61 92 54 93 56 94 57 95 58 96 59 97
REMARK H PARENT 18 6 22 31 81 50 49 61
REMARK Flexibility Score: inf
ROOT
ATOM      1  C   UNL A   1      36.672  20.659  24.768  1.00  0.00     0.042 C 
ENDROOT
BRANCH   1   2
ATOM      2  C   UNL A   1      35.353  20.935  25.469  1.00  0.00     0.118 C 
BRANCH   2   3
ATOM      3  N   UNL A   1      34.217  20.481  24.685  1.00  0.00    -0.352 N 
ATOM      4  C   UNL A   1      33.120  21.045  24.130  1.00  0.00     0.251 C 
ATOM      5  O   UNL A   1      32.407  20.281  23.471  1.00  0.00    -0.270 OA
ATOM      6  H   UNL A   1      34.255  19.512  24.513  1.00  0.00     0.163 HD
BRANCH   4   7
ATOM      7  C   UNL A   1      32.736  22.474  24.267  1.00  0.00     0.067 C 
ATOM      8  C   UNL A   1      31.861  27.365  23.416  1.00  0.00     0.059 A 
ATOM      9  C   UNL A   1      31.169  26.344  24.089  1.00  0.00     0.074 A 
ATOM     10  C   UNL A   1      33.095  27.033  22.810  1.00  0.00     0.065 A 
ATOM     11  C   UNL A   1      31.673  25.047  24.113  1.00  0.00     0.130 A 
ATOM     12  C   UNL A   1      33.545  25.709  22.755  1.00  0.00     0.034 A 
ATOM     13  Cl  UNL A   1      34.126  28.238  22.114  1.00  0.00    -0.082 Cl
ATOM     14  C   UNL A   1      32.822  24.708  23.395  1.00  0.00     0.019 A 
ATOM     15  O   UNL A   1      31.001  24.119  24.866  1.00  0.00    -0.475 OA
ATOM     16  C   UNL A   1      33.216  23.307  23.324  1.00  0.00     0.025 C 
ATOM     17  C   UNL A   1      31.854  23.036  25.348  1.00  0.00     0.314 C 
BRANCH   8  18
ATOM     18  N   UNL A   1      31.306  28.652  23.325  1.00  0.00    -0.373 N 
ATOM     19  C   UNL A   1      31.163  29.355  24.599  1.00  0.00     0.143 C 
BRANCH  18  20
ATOM     20  C   UNL A   1      30.190  28.799  22.366  1.00  0.00     0.119 C 
BRANCH  20  21
ATOM     21  C   UNL A   1      28.999  29.580  22.959  1.00  0.00     0.002 C 
ATOM     22  C   UNL A   1      28.725  30.885  22.206  1.00  0.00     0.009 C 
ATOM     23  C   UNL A   1      27.725  28.730  22.944  1.00  0.00     0.009 C 
ENDBRANCH  20  21
ENDBRANCH  18  20
ENDBRANCH   8  18
BRANCH  17  24
ATOM     24  C   UNL A   1      32.670  23.486  26.585  1.00  0.00     0.429 C 
ATOM     25  F   UNL A   1      32.797  22.468  27.470  1.00  0.00    -0.167 F 
ATOM     26  F   UNL A   1      33.928  23.874  26.256  1.00  0.00    -0.167 F 
ATOM     27  F   UNL A   1      32.115  24.526  27.245  1.00  0.00    -0.167 F 
ENDBRANCH  17  24
ENDBRANCH   4   7
ENDBRANCH   2   3
ENDBRANCH   1   2
BRANCH   1  28
ATOM     28  C   UNL A   1      37.838  21.400  25.404  1.00  0.00     0.118 C 
BRANCH  28  29
ATOM     29  N   UNL A   1      38.908  20.499  25.825  1.00  0.00    -0.352 N 
ATOM     30  C   UNL A   1      40.113  20.780  26.428  1.00  0.00     0.251 C 
ATOM     31  H   UNL A   1      38.742  19.544  25.652  1.00  0.00     0.163 HD
ATOM     32  O   UNL A   1      40.962  19.900  26.529  1.00  0.00    -0.269 OA
BRANCH  30  33
ATOM     33  C   UNL A   1      40.382  22.148  26.915  1.00  0.00     0.039 A 
ATOM     34  C   UNL A   1      39.808  23.243  26.270  1.00  0.00     0.014 A 
ATOM     35  C   UNL A   1      41.252  22.342  27.991  1.00  0.00     0.014 A 
ATOM     36  C   UNL A   1      40.273  24.519  26.549  1.00  0.00     0.010 A 
ATOM     37  C   UNL A   1      41.629  23.640  28.348  1.00  0.00     0.010 A 
ATOM     38  C   UNL A   1      41.194  24.735  27.586  1.00  0.00    -0.014 A 
BRANCH  38  39
ATOM     39  C   UNL A   1      41.689  26.116  27.829  1.00  0.00     0.031 A 
ATOM     40  C   UNL A   1      40.844  27.127  28.560  1.00  0.00     0.074 A 
ATOM     41  C   UNL A   1      42.944  26.434  27.452  1.00  0.00     0.049 A 
ATOM     42  N   UNL A   1      41.147  28.354  28.899  1.00  0.00    -0.248 NA
ATOM     43  C   UNL A   1      39.486  26.719  28.961  1.00  0.00     0.031 C 
ATOM     44  C   UNL A   1      43.854  25.546  26.723  1.00  0.00     0.029 A 
ATOM     45  N   UNL A   1      43.685  27.570  27.655  1.00  0.00    -0.354 N 
ATOM     46  C   UNL A   1      40.009  28.878  29.501  1.00  0.00     0.074 A 
ATOM     47  C   UNL A   1      39.005  27.839  29.484  1.00  0.00     0.031 C 
ATOM     48  C   UNL A   1      45.048  26.141  26.602  1.00  0.00     0.029 A 
ATOM     49  C   UNL A   1      44.972  27.477  27.184  1.00  0.00     0.049 A 
ATOM     50  H   UNL A   1      43.328  28.374  28.097  1.00  0.00     0.167 HD
ATOM     51  C   UNL A   1      39.825  30.106  30.037  1.00  0.00     0.034 A 
ATOM     52  C   UNL A   1      45.985  28.365  27.209  1.00  0.00     0.034 A 
ATOM     53  C   UNL A   1      40.848  31.112  30.122  1.00  0.00     0.049 A 
ATOM     54  C   UNL A   1      45.761  29.709  27.833  1.00  0.00     0.074 A 
ATOM     55  C   UNL A   1      40.767  32.367  30.702  1.00  0.00     0.029 A 
ATOM     56  N   UNL A   1      42.133  30.979  29.626  1.00  0.00    -0.354 N 
ATOM     57  N   UNL A   1      44.698  30.157  28.454  1.00  0.00    -0.248 NA
ATOM     58  C   UNL A   1      46.870  30.670  27.763  1.00  0.00     0.031 C 
ATOM     59  C   UNL A   1      42.007  32.994  30.553  1.00  0.00     0.029 A 
ATOM     60  C   UNL A   1      42.857  32.129  29.883  1.00  0.00     0.049 A 
ATOM     61  H   UNL A   1      42.481  30.184  29.161  1.00  0.00     0.167 HD
ATOM     62  C   UNL A   1      45.008  31.450  28.851  1.00  0.00     0.074 A 
ATOM     63  C   UNL A   1      46.369  31.706  28.425  1.00  0.00     0.031 C 
ATOM     64  C   UNL A   1      44.224  32.352  29.488  1.00  0.00     0.034 A 
BRANCH  51  65
ATOM     65  C   UNL A   1      38.482  30.427  30.633  1.00  0.00     0.023 A 
ATOM     66  C   UNL A   1      38.215  30.064  31.967  1.00  0.00     0.012 A 
ATOM     67  C   UNL A   1      37.531  31.175  29.910  1.00  0.00     0.148 A 
ATOM     68  C   UNL A   1      37.015  30.433  32.574  1.00  0.00     0.002 A 
ATOM     69  C   UNL A   1      36.350  31.562  30.531  1.00  0.00     0.091 A 
ATOM     70  F   UNL A   1      37.805  31.497  28.639  1.00  0.00    -0.205 F 
ATOM     71  C   UNL A   1      36.089  31.189  31.860  1.00  0.00     0.022 A 
BRANCH  69  72
ATOM     72  S   UNL A   1      35.111  32.581  29.722  1.00  0.00     0.127 S 
ATOM     73  O   UNL A   1      34.578  31.657  28.722  1.00  0.00    -0.237 OA
ATOM     74  O   UNL A   1      34.196  32.883  30.823  1.00  0.00    -0.237 OA
ATOM     75  O   UNL A   1      35.822  33.732  29.184  1.00  0.00    -0.744 OA
ENDBRANCH  69  72
ENDBRANCH  51  65
BRANCH  52  76
ATOM     76  C   UNL A   1      47.307  27.973  26.653  1.00  0.00     0.023 A 
ATOM     77  C   UNL A   1      48.327  27.557  27.528  1.00  0.00     0.012 A 
ATOM     78  C   UNL A   1      47.524  27.919  25.263  1.00  0.00     0.148 A 
ATOM     79  C   UNL A   1      49.543  27.092  27.028  1.00  0.00     0.002 A 
ATOM     80  C   UNL A   1      48.719  27.411  24.770  1.00  0.00     0.091 A 
ATOM     81  F   UNL A   1      46.538  28.327  24.452  1.00  0.00    -0.205 F 
ATOM     82  C   UNL A   1      49.735  27.007  25.651  1.00  0.00     0.022 A 
BRANCH  80  83
ATOM     83  S   UNL A   1      49.008  27.146  23.017  1.00  0.00     0.127 S 
ATOM     84  O   UNL A   1      48.489  28.384  22.440  1.00  0.00    -0.237 OA
ATOM     85  O   UNL A   1      50.464  27.006  22.972  1.00  0.00    -0.237 OA
ATOM     86  O   UNL A   1      48.274  25.936  22.673  1.00  0.00    -0.744 OA
ENDBRANCH  80  83
ENDBRANCH  52  76
BRANCH  64  87
ATOM     87  C   UNL A   1      44.797  33.711  29.765  1.00  0.00     0.023 A 
ATOM     88  C   UNL A   1      45.532  33.913  30.949  1.00  0.00     0.012 A 
ATOM     89  C   UNL A   1      44.728  34.735  28.801  1.00  0.00     0.148 A 
ATOM     90  C   UNL A   1      46.189  35.121  31.172  1.00  0.00     0.002 A 
ATOM     91  C   UNL A   1      45.413  35.924  29.016  1.00  0.00     0.091 A 
ATOM     92  F   UNL A   1      44.016  34.514  27.687  1.00  0.00    -0.205 F 
ATOM     93  C   UNL A   1      46.140  36.120  30.201  1.00  0.00     0.022 A 
BRANCH  91  94
ATOM     94  S   UNL A   1      45.473  37.241  27.797  1.00  0.00     0.127 S 
ATOM     95  O   UNL A   1      44.055  37.547  27.619  1.00  0.00    -0.237 OA
ATOM     96  O   UNL A   1      46.239  38.273  28.496  1.00  0.00    -0.237 OA
ATOM     97  O   UNL A   1      46.134  36.679  26.626  1.00  0.00    -0.744 OA
ENDBRANCH  91  94
ENDBRANCH  64  87
ENDBRANCH  38  39
ENDBRANCH  30  33
ENDBRANCH  28  29
ENDBRANCH   1  28
TORSDOF 17
ENDMDL
MODEL 3
REMARK VINA RESULT:     -12.2      2.179      2.792
REMARK SMILES CC(C)CN(C)c1cc2c(cc1Cl)C=C(C(=O)NCCCNC(=O)c1ccc(-c3c4nc(c(-c5cccc(S(=O)(=O)[O-])c5F)c5ccc([nH]5)c(-c5cccc(S(=O)(=O)[O-])c5F)c5nc(c(-c6cccc(S(=O)(=O)[O-])c6F)c6ccc3[nH]6)C=C5)C=C4)cc1)[C@@H](C(F)(F)F)O2
REMARK SMILES IDX 20 1 19 2 18 3 16 4 17 5 15 7 7 8 8 9 12 10 9 11 11 12 13 13
REMARK SMILES IDX 10 14 93 15 14 16 88 17 5 18 6 19 4 20 2 21 1 22 3 23 89 24
REMARK SMILES IDX 90 25 91 26 92 27 21 28 22 29 23 30 24 32 25 33 26 34 87 35
REMARK SMILES IDX 27 36 86 37 28 38 29 39 30 40 80 41 31 42 85 43 79 44 81 45
REMARK SMILES IDX 32 46 84 47 78 48 77 49 33 51 65 52 45 53 64 54 46 55 49 56
REMARK SMILES IDX 63 57 82 58 47 59 48 60 62 62 83 63 50 64 34 65 35 66 43 67
REMARK SMILES IDX 36 68 38 69 44 70 37 71 39 72 40 73 41 74 42 75 66 76 67 77
REMARK SMILES IDX 75 78 68 79 70 80 76 81 69 82 71 83 72 84 73 85 74 86 51 87
REMARK SMILES IDX 52 88 60 89 53 90 55 91 61 92 54 93 56 94 57 95 58 96 59 97
REMARK H PARENT 18 6 22 31 81 50 49 61
REMARK Flexibility Score: inf
ROOT
ATOM      1  C   UNL A   1      31.361  32.722  26.506  1.00  0.00     0.042 C 
ENDROOT
BRANCH   1   2
ATOM      2  C   UNL A   1      31.330  31.208  26.376  1.00  0.00     0.118 C 
BRANCH   2   3
ATOM      3  N   UNL A   1      30.962  30.786  25.036  1.00  0.00    -0.352 N 
ATOM      4  C   UNL A   1      31.082  29.662  24.293  1.00  0.00     0.251 C 
ATOM      5  O   UNL A   1      30.563  29.707  23.174  1.00  0.00    -0.270 OA
ATOM      6  H   UNL A   1      30.507  31.504  24.539  1.00  0.00     0.163 HD
BRANCH   4   7
ATOM      7  C   UNL A   1      31.781  28.425  24.731  1.00  0.00     0.067 C 
ATOM      8  C   UNL A   1      32.961  23.647  25.819  1.00  0.00     0.059 A 
ATOM      9  C   UNL A   1      33.652  24.724  25.238  1.00  0.00     0.074 A 
ATOM     10  C   UNL A   1      31.623  23.865  26.220  1.00  0.00     0.065 A 
ATOM     11  C   UNL A   1      33.015  25.943  25.034  1.00  0.00     0.130 A 
ATOM     12  C   UNL A   1      30.961  25.062  25.922  1.00  0.00     0.034 A 
ATOM     13  Cl  UNL A   1      30.730  22.679  27.112  1.00  0.00    -0.082 Cl
ATOM     14  C   UNL A   1      31.655  26.099  25.310  1.00  0.00     0.019 A 
ATOM     15  O   UNL A   1      33.771  26.981  24.552  1.00  0.00    -0.475 OA
ATOM     16  C   UNL A   1      31.002  27.345  24.929  1.00  0.00     0.025 C 
ATOM     17  C   UNL A   1      33.265  28.295  24.939  1.00  0.00     0.314 C 
BRANCH   8  18
ATOM     18  N   UNL A   1      33.585  22.394  25.946  1.00  0.00    -0.373 N 
ATOM     19  C   UNL A   1      34.409  22.234  27.143  1.00  0.00     0.143 C 
BRANCH  18  20
ATOM     20  C   UNL A   1      34.126  21.821  24.695  1.00  0.00     0.119 C 
BRANCH  20  21
ATOM     21  C   UNL A   1      33.125  20.876  23.997  1.00  0.00     0.002 C 
ATOM     22  C   UNL A   1      32.237  20.126  24.995  1.00  0.00     0.009 C 
ATOM     23  C   UNL A   1      32.226  21.649  23.027  1.00  0.00     0.009 C 
ENDBRANCH  20  21
ENDBRANCH  18  20
ENDBRANCH   8  18
BRANCH  17  24
ATOM     24  C   UNL A   1      33.676  28.636  26.393  1.00  0.00     0.429 C 
ATOM     25  F   UNL A   1      34.051  29.935  26.491  1.00  0.00    -0.167 F 
ATOM     26  F   UNL A   1      32.656  28.460  27.270  1.00  0.00    -0.167 F 
ATOM     27  F   UNL A   1      34.702  27.886  26.852  1.00  0.00    -0.167 F 
ENDBRANCH  17  24
ENDBRANCH   4   7
ENDBRANCH   2   3
ENDBRANCH   1   2
BRANCH   1  28
ATOM     28  C   UNL A   1      32.713  33.241  26.968  1.00  0.00     0.118 C 
BRANCH  28  29
ATOM     29  N   UNL A   1      32.591  34.324  27.941  1.00  0.00    -0.352 N 
ATOM     30  C   UNL A   1      33.312  34.567  29.087  1.00  0.00     0.251 C 
ATOM     31  H   UNL A   1      31.885  34.983  27.746  1.00  0.00     0.163 HD
ATOM     32  O   UNL A   1      32.931  35.427  29.875  1.00  0.00    -0.269 OA
BRANCH  30  33
ATOM     33  C   UNL A   1      34.519  33.764  29.372  1.00  0.00     0.039 A 
ATOM     34  C   UNL A   1      34.403  32.545  30.038  1.00  0.00     0.014 A 
ATOM     35  C   UNL A   1      35.778  34.255  29.018  1.00  0.00     0.014 A 
ATOM     36  C   UNL A   1      35.540  31.934  30.544  1.00  0.00     0.010 A 
ATOM     37  C   UNL A   1      36.926  33.572  29.428  1.00  0.00     0.010 A 
ATOM     38  C   UNL A   1      36.817  32.441  30.252  1.00  0.00    -0.014 A 
BRANCH  38  39
ATOM     39  C   UNL A   1      38.007  31.772  30.842  1.00  0.00     0.031 A 
ATOM     40  C   UNL A   1      38.404  32.017  32.275  1.00  0.00     0.074 A 
ATOM     41  C   UNL A   1      38.687  30.878  30.097  1.00  0.00     0.049 A 
ATOM     42  N   UNL A   1      39.380  31.474  32.956  1.00  0.00    -0.248 NA
ATOM     43  C   UNL A   1      37.615  32.994  33.045  1.00  0.00     0.031 C 
ATOM     44  C   UNL A   1      38.407  30.567  28.692  1.00  0.00     0.029 A 
ATOM     45  N   UNL A   1      39.726  30.043  30.419  1.00  0.00    -0.354 N 
ATOM     46  C   UNL A   1      39.356  32.076  34.208  1.00  0.00     0.074 A 
ATOM     47  C   UNL A   1      38.269  33.028  34.199  1.00  0.00     0.031 C 
ATOM     48  C   UNL A   1      39.204  29.565  28.295  1.00  0.00     0.029 A 
ATOM     49  C   UNL A   1      40.095  29.206  29.393  1.00  0.00     0.049 A 
ATOM     50  H   UNL A   1      40.164  30.043  31.301  1.00  0.00     0.167 HD
ATOM     51  C   UNL A   1      40.154  31.843  35.275  1.00  0.00     0.034 A 
ATOM     52  C   UNL A   1      41.049  28.257  29.332  1.00  0.00     0.034 A 
ATOM     53  C   UNL A   1      41.186  30.842  35.310  1.00  0.00     0.049 A 
ATOM     54  C   UNL A   1      41.901  28.000  30.538  1.00  0.00     0.074 A 
ATOM     55  C   UNL A   1      42.006  30.496  36.369  1.00  0.00     0.029 A 
ATOM     56  N   UNL A   1      41.531  30.024  34.247  1.00  0.00    -0.354 N 
ATOM     57  N   UNL A   1      41.815  28.536  31.731  1.00  0.00    -0.248 NA
ATOM     58  C   UNL A   1      42.978  27.011  30.396  1.00  0.00     0.031 C 
ATOM     59  C   UNL A   1      42.851  29.467  35.944  1.00  0.00     0.029 A 
ATOM     60  C   UNL A   1      42.555  29.174  34.623  1.00  0.00     0.049 A 
ATOM     61  H   UNL A   1      41.110  30.044  33.357  1.00  0.00     0.167 HD
ATOM     62  C   UNL A   1      42.825  27.951  32.482  1.00  0.00     0.074 A 
ATOM     63  C   UNL A   1      43.493  26.998  31.619  1.00  0.00     0.031 C 
ATOM     64  C   UNL A   1      43.182  28.203  33.765  1.00  0.00     0.034 A 
BRANCH  51  65
ATOM     65  C   UNL A   1      39.918  32.640  36.527  1.00  0.00     0.023 A 
ATOM     66  C   UNL A   1      40.639  33.834  36.731  1.00  0.00     0.012 A 
ATOM     67  C   UNL A   1      38.915  32.267  37.445  1.00  0.00     0.148 A 
ATOM     68  C   UNL A   1      40.371  34.641  37.836  1.00  0.00     0.002 A 
ATOM     69  C   UNL A   1      38.636  33.091  38.527  1.00  0.00     0.091 A 
ATOM     70  F   UNL A   1      38.253  31.122  37.233  1.00  0.00    -0.205 F 
ATOM     71  C   UNL A   1      39.365  34.276  38.727  1.00  0.00     0.022 A 
BRANCH  69  72
ATOM     72  S   UNL A   1      37.326  32.743  39.707  1.00  0.00     0.127 S 
ATOM     73  O   UNL A   1      37.760  31.459  40.257  1.00  0.00    -0.237 OA
ATOM     74  O   UNL A   1      37.438  33.872  40.631  1.00  0.00    -0.237 OA
ATOM     75  O   UNL A   1      36.091  32.700  38.938  1.00  0.00    -0.744 OA
ENDBRANCH  69  72
ENDBRANCH  51  65
BRANCH  52  76
ATOM     76  C   UNL A   1      41.201  27.461  28.085  1.00  0.00     0.023 A 
ATOM     77  C   UNL A   1      41.834  28.041  26.971  1.00  0.00     0.012 A 
ATOM     78  C   UNL A   1      40.810  26.109  28.034  1.00  0.00     0.148 A 
ATOM     79  C   UNL A   1      42.076  27.287  25.823  1.00  0.00     0.002 A 
ATOM     80  C   UNL A   1      41.097  25.351  26.905  1.00  0.00     0.091 A 
ATOM     81  F   UNL A   1      40.204  25.584  29.107  1.00  0.00    -0.205 F 
ATOM     82  C   UNL A   1      41.720  25.940  25.795  1.00  0.00     0.022 A 
BRANCH  80  83
ATOM     83  S   UNL A   1      40.790  23.583  26.825  1.00  0.00     0.127 S 
ATOM     84  O   UNL A   1      39.367  23.542  26.500  1.00  0.00    -0.237 OA
ATOM     85  O   UNL A   1      41.683  23.174  25.741  1.00  0.00    -0.237 OA
ATOM     86  O   UNL A   1      41.151  23.058  28.135  1.00  0.00    -0.744 OA
ENDBRANCH  80  83
ENDBRANCH  52  76
BRANCH  64  87
ATOM     87  C   UNL A   1      44.351  27.451  34.329  1.00  0.00     0.023 A 
ATOM     88  C   UNL A   1      45.630  28.038  34.276  1.00  0.00     0.012 A 
ATOM     89  C   UNL A   1      44.165  26.243  35.027  1.00  0.00     0.148 A 
ATOM     90  C   UNL A   1      46.711  27.429  34.909  1.00  0.00     0.002 A 
ATOM     91  C   UNL A   1      45.241  25.659  35.683  1.00  0.00     0.091 A 
ATOM     92  F   UNL A   1      42.937  25.706  35.055  1.00  0.00    -0.205 F 
ATOM     93  C   UNL A   1      46.515  26.248  35.622  1.00  0.00     0.022 A 
BRANCH  91  94
ATOM     94  S   UNL A   1      45.077  24.180  36.688  1.00  0.00     0.127 S 
ATOM     95  O   UNL A   1      46.459  23.949  37.107  1.00  0.00    -0.237 OA
ATOM     96  O   UNL A   1      44.182  24.631  37.754  1.00  0.00    -0.237 OA
ATOM     97  O   UNL A   1      44.517  23.157  35.815  1.00  0.00    -0.744 OA
ENDBRANCH  91  94
ENDBRANCH  64  87
ENDBRANCH  38  39
ENDBRANCH  30  33
ENDBRANCH  28  29
ENDBRANCH   1  28
TORSDOF 17
ENDMDL
