MODEL 1
REMARK VINA RESULT:     -12.5      0.000      0.000
REMARK SMILES Cc1ccc(Nc2c(F)cccc2I)c(CC(=O)NCCCNC(=O)c2ccc(-c3c4nc(c(-c5cccc(S(=O)(=O)[O-])c5F)c5ccc([nH]5)c(-c5cccc(S(=O)(=O)[O-])c5F)c5nc(c(-c6cccc(S(=O)(=O)[O-])c6F)c6ccc3[nH]6)C=C5)C=C4)cc2)c1
REMARK SMILES IDX 21 1 20 2 19 3 17 4 18 5 16 7 15 8 1 9 2 10 3 11 89 12 4 13
REMARK SMILES IDX 5 14 6 15 7 17 8 18 13 19 9 20 10 21 12 22 14 23 11 24 22 25
REMARK SMILES IDX 23 26 24 27 25 29 26 30 27 31 88 32 28 33 87 34 29 35 30 36
REMARK SMILES IDX 31 37 81 38 32 39 86 40 80 41 82 42 33 43 85 44 79 45 78 46
REMARK SMILES IDX 34 48 66 49 46 50 65 51 47 52 50 53 64 54 83 55 48 56 49 57
REMARK SMILES IDX 63 59 84 60 51 61 35 62 36 63 44 64 37 65 39 66 45 67 38 68
REMARK SMILES IDX 40 69 41 70 42 71 43 72 67 73 68 74 76 75 69 76 71 77 77 78
REMARK SMILES IDX 70 79 72 80 73 81 74 82 75 83 52 84 53 85 61 86 54 87 56 88
REMARK SMILES IDX 62 89 55 90 57 91 58 92 59 93 60 94
REMARK H PARENT 19 6 6 16 23 28 82 47 50 58
REMARK Flexibility Score: inf
ROOT
ATOM      1  C   UNL A   1      38.732  21.255  25.683  1.00  0.00     0.042 C 
ENDROOT
BRANCH   1   2
ATOM      2  C   UNL A   1      37.305  21.054  25.191  1.00  0.00     0.117 C 
BRANCH   2   3
ATOM      3  N   UNL A   1      37.030  21.759  23.948  1.00  0.00    -0.356 N 
ATOM      4  C   UNL A   1      36.328  22.912  23.744  1.00  0.00     0.224 C 
ATOM      5  O   UNL A   1      36.194  23.331  22.591  1.00  0.00    -0.275 OA
ATOM      6  H   UNL A   1      37.404  21.343  23.137  1.00  0.00     0.163 HD
BRANCH   4   7
ATOM      7  C   UNL A   1      35.698  23.672  24.899  1.00  0.00     0.137 C 
BRANCH   7   8
ATOM      8  C   UNL A   1      34.238  23.342  25.129  1.00  0.00    -0.015 A 
ATOM      9  C   UNL A   1      32.154  20.136  25.001  1.00  0.00     0.044 C 
ATOM     10  C   UNL A   1      32.539  21.574  25.177  1.00  0.00    -0.051 A 
ATOM     11  C   UNL A   1      31.554  22.549  25.307  1.00  0.00     0.005 A 
ATOM     12  C   UNL A   1      33.878  21.974  25.147  1.00  0.00     0.009 A 
ATOM     13  C   UNL A   1      31.901  23.903  25.360  1.00  0.00     0.026 A 
ATOM     14  C   UNL A   1      33.234  24.332  25.238  1.00  0.00     0.042 A 
BRANCH  14  15
ATOM     15  N   UNL A   1      33.550  25.708  25.228  1.00  0.00    -0.352 N 
ATOM     16  H   UNL A   1      34.474  25.927  25.491  1.00  0.00     0.167 HD
BRANCH  15  17
ATOM     17  C   UNL A   1      32.741  26.822  24.897  1.00  0.00     0.088 A 
ATOM     18  C   UNL A   1      32.240  27.688  25.883  1.00  0.00     0.147 A 
ATOM     19  C   UNL A   1      32.341  27.065  23.568  1.00  0.00     0.040 A 
ATOM     20  F   UNL A   1      32.580  27.519  27.171  1.00  0.00    -0.205 F 
ATOM     21  C   UNL A   1      31.403  28.761  25.572  1.00  0.00     0.041 A 
ATOM     22  C   UNL A   1      31.500  28.142  23.248  1.00  0.00     0.017 A 
ATOM     23  I   UNL A   1      32.902  25.800  21.984  1.00  0.00    -0.042 I 
ATOM     24  C   UNL A   1      31.033  28.990  24.250  1.00  0.00     0.004 A 
ENDBRANCH  15  17
ENDBRANCH  14  15
ENDBRANCH   7   8
ENDBRANCH   4   7
ENDBRANCH   2   3
ENDBRANCH   1   2
BRANCH   1  25
ATOM     25  C   UNL A   1      39.010  22.600  26.323  1.00  0.00     0.118 C 
BRANCH  25  26
ATOM     26  N   UNL A   1      40.139  22.581  27.241  1.00  0.00    -0.352 N 
ATOM     27  C   UNL A   1      40.770  23.638  27.869  1.00  0.00     0.251 C 
ATOM     28  H   UNL A   1      40.505  21.689  27.443  1.00  0.00     0.163 HD
ATOM     29  O   UNL A   1      41.799  23.426  28.504  1.00  0.00    -0.269 OA
BRANCH  27  30
ATOM     30  C   UNL A   1      40.121  24.971  27.879  1.00  0.00     0.039 A 
ATOM     31  C   UNL A   1      40.575  25.921  26.956  1.00  0.00     0.014 A 
ATOM     32  C   UNL A   1      39.281  25.354  28.922  1.00  0.00     0.014 A 
ATOM     33  C   UNL A   1      40.425  27.276  27.238  1.00  0.00     0.010 A 
ATOM     34  C   UNL A   1      39.208  26.689  29.252  1.00  0.00     0.010 A 
ATOM     35  C   UNL A   1      39.854  27.637  28.453  1.00  0.00    -0.014 A 
BRANCH  35  36
ATOM     36  C   UNL A   1      39.927  28.962  29.040  1.00  0.00     0.031 A 
ATOM     37  C   UNL A   1      38.944  29.990  28.675  1.00  0.00     0.074 A 
ATOM     38  C   UNL A   1      40.770  29.154  30.079  1.00  0.00     0.049 A 
ATOM     39  N   UNL A   1      39.038  31.225  29.026  1.00  0.00    -0.248 NA
ATOM     40  C   UNL A   1      37.785  29.706  27.842  1.00  0.00     0.031 C 
ATOM     41  C   UNL A   1      40.727  30.216  31.077  1.00  0.00     0.029 A 
ATOM     42  N   UNL A   1      41.999  28.529  30.303  1.00  0.00    -0.354 N 
ATOM     43  C   UNL A   1      37.826  31.817  28.761  1.00  0.00     0.074 A 
ATOM     44  C   UNL A   1      37.150  30.880  27.898  1.00  0.00     0.031 C 
ATOM     45  C   UNL A   1      41.955  30.363  31.595  1.00  0.00     0.029 A 
ATOM     46  C   UNL A   1      42.847  29.538  30.800  1.00  0.00     0.049 A 
ATOM     47  H   UNL A   1      42.225  27.584  30.145  1.00  0.00     0.167 HD
ATOM     48  C   UNL A   1      37.507  32.954  29.444  1.00  0.00     0.034 A 
ATOM     49  C   UNL A   1      43.948  29.984  30.123  1.00  0.00     0.034 A 
ATOM     50  C   UNL A   1      38.686  33.485  30.162  1.00  0.00     0.049 A 
ATOM     51  C   UNL A   1      43.913  31.478  29.810  1.00  0.00     0.074 A 
ATOM     52  C   UNL A   1      39.093  33.560  31.485  1.00  0.00     0.029 A 
ATOM     53  N   UNL A   1      39.797  33.835  29.411  1.00  0.00    -0.354 N 
ATOM     54  N   UNL A   1      42.980  32.306  30.199  1.00  0.00    -0.248 NA
ATOM     55  C   UNL A   1      44.890  32.131  28.937  1.00  0.00     0.031 C 
ATOM     56  C   UNL A   1      40.474  33.938  31.507  1.00  0.00     0.029 A 
ATOM     57  C   UNL A   1      40.894  34.123  30.202  1.00  0.00     0.049 A 
ATOM     58  H   UNL A   1      39.803  33.875  28.428  1.00  0.00     0.167 HD
ATOM     59  C   UNL A   1      43.102  33.492  29.514  1.00  0.00     0.074 A 
ATOM     60  C   UNL A   1      44.343  33.346  28.772  1.00  0.00     0.031 C 
ATOM     61  C   UNL A   1      42.141  34.472  29.532  1.00  0.00     0.034 A 
BRANCH  48  62
ATOM     62  C   UNL A   1      36.101  33.507  29.656  1.00  0.00     0.023 A 
ATOM     63  C   UNL A   1      35.402  33.948  28.509  1.00  0.00     0.012 A 
ATOM     64  C   UNL A   1      35.436  33.721  30.890  1.00  0.00     0.148 A 
ATOM     65  C   UNL A   1      34.172  34.617  28.580  1.00  0.00     0.002 A 
ATOM     66  C   UNL A   1      34.215  34.398  30.967  1.00  0.00     0.091 A 
ATOM     67  F   UNL A   1      35.955  33.264  32.024  1.00  0.00    -0.205 F 
ATOM     68  C   UNL A   1      33.584  34.859  29.813  1.00  0.00     0.022 A 
BRANCH  66  69
ATOM     69  S   UNL A   1      33.411  34.769  32.541  1.00  0.00     0.127 S 
ATOM     70  O   UNL A   1      34.358  35.706  33.150  1.00  0.00    -0.237 OA
ATOM     71  O   UNL A   1      32.150  35.371  32.114  1.00  0.00    -0.237 OA
ATOM     72  O   UNL A   1      33.278  33.504  33.252  1.00  0.00    -0.744 OA
ENDBRANCH  66  69
ENDBRANCH  48  62
BRANCH  49  73
ATOM     73  C   UNL A   1      44.558  28.933  29.246  1.00  0.00     0.023 A 
ATOM     74  C   UNL A   1      45.107  27.796  29.891  1.00  0.00     0.012 A 
ATOM     75  C   UNL A   1      44.258  28.848  27.875  1.00  0.00     0.148 A 
ATOM     76  C   UNL A   1      45.202  26.570  29.229  1.00  0.00     0.002 A 
ATOM     77  C   UNL A   1      44.382  27.627  27.215  1.00  0.00     0.091 A 
ATOM     78  F   UNL A   1      43.783  29.930  27.248  1.00  0.00    -0.205 F 
ATOM     79  C   UNL A   1      44.806  26.478  27.900  1.00  0.00     0.022 A 
BRANCH  77  80
ATOM     80  S   UNL A   1      43.896  27.456  25.492  1.00  0.00     0.127 S 
ATOM     81  O   UNL A   1      45.104  27.898  24.805  1.00  0.00    -0.237 OA
ATOM     82  O   UNL A   1      43.612  26.025  25.382  1.00  0.00    -0.237 OA
ATOM     83  O   UNL A   1      42.722  28.306  25.357  1.00  0.00    -0.744 OA
ENDBRANCH  77  80
ENDBRANCH  49  73
BRANCH  61  84
ATOM     84  C   UNL A   1      42.276  35.821  28.834  1.00  0.00     0.023 A 
ATOM     85  C   UNL A   1      41.842  35.999  27.506  1.00  0.00     0.012 A 
ATOM     86  C   UNL A   1      42.946  36.927  29.429  1.00  0.00     0.148 A 
ATOM     87  C   UNL A   1      41.960  37.228  26.842  1.00  0.00     0.002 A 
ATOM     88  C   UNL A   1      43.114  38.130  28.748  1.00  0.00     0.091 A 
ATOM     89  F   UNL A   1      43.437  36.826  30.667  1.00  0.00    -0.205 F 
ATOM     90  C   UNL A   1      42.593  38.294  27.465  1.00  0.00     0.022 A 
BRANCH  88  91
ATOM     91  S   UNL A   1      44.050  39.510  29.430  1.00  0.00     0.127 S 
ATOM     92  O   UNL A   1      44.138  40.403  28.273  1.00  0.00    -0.237 OA
ATOM     93  O   UNL A   1      43.163  39.977  30.494  1.00  0.00    -0.237 OA
ATOM     94  O   UNL A   1      45.321  38.964  29.882  1.00  0.00    -0.744 OA
ENDBRANCH  88  91
ENDBRANCH  61  84
ENDBRANCH  35  36
ENDBRANCH  27  30
ENDBRANCH  25  26
ENDBRANCH   1  25
TORSDOF 16
ENDMDL
MODEL 2
REMARK VINA RESULT:     -12.4      4.623     10.373
REMARK SMILES Cc1ccc(Nc2c(F)cccc2I)c(CC(=O)NCCCNC(=O)c2ccc(-c3c4nc(c(-c5cccc(S(=O)(=O)[O-])c5F)c5ccc([nH]5)c(-c5cccc(S(=O)(=O)[O-])c5F)c5nc(c(-c6cccc(S(=O)(=O)[O-])c6F)c6ccc3[nH]6)C=C5)C=C4)cc2)c1
REMARK SMILES IDX 21 1 20 2 19 3 17 4 18 5 16 7 15 8 1 9 2 10 3 11 89 12 4 13
REMARK SMILES IDX 5 14 6 15 7 17 8 18 13 19 9 20 10 21 12 22 14 23 11 24 22 25
REMARK SMILES IDX 23 26 24 27 25 29 26 30 27 31 88 32 28 33 87 34 29 35 30 36
REMARK SMILES IDX 31 37 81 38 32 39 86 40 80 41 82 42 33 43 85 44 79 45 78 46
REMARK SMILES IDX 34 48 66 49 46 50 65 51 47 52 50 53 64 54 83 55 48 56 49 57
REMARK SMILES IDX 63 59 84 60 51 61 35 62 36 63 44 64 37 65 39 66 45 67 38 68
REMARK SMILES IDX 40 69 41 70 42 71 43 72 67 73 68 74 76 75 69 76 71 77 77 78
REMARK SMILES IDX 70 79 72 80 73 81 74 82 75 83 52 84 53 85 61 86 54 87 56 88
REMARK SMILES IDX 62 89 55 90 57 91 58 92 59 93 60 94
REMARK H PARENT 19 6 6 16 23 28 82 47 50 58
REMARK Flexibility Score: inf
ROOT
ATOM      1  C   UNL A   1      32.685  30.895  26.924  1.00  0.00     0.042 C 
ENDROOT
BRANCH   1   2
ATOM      2  C   UNL A   1      32.101  29.999  25.840  1.00  0.00     0.117 C 
BRANCH   2   3
ATOM      3  N   UNL A   1      31.783  28.663  26.319  1.00  0.00    -0.356 N 
ATOM      4  C   UNL A   1      32.442  27.487  26.104  1.00  0.00     0.224 C 
ATOM      5  O   UNL A   1      31.984  26.450  26.591  1.00  0.00    -0.275 OA
ATOM      6  H   UNL A   1      30.976  28.598  26.879  1.00  0.00     0.163 HD
BRANCH   4   7
ATOM      7  C   UNL A   1      33.709  27.429  25.267  1.00  0.00     0.137 C 
BRANCH   7   8
ATOM      8  C   UNL A   1      34.028  26.050  24.729  1.00  0.00    -0.015 A 
ATOM      9  C   UNL A   1      36.227  23.149  25.907  1.00  0.00     0.044 C 
ATOM     10  C   UNL A   1      35.273  23.967  25.092  1.00  0.00    -0.051 A 
ATOM     11  C   UNL A   1      34.912  23.551  23.813  1.00  0.00     0.005 A 
ATOM     12  C   UNL A   1      34.780  25.188  25.562  1.00  0.00     0.009 A 
ATOM     13  C   UNL A   1      34.111  24.363  23.004  1.00  0.00     0.026 A 
ATOM     14  C   UNL A   1      33.682  25.634  23.422  1.00  0.00     0.042 A 
BRANCH  14  15
ATOM     15  N   UNL A   1      32.930  26.462  22.560  1.00  0.00    -0.352 N 
ATOM     16  H   UNL A   1      33.336  26.626  21.678  1.00  0.00     0.167 HD
BRANCH  15  17
ATOM     17  C   UNL A   1      31.680  27.091  22.771  1.00  0.00     0.088 A 
ATOM     18  C   UNL A   1      31.516  28.478  22.610  1.00  0.00     0.147 A 
ATOM     19  C   UNL A   1      30.563  26.364  23.227  1.00  0.00     0.040 A 
ATOM     20  F   UNL A   1      32.537  29.236  22.176  1.00  0.00    -0.205 F 
ATOM     21  C   UNL A   1      30.300  29.115  22.861  1.00  0.00     0.041 A 
ATOM     22  C   UNL A   1      29.337  26.998  23.481  1.00  0.00     0.017 A 
ATOM     23  I   UNL A   1      30.664  24.303  23.634  1.00  0.00    -0.042 I 
ATOM     24  C   UNL A   1      29.207  28.373  23.297  1.00  0.00     0.004 A 
ENDBRANCH  15  17
ENDBRANCH  14  15
ENDBRANCH   7   8
ENDBRANCH   4   7
ENDBRANCH   2   3
ENDBRANCH   1   2
BRANCH   1  25
ATOM     25  C   UNL A   1      34.021  30.446  27.481  1.00  0.00     0.118 C 
BRANCH  25  26
ATOM     26  N   UNL A   1      34.882  31.550  27.878  1.00  0.00    -0.352 N 
ATOM     27  C   UNL A   1      36.154  31.513  28.418  1.00  0.00     0.251 C 
ATOM     28  H   UNL A   1      34.506  32.450  27.742  1.00  0.00     0.163 HD
ATOM     29  O   UNL A   1      36.663  32.557  28.815  1.00  0.00    -0.269 OA
BRANCH  27  30
ATOM     30  C   UNL A   1      36.924  30.246  28.380  1.00  0.00     0.039 A 
ATOM     31  C   UNL A   1      36.910  29.444  29.527  1.00  0.00     0.014 A 
ATOM     32  C   UNL A   1      37.830  29.986  27.355  1.00  0.00     0.014 A 
ATOM     33  C   UNL A   1      37.972  28.577  29.770  1.00  0.00     0.010 A 
ATOM     34  C   UNL A   1      38.926  29.200  27.628  1.00  0.00     0.010 A 
ATOM     35  C   UNL A   1      39.032  28.566  28.870  1.00  0.00    -0.014 A 
BRANCH  35  36
ATOM     36  C   UNL A   1      40.337  27.990  29.137  1.00  0.00     0.031 A 
ATOM     37  C   UNL A   1      40.624  26.598  28.766  1.00  0.00     0.074 A 
ATOM     38  C   UNL A   1      41.334  28.818  29.522  1.00  0.00     0.049 A 
ATOM     39  N   UNL A   1      41.693  25.972  29.113  1.00  0.00    -0.248 NA
ATOM     40  C   UNL A   1      39.693  25.784  27.998  1.00  0.00     0.031 C 
ATOM     41  C   UNL A   1      42.770  28.582  29.443  1.00  0.00     0.029 A 
ATOM     42  N   UNL A   1      41.225  29.980  30.291  1.00  0.00    -0.354 N 
ATOM     43  C   UNL A   1      41.752  24.821  28.365  1.00  0.00     0.074 A 
ATOM     44  C   UNL A   1      40.427  24.684  27.812  1.00  0.00     0.031 C 
ATOM     45  C   UNL A   1      43.381  29.360  30.348  1.00  0.00     0.029 A 
ATOM     46  C   UNL A   1      42.335  29.961  31.157  1.00  0.00     0.049 A 
ATOM     47  H   UNL A   1      40.520  30.665  30.239  1.00  0.00     0.167 HD
ATOM     48  C   UNL A   1      42.970  24.230  28.195  1.00  0.00     0.034 A 
ATOM     49  C   UNL A   1      42.217  29.846  32.514  1.00  0.00     0.034 A 
ATOM     50  C   UNL A   1      43.973  24.823  29.104  1.00  0.00     0.049 A 
ATOM     51  C   UNL A   1      42.937  28.630  33.092  1.00  0.00     0.074 A 
ATOM     52  C   UNL A   1      45.067  25.663  28.965  1.00  0.00     0.029 A 
ATOM     53  N   UNL A   1      43.739  24.741  30.468  1.00  0.00    -0.354 N 
ATOM     54  N   UNL A   1      43.672  27.794  32.407  1.00  0.00    -0.248 NA
ATOM     55  C   UNL A   1      42.790  28.208  34.486  1.00  0.00     0.031 C 
ATOM     56  C   UNL A   1      45.465  26.099  30.270  1.00  0.00     0.029 A 
ATOM     57  C   UNL A   1      44.634  25.500  31.200  1.00  0.00     0.049 A 
ATOM     58  H   UNL A   1      43.018  24.203  30.868  1.00  0.00     0.167 HD
ATOM     59  C   UNL A   1      43.925  26.676  33.164  1.00  0.00     0.074 A 
ATOM     60  C   UNL A   1      43.392  27.007  34.475  1.00  0.00     0.031 C 
ATOM     61  C   UNL A   1      44.473  25.528  32.649  1.00  0.00     0.034 A 
BRANCH  48  62
ATOM     62  C   UNL A   1      43.346  23.258  27.080  1.00  0.00     0.023 A 
ATOM     63  C   UNL A   1      44.012  23.794  25.954  1.00  0.00     0.012 A 
ATOM     64  C   UNL A   1      43.023  21.881  26.993  1.00  0.00     0.148 A 
ATOM     65  C   UNL A   1      44.274  23.045  24.799  1.00  0.00     0.002 A 
ATOM     66  C   UNL A   1      43.271  21.132  25.838  1.00  0.00     0.091 A 
ATOM     67  F   UNL A   1      42.480  21.248  28.026  1.00  0.00    -0.205 F 
ATOM     68  C   UNL A   1      43.887  21.716  24.732  1.00  0.00     0.022 A 
BRANCH  66  69
ATOM     69  S   UNL A   1      42.768  19.405  25.676  1.00  0.00     0.127 S 
ATOM     70  O   UNL A   1      43.377  19.032  24.398  1.00  0.00    -0.237 OA
ATOM     71  O   UNL A   1      43.387  18.789  26.848  1.00  0.00    -0.237 OA
ATOM     72  O   UNL A   1      41.310  19.392  25.673  1.00  0.00    -0.744 OA
ENDBRANCH  66  69
ENDBRANCH  48  62
BRANCH  49  73
ATOM     73  C   UNL A   1      40.936  30.421  33.038  1.00  0.00     0.023 A 
ATOM     74  C   UNL A   1      39.742  29.728  32.720  1.00  0.00     0.012 A 
ATOM     75  C   UNL A   1      40.918  31.335  34.106  1.00  0.00     0.148 A 
ATOM     76  C   UNL A   1      38.615  29.823  33.540  1.00  0.00     0.002 A 
ATOM     77  C   UNL A   1      39.780  31.445  34.903  1.00  0.00     0.091 A 
ATOM     78  F   UNL A   1      42.028  32.028  34.383  1.00  0.00    -0.205 F 
ATOM     79  C   UNL A   1      38.647  30.655  34.653  1.00  0.00     0.022 A 
BRANCH  77  80
ATOM     80  S   UNL A   1      39.764  32.516  36.347  1.00  0.00     0.127 S 
ATOM     81  O   UNL A   1      40.104  33.805  35.754  1.00  0.00    -0.237 OA
ATOM     82  O   UNL A   1      38.385  32.398  36.816  1.00  0.00    -0.237 OA
ATOM     83  O   UNL A   1      40.749  31.934  37.246  1.00  0.00    -0.744 OA
ENDBRANCH  77  80
ENDBRANCH  49  73
BRANCH  61  84
ATOM     84  C   UNL A   1      44.824  24.296  33.476  1.00  0.00     0.023 A 
ATOM     85  C   UNL A   1      43.827  23.392  33.893  1.00  0.00     0.012 A 
ATOM     86  C   UNL A   1      46.137  24.053  33.969  1.00  0.00     0.148 A 
ATOM     87  C   UNL A   1      44.124  22.256  34.658  1.00  0.00     0.002 A 
ATOM     88  C   UNL A   1      46.421  22.955  34.777  1.00  0.00     0.091 A 
ATOM     89  F   UNL A   1      47.132  24.891  33.666  1.00  0.00    -0.205 F 
ATOM     90  C   UNL A   1      45.421  22.036  35.097  1.00  0.00     0.022 A 
BRANCH  88  91
ATOM     91  S   UNL A   1      48.045  22.679  35.506  1.00  0.00     0.127 S 
ATOM     92  O   UNL A   1      47.808  21.469  36.296  1.00  0.00    -0.237 OA
ATOM     93  O   UNL A   1      48.876  22.479  34.320  1.00  0.00    -0.237 OA
ATOM     94  O   UNL A   1      48.356  23.869  36.284  1.00  0.00    -0.744 OA
ENDBRANCH  88  91
ENDBRANCH  61  84
ENDBRANCH  35  36
ENDBRANCH  27  30
ENDBRANCH  25  26
ENDBRANCH   1  25
TORSDOF 16
ENDMDL
MODEL 3
REMARK VINA RESULT:     -12.4      4.336     10.589
REMARK SMILES Cc1ccc(Nc2c(F)cccc2I)c(CC(=O)NCCCNC(=O)c2ccc(-c3c4nc(c(-c5cccc(S(=O)(=O)[O-])c5F)c5ccc([nH]5)c(-c5cccc(S(=O)(=O)[O-])c5F)c5nc(c(-c6cccc(S(=O)(=O)[O-])c6F)c6ccc3[nH]6)C=C5)C=C4)cc2)c1
REMARK SMILES IDX 21 1 20 2 19 3 17 4 18 5 16 7 15 8 1 9 2 10 3 11 89 12 4 13
REMARK SMILES IDX 5 14 6 15 7 17 8 18 13 19 9 20 10 21 12 22 14 23 11 24 22 25
REMARK SMILES IDX 23 26 24 27 25 29 26 30 27 31 88 32 28 33 87 34 29 35 30 36
REMARK SMILES IDX 31 37 81 38 32 39 86 40 80 41 82 42 33 43 85 44 79 45 78 46
REMARK SMILES IDX 34 48 66 49 46 50 65 51 47 52 50 53 64 54 83 55 48 56 49 57
REMARK SMILES IDX 63 59 84 60 51 61 35 62 36 63 44 64 37 65 39 66 45 67 38 68
REMARK SMILES IDX 40 69 41 70 42 71 43 72 67 73 68 74 76 75 69 76 71 77 77 78
REMARK SMILES IDX 70 79 72 80 73 81 74 82 75 83 52 84 53 85 61 86 54 87 56 88
REMARK SMILES IDX 62 89 55 90 57 91 58 92 59 93 60 94
REMARK H PARENT 19 6 6 16 23 28 82 47 50 58
REMARK Flexibility Score: inf
ROOT
ATOM      1  C   UNL A   1      33.059  31.208  27.359  1.00  0.00     0.042 C 
ENDROOT
BRANCH   1   2
ATOM      2  C   UNL A   1      32.109  30.528  26.382  1.00  0.00     0.117 C 
BRANCH   2   3
ATOM      3  N   UNL A   1      31.519  29.312  26.919  1.00  0.00    -0.356 N 
ATOM      4  C   UNL A   1      32.073  28.073  27.066  1.00  0.00     0.224 C 
ATOM      5  O   UNL A   1      31.381  27.162  27.529  1.00  0.00    -0.275 OA
ATOM      6  H   UNL A   1      30.584  29.394  27.218  1.00  0.00     0.163 HD
BRANCH   4   7
ATOM      7  C   UNL A   1      33.509  27.793  26.656  1.00  0.00     0.137 C 
BRANCH   7   8
ATOM      8  C   UNL A   1      33.649  27.208  25.266  1.00  0.00    -0.015 A 
ATOM      9  C   UNL A   1      33.816  28.674  21.737  1.00  0.00     0.044 C 
ATOM     10  C   UNL A   1      33.807  27.690  22.867  1.00  0.00    -0.051 A 
ATOM     11  C   UNL A   1      33.694  26.327  22.605  1.00  0.00     0.005 A 
ATOM     12  C   UNL A   1      33.842  28.115  24.198  1.00  0.00     0.009 A 
ATOM     13  C   UNL A   1      33.574  25.412  23.655  1.00  0.00     0.026 A 
ATOM     14  C   UNL A   1      33.513  25.826  24.996  1.00  0.00     0.042 A 
BRANCH  14  15
ATOM     15  N   UNL A   1      33.324  24.886  26.033  1.00  0.00    -0.352 N 
ATOM     16  H   UNL A   1      32.823  25.219  26.813  1.00  0.00     0.167 HD
BRANCH  15  17
ATOM     17  C   UNL A   1      33.744  23.537  26.122  1.00  0.00     0.088 A 
ATOM     18  C   UNL A   1      35.098  23.179  26.006  1.00  0.00     0.147 A 
ATOM     19  C   UNL A   1      32.813  22.488  26.254  1.00  0.00     0.040 A 
ATOM     20  F   UNL A   1      36.043  24.126  25.880  1.00  0.00    -0.205 F 
ATOM     21  C   UNL A   1      35.519  21.849  26.045  1.00  0.00     0.041 A 
ATOM     22  C   UNL A   1      33.230  21.148  26.294  1.00  0.00     0.017 A 
ATOM     23  I   UNL A   1      30.740  22.838  26.321  1.00  0.00    -0.042 I 
ATOM     24  C   UNL A   1      34.582  20.830  26.191  1.00  0.00     0.004 A 
ENDBRANCH  15  17
ENDBRANCH  14  15
ENDBRANCH   7   8
ENDBRANCH   4   7
ENDBRANCH   2   3
ENDBRANCH   1   2
BRANCH   1  25
ATOM     25  C   UNL A   1      34.496  30.730  27.298  1.00  0.00     0.118 C 
BRANCH  25  26
ATOM     26  N   UNL A   1      35.458  31.743  27.706  1.00  0.00    -0.352 N 
ATOM     27  C   UNL A   1      36.725  31.579  28.234  1.00  0.00     0.251 C 
ATOM     28  H   UNL A   1      35.166  32.676  27.588  1.00  0.00     0.163 HD
ATOM     29  O   UNL A   1      37.332  32.564  28.645  1.00  0.00    -0.269 OA
BRANCH  27  30
ATOM     30  C   UNL A   1      37.374  30.248  28.169  1.00  0.00     0.039 A 
ATOM     31  C   UNL A   1      37.310  29.438  29.309  1.00  0.00     0.014 A 
ATOM     32  C   UNL A   1      38.231  29.916  27.123  1.00  0.00     0.014 A 
ATOM     33  C   UNL A   1      38.293  28.474  29.521  1.00  0.00     0.010 A 
ATOM     34  C   UNL A   1      39.255  29.030  27.365  1.00  0.00     0.010 A 
ATOM     35  C   UNL A   1      39.329  28.376  28.599  1.00  0.00    -0.014 A 
BRANCH  35  36
ATOM     36  C   UNL A   1      40.580  27.680  28.832  1.00  0.00     0.031 A 
ATOM     37  C   UNL A   1      40.663  26.224  28.658  1.00  0.00     0.074 A 
ATOM     38  C   UNL A   1      41.701  28.418  28.992  1.00  0.00     0.049 A 
ATOM     39  N   UNL A   1      41.684  25.521  29.000  1.00  0.00    -0.248 NA
ATOM     40  C   UNL A   1      39.566  25.436  28.115  1.00  0.00     0.031 C 
ATOM     41  C   UNL A   1      43.084  27.988  28.820  1.00  0.00     0.029 A 
ATOM     42  N   UNL A   1      41.810  29.682  29.577  1.00  0.00    -0.354 N 
ATOM     43  C   UNL A   1      41.529  24.276  28.438  1.00  0.00     0.074 A 
ATOM     44  C   UNL A   1      40.144  24.234  28.036  1.00  0.00     0.031 C 
ATOM     45  C   UNL A   1      43.875  28.803  29.534  1.00  0.00     0.029 A 
ATOM     46  C   UNL A   1      42.999  29.643  30.331  1.00  0.00     0.049 A 
ATOM     47  H   UNL A   1      41.188  30.438  29.483  1.00  0.00     0.167 HD
ATOM     48  C   UNL A   1      42.645  23.514  28.252  1.00  0.00     0.034 A 
ATOM     49  C   UNL A   1      43.018  29.741  31.695  1.00  0.00     0.034 A 
ATOM     50  C   UNL A   1      43.803  24.095  28.963  1.00  0.00     0.049 A 
ATOM     51  C   UNL A   1      43.652  28.537  32.387  1.00  0.00     0.074 A 
ATOM     52  C   UNL A   1      44.964  24.758  28.596  1.00  0.00     0.029 A 
ATOM     53  N   UNL A   1      43.712  24.241  30.338  1.00  0.00    -0.354 N 
ATOM     54  N   UNL A   1      44.207  27.524  31.776  1.00  0.00    -0.248 NA
ATOM     55  C   UNL A   1      43.612  28.342  33.837  1.00  0.00     0.031 C 
ATOM     56  C   UNL A   1      45.550  25.321  29.775  1.00  0.00     0.029 A 
ATOM     57  C   UNL A   1      44.762  24.974  30.859  1.00  0.00     0.049 A 
ATOM     58  H   UNL A   1      42.982  23.864  30.882  1.00  0.00     0.167 HD
ATOM     59  C   UNL A   1      44.413  26.502  32.672  1.00  0.00     0.074 A 
ATOM     60  C   UNL A   1      44.068  27.084  33.959  1.00  0.00     0.031 C 
ATOM     61  C   UNL A   1      44.765  25.231  32.294  1.00  0.00     0.034 A 
BRANCH  48  62
ATOM     62  C   UNL A   1      42.784  22.352  27.273  1.00  0.00     0.023 A 
ATOM     63  C   UNL A   1      41.926  21.244  27.462  1.00  0.00     0.012 A 
ATOM     64  C   UNL A   1      43.742  22.205  26.239  1.00  0.00     0.148 A 
ATOM     65  C   UNL A   1      42.053  20.052  26.735  1.00  0.00     0.002 A 
ATOM     66  C   UNL A   1      43.882  21.014  25.520  1.00  0.00     0.091 A 
ATOM     67  F   UNL A   1      44.539  23.215  25.910  1.00  0.00    -0.205 F 
ATOM     68  C   UNL A   1      43.044  19.929  25.773  1.00  0.00     0.022 A 
BRANCH  66  69
ATOM     69  S   UNL A   1      45.168  20.780  24.274  1.00  0.00     0.127 S 
ATOM     70  O   UNL A   1      44.667  19.618  23.537  1.00  0.00    -0.237 OA
ATOM     71  O   UNL A   1      45.119  22.038  23.533  1.00  0.00    -0.237 OA
ATOM     72  O   UNL A   1      46.412  20.541  24.996  1.00  0.00    -0.744 OA
ENDBRANCH  66  69
ENDBRANCH  48  62
BRANCH  49  73
ATOM     73  C   UNL A   1      41.877  30.546  32.237  1.00  0.00     0.023 A 
ATOM     74  C   UNL A   1      41.806  31.907  31.845  1.00  0.00     0.012 A 
ATOM     75  C   UNL A   1      40.722  29.936  32.757  1.00  0.00     0.148 A 
ATOM     76  C   UNL A   1      40.585  32.585  31.822  1.00  0.00     0.002 A 
ATOM     77  C   UNL A   1      39.514  30.629  32.757  1.00  0.00     0.091 A 
ATOM     78  F   UNL A   1      40.793  28.666  33.173  1.00  0.00    -0.205 F 
ATOM     79  C   UNL A   1      39.433  31.934  32.245  1.00  0.00     0.022 A 
BRANCH  77  80
ATOM     80  S   UNL A   1      37.995  29.838  33.305  1.00  0.00     0.127 S 
ATOM     81  O   UNL A   1      38.237  28.451  32.922  1.00  0.00    -0.237 OA
ATOM     82  O   UNL A   1      38.006  30.091  34.745  1.00  0.00    -0.237 OA
ATOM     83  O   UNL A   1      36.939  30.537  32.588  1.00  0.00    -0.744 OA
ENDBRANCH  77  80
ENDBRANCH  49  73
BRANCH  61  84
ATOM     84  C   UNL A   1      45.061  24.095  33.268  1.00  0.00     0.023 A 
ATOM     85  C   UNL A   1      44.035  23.244  33.726  1.00  0.00     0.012 A 
ATOM     86  C   UNL A   1      46.344  23.903  33.855  1.00  0.00     0.148 A 
ATOM     87  C   UNL A   1      44.281  22.198  34.624  1.00  0.00     0.002 A 
ATOM     88  C   UNL A   1      46.574  22.899  34.791  1.00  0.00     0.091 A 
ATOM     89  F   UNL A   1      47.360  24.700  33.517  1.00  0.00    -0.205 F 
ATOM     90  C   UNL A   1      45.552  22.023  35.154  1.00  0.00     0.022 A 
BRANCH  88  91
ATOM     91  S   UNL A   1      48.155  22.699  35.633  1.00  0.00     0.127 S 
ATOM     92  O   UNL A   1      49.038  22.352  34.518  1.00  0.00    -0.237 OA
ATOM     93  O   UNL A   1      48.370  24.034  36.187  1.00  0.00    -0.237 OA
ATOM     94  O   UNL A   1      47.967  21.644  36.618  1.00  0.00    -0.744 OA
ENDBRANCH  88  91
ENDBRANCH  61  84
ENDBRANCH  35  36
ENDBRANCH  27  30
ENDBRANCH  25  26
ENDBRANCH   1  25
TORSDOF 16
ENDMDL
