MODEL 1
REMARK VINA RESULT:     -11.7      0.000      0.000
REMARK SMILES O=C(NCCCNC(=O)c1cc2n[nH]cc2cc1[N+](=O)[O-])c1ccc(-c2c3nc(c(-c4cccc(S(=O)(=O)[O-])c4F)c4ccc([nH]4)c(-c4cccc(S(=O)(=O)[O-])c4F)c4nc(c(-c5cccc(S(=O)(=O)[O-])c5F)c5ccc2[nH]5)C=C4)C=C3)cc1
REMARK SMILES IDX 4 1 3 2 1 3 2 4 22 6 23 7 84 8 24 9 83 10 25 11 26 12 27 13
REMARK SMILES IDX 77 14 28 15 82 16 76 17 78 18 29 19 81 20 75 21 74 22 30 24
REMARK SMILES IDX 62 25 42 26 61 27 43 28 46 29 60 30 79 31 44 32 45 33 59 35
REMARK SMILES IDX 80 36 47 37 31 38 32 39 40 40 33 41 35 42 41 43 34 44 36 45
REMARK SMILES IDX 37 46 38 47 39 48 63 49 64 50 72 51 65 52 67 53 73 54 66 55
REMARK SMILES IDX 68 56 69 57 70 58 71 59 48 60 49 61 57 62 50 63 52 64 58 65
REMARK SMILES IDX 51 66 53 67 54 68 55 69 56 70 5 71 6 72 7 73 8 74 9 76 10 77
REMARK SMILES IDX 11 78 18 79 12 80 17 81 13 82 16 83 14 84 15 85 19 87 20 88
REMARK SMILES IDX 21 89
REMARK H PARENT 3 5 78 23 46 34 7 75 14 86
REMARK Flexibility Score: inf
ROOT
ATOM      1  C   UNL A   1      32.711  32.796  26.976  1.00  0.00     0.118 C 
ENDROOT
BRANCH   1   2
ATOM      2  N   UNL A   1      32.531  34.086  27.625  1.00  0.00    -0.352 N 
ATOM      3  O   UNL A   1      32.730  35.671  29.206  1.00  0.00    -0.269 OA
ATOM      4  C   UNL A   1      33.161  34.628  28.721  1.00  0.00     0.251 C 
ATOM      5  H   UNL A   1      31.850  34.664  27.213  1.00  0.00     0.163 HD
BRANCH   4   6
ATOM      6  C   UNL A   1      34.325  33.950  29.331  1.00  0.00     0.039 A 
ATOM      7  C   UNL A   1      34.154  32.923  30.263  1.00  0.00     0.014 A 
ATOM      8  C   UNL A   1      35.613  34.333  28.945  1.00  0.00     0.014 A 
ATOM      9  C   UNL A   1      35.256  32.400  30.930  1.00  0.00     0.010 A 
ATOM     10  C   UNL A   1      36.724  33.735  29.546  1.00  0.00     0.010 A 
ATOM     11  C   UNL A   1      36.554  32.791  30.571  1.00  0.00    -0.014 A 
BRANCH  11  12
ATOM     12  C   UNL A   1      37.724  32.150  31.221  1.00  0.00     0.031 A 
ATOM     13  C   UNL A   1      38.458  31.018  30.561  1.00  0.00     0.074 A 
ATOM     14  C   UNL A   1      38.098  32.579  32.443  1.00  0.00     0.049 A 
ATOM     15  N   UNL A   1      39.468  30.320  31.012  1.00  0.00    -0.248 NA
ATOM     16  C   UNL A   1      37.992  30.605  29.227  1.00  0.00     0.031 C 
ATOM     17  C   UNL A   1      37.429  33.637  33.204  1.00  0.00     0.029 A 
ATOM     18  N   UNL A   1      39.113  32.166  33.269  1.00  0.00    -0.354 N 
ATOM     19  C   UNL A   1      39.729  29.356  30.046  1.00  0.00     0.074 A 
ATOM     20  C   UNL A   1      38.768  29.557  28.982  1.00  0.00     0.031 C 
ATOM     21  C   UNL A   1      38.044  33.788  34.383  1.00  0.00     0.029 A 
ATOM     22  C   UNL A   1      39.115  32.803  34.488  1.00  0.00     0.049 A 
ATOM     23  H   UNL A   1      39.773  31.481  33.015  1.00  0.00     0.167 HD
ATOM     24  C   UNL A   1      40.689  28.401  30.040  1.00  0.00     0.034 A 
ATOM     25  C   UNL A   1      39.869  32.599  35.584  1.00  0.00     0.034 A 
ATOM     26  C   UNL A   1      41.666  28.236  31.085  1.00  0.00     0.049 A 
ATOM     27  C   UNL A   1      40.946  31.556  35.543  1.00  0.00     0.074 A 
ATOM     28  C   UNL A   1      42.736  27.359  31.130  1.00  0.00     0.029 A 
ATOM     29  N   UNL A   1      41.685  28.951  32.272  1.00  0.00    -0.354 N 
ATOM     30  N   UNL A   1      41.272  30.753  34.560  1.00  0.00    -0.248 NA
ATOM     31  C   UNL A   1      41.778  31.410  36.744  1.00  0.00     0.031 C 
ATOM     32  C   UNL A   1      43.388  27.529  32.357  1.00  0.00     0.029 A 
ATOM     33  C   UNL A   1      42.738  28.526  33.067  1.00  0.00     0.049 A 
ATOM     34  H   UNL A   1      41.044  29.658  32.516  1.00  0.00     0.167 HD
ATOM     35  C   UNL A   1      42.360  30.019  35.014  1.00  0.00     0.074 A 
ATOM     36  C   UNL A   1      42.649  30.488  36.353  1.00  0.00     0.031 C 
ATOM     37  C   UNL A   1      43.044  29.035  34.381  1.00  0.00     0.034 A 
BRANCH  24  38
ATOM     38  C   UNL A   1      40.755  27.478  28.852  1.00  0.00     0.023 A 
ATOM     39  C   UNL A   1      39.813  26.437  28.724  1.00  0.00     0.012 A 
ATOM     40  C   UNL A   1      41.715  27.667  27.838  1.00  0.00     0.148 A 
ATOM     41  C   UNL A   1      39.846  25.579  27.624  1.00  0.00     0.002 A 
ATOM     42  C   UNL A   1      41.717  26.831  26.726  1.00  0.00     0.091 A 
ATOM     43  F   UNL A   1      42.620  28.645  27.985  1.00  0.00    -0.205 F 
ATOM     44  C   UNL A   1      40.790  25.782  26.623  1.00  0.00     0.022 A 
BRANCH  42  45
ATOM     45  S   UNL A   1      42.852  27.069  25.353  1.00  0.00     0.127 S 
ATOM     46  O   UNL A   1      42.702  25.811  24.625  1.00  0.00    -0.237 OA
ATOM     47  O   UNL A   1      42.286  28.236  24.674  1.00  0.00    -0.237 OA
ATOM     48  O   UNL A   1      44.156  27.301  25.958  1.00  0.00    -0.744 OA
ENDBRANCH  42  45
ENDBRANCH  24  38
BRANCH  25  49
ATOM     49  C   UNL A   1      39.627  33.439  36.790  1.00  0.00     0.023 A 
ATOM     50  C   UNL A   1      39.996  34.796  36.778  1.00  0.00     0.012 A 
ATOM     51  C   UNL A   1      38.933  32.920  37.902  1.00  0.00     0.148 A 
ATOM     52  C   UNL A   1      39.684  35.623  37.858  1.00  0.00     0.002 A 
ATOM     53  C   UNL A   1      38.574  33.762  38.946  1.00  0.00     0.091 A 
ATOM     54  F   UNL A   1      38.600  31.622  37.893  1.00  0.00    -0.205 F 
ATOM     55  C   UNL A   1      38.961  35.111  38.933  1.00  0.00     0.022 A 
BRANCH  53  56
ATOM     56  S   UNL A   1      37.511  33.228  40.292  1.00  0.00     0.127 S 
ATOM     57  O   UNL A   1      38.284  32.129  40.864  1.00  0.00    -0.237 OA
ATOM     58  O   UNL A   1      37.445  34.432  41.121  1.00  0.00    -0.237 OA
ATOM     59  O   UNL A   1      36.246  32.857  39.671  1.00  0.00    -0.744 OA
ENDBRANCH  53  56
ENDBRANCH  25  49
BRANCH  37  60
ATOM     60  C   UNL A   1      44.196  28.402  35.114  1.00  0.00     0.023 A 
ATOM     61  C   UNL A   1      45.503  28.879  34.899  1.00  0.00     0.012 A 
ATOM     62  C   UNL A   1      43.970  27.406  36.083  1.00  0.00     0.148 A 
ATOM     63  C   UNL A   1      46.573  28.362  35.628  1.00  0.00     0.002 A 
ATOM     64  C   UNL A   1      45.034  26.925  36.836  1.00  0.00     0.091 A 
ATOM     65  F   UNL A   1      42.719  26.954  36.255  1.00  0.00    -0.205 F 
ATOM     66  C   UNL A   1      46.337  27.396  36.604  1.00  0.00     0.022 A 
BRANCH  64  67
ATOM     67  S   UNL A   1      44.814  25.750  38.177  1.00  0.00     0.127 S 
ATOM     68  O   UNL A   1      44.363  24.560  37.458  1.00  0.00    -0.237 OA
ATOM     69  O   UNL A   1      46.166  25.654  38.729  1.00  0.00    -0.237 OA
ATOM     70  O   UNL A   1      43.835  26.344  39.077  1.00  0.00    -0.744 OA
ENDBRANCH  64  67
ENDBRANCH  37  60
ENDBRANCH  11  12
ENDBRANCH   4   6
ENDBRANCH   1   2
BRANCH   1  71
ATOM     71  C   UNL A   1      31.402  32.046  26.764  1.00  0.00     0.042 C 
BRANCH  71  72
ATOM     72  C   UNL A   1      31.567  30.563  26.473  1.00  0.00     0.118 C 
BRANCH  72  73
ATOM     73  N   UNL A   1      32.457  30.298  25.351  1.00  0.00    -0.352 N 
ATOM     74  C   UNL A   1      32.665  29.154  24.631  1.00  0.00     0.258 C 
ATOM     75  H   UNL A   1      32.996  31.070  25.063  1.00  0.00     0.163 HD
ATOM     76  O   UNL A   1      33.541  29.103  23.774  1.00  0.00    -0.269 OA
BRANCH  74  77
ATOM     77  C   UNL A   1      31.876  27.943  24.914  1.00  0.00     0.119 A 
ATOM     78  C   UNL A   1      32.443  27.066  25.873  1.00  0.00     0.052 A 
ATOM     79  C   UNL A   1      30.634  27.670  24.248  1.00  0.00     0.282 A 
ATOM     80  C   UNL A   1      31.653  25.940  26.141  1.00  0.00     0.093 A 
ATOM     81  C   UNL A   1      29.798  26.559  24.519  1.00  0.00     0.098 A 
ATOM     82  N   UNL A   1      31.868  24.913  26.977  1.00  0.00    -0.176 NA
ATOM     83  C   UNL A   1      30.387  25.745  25.477  1.00  0.00     0.026 A 
ATOM     84  N   UNL A   1      30.784  24.124  26.849  1.00  0.00    -0.285 N 
ATOM     85  C   UNL A   1      29.857  24.582  25.957  1.00  0.00     0.114 A 
ATOM     86  H   UNL A   1      30.669  23.288  27.356  1.00  0.00     0.189 HD
BRANCH  79  87
ATOM     87  N   UNL A   1      30.186  28.557  23.186  1.00  0.00     0.063 N 
ATOM     88  O   UNL A   1      29.705  29.642  23.536  1.00  0.00    -0.258 OA
ATOM     89  O   UNL A   1      30.277  28.150  22.023  1.00  0.00    -0.258 OA
ENDBRANCH  79  87
ENDBRANCH  74  77
ENDBRANCH  72  73
ENDBRANCH  71  72
ENDBRANCH   1  71
TORSDOF 14
ENDMDL
MODEL 2
REMARK VINA RESULT:     -11.6      3.593      8.879
REMARK SMILES O=C(NCCCNC(=O)c1cc2n[nH]cc2cc1[N+](=O)[O-])c1ccc(-c2c3nc(c(-c4cccc(S(=O)(=O)[O-])c4F)c4ccc([nH]4)c(-c4cccc(S(=O)(=O)[O-])c4F)c4nc(c(-c5cccc(S(=O)(=O)[O-])c5F)c5ccc2[nH]5)C=C4)C=C3)cc1
REMARK SMILES IDX 4 1 3 2 1 3 2 4 22 6 23 7 84 8 24 9 83 10 25 11 26 12 27 13
REMARK SMILES IDX 77 14 28 15 82 16 76 17 78 18 29 19 81 20 75 21 74 22 30 24
REMARK SMILES IDX 62 25 42 26 61 27 43 28 46 29 60 30 79 31 44 32 45 33 59 35
REMARK SMILES IDX 80 36 47 37 31 38 32 39 40 40 33 41 35 42 41 43 34 44 36 45
REMARK SMILES IDX 37 46 38 47 39 48 63 49 64 50 72 51 65 52 67 53 73 54 66 55
REMARK SMILES IDX 68 56 69 57 70 58 71 59 48 60 49 61 57 62 50 63 52 64 58 65
REMARK SMILES IDX 51 66 53 67 54 68 55 69 56 70 5 71 6 72 7 73 8 74 9 76 10 77
REMARK SMILES IDX 11 78 18 79 12 80 17 81 13 82 16 83 14 84 15 85 19 87 20 88
REMARK SMILES IDX 21 89
REMARK H PARENT 3 5 78 23 46 34 7 75 14 86
REMARK Flexibility Score: inf
ROOT
ATOM      1  C   UNL A   1      34.053  28.939  25.987  1.00  0.00     0.118 C 
ENDROOT
BRANCH   1   2
ATOM      2  N   UNL A   1      33.754  30.242  26.562  1.00  0.00    -0.352 N 
ATOM      3  O   UNL A   1      33.860  31.956  28.012  1.00  0.00    -0.269 OA
ATOM      4  C   UNL A   1      34.387  30.942  27.562  1.00  0.00     0.251 C 
ATOM      5  H   UNL A   1      32.973  30.696  26.172  1.00  0.00     0.163 HD
BRANCH   4   6
ATOM      6  C   UNL A   1      35.673  30.465  28.115  1.00  0.00     0.039 A 
ATOM      7  C   UNL A   1      36.886  30.801  27.510  1.00  0.00     0.014 A 
ATOM      8  C   UNL A   1      35.666  29.685  29.275  1.00  0.00     0.014 A 
ATOM      9  C   UNL A   1      38.070  30.225  27.959  1.00  0.00     0.010 A 
ATOM     10  C   UNL A   1      36.869  29.187  29.784  1.00  0.00     0.010 A 
ATOM     11  C   UNL A   1      38.076  29.422  29.108  1.00  0.00    -0.014 A 
BRANCH  11  12
ATOM     12  C   UNL A   1      39.361  28.897  29.634  1.00  0.00     0.031 A 
ATOM     13  C   UNL A   1      40.073  29.576  30.769  1.00  0.00     0.074 A 
ATOM     14  C   UNL A   1      39.903  27.812  29.047  1.00  0.00     0.049 A 
ATOM     15  N   UNL A   1      41.222  29.274  31.316  1.00  0.00    -0.248 NA
ATOM     16  C   UNL A   1      39.420  30.755  31.360  1.00  0.00     0.031 C 
ATOM     17  C   UNL A   1      39.327  27.099  27.904  1.00  0.00     0.029 A 
ATOM     18  N   UNL A   1      41.066  27.133  29.310  1.00  0.00    -0.354 N 
ATOM     19  C   UNL A   1      41.456  30.248  32.279  1.00  0.00     0.074 A 
ATOM     20  C   UNL A   1      40.328  31.155  32.241  1.00  0.00     0.031 C 
ATOM     21  C   UNL A   1      40.137  26.089  27.562  1.00  0.00     0.029 A 
ATOM     22  C   UNL A   1      41.315  26.114  28.421  1.00  0.00     0.049 A 
ATOM     23  H   UNL A   1      41.663  27.355  30.061  1.00  0.00     0.167 HD
ATOM     24  C   UNL A   1      42.506  30.368  33.125  1.00  0.00     0.034 A 
ATOM     25  C   UNL A   1      42.385  25.308  28.285  1.00  0.00     0.034 A 
ATOM     26  C   UNL A   1      43.603  29.437  33.183  1.00  0.00     0.049 A 
ATOM     27  C   UNL A   1      43.522  25.440  29.253  1.00  0.00     0.074 A 
ATOM     28  C   UNL A   1      44.669  29.418  34.065  1.00  0.00     0.029 A 
ATOM     29  N   UNL A   1      43.784  28.371  32.315  1.00  0.00    -0.354 N 
ATOM     30  N   UNL A   1      43.655  26.277  30.253  1.00  0.00    -0.248 NA
ATOM     31  C   UNL A   1      44.641  24.503  29.098  1.00  0.00     0.031 C 
ATOM     32  C   UNL A   1      45.506  28.352  33.716  1.00  0.00     0.029 A 
ATOM     33  C   UNL A   1      44.952  27.695  32.629  1.00  0.00     0.049 A 
ATOM     34  H   UNL A   1      43.172  28.128  31.582  1.00  0.00     0.167 HD
ATOM     35  C   UNL A   1      44.862  25.956  30.861  1.00  0.00     0.074 A 
ATOM     36  C   UNL A   1      45.411  24.833  30.128  1.00  0.00     0.031 C 
ATOM     37  C   UNL A   1      45.464  26.549  31.920  1.00  0.00     0.034 A 
BRANCH  24  38
ATOM     38  C   UNL A   1      42.507  31.529  34.084  1.00  0.00     0.023 A 
ATOM     39  C   UNL A   1      43.167  32.724  33.733  1.00  0.00     0.012 A 
ATOM     40  C   UNL A   1      41.817  31.458  35.310  1.00  0.00     0.148 A 
ATOM     41  C   UNL A   1      43.168  33.818  34.599  1.00  0.00     0.002 A 
ATOM     42  C   UNL A   1      41.790  32.566  36.152  1.00  0.00     0.091 A 
ATOM     43  F   UNL A   1      41.215  30.308  35.643  1.00  0.00    -0.205 F 
ATOM     44  C   UNL A   1      42.473  33.742  35.802  1.00  0.00     0.022 A 
BRANCH  42  45
ATOM     45  S   UNL A   1      40.857  32.578  37.687  1.00  0.00     0.127 S 
ATOM     46  O   UNL A   1      41.742  31.830  38.577  1.00  0.00    -0.237 OA
ATOM     47  O   UNL A   1      40.761  34.008  37.986  1.00  0.00    -0.237 OA
ATOM     48  O   UNL A   1      39.583  31.944  37.377  1.00  0.00    -0.744 OA
ENDBRANCH  42  45
ENDBRANCH  24  38
BRANCH  25  49
ATOM     49  C   UNL A   1      42.387  24.294  27.196  1.00  0.00     0.023 A 
ATOM     50  C   UNL A   1      43.313  24.404  26.143  1.00  0.00     0.012 A 
ATOM     51  C   UNL A   1      41.546  23.164  27.261  1.00  0.00     0.148 A 
ATOM     52  C   UNL A   1      43.399  23.409  25.169  1.00  0.00     0.002 A 
ATOM     53  C   UNL A   1      41.678  22.150  26.322  1.00  0.00     0.091 A 
ATOM     54  F   UNL A   1      40.665  23.086  28.269  1.00  0.00    -0.205 F 
ATOM     55  C   UNL A   1      42.595  22.276  25.267  1.00  0.00     0.022 A 
BRANCH  53  56
ATOM     56  S   UNL A   1      40.797  20.590  26.459  1.00  0.00     0.127 S 
ATOM     57  O   UNL A   1      41.577  19.728  25.577  1.00  0.00    -0.237 OA
ATOM     58  O   UNL A   1      40.928  20.294  27.887  1.00  0.00    -0.237 OA
ATOM     59  O   UNL A   1      39.433  20.869  26.028  1.00  0.00    -0.744 OA
ENDBRANCH  53  56
ENDBRANCH  25  49
BRANCH  37  60
ATOM     60  C   UNL A   1      46.784  25.988  32.377  1.00  0.00     0.023 A 
ATOM     61  C   UNL A   1      47.982  26.533  31.875  1.00  0.00     0.012 A 
ATOM     62  C   UNL A   1      46.836  24.993  33.371  1.00  0.00     0.148 A 
ATOM     63  C   UNL A   1      49.215  26.083  32.345  1.00  0.00     0.002 A 
ATOM     64  C   UNL A   1      48.066  24.580  33.867  1.00  0.00     0.091 A 
ATOM     65  F   UNL A   1      45.682  24.477  33.819  1.00  0.00    -0.205 F 
ATOM     66  C   UNL A   1      49.257  25.118  33.350  1.00  0.00     0.022 A 
BRANCH  64  67
ATOM     67  S   UNL A   1      48.217  23.410  35.223  1.00  0.00     0.127 S 
ATOM     68  O   UNL A   1      47.691  22.187  34.620  1.00  0.00    -0.237 OA
ATOM     69  O   UNL A   1      49.660  23.400  35.463  1.00  0.00    -0.237 OA
ATOM     70  O   UNL A   1      47.426  23.958  36.316  1.00  0.00    -0.744 OA
ENDBRANCH  64  67
ENDBRANCH  37  60
ENDBRANCH  11  12
ENDBRANCH   4   6
ENDBRANCH   1   2
BRANCH   1  71
ATOM     71  C   UNL A   1      33.279  27.803  26.644  1.00  0.00     0.042 C 
BRANCH  71  72
ATOM     72  C   UNL A   1      32.343  27.056  25.708  1.00  0.00     0.118 C 
BRANCH  72  73
ATOM     73  N   UNL A   1      31.770  25.861  26.312  1.00  0.00    -0.352 N 
ATOM     74  C   UNL A   1      32.135  24.547  26.205  1.00  0.00     0.258 C 
ATOM     75  H   UNL A   1      30.992  26.026  26.892  1.00  0.00     0.163 HD
ATOM     76  O   UNL A   1      31.457  23.664  26.719  1.00  0.00    -0.269 OA
BRANCH  74  77
ATOM     77  C   UNL A   1      33.322  24.167  25.421  1.00  0.00     0.119 A 
ATOM     78  C   UNL A   1      34.542  24.155  26.144  1.00  0.00     0.052 A 
ATOM     79  C   UNL A   1      33.243  23.852  24.023  1.00  0.00     0.282 A 
ATOM     80  C   UNL A   1      35.646  23.759  25.376  1.00  0.00     0.093 A 
ATOM     81  C   UNL A   1      34.333  23.419  23.228  1.00  0.00     0.098 A 
ATOM     82  N   UNL A   1      36.937  23.635  25.720  1.00  0.00    -0.176 NA
ATOM     83  C   UNL A   1      35.496  23.404  23.986  1.00  0.00     0.026 A 
ATOM     84  N   UNL A   1      37.557  23.211  24.603  1.00  0.00    -0.285 N 
ATOM     85  C   UNL A   1      36.732  23.052  23.526  1.00  0.00     0.114 A 
ATOM     86  H   UNL A   1      38.524  23.030  24.565  1.00  0.00     0.189 HD
BRANCH  79  87
ATOM     87  N   UNL A   1      31.975  24.011  23.328  1.00  0.00     0.063 N 
ATOM     88  O   UNL A   1      31.257  23.006  23.249  1.00  0.00    -0.258 OA
ATOM     89  O   UNL A   1      31.728  25.115  22.833  1.00  0.00    -0.258 OA
ENDBRANCH  79  87
ENDBRANCH  74  77
ENDBRANCH  72  73
ENDBRANCH  71  72
ENDBRANCH   1  71
TORSDOF 14
ENDMDL
MODEL 3
REMARK VINA RESULT:     -11.6      6.682     11.800
REMARK SMILES O=C(NCCCNC(=O)c1cc2n[nH]cc2cc1[N+](=O)[O-])c1ccc(-c2c3nc(c(-c4cccc(S(=O)(=O)[O-])c4F)c4ccc([nH]4)c(-c4cccc(S(=O)(=O)[O-])c4F)c4nc(c(-c5cccc(S(=O)(=O)[O-])c5F)c5ccc2[nH]5)C=C4)C=C3)cc1
REMARK SMILES IDX 4 1 3 2 1 3 2 4 22 6 23 7 84 8 24 9 83 10 25 11 26 12 27 13
REMARK SMILES IDX 77 14 28 15 82 16 76 17 78 18 29 19 81 20 75 21 74 22 30 24
REMARK SMILES IDX 62 25 42 26 61 27 43 28 46 29 60 30 79 31 44 32 45 33 59 35
REMARK SMILES IDX 80 36 47 37 31 38 32 39 40 40 33 41 35 42 41 43 34 44 36 45
REMARK SMILES IDX 37 46 38 47 39 48 63 49 64 50 72 51 65 52 67 53 73 54 66 55
REMARK SMILES IDX 68 56 69 57 70 58 71 59 48 60 49 61 57 62 50 63 52 64 58 65
REMARK SMILES IDX 51 66 53 67 54 68 55 69 56 70 5 71 6 72 7 73 8 74 9 76 10 77
REMARK SMILES IDX 11 78 18 79 12 80 17 81 13 82 16 83 14 84 15 85 19 87 20 88
REMARK SMILES IDX 21 89
REMARK H PARENT 3 5 78 23 46 34 7 75 14 86
REMARK Flexibility Score: inf
ROOT
ATOM      1  C   UNL A   1      39.044  20.099  26.096  1.00  0.00     0.118 C 
ENDROOT
BRANCH   1   2
ATOM      2  N   UNL A   1      40.215  19.241  25.993  1.00  0.00    -0.352 N 
ATOM      3  O   UNL A   1      42.380  18.687  25.748  1.00  0.00    -0.269 OA
ATOM      4  C   UNL A   1      41.554  19.552  26.027  1.00  0.00     0.251 C 
ATOM      5  H   UNL A   1      40.017  18.284  25.882  1.00  0.00     0.163 HD
BRANCH   4   6
ATOM      6  C   UNL A   1      41.999  20.922  26.366  1.00  0.00     0.039 A 
ATOM      7  C   UNL A   1      42.270  21.286  27.688  1.00  0.00     0.014 A 
ATOM      8  C   UNL A   1      42.169  21.854  25.339  1.00  0.00     0.014 A 
ATOM      9  C   UNL A   1      42.545  22.612  28.001  1.00  0.00     0.010 A 
ATOM     10  C   UNL A   1      42.544  23.165  25.646  1.00  0.00     0.010 A 
ATOM     11  C   UNL A   1      42.697  23.564  26.983  1.00  0.00    -0.014 A 
BRANCH  11  12
ATOM     12  C   UNL A   1      43.090  24.954  27.325  1.00  0.00     0.031 A 
ATOM     13  C   UNL A   1      42.120  25.901  27.971  1.00  0.00     0.074 A 
ATOM     14  C   UNL A   1      44.333  25.368  27.010  1.00  0.00     0.049 A 
ATOM     15  N   UNL A   1      42.289  27.157  28.293  1.00  0.00    -0.248 NA
ATOM     16  C   UNL A   1      40.781  25.377  28.286  1.00  0.00     0.031 C 
ATOM     17  C   UNL A   1      45.345  24.552  26.335  1.00  0.00     0.029 A 
ATOM     18  N   UNL A   1      44.950  26.580  27.191  1.00  0.00    -0.354 N 
ATOM     19  C   UNL A   1      41.070  27.590  28.801  1.00  0.00     0.074 A 
ATOM     20  C   UNL A   1      40.167  26.460  28.743  1.00  0.00     0.031 C 
ATOM     21  C   UNL A   1      46.452  25.284  26.155  1.00  0.00     0.029 A 
ATOM     22  C   UNL A   1      46.213  26.635  26.649  1.00  0.00     0.049 A 
ATOM     23  H   UNL A   1      44.530  27.336  27.662  1.00  0.00     0.167 HD
ATOM     24  C   UNL A   1      40.740  28.811  29.284  1.00  0.00     0.034 A 
ATOM     25  C   UNL A   1      47.074  27.662  26.528  1.00  0.00     0.034 A 
ATOM     26  C   UNL A   1      41.657  29.916  29.375  1.00  0.00     0.049 A 
ATOM     27  C   UNL A   1      46.697  28.998  27.097  1.00  0.00     0.074 A 
ATOM     28  C   UNL A   1      41.447  31.165  29.932  1.00  0.00     0.029 A 
ATOM     29  N   UNL A   1      42.954  29.912  28.884  1.00  0.00    -0.354 N 
ATOM     30  N   UNL A   1      45.591  29.346  27.709  1.00  0.00    -0.248 NA
ATOM     31  C   UNL A   1      47.691  30.072  26.991  1.00  0.00     0.031 C 
ATOM     32  C   UNL A   1      42.610  31.924  29.757  1.00  0.00     0.029 A 
ATOM     33  C   UNL A   1      43.553  31.140  29.110  1.00  0.00     0.049 A 
ATOM     34  H   UNL A   1      43.388  29.147  28.440  1.00  0.00     0.167 HD
ATOM     35  C   UNL A   1      45.762  30.673  28.078  1.00  0.00     0.074 A 
ATOM     36  C   UNL A   1      47.087  31.060  27.640  1.00  0.00     0.031 C 
ATOM     37  C   UNL A   1      44.891  31.498  28.710  1.00  0.00     0.034 A 
BRANCH  24  38
ATOM     38  C   UNL A   1      39.333  29.012  29.784  1.00  0.00     0.023 A 
ATOM     39  C   UNL A   1      38.994  28.611  31.092  1.00  0.00     0.012 A 
ATOM     40  C   UNL A   1      38.360  29.639  28.981  1.00  0.00     0.148 A 
ATOM     41  C   UNL A   1      37.701  28.801  31.582  1.00  0.00     0.002 A 
ATOM     42  C   UNL A   1      37.084  29.859  29.490  1.00  0.00     0.091 A 
ATOM     43  F   UNL A   1      38.689  29.993  27.731  1.00  0.00    -0.205 F 
ATOM     44  C   UNL A   1      36.751  29.432  30.785  1.00  0.00     0.022 A 
BRANCH  42  45
ATOM     45  S   UNL A   1      35.820  30.733  28.558  1.00  0.00     0.127 S 
ATOM     46  O   UNL A   1      34.931  31.192  29.624  1.00  0.00    -0.237 OA
ATOM     47  O   UNL A   1      36.587  31.796  27.907  1.00  0.00    -0.237 OA
ATOM     48  O   UNL A   1      35.259  29.750  27.641  1.00  0.00    -0.744 OA
ENDBRANCH  42  45
ENDBRANCH  24  38
BRANCH  25  49
ATOM     49  C   UNL A   1      48.384  27.428  25.861  1.00  0.00     0.023 A 
ATOM     50  C   UNL A   1      49.467  26.930  26.608  1.00  0.00     0.012 A 
ATOM     51  C   UNL A   1      48.523  27.595  24.468  1.00  0.00     0.148 A 
ATOM     52  C   UNL A   1      50.670  26.608  25.981  1.00  0.00     0.002 A 
ATOM     53  C   UNL A   1      49.704  27.217  23.842  1.00  0.00     0.091 A 
ATOM     54  F   UNL A   1      47.481  28.080  23.780  1.00  0.00    -0.205 F 
ATOM     55  C   UNL A   1      50.784  26.735  24.598  1.00  0.00     0.022 A 
BRANCH  53  56
ATOM     56  S   UNL A   1      49.882  27.199  22.055  1.00  0.00     0.127 S 
ATOM     57  O   UNL A   1      49.671  28.604  21.720  1.00  0.00    -0.237 OA
ATOM     58  O   UNL A   1      51.258  26.726  21.893  1.00  0.00    -0.237 OA
ATOM     59  O   UNL A   1      48.869  26.273  21.567  1.00  0.00    -0.744 OA
ENDBRANCH  53  56
ENDBRANCH  25  49
BRANCH  37  60
ATOM     60  C   UNL A   1      45.342  32.906  28.992  1.00  0.00     0.023 A 
ATOM     61  C   UNL A   1      46.042  33.187  30.182  1.00  0.00     0.012 A 
ATOM     62  C   UNL A   1      45.160  33.923  28.037  1.00  0.00     0.148 A 
ATOM     63  C   UNL A   1      46.538  34.466  30.425  1.00  0.00     0.002 A 
ATOM     64  C   UNL A   1      45.695  35.185  28.265  1.00  0.00     0.091 A 
ATOM     65  F   UNL A   1      44.474  33.636  26.921  1.00  0.00    -0.205 F 
ATOM     66  C   UNL A   1      46.377  35.461  29.462  1.00  0.00     0.022 A 
BRANCH  64  67
ATOM     67  S   UNL A   1      45.618  36.501  27.045  1.00  0.00     0.127 S 
ATOM     68  O   UNL A   1      46.290  35.887  25.901  1.00  0.00    -0.237 OA
ATOM     69  O   UNL A   1      44.176  36.685  26.879  1.00  0.00    -0.237 OA
ATOM     70  O   UNL A   1      46.308  37.640  27.636  1.00  0.00    -0.744 OA
ENDBRANCH  64  67
ENDBRANCH  37  60
ENDBRANCH  11  12
ENDBRANCH   4   6
ENDBRANCH   1   2
BRANCH   1  71
ATOM     71  C   UNL A   1      38.091  19.953  24.917  1.00  0.00     0.042 C 
BRANCH  71  72
ATOM     72  C   UNL A   1      37.035  21.043  24.823  1.00  0.00     0.118 C 
BRANCH  72  73
ATOM     73  N   UNL A   1      36.208  21.139  26.018  1.00  0.00    -0.352 N 
ATOM     74  C   UNL A   1      35.006  21.759  26.221  1.00  0.00     0.258 C 
ATOM     75  H   UNL A   1      36.574  20.681  26.809  1.00  0.00     0.163 HD
ATOM     76  O   UNL A   1      34.509  21.812  27.341  1.00  0.00    -0.269 OA
BRANCH  74  77
ATOM     77  C   UNL A   1      34.315  22.425  25.104  1.00  0.00     0.119 A 
ATOM     78  C   UNL A   1      34.612  23.804  24.950  1.00  0.00     0.052 A 
ATOM     79  C   UNL A   1      33.395  21.727  24.252  1.00  0.00     0.282 A 
ATOM     80  C   UNL A   1      33.961  24.400  23.860  1.00  0.00     0.093 A 
ATOM     81  C   UNL A   1      32.748  22.292  23.125  1.00  0.00     0.098 A 
ATOM     82  N   UNL A   1      34.003  25.666  23.417  1.00  0.00    -0.176 NA
ATOM     83  C   UNL A   1      33.087  23.633  23.006  1.00  0.00     0.026 A 
ATOM     84  N   UNL A   1      33.203  25.683  22.334  1.00  0.00    -0.285 N 
ATOM     85  C   UNL A   1      32.627  24.480  22.039  1.00  0.00     0.114 A 
ATOM     86  H   UNL A   1      33.047  26.494  21.798  1.00  0.00     0.189 HD
BRANCH  79  87
ATOM     87  N   UNL A   1      33.050  20.348  24.556  1.00  0.00     0.063 N 
ATOM     88  O   UNL A   1      31.939  20.154  25.067  1.00  0.00    -0.258 OA
ATOM     89  O   UNL A   1      33.899  19.481  24.324  1.00  0.00    -0.258 OA
ENDBRANCH  79  87
ENDBRANCH  74  77
ENDBRANCH  72  73
ENDBRANCH  71  72
ENDBRANCH   1  71
TORSDOF 14
ENDMDL
