MODEL 1
REMARK VINA RESULT:     -12.4      0.000      0.000
REMARK SMILES Cc1cc(O[C@@H]2C[C@H](C)C[C@H](C)C2)cc(C(=O)NCCCNC(=O)c2ccc(-c3c4nc(c(-c5cccc(S(=O)(=O)[O-])c5F)c5ccc([nH]5)c(-c5cccc(S(=O)(=O)[O-])c5F)c5nc(c(-c6cccc(S(=O)(=O)[O-])c6F)c6ccc3[nH]6)C=C5)C=C4)cc2)c1N
REMARK SMILES IDX 20 1 19 2 18 3 16 4 17 5 15 7 1 8 2 9 3 10 88 11 4 12 14 13
REMARK SMILES IDX 89 14 5 17 6 18 13 19 7 20 11 21 8 22 12 23 10 24 9 25 21 26
REMARK SMILES IDX 22 27 23 28 24 30 25 31 26 32 87 33 27 34 86 35 28 36 29 37
REMARK SMILES IDX 30 38 80 39 31 40 85 41 79 42 81 43 32 44 84 45 78 46 77 47
REMARK SMILES IDX 33 49 65 50 45 51 64 52 46 53 49 54 63 55 82 56 47 57 48 58
REMARK SMILES IDX 62 60 83 61 50 62 34 63 35 64 43 65 36 66 38 67 44 68 37 69
REMARK SMILES IDX 39 70 40 71 41 72 42 73 66 74 67 75 75 76 68 77 70 78 76 79
REMARK SMILES IDX 69 80 71 81 72 82 73 83 74 84 51 85 52 86 60 87 53 88 55 89
REMARK SMILES IDX 61 90 54 91 56 92 57 93 58 94 59 95
REMARK H PARENT 18 6 89 15 89 16 22 29 81 48 49 59
REMARK Flexibility Score: inf
ROOT
ATOM      1  C   UNL A   1      31.627  31.916  26.844  1.00  0.00     0.042 C 
ENDROOT
BRANCH   1   2
ATOM      2  C   UNL A   1      31.839  30.444  26.514  1.00  0.00     0.118 C 
BRANCH   2   3
ATOM      3  N   UNL A   1      33.196  30.061  26.844  1.00  0.00    -0.352 N 
ATOM      4  C   UNL A   1      33.963  28.957  26.606  1.00  0.00     0.253 C 
ATOM      5  O   UNL A   1      35.093  28.999  27.105  1.00  0.00    -0.269 OA
ATOM      6  H   UNL A   1      33.673  30.755  27.355  1.00  0.00     0.163 HD
BRANCH   4   7
ATOM      7  C   UNL A   1      33.554  27.805  25.735  1.00  0.00     0.066 A 
ATOM      8  C   UNL A   1      33.370  26.936  22.024  1.00  0.00     0.047 C 
ATOM      9  C   UNL A   1      33.070  26.964  23.503  1.00  0.00    -0.024 A 
ATOM     10  C   UNL A   1      32.440  25.853  24.076  1.00  0.00     0.052 A 
ATOM     11  C   UNL A   1      33.592  27.980  24.327  1.00  0.00     0.048 A 
ATOM     12  C   UNL A   1      32.773  25.524  25.377  1.00  0.00     0.120 A 
ATOM     13  C   UNL A   1      33.242  26.528  26.228  1.00  0.00     0.062 A 
BRANCH  11  14
ATOM     14  N   UNL A   1      34.313  29.022  23.741  1.00  0.00    -0.398 N 
ATOM     15  H   UNL A   1      33.989  29.949  23.816  1.00  0.00     0.156 HD
ATOM     16  H   UNL A   1      35.147  28.830  23.253  1.00  0.00     0.156 HD
ENDBRANCH  11  14
BRANCH  12  17
ATOM     17  O   UNL A   1      32.847  24.232  25.843  1.00  0.00    -0.490 OA
BRANCH  17  18
ATOM     18  C   UNL A   1      34.116  23.716  26.357  1.00  0.00     0.173 C 
ATOM     19  C   UNL A   1      34.203  22.245  26.750  1.00  0.00     0.048 C 
ATOM     20  C   UNL A   1      35.270  24.000  25.333  1.00  0.00     0.048 C 
ATOM     21  C   UNL A   1      34.269  21.297  25.551  1.00  0.00    -0.010 C 
ATOM     22  C   UNL A   1      36.169  22.796  24.822  1.00  0.00    -0.010 C 
ATOM     23  C   UNL A   1      33.409  21.572  24.312  1.00  0.00     0.008 C 
ATOM     24  C   UNL A   1      35.725  21.352  25.151  1.00  0.00     0.007 C 
ATOM     25  C   UNL A   1      36.455  22.903  23.315  1.00  0.00     0.008 C 
ENDBRANCH  17  18
ENDBRANCH  12  17
ENDBRANCH   4   7
ENDBRANCH   2   3
ENDBRANCH   1   2
BRANCH   1  26
ATOM     26  C   UNL A   1      32.936  32.610  27.214  1.00  0.00     0.118 C 
BRANCH  26  27
ATOM     27  N   UNL A   1      32.705  33.997  27.615  1.00  0.00    -0.352 N 
ATOM     28  C   UNL A   1      33.142  34.659  28.727  1.00  0.00     0.251 C 
ATOM     29  H   UNL A   1      32.156  34.529  26.996  1.00  0.00     0.163 HD
ATOM     30  O   UNL A   1      32.584  35.704  29.081  1.00  0.00    -0.269 OA
BRANCH  28  31
ATOM     31  C   UNL A   1      34.291  34.134  29.481  1.00  0.00     0.039 A 
ATOM     32  C   UNL A   1      34.074  33.336  30.604  1.00  0.00     0.014 A 
ATOM     33  C   UNL A   1      35.588  34.456  29.074  1.00  0.00     0.014 A 
ATOM     34  C   UNL A   1      35.169  32.818  31.295  1.00  0.00     0.010 A 
ATOM     35  C   UNL A   1      36.671  33.862  29.703  1.00  0.00     0.010 A 
ATOM     36  C   UNL A   1      36.474  33.054  30.830  1.00  0.00    -0.014 A 
BRANCH  36  37
ATOM     37  C   UNL A   1      37.656  32.476  31.508  1.00  0.00     0.031 A 
ATOM     38  C   UNL A   1      38.407  31.343  30.865  1.00  0.00     0.074 A 
ATOM     39  C   UNL A   1      37.981  32.901  32.744  1.00  0.00     0.049 A 
ATOM     40  N   UNL A   1      39.402  30.640  31.338  1.00  0.00    -0.248 NA
ATOM     41  C   UNL A   1      37.957  30.917  29.527  1.00  0.00     0.031 C 
ATOM     42  C   UNL A   1      37.267  33.934  33.499  1.00  0.00     0.029 A 
ATOM     43  N   UNL A   1      38.974  32.493  33.598  1.00  0.00    -0.354 N 
ATOM     44  C   UNL A   1      39.667  29.667  30.382  1.00  0.00     0.074 A 
ATOM     45  C   UNL A   1      38.704  29.843  29.318  1.00  0.00     0.031 C 
ATOM     46  C   UNL A   1      37.848  34.082  34.700  1.00  0.00     0.029 A 
ATOM     47  C   UNL A   1      38.946  33.129  34.817  1.00  0.00     0.049 A 
ATOM     48  H   UNL A   1      39.641  31.809  33.361  1.00  0.00     0.167 HD
ATOM     49  C   UNL A   1      40.642  28.729  30.378  1.00  0.00     0.034 A 
ATOM     50  C   UNL A   1      39.713  32.952  35.909  1.00  0.00     0.034 A 
ATOM     51  C   UNL A   1      41.621  28.596  31.422  1.00  0.00     0.049 A 
ATOM     52  C   UNL A   1      40.819  31.936  35.860  1.00  0.00     0.074 A 
ATOM     53  C   UNL A   1      42.711  27.746  31.472  1.00  0.00     0.029 A 
ATOM     54  N   UNL A   1      41.622  29.323  32.601  1.00  0.00    -0.354 N 
ATOM     55  N   UNL A   1      41.155  31.130  34.882  1.00  0.00    -0.248 NA
ATOM     56  C   UNL A   1      41.676  31.826  37.049  1.00  0.00     0.031 C 
ATOM     57  C   UNL A   1      43.353  27.938  32.700  1.00  0.00     0.029 A 
ATOM     58  C   UNL A   1      42.686  28.935  33.394  1.00  0.00     0.049 A 
ATOM     59  H   UNL A   1      40.963  30.015  32.840  1.00  0.00     0.167 HD
ATOM     60  C   UNL A   1      42.282  30.445  35.322  1.00  0.00     0.074 A 
ATOM     61  C   UNL A   1      42.582  30.945  36.648  1.00  0.00     0.031 C 
ATOM     62  C   UNL A   1      42.997  29.481  34.691  1.00  0.00     0.034 A 
BRANCH  49  63
ATOM     63  C   UNL A   1      40.726  27.806  29.191  1.00  0.00     0.023 A 
ATOM     64  C   UNL A   1      39.887  26.675  29.123  1.00  0.00     0.012 A 
ATOM     65  C   UNL A   1      41.593  28.087  28.119  1.00  0.00     0.148 A 
ATOM     66  C   UNL A   1      39.935  25.819  28.024  1.00  0.00     0.002 A 
ATOM     67  C   UNL A   1      41.600  27.258  27.003  1.00  0.00     0.091 A 
ATOM     68  F   UNL A   1      42.399  29.155  28.210  1.00  0.00    -0.205 F 
ATOM     69  C   UNL A   1      40.782  26.116  26.960  1.00  0.00     0.022 A 
BRANCH  67  70
ATOM     70  S   UNL A   1      42.592  27.598  25.545  1.00  0.00     0.127 S 
ATOM     71  O   UNL A   1      42.313  26.425  24.718  1.00  0.00    -0.237 OA
ATOM     72  O   UNL A   1      42.000  28.844  25.057  1.00  0.00    -0.237 OA
ATOM     73  O   UNL A   1      43.966  27.718  26.011  1.00  0.00    -0.744 OA
ENDBRANCH  67  70
ENDBRANCH  49  63
BRANCH  50  74
ATOM     74  C   UNL A   1      39.493  33.797  37.117  1.00  0.00     0.023 A 
ATOM     75  C   UNL A   1      39.937  35.134  37.117  1.00  0.00     0.012 A 
ATOM     76  C   UNL A   1      38.820  33.297  38.247  1.00  0.00     0.148 A 
ATOM     77  C   UNL A   1      39.746  35.947  38.236  1.00  0.00     0.002 A 
ATOM     78  C   UNL A   1      38.583  34.128  39.337  1.00  0.00     0.091 A 
ATOM     79  F   UNL A   1      38.409  32.021  38.229  1.00  0.00    -0.205 F 
ATOM     80  C   UNL A   1      39.061  35.447  39.340  1.00  0.00     0.022 A 
BRANCH  78  81
ATOM     81  S   UNL A   1      37.596  33.613  40.746  1.00  0.00     0.127 S 
ATOM     82  O   UNL A   1      38.459  32.611  41.366  1.00  0.00    -0.237 OA
ATOM     83  O   UNL A   1      37.466  34.863  41.495  1.00  0.00    -0.237 OA
ATOM     84  O   UNL A   1      36.345  33.114  40.190  1.00  0.00    -0.744 OA
ENDBRANCH  78  81
ENDBRANCH  50  74
BRANCH  62  85
ATOM     85  C   UNL A   1      44.204  28.929  35.402  1.00  0.00     0.023 A 
ATOM     86  C   UNL A   1      45.460  29.545  35.239  1.00  0.00     0.012 A 
ATOM     87  C   UNL A   1      44.071  27.853  36.301  1.00  0.00     0.148 A 
ATOM     88  C   UNL A   1      46.572  29.076  35.936  1.00  0.00     0.002 A 
ATOM     89  C   UNL A   1      45.170  27.427  37.032  1.00  0.00     0.091 A 
ATOM     90  F   UNL A   1      42.868  27.272  36.428  1.00  0.00    -0.205 F 
ATOM     91  C   UNL A   1      46.425  28.028  36.842  1.00  0.00     0.022 A 
BRANCH  89  92
ATOM     92  S   UNL A   1      45.054  26.155  38.295  1.00  0.00     0.127 S 
ATOM     93  O   UNL A   1      46.442  26.054  38.743  1.00  0.00    -0.237 OA
ATOM     94  O   UNL A   1      44.143  26.764  39.264  1.00  0.00    -0.237 OA
ATOM     95  O   UNL A   1      44.528  24.971  37.630  1.00  0.00    -0.744 OA
ENDBRANCH  89  92
ENDBRANCH  62  85
ENDBRANCH  36  37
ENDBRANCH  28  31
ENDBRANCH  26  27
ENDBRANCH   1  26
TORSDOF 16
ENDMDL
MODEL 2
REMARK VINA RESULT:     -12.2      6.396     11.704
REMARK SMILES Cc1cc(O[C@@H]2C[C@H](C)C[C@H](C)C2)cc(C(=O)NCCCNC(=O)c2ccc(-c3c4nc(c(-c5cccc(S(=O)(=O)[O-])c5F)c5ccc([nH]5)c(-c5cccc(S(=O)(=O)[O-])c5F)c5nc(c(-c6cccc(S(=O)(=O)[O-])c6F)c6ccc3[nH]6)C=C5)C=C4)cc2)c1N
REMARK SMILES IDX 20 1 19 2 18 3 16 4 17 5 15 7 1 8 2 9 3 10 88 11 4 12 14 13
REMARK SMILES IDX 89 14 5 17 6 18 13 19 7 20 11 21 8 22 12 23 10 24 9 25 21 26
REMARK SMILES IDX 22 27 23 28 24 30 25 31 26 32 87 33 27 34 86 35 28 36 29 37
REMARK SMILES IDX 30 38 80 39 31 40 85 41 79 42 81 43 32 44 84 45 78 46 77 47
REMARK SMILES IDX 33 49 65 50 45 51 64 52 46 53 49 54 63 55 82 56 47 57 48 58
REMARK SMILES IDX 62 60 83 61 50 62 34 63 35 64 43 65 36 66 38 67 44 68 37 69
REMARK SMILES IDX 39 70 40 71 41 72 42 73 66 74 67 75 75 76 68 77 70 78 76 79
REMARK SMILES IDX 69 80 71 81 72 82 73 83 74 84 51 85 52 86 60 87 53 88 55 89
REMARK SMILES IDX 61 90 54 91 56 92 57 93 58 94 59 95
REMARK H PARENT 18 6 89 15 89 16 22 29 81 48 49 59
REMARK Flexibility Score: inf
ROOT
ATOM      1  C   UNL A   1      37.961  19.885  24.998  1.00  0.00     0.042 C 
ENDROOT
BRANCH   1   2
ATOM      2  C   UNL A   1      37.036  21.054  24.679  1.00  0.00     0.118 C 
BRANCH   2   3
ATOM      3  N   UNL A   1      37.441  22.216  25.441  1.00  0.00    -0.352 N 
ATOM      4  C   UNL A   1      36.828  23.379  25.810  1.00  0.00     0.253 C 
ATOM      5  O   UNL A   1      37.547  24.161  26.442  1.00  0.00    -0.269 OA
ATOM      6  H   UNL A   1      38.368  22.153  25.766  1.00  0.00     0.163 HD
BRANCH   4   7
ATOM      7  C   UNL A   1      35.378  23.689  25.580  1.00  0.00     0.066 A 
ATOM      8  C   UNL A   1      31.988  22.867  27.126  1.00  0.00     0.047 C 
ATOM      9  C   UNL A   1      33.049  23.224  26.115  1.00  0.00    -0.024 A 
ATOM     10  C   UNL A   1      32.664  23.913  24.959  1.00  0.00     0.052 A 
ATOM     11  C   UNL A   1      34.415  23.061  26.414  1.00  0.00     0.048 A 
ATOM     12  C   UNL A   1      33.556  24.822  24.423  1.00  0.00     0.120 A 
ATOM     13  C   UNL A   1      34.922  24.649  24.662  1.00  0.00     0.062 A 
BRANCH  11  14
ATOM     14  N   UNL A   1      34.777  22.470  27.626  1.00  0.00    -0.398 N 
ATOM     15  H   UNL A   1      34.295  22.706  28.452  1.00  0.00     0.156 HD
ATOM     16  H   UNL A   1      35.514  21.818  27.656  1.00  0.00     0.156 HD
ENDBRANCH  11  14
BRANCH  12  17
ATOM     17  O   UNL A   1      33.178  25.998  23.817  1.00  0.00    -0.490 OA
BRANCH  17  18
ATOM     18  C   UNL A   1      33.639  27.276  24.359  1.00  0.00     0.173 C 
ATOM     19  C   UNL A   1      33.165  28.566  23.697  1.00  0.00     0.048 C 
ATOM     20  C   UNL A   1      33.291  27.374  25.886  1.00  0.00     0.048 C 
ATOM     21  C   UNL A   1      31.712  28.919  24.021  1.00  0.00    -0.010 C 
ATOM     22  C   UNL A   1      32.463  28.621  26.416  1.00  0.00    -0.010 C 
ATOM     23  C   UNL A   1      30.653  27.812  24.082  1.00  0.00     0.008 C 
ATOM     24  C   UNL A   1      31.813  29.567  25.381  1.00  0.00     0.007 C 
ATOM     25  C   UNL A   1      31.404  28.199  27.448  1.00  0.00     0.008 C 
ENDBRANCH  17  18
ENDBRANCH  12  17
ENDBRANCH   4   7
ENDBRANCH   2   3
ENDBRANCH   1   2
BRANCH   1  26
ATOM     26  C   UNL A   1      38.933  20.220  26.127  1.00  0.00     0.118 C 
BRANCH  26  27
ATOM     27  N   UNL A   1      40.039  19.265  26.174  1.00  0.00    -0.352 N 
ATOM     28  C   UNL A   1      41.383  19.495  26.087  1.00  0.00     0.251 C 
ATOM     29  H   UNL A   1      39.778  18.322  26.283  1.00  0.00     0.163 HD
ATOM     30  O   UNL A   1      42.149  18.567  25.803  1.00  0.00    -0.269 OA
BRANCH  28  31
ATOM     31  C   UNL A   1      41.909  20.841  26.357  1.00  0.00     0.039 A 
ATOM     32  C   UNL A   1      42.087  21.738  25.303  1.00  0.00     0.014 A 
ATOM     33  C   UNL A   1      42.243  21.202  27.665  1.00  0.00     0.014 A 
ATOM     34  C   UNL A   1      42.558  23.023  25.572  1.00  0.00     0.010 A 
ATOM     35  C   UNL A   1      42.617  22.508  27.941  1.00  0.00     0.010 A 
ATOM     36  C   UNL A   1      42.797  23.424  26.897  1.00  0.00    -0.014 A 
BRANCH  36  37
ATOM     37  C   UNL A   1      43.247  24.797  27.223  1.00  0.00     0.031 A 
ATOM     38  C   UNL A   1      42.300  25.753  27.896  1.00  0.00     0.074 A 
ATOM     39  C   UNL A   1      44.464  25.206  26.817  1.00  0.00     0.049 A 
ATOM     40  N   UNL A   1      42.469  27.018  28.175  1.00  0.00    -0.248 NA
ATOM     41  C   UNL A   1      40.974  25.229  28.270  1.00  0.00     0.031 C 
ATOM     42  C   UNL A   1      45.430  24.388  26.079  1.00  0.00     0.029 A 
ATOM     43  N   UNL A   1      45.083  26.424  26.936  1.00  0.00    -0.354 N 
ATOM     44  C   UNL A   1      41.264  27.451  28.714  1.00  0.00     0.074 A 
ATOM     45  C   UNL A   1      40.357  26.325  28.688  1.00  0.00     0.031 C 
ATOM     46  C   UNL A   1      46.520  25.125  25.817  1.00  0.00     0.029 A 
ATOM     47  C   UNL A   1      46.316  26.475  26.330  1.00  0.00     0.049 A 
ATOM     48  H   UNL A   1      44.683  27.189  27.410  1.00  0.00     0.167 HD
ATOM     49  C   UNL A   1      40.949  28.669  29.212  1.00  0.00     0.034 A 
ATOM     50  C   UNL A   1      47.178  27.501  26.192  1.00  0.00     0.034 A 
ATOM     51  C   UNL A   1      41.874  29.766  29.274  1.00  0.00     0.049 A 
ATOM     52  C   UNL A   1      46.822  28.830  26.795  1.00  0.00     0.074 A 
ATOM     53  C   UNL A   1      41.693  31.012  29.847  1.00  0.00     0.029 A 
ATOM     54  N   UNL A   1      43.152  29.753  28.736  1.00  0.00    -0.354 N 
ATOM     55  N   UNL A   1      45.737  29.177  27.444  1.00  0.00    -0.248 NA
ATOM     56  C   UNL A   1      47.822  29.901  26.682  1.00  0.00     0.031 C 
ATOM     57  C   UNL A   1      42.850  31.764  29.625  1.00  0.00     0.029 A 
ATOM     58  C   UNL A   1      43.767  30.973  28.950  1.00  0.00     0.049 A 
ATOM     59  H   UNL A   1      43.561  28.988  28.269  1.00  0.00     0.167 HD
ATOM     60  C   UNL A   1      45.937  30.492  27.847  1.00  0.00     0.074 A 
ATOM     61  C   UNL A   1      47.257  30.872  27.386  1.00  0.00     0.031 C 
ATOM     62  C   UNL A   1      45.101  31.315  28.527  1.00  0.00     0.034 A 
BRANCH  49  63
ATOM     63  C   UNL A   1      39.563  28.865  29.770  1.00  0.00     0.023 A 
ATOM     64  C   UNL A   1      39.264  28.416  31.073  1.00  0.00     0.012 A 
ATOM     65  C   UNL A   1      38.577  29.544  29.030  1.00  0.00     0.148 A 
ATOM     66  C   UNL A   1      37.994  28.607  31.616  1.00  0.00     0.002 A 
ATOM     67  C   UNL A   1      37.329  29.775  29.597  1.00  0.00     0.091 A 
ATOM     68  F   UNL A   1      38.873  29.945  27.786  1.00  0.00    -0.205 F 
ATOM     69  C   UNL A   1      37.031  29.295  30.883  1.00  0.00     0.022 A 
BRANCH  67  70
ATOM     70  S   UNL A   1      36.047  30.724  28.770  1.00  0.00     0.127 S 
ATOM     71  O   UNL A   1      35.382  29.692  27.976  1.00  0.00    -0.237 OA
ATOM     72  O   UNL A   1      35.263  31.225  29.899  1.00  0.00    -0.237 OA
ATOM     73  O   UNL A   1      36.738  31.752  28.004  1.00  0.00    -0.744 OA
ENDBRANCH  67  70
ENDBRANCH  49  63
BRANCH  50  74
ATOM     74  C   UNL A   1      48.480  27.289  25.500  1.00  0.00     0.023 A 
ATOM     75  C   UNL A   1      49.603  26.881  26.246  1.00  0.00     0.012 A 
ATOM     76  C   UNL A   1      48.606  27.458  24.108  1.00  0.00     0.148 A 
ATOM     77  C   UNL A   1      50.836  26.678  25.623  1.00  0.00     0.002 A 
ATOM     78  C   UNL A   1      49.822  27.200  23.485  1.00  0.00     0.091 A 
ATOM     79  F   UNL A   1      47.527  27.852  23.416  1.00  0.00    -0.205 F 
ATOM     80  C   UNL A   1      50.943  26.828  24.244  1.00  0.00     0.022 A 
BRANCH  78  81
ATOM     81  S   UNL A   1      50.019  27.238  21.701  1.00  0.00     0.127 S 
ATOM     82  O   UNL A   1      48.991  26.295  21.266  1.00  0.00    -0.237 OA
ATOM     83  O   UNL A   1      49.737  28.642  21.396  1.00  0.00    -0.237 OA
ATOM     84  O   UNL A   1      51.395  26.834  21.447  1.00  0.00    -0.744 OA
ENDBRANCH  78  81
ENDBRANCH  50  74
BRANCH  62  85
ATOM     85  C   UNL A   1      45.598  32.697  28.859  1.00  0.00     0.023 A 
ATOM     86  C   UNL A   1      46.344  32.914  30.034  1.00  0.00     0.012 A 
ATOM     87  C   UNL A   1      45.399  33.760  27.956  1.00  0.00     0.148 A 
ATOM     88  C   UNL A   1      46.856  34.179  30.321  1.00  0.00     0.002 A 
ATOM     89  C   UNL A   1      45.958  35.002  28.222  1.00  0.00     0.091 A 
ATOM     90  F   UNL A   1      44.672  33.533  26.852  1.00  0.00    -0.205 F 
ATOM     91  C   UNL A   1      46.676  35.217  29.410  1.00  0.00     0.022 A 
BRANCH  89  92
ATOM     92  S   UNL A   1      45.866  36.369  27.061  1.00  0.00     0.127 S 
ATOM     93  O   UNL A   1      46.621  37.406  27.763  1.00  0.00    -0.237 OA
ATOM     94  O   UNL A   1      46.537  35.819  25.883  1.00  0.00    -0.237 OA
ATOM     95  O   UNL A   1      44.449  36.649  26.876  1.00  0.00    -0.744 OA
ENDBRANCH  89  92
ENDBRANCH  62  85
ENDBRANCH  36  37
ENDBRANCH  28  31
ENDBRANCH  26  27
ENDBRANCH   1  26
TORSDOF 16
ENDMDL
MODEL 3
REMARK VINA RESULT:     -12.1      1.938      2.492
REMARK SMILES Cc1cc(O[C@@H]2C[C@H](C)C[C@H](C)C2)cc(C(=O)NCCCNC(=O)c2ccc(-c3c4nc(c(-c5cccc(S(=O)(=O)[O-])c5F)c5ccc([nH]5)c(-c5cccc(S(=O)(=O)[O-])c5F)c5nc(c(-c6cccc(S(=O)(=O)[O-])c6F)c6ccc3[nH]6)C=C5)C=C4)cc2)c1N
REMARK SMILES IDX 20 1 19 2 18 3 16 4 17 5 15 7 1 8 2 9 3 10 88 11 4 12 14 13
REMARK SMILES IDX 89 14 5 17 6 18 13 19 7 20 11 21 8 22 12 23 10 24 9 25 21 26
REMARK SMILES IDX 22 27 23 28 24 30 25 31 26 32 87 33 27 34 86 35 28 36 29 37
REMARK SMILES IDX 30 38 80 39 31 40 85 41 79 42 81 43 32 44 84 45 78 46 77 47
REMARK SMILES IDX 33 49 65 50 45 51 64 52 46 53 49 54 63 55 82 56 47 57 48 58
REMARK SMILES IDX 62 60 83 61 50 62 34 63 35 64 43 65 36 66 38 67 44 68 37 69
REMARK SMILES IDX 39 70 40 71 41 72 42 73 66 74 67 75 75 76 68 77 70 78 76 79
REMARK SMILES IDX 69 80 71 81 72 82 73 83 74 84 51 85 52 86 60 87 53 88 55 89
REMARK SMILES IDX 61 90 54 91 56 92 57 93 58 94 59 95
REMARK H PARENT 18 6 89 15 89 16 22 29 81 48 49 59
REMARK Flexibility Score: inf
ROOT
ATOM      1  C   UNL A   1      31.154  31.869  26.220  1.00  0.00     0.042 C 
ENDROOT
BRANCH   1   2
ATOM      2  C   UNL A   1      31.295  30.579  25.421  1.00  0.00     0.118 C 
BRANCH   2   3
ATOM      3  N   UNL A   1      30.293  30.540  24.377  1.00  0.00    -0.352 N 
ATOM      4  C   UNL A   1      29.928  29.622  23.435  1.00  0.00     0.253 C 
ATOM      5  O   UNL A   1      29.025  29.993  22.678  1.00  0.00    -0.269 OA
ATOM      6  H   UNL A   1      29.753  31.362  24.339  1.00  0.00     0.163 HD
BRANCH   4   7
ATOM      7  C   UNL A   1      30.476  28.227  23.346  1.00  0.00     0.066 A 
ATOM      8  C   UNL A   1      33.469  26.412  21.827  1.00  0.00     0.047 C 
ATOM      9  C   UNL A   1      32.083  26.692  22.353  1.00  0.00    -0.024 A 
ATOM     10  C   UNL A   1      31.318  25.616  22.820  1.00  0.00     0.052 A 
ATOM     11  C   UNL A   1      31.644  28.012  22.569  1.00  0.00     0.048 A 
ATOM     12  C   UNL A   1      30.458  25.848  23.877  1.00  0.00     0.120 A 
ATOM     13  C   UNL A   1      29.967  27.141  24.077  1.00  0.00     0.062 A 
BRANCH  11  14
ATOM     14  N   UNL A   1      32.476  29.070  22.195  1.00  0.00    -0.398 N 
ATOM     15  H   UNL A   1      33.276  28.898  21.648  1.00  0.00     0.156 HD
ATOM     16  H   UNL A   1      32.262  29.988  22.479  1.00  0.00     0.156 HD
ENDBRANCH  11  14
BRANCH  12  17
ATOM     17  O   UNL A   1      30.190  24.925  24.861  1.00  0.00    -0.490 OA
BRANCH  17  18
ATOM     18  C   UNL A   1      31.014  24.893  26.071  1.00  0.00     0.173 C 
ATOM     19  C   UNL A   1      31.194  23.565  26.799  1.00  0.00     0.048 C 
ATOM     20  C   UNL A   1      32.444  25.463  25.766  1.00  0.00     0.048 C 
ATOM     21  C   UNL A   1      32.150  22.605  26.087  1.00  0.00    -0.010 C 
ATOM     22  C   UNL A   1      33.720  24.585  26.114  1.00  0.00    -0.010 C 
ATOM     23  C   UNL A   1      32.118  22.490  24.558  1.00  0.00     0.008 C 
ATOM     24  C   UNL A   1      33.512  23.104  26.506  1.00  0.00     0.007 C 
ATOM     25  C   UNL A   1      34.782  24.668  25.006  1.00  0.00     0.008 C 
ENDBRANCH  17  18
ENDBRANCH  12  17
ENDBRANCH   4   7
ENDBRANCH   2   3
ENDBRANCH   1   2
BRANCH   1  26
ATOM     26  C   UNL A   1      32.451  32.240  26.935  1.00  0.00     0.118 C 
BRANCH  26  27
ATOM     27  N   UNL A   1      32.472  33.658  27.291  1.00  0.00    -0.352 N 
ATOM     28  C   UNL A   1      33.182  34.292  28.270  1.00  0.00     0.251 C 
ATOM     29  H   UNL A   1      31.892  34.238  26.747  1.00  0.00     0.163 HD
ATOM     30  O   UNL A   1      32.834  35.413  28.656  1.00  0.00    -0.269 OA
BRANCH  28  31
ATOM     31  C   UNL A   1      34.372  33.643  28.841  1.00  0.00     0.039 A 
ATOM     32  C   UNL A   1      35.642  34.026  28.410  1.00  0.00     0.014 A 
ATOM     33  C   UNL A   1      34.217  32.636  29.798  1.00  0.00     0.014 A 
ATOM     34  C   UNL A   1      36.766  33.426  28.979  1.00  0.00     0.010 A 
ATOM     35  C   UNL A   1      35.334  32.113  30.429  1.00  0.00     0.010 A 
ATOM     36  C   UNL A   1      36.618  32.487  30.013  1.00  0.00    -0.014 A 
BRANCH  36  37
ATOM     37  C   UNL A   1      37.790  31.870  30.675  1.00  0.00     0.031 A 
ATOM     38  C   UNL A   1      38.572  30.799  29.964  1.00  0.00     0.074 A 
ATOM     39  C   UNL A   1      38.077  32.199  31.948  1.00  0.00     0.049 A 
ATOM     40  N   UNL A   1      39.563  30.073  30.407  1.00  0.00    -0.248 NA
ATOM     41  C   UNL A   1      38.163  30.475  28.585  1.00  0.00     0.031 C 
ATOM     42  C   UNL A   1      37.330  33.162  32.763  1.00  0.00     0.029 A 
ATOM     43  N   UNL A   1      39.053  31.736  32.794  1.00  0.00    -0.354 N 
ATOM     44  C   UNL A   1      39.866  29.181  29.386  1.00  0.00     0.074 A 
ATOM     45  C   UNL A   1      38.929  29.429  28.313  1.00  0.00     0.031 C 
ATOM     46  C   UNL A   1      37.878  33.220  33.987  1.00  0.00     0.029 A 
ATOM     47  C   UNL A   1      38.985  32.274  34.058  1.00  0.00     0.049 A 
ATOM     48  H   UNL A   1      39.735  31.080  32.522  1.00  0.00     0.167 HD
ATOM     49  C   UNL A   1      40.853  28.257  29.334  1.00  0.00     0.034 A 
ATOM     50  C   UNL A   1      39.726  32.019  35.153  1.00  0.00     0.034 A 
ATOM     51  C   UNL A   1      41.806  28.052  30.389  1.00  0.00     0.049 A 
ATOM     52  C   UNL A   1      40.846  31.022  35.054  1.00  0.00     0.074 A 
ATOM     53  C   UNL A   1      42.906  27.214  30.402  1.00  0.00     0.029 A 
ATOM     54  N   UNL A   1      41.767  28.685  31.622  1.00  0.00    -0.354 N 
ATOM     55  N   UNL A   1      41.218  30.300  34.025  1.00  0.00    -0.248 NA
ATOM     56  C   UNL A   1      41.673  30.829  36.253  1.00  0.00     0.031 C 
ATOM     57  C   UNL A   1      43.513  27.314  31.658  1.00  0.00     0.029 A 
ATOM     58  C   UNL A   1      42.816  28.246  32.411  1.00  0.00     0.049 A 
ATOM     59  H   UNL A   1      41.093  29.348  31.897  1.00  0.00     0.167 HD
ATOM     60  C   UNL A   1      42.341  29.595  34.439  1.00  0.00     0.074 A 
ATOM     61  C   UNL A   1      42.600  29.992  35.808  1.00  0.00     0.031 C 
ATOM     62  C   UNL A   1      43.085  28.692  33.754  1.00  0.00     0.034 A 
BRANCH  49  63
ATOM     63  C   UNL A   1      40.980  27.432  28.080  1.00  0.00     0.023 A 
ATOM     64  C   UNL A   1      41.602  27.982  26.940  1.00  0.00     0.012 A 
ATOM     65  C   UNL A   1      40.538  26.096  28.048  1.00  0.00     0.148 A 
ATOM     66  C   UNL A   1      41.749  27.227  25.777  1.00  0.00     0.002 A 
ATOM     67  C   UNL A   1      40.733  25.334  26.902  1.00  0.00     0.091 A 
ATOM     68  F   UNL A   1      39.930  25.596  29.134  1.00  0.00    -0.205 F 
ATOM     69  C   UNL A   1      41.325  25.901  25.762  1.00  0.00     0.022 A 
BRANCH  67  70
ATOM     70  S   UNL A   1      40.300  23.593  26.807  1.00  0.00     0.127 S 
ATOM     71  O   UNL A   1      38.895  23.660  26.405  1.00  0.00    -0.237 OA
ATOM     72  O   UNL A   1      41.209  23.108  25.769  1.00  0.00    -0.237 OA
ATOM     73  O   UNL A   1      40.541  23.045  28.135  1.00  0.00    -0.744 OA
ENDBRANCH  67  70
ENDBRANCH  49  63
BRANCH  50  74
ATOM     74  C   UNL A   1      39.463  32.764  36.417  1.00  0.00     0.023 A 
ATOM     75  C   UNL A   1      40.086  34.009  36.630  1.00  0.00     0.012 A 
ATOM     76  C   UNL A   1      38.579  32.263  37.391  1.00  0.00     0.148 A 
ATOM     77  C   UNL A   1      39.860  34.726  37.806  1.00  0.00     0.002 A 
ATOM     78  C   UNL A   1      38.314  33.008  38.535  1.00  0.00     0.091 A 
ATOM     79  F   UNL A   1      38.000  31.074  37.172  1.00  0.00    -0.205 F 
ATOM     80  C   UNL A   1      38.968  34.231  38.753  1.00  0.00     0.022 A 
BRANCH  78  81
ATOM     81  S   UNL A   1      37.081  32.514  39.744  1.00  0.00     0.127 S 
ATOM     82  O   UNL A   1      37.202  33.572  40.744  1.00  0.00    -0.237 OA
ATOM     83  O   UNL A   1      35.851  32.552  38.952  1.00  0.00    -0.237 OA
ATOM     84  O   UNL A   1      37.471  31.181  40.183  1.00  0.00    -0.744 OA
ENDBRANCH  78  81
ENDBRANCH  50  74
BRANCH  62  85
ATOM     85  C   UNL A   1      44.281  28.099  34.451  1.00  0.00     0.023 A 
ATOM     86  C   UNL A   1      45.510  28.787  34.451  1.00  0.00     0.012 A 
ATOM     87  C   UNL A   1      44.157  26.901  35.182  1.00  0.00     0.148 A 
ATOM     88  C   UNL A   1      46.607  28.274  35.141  1.00  0.00     0.002 A 
ATOM     89  C   UNL A   1      45.237  26.424  35.911  1.00  0.00     0.091 A 
ATOM     90  F   UNL A   1      42.982  26.255  35.155  1.00  0.00    -0.205 F 
ATOM     91  C   UNL A   1      46.468  27.102  35.881  1.00  0.00     0.022 A 
BRANCH  89  92
ATOM     92  S   UNL A   1      45.122  24.982  36.974  1.00  0.00     0.127 S 
ATOM     93  O   UNL A   1      43.969  25.320  37.808  1.00  0.00    -0.237 OA
ATOM     94  O   UNL A   1      44.883  23.906  36.011  1.00  0.00    -0.237 OA
ATOM     95  O   UNL A   1      46.394  24.894  37.678  1.00  0.00    -0.744 OA
ENDBRANCH  89  92
ENDBRANCH  62  85
ENDBRANCH  36  37
ENDBRANCH  28  31
ENDBRANCH  26  27
ENDBRANCH   1  26
TORSDOF 16
ENDMDL
