MODEL 1
REMARK VINA RESULT:     -12.7      0.000      0.000
REMARK SMILES O=C(NCCCNC(=O)[C@H]1Cc2[nH]cnc2CN1C(=O)c1ccncc1Cl)c1ccc(-c2c3nc(c(-c4cccc(S(=O)(=O)[O-])c4F)c4ccc([nH]4)c(-c4cccc(S(=O)(=O)[O-])c4F)c4nc(c(-c5cccc(S(=O)(=O)[O-])c5F)c5ccc2[nH]5)C=C4)C=C3)cc1
REMARK SMILES IDX 4 1 3 2 1 3 2 4 28 6 29 7 90 8 30 9 89 10 31 11 32 12 33 13
REMARK SMILES IDX 83 14 34 15 88 16 82 17 84 18 35 19 87 20 81 21 80 22 36 24
REMARK SMILES IDX 68 25 48 26 67 27 49 28 52 29 66 30 85 31 50 32 51 33 65 35
REMARK SMILES IDX 86 36 53 37 37 38 38 39 46 40 39 41 41 42 47 43 40 44 42 45
REMARK SMILES IDX 43 46 44 47 45 48 69 49 70 50 78 51 71 52 73 53 79 54 72 55
REMARK SMILES IDX 74 56 75 57 76 58 77 59 54 60 55 61 63 62 56 63 58 64 64 65
REMARK SMILES IDX 57 66 59 67 60 68 61 69 62 70 5 71 6 72 7 73 8 74 9 76 10 77
REMARK SMILES IDX 11 78 18 79 12 80 17 81 13 82 16 83 14 84 15 86 19 87 20 88
REMARK SMILES IDX 21 89 22 90 26 91 23 92 25 93 27 94 24 95
REMARK H PARENT 3 5 84 23 52 34 7 75 13 85
REMARK Flexibility Score: inf
ROOT
ATOM      1  C   UNL A   1      34.067  30.996  27.511  1.00  0.00     0.118 C 
ENDROOT
BRANCH   1   2
ATOM      2  N   UNL A   1      34.099  31.676  28.787  1.00  0.00    -0.352 N 
ATOM      3  O   UNL A   1      34.908  32.725  30.583  1.00  0.00    -0.269 OA
ATOM      4  C   UNL A   1      35.112  31.911  29.682  1.00  0.00     0.251 C 
ATOM      5  H   UNL A   1      33.228  32.038  29.068  1.00  0.00     0.163 HD
BRANCH   4   6
ATOM      6  C   UNL A   1      36.375  31.143  29.671  1.00  0.00     0.039 A 
ATOM      7  C   UNL A   1      36.452  29.752  29.758  1.00  0.00     0.014 A 
ATOM      8  C   UNL A   1      37.549  31.900  29.542  1.00  0.00     0.014 A 
ATOM      9  C   UNL A   1      37.696  29.138  29.851  1.00  0.00     0.010 A 
ATOM     10  C   UNL A   1      38.791  31.286  29.603  1.00  0.00     0.010 A 
ATOM     11  C   UNL A   1      38.863  29.908  29.800  1.00  0.00    -0.014 A 
BRANCH  11  12
ATOM     12  C   UNL A   1      40.148  29.214  29.780  1.00  0.00     0.031 A 
ATOM     13  C   UNL A   1      40.753  28.983  31.123  1.00  0.00     0.074 A 
ATOM     14  C   UNL A   1      40.689  28.669  28.672  1.00  0.00     0.049 A 
ATOM     15  N   UNL A   1      41.876  29.433  31.580  1.00  0.00    -0.248 NA
ATOM     16  C   UNL A   1      39.952  28.250  32.114  1.00  0.00     0.031 C 
ATOM     17  C   UNL A   1      40.067  28.531  27.354  1.00  0.00     0.029 A 
ATOM     18  N   UNL A   1      41.862  27.981  28.536  1.00  0.00    -0.354 N 
ATOM     19  C   UNL A   1      42.021  28.867  32.848  1.00  0.00     0.074 A 
ATOM     20  C   UNL A   1      40.744  28.295  33.185  1.00  0.00     0.031 C 
ATOM     21  C   UNL A   1      40.741  27.600  26.643  1.00  0.00     0.029 A 
ATOM     22  C   UNL A   1      41.905  27.177  27.403  1.00  0.00     0.049 A 
ATOM     23  H   UNL A   1      42.604  28.049  29.179  1.00  0.00     0.167 HD
ATOM     24  C   UNL A   1      43.240  28.717  33.435  1.00  0.00     0.034 A 
ATOM     25  C   UNL A   1      42.782  26.174  27.153  1.00  0.00     0.034 A 
ATOM     26  C   UNL A   1      44.251  29.500  32.777  1.00  0.00     0.049 A 
ATOM     27  C   UNL A   1      43.958  26.373  28.029  1.00  0.00     0.074 A 
ATOM     28  C   UNL A   1      44.452  30.840  32.522  1.00  0.00     0.029 A 
ATOM     29  N   UNL A   1      45.124  28.822  31.965  1.00  0.00    -0.354 N 
ATOM     30  N   UNL A   1      44.808  27.350  27.891  1.00  0.00    -0.248 NA
ATOM     31  C   UNL A   1      43.992  25.687  29.309  1.00  0.00     0.031 C 
ATOM     32  C   UNL A   1      45.093  30.878  31.249  1.00  0.00     0.029 A 
ATOM     33  C   UNL A   1      45.280  29.561  30.827  1.00  0.00     0.049 A 
ATOM     34  H   UNL A   1      45.559  27.961  32.166  1.00  0.00     0.167 HD
ATOM     35  C   UNL A   1      45.147  27.695  29.192  1.00  0.00     0.074 A 
ATOM     36  C   UNL A   1      44.723  26.560  30.007  1.00  0.00     0.031 C 
ATOM     37  C   UNL A   1      45.467  28.981  29.516  1.00  0.00     0.034 A 
BRANCH  24  38
ATOM     38  C   UNL A   1      43.625  27.599  34.379  1.00  0.00     0.023 A 
ATOM     39  C   UNL A   1      44.251  27.965  35.595  1.00  0.00     0.012 A 
ATOM     40  C   UNL A   1      43.679  26.233  34.018  1.00  0.00     0.148 A 
ATOM     41  C   UNL A   1      44.950  27.037  36.373  1.00  0.00     0.002 A 
ATOM     42  C   UNL A   1      44.305  25.300  34.839  1.00  0.00     0.091 A 
ATOM     43  F   UNL A   1      43.249  25.841  32.817  1.00  0.00    -0.205 F 
ATOM     44  C   UNL A   1      44.972  25.702  35.998  1.00  0.00     0.022 A 
BRANCH  42  45
ATOM     45  S   UNL A   1      44.313  23.549  34.428  1.00  0.00     0.127 S 
ATOM     46  O   UNL A   1      44.995  22.982  35.595  1.00  0.00    -0.237 OA
ATOM     47  O   UNL A   1      42.877  23.256  34.354  1.00  0.00    -0.237 OA
ATOM     48  O   UNL A   1      45.009  23.446  33.164  1.00  0.00    -0.744 OA
ENDBRANCH  42  45
ENDBRANCH  24  38
BRANCH  25  49
ATOM     49  C   UNL A   1      42.595  24.920  26.386  1.00  0.00     0.023 A 
ATOM     50  C   UNL A   1      43.521  24.572  25.382  1.00  0.00     0.012 A 
ATOM     51  C   UNL A   1      41.681  23.934  26.818  1.00  0.00     0.148 A 
ATOM     52  C   UNL A   1      43.558  23.277  24.850  1.00  0.00     0.002 A 
ATOM     53  C   UNL A   1      41.713  22.651  26.279  1.00  0.00     0.091 A 
ATOM     54  F   UNL A   1      40.845  24.225  27.823  1.00  0.00    -0.205 F 
ATOM     55  C   UNL A   1      42.659  22.315  25.303  1.00  0.00     0.022 A 
BRANCH  53  56
ATOM     56  S   UNL A   1      40.598  21.354  26.833  1.00  0.00     0.127 S 
ATOM     57  O   UNL A   1      39.295  21.874  26.415  1.00  0.00    -0.237 OA
ATOM     58  O   UNL A   1      41.071  20.203  26.070  1.00  0.00    -0.237 OA
ATOM     59  O   UNL A   1      40.772  21.272  28.277  1.00  0.00    -0.744 OA
ENDBRANCH  53  56
ENDBRANCH  25  49
BRANCH  37  60
ATOM     60  C   UNL A   1      45.754  29.949  28.399  1.00  0.00     0.023 A 
ATOM     61  C   UNL A   1      44.730  30.628  27.707  1.00  0.00     0.012 A 
ATOM     62  C   UNL A   1      47.091  30.315  28.166  1.00  0.00     0.148 A 
ATOM     63  C   UNL A   1      45.035  31.632  26.786  1.00  0.00     0.002 A 
ATOM     64  C   UNL A   1      47.387  31.349  27.288  1.00  0.00     0.091 A 
ATOM     65  F   UNL A   1      48.053  29.661  28.834  1.00  0.00    -0.205 F 
ATOM     66  C   UNL A   1      46.362  32.003  26.587  1.00  0.00     0.022 A 
BRANCH  64  67
ATOM     67  S   UNL A   1      49.064  31.960  27.097  1.00  0.00     0.127 S 
ATOM     68  O   UNL A   1      49.751  30.798  26.539  1.00  0.00    -0.237 OA
ATOM     69  O   UNL A   1      48.890  33.074  26.165  1.00  0.00    -0.237 OA
ATOM     70  O   UNL A   1      49.494  32.365  28.430  1.00  0.00    -0.744 OA
ENDBRANCH  64  67
ENDBRANCH  37  60
ENDBRANCH  11  12
ENDBRANCH   4   6
ENDBRANCH   1   2
BRANCH   1  71
ATOM     71  C   UNL A   1      32.704  30.709  26.897  1.00  0.00     0.042 C 
BRANCH  71  72
ATOM     72  C   UNL A   1      32.013  29.361  27.169  1.00  0.00     0.117 C 
BRANCH  72  73
ATOM     73  N   UNL A   1      32.707  28.105  26.886  1.00  0.00    -0.354 N 
ATOM     74  C   UNL A   1      32.935  27.422  25.710  1.00  0.00     0.243 C 
ATOM     75  H   UNL A   1      33.084  27.667  27.683  1.00  0.00     0.163 HD
ATOM     76  O   UNL A   1      33.939  26.708  25.621  1.00  0.00    -0.273 OA
BRANCH  74  77
ATOM     77  C   UNL A   1      32.051  27.654  24.502  1.00  0.00     0.181 C 
ATOM     78  C   UNL A   1      32.536  28.541  23.315  1.00  0.00     0.091 C 
ATOM     79  N   UNL A   1      31.249  26.541  23.971  1.00  0.00    -0.320 N 
ATOM     80  C   UNL A   1      31.270  28.935  22.600  1.00  0.00     0.042 A 
ATOM     81  C   UNL A   1      29.875  27.026  23.588  1.00  0.00     0.178 C 
ATOM     82  N   UNL A   1      31.000  30.026  21.826  1.00  0.00    -0.348 N 
ATOM     83  C   UNL A   1      30.062  28.267  22.737  1.00  0.00     0.081 A 
ATOM     84  C   UNL A   1      29.645  30.026  21.604  1.00  0.00     0.197 A 
ATOM     85  H   UNL A   1      31.650  30.684  21.491  1.00  0.00     0.167 HD
ATOM     86  N   UNL A   1      29.057  28.976  22.135  1.00  0.00    -0.240 NA
BRANCH  79  87
ATOM     87  C   UNL A   1      31.627  25.302  23.439  1.00  0.00     0.256 C 
ATOM     88  O   UNL A   1      31.681  25.255  22.196  1.00  0.00    -0.269 OA
BRANCH  87  89
ATOM     89  C   UNL A   1      32.001  23.960  24.066  1.00  0.00     0.061 A 
ATOM     90  C   UNL A   1      32.262  23.018  23.032  1.00  0.00     0.035 A 
ATOM     91  C   UNL A   1      31.938  23.392  25.348  1.00  0.00     0.072 A 
ATOM     92  C   UNL A   1      32.329  21.652  23.267  1.00  0.00     0.112 A 
ATOM     93  C   UNL A   1      32.007  21.991  25.477  1.00  0.00     0.132 A 
ATOM     94  Cl  UNL A   1      31.749  24.099  26.886  1.00  0.00    -0.082 Cl
ATOM     95  N   UNL A   1      32.194  21.112  24.479  1.00  0.00    -0.263 NA
ENDBRANCH  87  89
ENDBRANCH  79  87
ENDBRANCH  74  77
ENDBRANCH  72  73
ENDBRANCH  71  72
ENDBRANCH   1  71
TORSDOF 15
ENDMDL
MODEL 2
REMARK VINA RESULT:     -12.7      1.839      3.223
REMARK SMILES O=C(NCCCNC(=O)[C@H]1Cc2[nH]cnc2CN1C(=O)c1ccncc1Cl)c1ccc(-c2c3nc(c(-c4cccc(S(=O)(=O)[O-])c4F)c4ccc([nH]4)c(-c4cccc(S(=O)(=O)[O-])c4F)c4nc(c(-c5cccc(S(=O)(=O)[O-])c5F)c5ccc2[nH]5)C=C4)C=C3)cc1
REMARK SMILES IDX 4 1 3 2 1 3 2 4 28 6 29 7 90 8 30 9 89 10 31 11 32 12 33 13
REMARK SMILES IDX 83 14 34 15 88 16 82 17 84 18 35 19 87 20 81 21 80 22 36 24
REMARK SMILES IDX 68 25 48 26 67 27 49 28 52 29 66 30 85 31 50 32 51 33 65 35
REMARK SMILES IDX 86 36 53 37 37 38 38 39 46 40 39 41 41 42 47 43 40 44 42 45
REMARK SMILES IDX 43 46 44 47 45 48 69 49 70 50 78 51 71 52 73 53 79 54 72 55
REMARK SMILES IDX 74 56 75 57 76 58 77 59 54 60 55 61 63 62 56 63 58 64 64 65
REMARK SMILES IDX 57 66 59 67 60 68 61 69 62 70 5 71 6 72 7 73 8 74 9 76 10 77
REMARK SMILES IDX 11 78 18 79 12 80 17 81 13 82 16 83 14 84 15 86 19 87 20 88
REMARK SMILES IDX 21 89 22 90 26 91 23 92 25 93 27 94 24 95
REMARK H PARENT 3 5 84 23 52 34 7 75 13 85
REMARK Flexibility Score: inf
ROOT
ATOM      1  C   UNL A   1      33.921  30.020  27.168  1.00  0.00     0.118 C 
ENDROOT
BRANCH   1   2
ATOM      2  N   UNL A   1      34.085  31.176  28.021  1.00  0.00    -0.352 N 
ATOM      3  O   UNL A   1      35.072  32.858  29.104  1.00  0.00    -0.269 OA
ATOM      4  C   UNL A   1      35.186  31.732  28.620  1.00  0.00     0.251 C 
ATOM      5  H   UNL A   1      33.245  31.654  28.209  1.00  0.00     0.163 HD
BRANCH   4   6
ATOM      6  C   UNL A   1      36.448  30.987  28.808  1.00  0.00     0.039 A 
ATOM      7  C   UNL A   1      36.550  29.595  28.803  1.00  0.00     0.014 A 
ATOM      8  C   UNL A   1      37.600  31.770  28.978  1.00  0.00     0.014 A 
ATOM      9  C   UNL A   1      37.769  28.994  29.099  1.00  0.00     0.010 A 
ATOM     10  C   UNL A   1      38.823  31.172  29.244  1.00  0.00     0.010 A 
ATOM     11  C   UNL A   1      38.898  29.784  29.346  1.00  0.00    -0.014 A 
BRANCH  11  12
ATOM     12  C   UNL A   1      40.182  29.115  29.534  1.00  0.00     0.031 A 
ATOM     13  C   UNL A   1      40.500  28.764  30.948  1.00  0.00     0.074 A 
ATOM     14  C   UNL A   1      40.960  28.685  28.521  1.00  0.00     0.049 A 
ATOM     15  N   UNL A   1      41.488  29.185  31.671  1.00  0.00    -0.248 NA
ATOM     16  C   UNL A   1      39.536  27.929  31.678  1.00  0.00     0.031 C 
ATOM     17  C   UNL A   1      40.631  28.665  27.094  1.00  0.00     0.029 A 
ATOM     18  N   UNL A   1      42.158  28.030  28.574  1.00  0.00    -0.354 N 
ATOM     19  C   UNL A   1      41.384  28.504  32.884  1.00  0.00     0.074 A 
ATOM     20  C   UNL A   1      40.085  27.883  32.892  1.00  0.00     0.031 C 
ATOM     21  C   UNL A   1      41.471  27.815  26.461  1.00  0.00     0.029 A 
ATOM     22  C   UNL A   1      42.465  27.338  27.407  1.00  0.00     0.049 A 
ATOM     23  H   UNL A   1      42.747  28.048  29.362  1.00  0.00     0.167 HD
ATOM     24  C   UNL A   1      42.458  28.315  33.699  1.00  0.00     0.034 A 
ATOM     25  C   UNL A   1      43.408  26.377  27.259  1.00  0.00     0.034 A 
ATOM     26  C   UNL A   1      43.556  29.172  33.343  1.00  0.00     0.049 A 
ATOM     27  C   UNL A   1      44.368  26.508  28.377  1.00  0.00     0.074 A 
ATOM     28  C   UNL A   1      43.760  30.533  33.257  1.00  0.00     0.029 A 
ATOM     29  N   UNL A   1      44.603  28.587  32.675  1.00  0.00    -0.354 N 
ATOM     30  N   UNL A   1      45.194  27.507  28.510  1.00  0.00    -0.248 NA
ATOM     31  C   UNL A   1      44.158  25.704  29.568  1.00  0.00     0.031 C 
ATOM     32  C   UNL A   1      44.651  30.702  32.157  1.00  0.00     0.029 A 
ATOM     33  C   UNL A   1      44.968  29.434  31.667  1.00  0.00     0.049 A 
ATOM     34  H   UNL A   1      45.016  27.718  32.885  1.00  0.00     0.167 HD
ATOM     35  C   UNL A   1      45.242  27.731  29.879  1.00  0.00     0.074 A 
ATOM     36  C   UNL A   1      44.696  26.517  30.481  1.00  0.00     0.031 C 
ATOM     37  C   UNL A   1      45.444  28.984  30.379  1.00  0.00     0.034 A 
BRANCH  24  38
ATOM     38  C   UNL A   1      42.676  27.118  34.599  1.00  0.00     0.023 A 
ATOM     39  C   UNL A   1      42.498  27.312  35.989  1.00  0.00     0.012 A 
ATOM     40  C   UNL A   1      43.320  25.926  34.197  1.00  0.00     0.148 A 
ATOM     41  C   UNL A   1      42.993  26.403  36.930  1.00  0.00     0.002 A 
ATOM     42  C   UNL A   1      43.737  24.986  35.134  1.00  0.00     0.091 A 
ATOM     43  F   UNL A   1      43.660  25.747  32.918  1.00  0.00    -0.205 F 
ATOM     44  C   UNL A   1      43.608  25.236  36.502  1.00  0.00     0.022 A 
BRANCH  42  45
ATOM     45  S   UNL A   1      44.487  23.431  34.630  1.00  0.00     0.127 S 
ATOM     46  O   UNL A   1      44.604  22.737  35.916  1.00  0.00    -0.237 OA
ATOM     47  O   UNL A   1      43.463  22.886  33.731  1.00  0.00    -0.237 OA
ATOM     48  O   UNL A   1      45.727  23.787  33.977  1.00  0.00    -0.744 OA
ENDBRANCH  42  45
ENDBRANCH  24  38
BRANCH  25  49
ATOM     49  C   UNL A   1      43.428  25.199  26.360  1.00  0.00     0.023 A 
ATOM     50  C   UNL A   1      44.416  25.103  25.358  1.00  0.00     0.012 A 
ATOM     51  C   UNL A   1      42.666  24.048  26.655  1.00  0.00     0.148 A 
ATOM     52  C   UNL A   1      44.658  23.894  24.696  1.00  0.00     0.002 A 
ATOM     53  C   UNL A   1      42.902  22.850  25.987  1.00  0.00     0.091 A 
ATOM     54  F   UNL A   1      41.776  24.101  27.653  1.00  0.00    -0.205 F 
ATOM     55  C   UNL A   1      43.908  22.765  25.015  1.00  0.00     0.022 A 
BRANCH  53  56
ATOM     56  S   UNL A   1      41.986  21.349  26.363  1.00  0.00     0.127 S 
ATOM     57  O   UNL A   1      42.595  20.384  25.447  1.00  0.00    -0.237 OA
ATOM     58  O   UNL A   1      42.310  21.143  27.772  1.00  0.00    -0.237 OA
ATOM     59  O   UNL A   1      40.592  21.652  26.071  1.00  0.00    -0.744 OA
ENDBRANCH  53  56
ENDBRANCH  25  49
BRANCH  37  60
ATOM     60  C   UNL A   1      45.924  30.059  29.439  1.00  0.00     0.023 A 
ATOM     61  C   UNL A   1      47.292  30.335  29.243  1.00  0.00     0.012 A 
ATOM     62  C   UNL A   1      44.979  30.680  28.604  1.00  0.00     0.148 A 
ATOM     63  C   UNL A   1      47.706  31.228  28.253  1.00  0.00     0.002 A 
ATOM     64  C   UNL A   1      45.397  31.527  27.588  1.00  0.00     0.091 A 
ATOM     65  F   UNL A   1      43.680  30.405  28.802  1.00  0.00    -0.205 F 
ATOM     66  C   UNL A   1      46.760  31.813  27.415  1.00  0.00     0.022 A 
BRANCH  64  67
ATOM     67  S   UNL A   1      44.237  32.198  26.394  1.00  0.00     0.127 S 
ATOM     68  O   UNL A   1      43.387  31.044  26.112  1.00  0.00    -0.237 OA
ATOM     69  O   UNL A   1      43.586  33.267  27.152  1.00  0.00    -0.237 OA
ATOM     70  O   UNL A   1      45.045  32.673  25.277  1.00  0.00    -0.744 OA
ENDBRANCH  64  67
ENDBRANCH  37  60
ENDBRANCH  11  12
ENDBRANCH   4   6
ENDBRANCH   1   2
BRANCH   1  71
ATOM     71  C   UNL A   1      32.536  29.395  27.083  1.00  0.00     0.042 C 
BRANCH  71  72
ATOM     72  C   UNL A   1      32.376  27.870  27.224  1.00  0.00     0.117 C 
BRANCH  72  73
ATOM     73  N   UNL A   1      31.059  27.250  27.083  1.00  0.00    -0.354 N 
ATOM     74  C   UNL A   1      30.596  26.244  26.261  1.00  0.00     0.243 C 
ATOM     75  H   UNL A   1      30.376  27.618  27.689  1.00  0.00     0.163 HD
ATOM     76  O   UNL A   1      29.655  25.544  26.648  1.00  0.00    -0.273 OA
BRANCH  74  77
ATOM     77  C   UNL A   1      31.319  25.909  24.972  1.00  0.00     0.181 C 
ATOM     78  C   UNL A   1      30.728  24.873  23.970  1.00  0.00     0.091 C 
ATOM     79  N   UNL A   1      31.979  26.986  24.216  1.00  0.00    -0.320 N 
ATOM     80  C   UNL A   1      31.905  24.450  23.130  1.00  0.00     0.042 A 
ATOM     81  C   UNL A   1      33.312  26.515  23.698  1.00  0.00     0.178 C 
ATOM     82  N   UNL A   1      32.128  23.289  22.448  1.00  0.00    -0.348 N 
ATOM     83  C   UNL A   1      33.082  25.178  23.021  1.00  0.00     0.081 A 
ATOM     84  C   UNL A   1      33.438  23.318  22.039  1.00  0.00     0.197 A 
ATOM     85  H   UNL A   1      31.475  22.571  22.282  1.00  0.00     0.167 HD
ATOM     86  N   UNL A   1      34.033  24.445  22.364  1.00  0.00    -0.240 NA
BRANCH  79  87
ATOM     87  C   UNL A   1      31.463  28.139  23.612  1.00  0.00     0.256 C 
ATOM     88  O   UNL A   1      32.242  29.110  23.579  1.00  0.00    -0.269 OA
BRANCH  87  89
ATOM     89  C   UNL A   1      30.122  28.476  22.964  1.00  0.00     0.061 A 
ATOM     90  C   UNL A   1      30.277  29.626  22.141  1.00  0.00     0.035 A 
ATOM     91  C   UNL A   1      28.787  28.084  23.146  1.00  0.00     0.072 A 
ATOM     92  C   UNL A   1      29.194  30.352  21.663  1.00  0.00     0.112 A 
ATOM     93  C   UNL A   1      27.760  28.898  22.628  1.00  0.00     0.132 A 
ATOM     94  Cl  UNL A   1      28.104  26.746  23.949  1.00  0.00    -0.082 Cl
ATOM     95  N   UNL A   1      27.926  30.016  21.902  1.00  0.00    -0.263 NA
ENDBRANCH  87  89
ENDBRANCH  79  87
ENDBRANCH  74  77
ENDBRANCH  72  73
ENDBRANCH  71  72
ENDBRANCH   1  71
TORSDOF 15
ENDMDL
MODEL 3
REMARK VINA RESULT:     -12.6      2.132      2.590
REMARK SMILES O=C(NCCCNC(=O)[C@H]1Cc2[nH]cnc2CN1C(=O)c1ccncc1Cl)c1ccc(-c2c3nc(c(-c4cccc(S(=O)(=O)[O-])c4F)c4ccc([nH]4)c(-c4cccc(S(=O)(=O)[O-])c4F)c4nc(c(-c5cccc(S(=O)(=O)[O-])c5F)c5ccc2[nH]5)C=C4)C=C3)cc1
REMARK SMILES IDX 4 1 3 2 1 3 2 4 28 6 29 7 90 8 30 9 89 10 31 11 32 12 33 13
REMARK SMILES IDX 83 14 34 15 88 16 82 17 84 18 35 19 87 20 81 21 80 22 36 24
REMARK SMILES IDX 68 25 48 26 67 27 49 28 52 29 66 30 85 31 50 32 51 33 65 35
REMARK SMILES IDX 86 36 53 37 37 38 38 39 46 40 39 41 41 42 47 43 40 44 42 45
REMARK SMILES IDX 43 46 44 47 45 48 69 49 70 50 78 51 71 52 73 53 79 54 72 55
REMARK SMILES IDX 74 56 75 57 76 58 77 59 54 60 55 61 63 62 56 63 58 64 64 65
REMARK SMILES IDX 57 66 59 67 60 68 61 69 62 70 5 71 6 72 7 73 8 74 9 76 10 77
REMARK SMILES IDX 11 78 18 79 12 80 17 81 13 82 16 83 14 84 15 86 19 87 20 88
REMARK SMILES IDX 21 89 22 90 26 91 23 92 25 93 27 94 24 95
REMARK H PARENT 3 5 84 23 52 34 7 75 13 85
REMARK Flexibility Score: inf
ROOT
ATOM      1  C   UNL A   1      35.248  31.164  27.750  1.00  0.00     0.118 C 
ENDROOT
BRANCH   1   2
ATOM      2  N   UNL A   1      34.964  31.526  29.121  1.00  0.00    -0.352 N 
ATOM      3  O   UNL A   1      35.298  32.172  31.230  1.00  0.00    -0.269 OA
ATOM      4  C   UNL A   1      35.756  31.607  30.237  1.00  0.00     0.251 C 
ATOM      5  H   UNL A   1      34.021  31.759  29.284  1.00  0.00     0.163 HD
BRANCH   4   6
ATOM      6  C   UNL A   1      37.073  30.940  30.326  1.00  0.00     0.039 A 
ATOM      7  C   UNL A   1      38.298  31.591  30.175  1.00  0.00     0.014 A 
ATOM      8  C   UNL A   1      37.043  29.566  30.603  1.00  0.00     0.014 A 
ATOM      9  C   UNL A   1      39.474  30.850  30.167  1.00  0.00     0.010 A 
ATOM     10  C   UNL A   1      38.218  28.828  30.626  1.00  0.00     0.010 A 
ATOM     11  C   UNL A   1      39.430  29.465  30.366  1.00  0.00    -0.014 A 
BRANCH  11  12
ATOM     12  C   UNL A   1      40.694  28.741  30.470  1.00  0.00     0.031 A 
ATOM     13  C   UNL A   1      41.210  28.586  31.860  1.00  0.00     0.074 A 
ATOM     14  C   UNL A   1      41.285  28.110  29.437  1.00  0.00     0.049 A 
ATOM     15  N   UNL A   1      42.316  29.039  32.356  1.00  0.00    -0.248 NA
ATOM     16  C   UNL A   1      40.331  27.941  32.846  1.00  0.00     0.031 C 
ATOM     17  C   UNL A   1      40.739  27.899  28.094  1.00  0.00     0.029 A 
ATOM     18  N   UNL A   1      42.444  27.387  29.419  1.00  0.00    -0.354 N 
ATOM     19  C   UNL A   1      42.369  28.556  33.664  1.00  0.00     0.074 A 
ATOM     20  C   UNL A   1      41.059  28.038  33.959  1.00  0.00     0.031 C 
ATOM     21  C   UNL A   1      41.429  26.906  27.489  1.00  0.00     0.029 A 
ATOM     22  C   UNL A   1      42.533  26.507  28.345  1.00  0.00     0.049 A 
ATOM     23  H   UNL A   1      43.148  27.481  30.100  1.00  0.00     0.167 HD
ATOM     24  C   UNL A   1      43.546  28.417  34.334  1.00  0.00     0.034 A 
ATOM     25  C   UNL A   1      43.395  25.470  28.216  1.00  0.00     0.034 A 
ATOM     26  C   UNL A   1      44.616  29.130  33.690  1.00  0.00     0.049 A 
ATOM     27  C   UNL A   1      44.522  25.699  29.147  1.00  0.00     0.074 A 
ATOM     28  C   UNL A   1      44.869  30.444  33.360  1.00  0.00     0.029 A 
ATOM     29  N   UNL A   1      45.517  28.378  32.979  1.00  0.00    -0.354 N 
ATOM     30  N   UNL A   1      45.405  26.644  28.998  1.00  0.00    -0.248 NA
ATOM     31  C   UNL A   1      44.460  25.099  30.469  1.00  0.00     0.031 C 
ATOM     32  C   UNL A   1      45.586  30.382  32.130  1.00  0.00     0.029 A 
ATOM     33  C   UNL A   1      45.762  29.035  31.807  1.00  0.00     0.049 A 
ATOM     34  H   UNL A   1      45.915  27.523  33.263  1.00  0.00     0.167 HD
ATOM     35  C   UNL A   1      45.675  27.067  30.293  1.00  0.00     0.074 A 
ATOM     36  C   UNL A   1      45.171  26.000  31.153  1.00  0.00     0.031 C 
ATOM     37  C   UNL A   1      46.011  28.364  30.551  1.00  0.00     0.034 A 
BRANCH  24  38
ATOM     38  C   UNL A   1      43.843  27.356  35.371  1.00  0.00     0.023 A 
ATOM     39  C   UNL A   1      44.226  27.799  36.660  1.00  0.00     0.012 A 
ATOM     40  C   UNL A   1      44.053  25.989  35.077  1.00  0.00     0.148 A 
ATOM     41  C   UNL A   1      44.846  26.946  37.579  1.00  0.00     0.002 A 
ATOM     42  C   UNL A   1      44.594  25.127  36.026  1.00  0.00     0.091 A 
ATOM     43  F   UNL A   1      43.860  25.535  33.837  1.00  0.00    -0.205 F 
ATOM     44  C   UNL A   1      45.025  25.608  37.264  1.00  0.00     0.022 A 
BRANCH  42  45
ATOM     45  S   UNL A   1      44.794  23.372  35.689  1.00  0.00     0.127 S 
ATOM     46  O   UNL A   1      45.839  23.393  34.660  1.00  0.00    -0.237 OA
ATOM     47  O   UNL A   1      45.231  22.867  36.995  1.00  0.00    -0.237 OA
ATOM     48  O   UNL A   1      43.491  22.901  35.272  1.00  0.00    -0.744 OA
ENDBRANCH  42  45
ENDBRANCH  24  38
BRANCH  25  49
ATOM     49  C   UNL A   1      43.219  24.172  27.523  1.00  0.00     0.023 A 
ATOM     50  C   UNL A   1      41.964  23.529  27.555  1.00  0.00     0.012 A 
ATOM     51  C   UNL A   1      44.183  23.703  26.605  1.00  0.00     0.148 A 
ATOM     52  C   UNL A   1      41.670  22.476  26.680  1.00  0.00     0.002 A 
ATOM     53  C   UNL A   1      43.891  22.649  25.744  1.00  0.00     0.091 A 
ATOM     54  F   UNL A   1      45.352  24.349  26.509  1.00  0.00    -0.205 F 
ATOM     55  C   UNL A   1      42.629  22.041  25.770  1.00  0.00     0.022 A 
BRANCH  53  56
ATOM     56  S   UNL A   1      45.074  22.050  24.530  1.00  0.00     0.127 S 
ATOM     57  O   UNL A   1      46.240  21.752  25.363  1.00  0.00    -0.237 OA
ATOM     58  O   UNL A   1      44.390  20.877  23.994  1.00  0.00    -0.237 OA
ATOM     59  O   UNL A   1      45.274  23.150  23.596  1.00  0.00    -0.744 OA
ENDBRANCH  53  56
ENDBRANCH  25  49
BRANCH  37  60
ATOM     60  C   UNL A   1      46.391  29.248  29.393  1.00  0.00     0.023 A 
ATOM     61  C   UNL A   1      47.676  29.222  28.813  1.00  0.00     0.012 A 
ATOM     62  C   UNL A   1      45.376  29.990  28.765  1.00  0.00     0.148 A 
ATOM     63  C   UNL A   1      47.947  29.940  27.646  1.00  0.00     0.002 A 
ATOM     64  C   UNL A   1      45.636  30.659  27.577  1.00  0.00     0.091 A 
ATOM     65  F   UNL A   1      44.158  30.002  29.328  1.00  0.00    -0.205 F 
ATOM     66  C   UNL A   1      46.924  30.646  27.019  1.00  0.00     0.022 A 
BRANCH  64  67
ATOM     67  S   UNL A   1      44.326  31.469  26.655  1.00  0.00     0.127 S 
ATOM     68  O   UNL A   1      43.852  32.468  27.611  1.00  0.00    -0.237 OA
ATOM     69  O   UNL A   1      45.041  32.016  25.502  1.00  0.00    -0.237 OA
ATOM     70  O   UNL A   1      43.371  30.420  26.316  1.00  0.00    -0.744 OA
ENDBRANCH  64  67
ENDBRANCH  37  60
ENDBRANCH  11  12
ENDBRANCH   4   6
ENDBRANCH   1   2
BRANCH   1  71
ATOM     71  C   UNL A   1      35.546  29.701  27.453  1.00  0.00     0.042 C 
BRANCH  71  72
ATOM     72  C   UNL A   1      34.413  28.771  26.980  1.00  0.00     0.117 C 
BRANCH  72  73
ATOM     73  N   UNL A   1      33.133  28.750  27.687  1.00  0.00    -0.354 N 
ATOM     74  C   UNL A   1      31.875  28.330  27.307  1.00  0.00     0.243 C 
ATOM     75  H   UNL A   1      33.177  29.099  28.607  1.00  0.00     0.163 HD
ATOM     76  O   UNL A   1      31.097  27.921  28.174  1.00  0.00    -0.273 OA
BRANCH  74  77
ATOM     77  C   UNL A   1      31.507  28.235  25.840  1.00  0.00     0.181 C 
ATOM     78  C   UNL A   1      31.947  29.340  24.833  1.00  0.00     0.091 C 
ATOM     79  N   UNL A   1      31.556  26.927  25.168  1.00  0.00    -0.320 N 
ATOM     80  C   UNL A   1      31.012  29.175  23.663  1.00  0.00     0.042 A 
ATOM     81  C   UNL A   1      30.368  26.767  24.257  1.00  0.00     0.178 C 
ATOM     82  N   UNL A   1      30.594  30.085  22.736  1.00  0.00    -0.348 N 
ATOM     83  C   UNL A   1      30.281  28.022  23.411  1.00  0.00     0.081 A 
ATOM     84  C   UNL A   1      29.578  29.489  22.030  1.00  0.00     0.197 A 
ATOM     85  H   UNL A   1      30.951  30.991  22.599  1.00  0.00     0.167 HD
ATOM     86  N   UNL A   1      29.373  28.246  22.411  1.00  0.00    -0.240 NA
BRANCH  79  87
ATOM     87  C   UNL A   1      32.618  26.043  24.945  1.00  0.00     0.256 C 
ATOM     88  O   UNL A   1      33.413  26.387  24.051  1.00  0.00    -0.269 OA
BRANCH  87  89
ATOM     89  C   UNL A   1      33.029  24.714  25.576  1.00  0.00     0.061 A 
ATOM     90  C   UNL A   1      31.940  24.198  26.332  1.00  0.00     0.035 A 
ATOM     91  C   UNL A   1      34.233  24.018  25.768  1.00  0.00     0.072 A 
ATOM     92  C   UNL A   1      32.092  23.175  27.258  1.00  0.00     0.112 A 
ATOM     93  C   UNL A   1      34.285  23.000  26.741  1.00  0.00     0.132 A 
ATOM     94  Cl  UNL A   1      35.761  24.185  25.035  1.00  0.00    -0.082 Cl
ATOM     95  N   UNL A   1      33.256  22.567  27.489  1.00  0.00    -0.263 NA
ENDBRANCH  87  89
ENDBRANCH  79  87
ENDBRANCH  74  77
ENDBRANCH  72  73
ENDBRANCH  71  72
ENDBRANCH   1  71
TORSDOF 15
ENDMDL
