MODEL 1
REMARK VINA RESULT:     -11.5      0.000      0.000
REMARK SMILES CC1(C)OC(=O)C(/C=N/[C@@H](CCC(N)=O)C(=O)NCCCNC(=O)c2ccc(-c3c4nc(c(-c5cccc(S(=O)(=O)[O-])c5F)c5ccc([nH]5)c(-c5cccc(S(=O)(=O)[O-])c5F)c5nc(c(-c6cccc(S(=O)(=O)[O-])c6F)c6ccc3[nH]6)C=C5)C=C4)cc2)C(=O)O1
REMARK SMILES IDX 20 1 19 2 18 3 16 4 17 5 10 7 9 8 8 9 7 10 1 11 2 12 3 13
REMARK SMILES IDX 4 14 90 15 5 16 88 17 6 18 89 19 11 20 12 21 13 22 14 23
REMARK SMILES IDX 15 24 21 27 22 28 23 29 24 31 25 32 26 33 87 34 27 35 86 36
REMARK SMILES IDX 28 37 29 38 30 39 80 40 31 41 85 42 79 43 81 44 32 45 84 46
REMARK SMILES IDX 78 47 77 48 33 50 65 51 45 52 64 53 46 54 49 55 63 56 82 57
REMARK SMILES IDX 47 58 48 59 62 61 83 62 50 63 34 64 35 65 43 66 36 67 38 68
REMARK SMILES IDX 44 69 37 70 39 71 40 72 41 73 42 74 66 75 67 76 75 77 68 78
REMARK SMILES IDX 70 79 76 80 69 81 71 82 72 83 73 84 74 85 51 86 52 87 60 88
REMARK SMILES IDX 53 89 55 90 61 91 54 92 56 93 57 94 58 95 59 96
REMARK H PARENT 18 6 14 25 14 26 22 30 81 49 49 60
REMARK Flexibility Score: inf
ROOT
ATOM      1  C   UNL A   1      33.204  27.628  26.680  1.00  0.00     0.042 C 
ENDROOT
BRANCH   1   2
ATOM      2  C   UNL A   1      31.757  28.060  26.660  1.00  0.00     0.117 C 
BRANCH   2   3
ATOM      3  N   UNL A   1      30.823  26.994  26.877  1.00  0.00    -0.354 N 
ATOM      4  C   UNL A   1      30.523  25.939  26.071  1.00  0.00     0.244 C 
ATOM      5  O   UNL A   1      29.829  25.041  26.562  1.00  0.00    -0.273 OA
ATOM      6  H   UNL A   1      30.330  27.030  27.728  1.00  0.00     0.163 HD
BRANCH   4   7
ATOM      7  C   UNL A   1      31.000  25.856  24.607  1.00  0.00     0.194 C 
BRANCH   7   8
ATOM      8  N   UNL A   1      31.767  24.618  24.345  1.00  0.00    -0.283 NA
ATOM      9  C   UNL A   1      32.904  24.320  24.838  1.00  0.00     0.105 C 
BRANCH   9  10
ATOM     10  C   UNL A   1      33.600  23.024  24.471  1.00  0.00     0.250 C 
ATOM     11  C   UNL A   1      37.262  23.691  25.859  1.00  0.00     0.106 C 
ATOM     12  C   UNL A   1      36.346  22.727  25.104  1.00  0.00     0.252 C 
ATOM     13  C   UNL A   1      37.128  21.488  24.677  1.00  0.00     0.106 C 
ATOM     14  O   UNL A   1      35.914  23.419  23.937  1.00  0.00    -0.422 OA
ATOM     15  O   UNL A   1      35.329  22.325  26.023  1.00  0.00    -0.422 OA
ATOM     16  C   UNL A   1      34.671  23.241  23.467  1.00  0.00     0.329 C 
ATOM     17  C   UNL A   1      34.029  22.325  25.706  1.00  0.00     0.329 C 
ATOM     18  O   UNL A   1      34.429  23.421  22.278  1.00  0.00    -0.251 OA
ATOM     19  O   UNL A   1      33.203  21.880  26.500  1.00  0.00    -0.251 OA
ENDBRANCH   9  10
ENDBRANCH   7   8
BRANCH   7  20
ATOM     20  C   UNL A   1      30.137  26.445  23.477  1.00  0.00     0.047 C 
BRANCH  20  21
ATOM     21  C   UNL A   1      30.678  27.419  22.428  1.00  0.00     0.102 C 
BRANCH  21  22
ATOM     22  C   UNL A   1      30.690  28.878  22.841  1.00  0.00     0.217 C 
ATOM     23  N   UNL A   1      31.389  29.697  22.001  1.00  0.00    -0.370 N 
ATOM     24  O   UNL A   1      30.142  29.323  23.839  1.00  0.00    -0.275 OA
ATOM     25  H   UNL A   1      31.826  29.325  21.201  1.00  0.00     0.159 HD
ATOM     26  H   UNL A   1      31.457  30.660  22.196  1.00  0.00     0.159 HD
ENDBRANCH  21  22
ENDBRANCH  20  21
ENDBRANCH   7  20
ENDBRANCH   4   7
ENDBRANCH   2   3
ENDBRANCH   1   2
BRANCH   1  27
ATOM     27  C   UNL A   1      34.140  28.663  26.096  1.00  0.00     0.118 C 
BRANCH  27  28
ATOM     28  N   UNL A   1      33.885  30.009  26.604  1.00  0.00    -0.352 N 
ATOM     29  C   UNL A   1      34.583  30.774  27.509  1.00  0.00     0.251 C 
ATOM     30  H   UNL A   1      33.080  30.441  26.235  1.00  0.00     0.163 HD
ATOM     31  O   UNL A   1      34.107  31.837  27.881  1.00  0.00    -0.269 OA
BRANCH  29  32
ATOM     32  C   UNL A   1      35.875  30.294  28.051  1.00  0.00     0.039 A 
ATOM     33  C   UNL A   1      35.892  29.633  29.283  1.00  0.00     0.014 A 
ATOM     34  C   UNL A   1      37.066  30.490  27.353  1.00  0.00     0.014 A 
ATOM     35  C   UNL A   1      37.096  29.123  29.775  1.00  0.00     0.010 A 
ATOM     36  C   UNL A   1      38.225  29.858  27.769  1.00  0.00     0.010 A 
ATOM     37  C   UNL A   1      38.266  29.205  29.007  1.00  0.00    -0.014 A 
BRANCH  37  38
ATOM     38  C   UNL A   1      39.566  28.680  29.488  1.00  0.00     0.031 A 
ATOM     39  C   UNL A   1      40.272  29.376  30.626  1.00  0.00     0.074 A 
ATOM     40  C   UNL A   1      40.154  27.652  28.845  1.00  0.00     0.049 A 
ATOM     41  N   UNL A   1      41.453  29.140  31.133  1.00  0.00    -0.248 NA
ATOM     42  C   UNL A   1      39.581  30.523  31.243  1.00  0.00     0.031 C 
ATOM     43  C   UNL A   1      39.617  26.966  27.667  1.00  0.00     0.029 A 
ATOM     44  N   UNL A   1      41.347  27.020  29.081  1.00  0.00    -0.354 N 
ATOM     45  C   UNL A   1      41.666  30.138  32.076  1.00  0.00     0.074 A 
ATOM     46  C   UNL A   1      40.519  31.015  32.036  1.00  0.00     0.031 C 
ATOM     47  C   UNL A   1      40.468  25.996  27.296  1.00  0.00     0.029 A 
ATOM     48  C   UNL A   1      41.621  26.007  28.191  1.00  0.00     0.049 A 
ATOM     49  H   UNL A   1      41.952  27.266  29.817  1.00  0.00     0.167 HD
ATOM     50  C   UNL A   1      42.701  30.288  32.936  1.00  0.00     0.034 A 
ATOM     51  C   UNL A   1      42.678  25.176  28.117  1.00  0.00     0.034 A 
ATOM     52  C   UNL A   1      43.790  29.359  33.033  1.00  0.00     0.049 A 
ATOM     53  C   UNL A   1      43.760  25.291  29.158  1.00  0.00     0.074 A 
ATOM     54  C   UNL A   1      44.839  29.349  33.934  1.00  0.00     0.029 A 
ATOM     55  N   UNL A   1      43.959  28.260  32.205  1.00  0.00    -0.354 N 
ATOM     56  N   UNL A   1      43.866  26.148  30.145  1.00  0.00    -0.248 NA
ATOM     57  C   UNL A   1      44.840  24.296  29.108  1.00  0.00     0.031 C 
ATOM     58  C   UNL A   1      45.644  28.242  33.648  1.00  0.00     0.029 A 
ATOM     59  C   UNL A   1      45.087  27.555  32.581  1.00  0.00     0.049 A 
ATOM     60  H   UNL A   1      43.363  28.017  31.459  1.00  0.00     0.167 HD
ATOM     61  C   UNL A   1      44.996  25.769  30.860  1.00  0.00     0.074 A 
ATOM     62  C   UNL A   1      45.530  24.593  30.201  1.00  0.00     0.031 C 
ATOM     63  C   UNL A   1      45.553  26.346  31.953  1.00  0.00     0.034 A 
BRANCH  50  64
ATOM     64  C   UNL A   1      42.655  31.454  33.890  1.00  0.00     0.023 A 
ATOM     65  C   UNL A   1      43.240  32.682  33.517  1.00  0.00     0.012 A 
ATOM     66  C   UNL A   1      42.006  31.350  35.136  1.00  0.00     0.148 A 
ATOM     67  C   UNL A   1      43.222  33.774  34.383  1.00  0.00     0.002 A 
ATOM     68  C   UNL A   1      41.947  32.459  35.974  1.00  0.00     0.091 A 
ATOM     69  F   UNL A   1      41.475  30.172  35.486  1.00  0.00    -0.205 F 
ATOM     70  C   UNL A   1      42.567  33.666  35.606  1.00  0.00     0.022 A 
BRANCH  68  71
ATOM     71  S   UNL A   1      41.055  32.450  37.533  1.00  0.00     0.127 S 
ATOM     72  O   UNL A   1      41.905  31.588  38.354  1.00  0.00    -0.237 OA
ATOM     73  O   UNL A   1      41.077  33.864  37.908  1.00  0.00    -0.237 OA
ATOM     74  O   UNL A   1      39.731  31.922  37.233  1.00  0.00    -0.744 OA
ENDBRANCH  68  71
ENDBRANCH  50  64
BRANCH  51  75
ATOM     75  C   UNL A   1      42.708  24.099  27.089  1.00  0.00     0.023 A 
ATOM     76  C   UNL A   1      43.443  24.299  25.904  1.00  0.00     0.012 A 
ATOM     77  C   UNL A   1      42.055  22.867  27.290  1.00  0.00     0.148 A 
ATOM     78  C   UNL A   1      43.496  23.310  24.921  1.00  0.00     0.002 A 
ATOM     79  C   UNL A   1      42.160  21.863  26.333  1.00  0.00     0.091 A 
ATOM     80  F   UNL A   1      41.356  22.694  28.420  1.00  0.00    -0.205 F 
ATOM     81  C   UNL A   1      42.863  22.089  25.139  1.00  0.00     0.022 A 
BRANCH  79  82
ATOM     82  S   UNL A   1      41.507  20.212  26.603  1.00  0.00     0.127 S 
ATOM     83  O   UNL A   1      41.903  19.527  25.376  1.00  0.00    -0.237 OA
ATOM     84  O   UNL A   1      42.226  19.791  27.806  1.00  0.00    -0.237 OA
ATOM     85  O   UNL A   1      40.074  20.392  26.803  1.00  0.00    -0.744 OA
ENDBRANCH  79  82
ENDBRANCH  51  75
BRANCH  63  86
ATOM     86  C   UNL A   1      46.769  25.688  32.546  1.00  0.00     0.023 A 
ATOM     87  C   UNL A   1      48.055  26.091  32.137  1.00  0.00     0.012 A 
ATOM     88  C   UNL A   1      46.633  24.728  33.566  1.00  0.00     0.148 A 
ATOM     89  C   UNL A   1      49.190  25.524  32.714  1.00  0.00     0.002 A 
ATOM     90  C   UNL A   1      47.769  24.203  34.172  1.00  0.00     0.091 A 
ATOM     91  F   UNL A   1      45.400  24.343  33.926  1.00  0.00    -0.205 F 
ATOM     92  C   UNL A   1      49.046  24.591  33.739  1.00  0.00     0.022 A 
BRANCH  90  93
ATOM     93  S   UNL A   1      47.668  23.074  35.564  1.00  0.00     0.127 S 
ATOM     94  O   UNL A   1      47.030  21.907  34.956  1.00  0.00    -0.237 OA
ATOM     95  O   UNL A   1      49.075  22.884  35.918  1.00  0.00    -0.237 OA
ATOM     96  O   UNL A   1      46.883  23.764  36.578  1.00  0.00    -0.744 OA
ENDBRANCH  90  93
ENDBRANCH  63  86
ENDBRANCH  37  38
ENDBRANCH  29  32
ENDBRANCH  27  28
ENDBRANCH   1  27
TORSDOF 18
ENDMDL
MODEL 2
REMARK VINA RESULT:     -11.3      1.869      2.649
REMARK SMILES CC1(C)OC(=O)C(/C=N/[C@@H](CCC(N)=O)C(=O)NCCCNC(=O)c2ccc(-c3c4nc(c(-c5cccc(S(=O)(=O)[O-])c5F)c5ccc([nH]5)c(-c5cccc(S(=O)(=O)[O-])c5F)c5nc(c(-c6cccc(S(=O)(=O)[O-])c6F)c6ccc3[nH]6)C=C5)C=C4)cc2)C(=O)O1
REMARK SMILES IDX 20 1 19 2 18 3 16 4 17 5 10 7 9 8 8 9 7 10 1 11 2 12 3 13
REMARK SMILES IDX 4 14 90 15 5 16 88 17 6 18 89 19 11 20 12 21 13 22 14 23
REMARK SMILES IDX 15 24 21 27 22 28 23 29 24 31 25 32 26 33 87 34 27 35 86 36
REMARK SMILES IDX 28 37 29 38 30 39 80 40 31 41 85 42 79 43 81 44 32 45 84 46
REMARK SMILES IDX 78 47 77 48 33 50 65 51 45 52 64 53 46 54 49 55 63 56 82 57
REMARK SMILES IDX 47 58 48 59 62 61 83 62 50 63 34 64 35 65 43 66 36 67 38 68
REMARK SMILES IDX 44 69 37 70 39 71 40 72 41 73 42 74 66 75 67 76 75 77 68 78
REMARK SMILES IDX 70 79 76 80 69 81 71 82 72 83 73 84 74 85 51 86 52 87 60 88
REMARK SMILES IDX 53 89 55 90 61 91 54 92 56 93 57 94 58 95 59 96
REMARK H PARENT 18 6 14 25 14 26 22 30 81 49 49 60
REMARK Flexibility Score: inf
ROOT
ATOM      1  C   UNL A   1      31.794  29.461  26.881  1.00  0.00     0.042 C 
ENDROOT
BRANCH   1   2
ATOM      2  C   UNL A   1      32.060  28.015  27.223  1.00  0.00     0.117 C 
BRANCH   2   3
ATOM      3  N   UNL A   1      31.043  27.109  26.775  1.00  0.00    -0.354 N 
ATOM      4  C   UNL A   1      31.125  26.118  25.845  1.00  0.00     0.244 C 
ATOM      5  O   UNL A   1      30.167  25.339  25.773  1.00  0.00    -0.273 OA
ATOM      6  H   UNL A   1      30.162  27.219  27.199  1.00  0.00     0.163 HD
BRANCH   4   7
ATOM      7  C   UNL A   1      32.337  25.968  24.903  1.00  0.00     0.194 C 
BRANCH   7   8
ATOM      8  N   UNL A   1      33.054  24.692  25.125  1.00  0.00    -0.283 NA
ATOM      9  C   UNL A   1      33.785  24.405  26.129  1.00  0.00     0.105 C 
BRANCH   9  10
ATOM     10  C   UNL A   1      34.486  23.065  26.228  1.00  0.00     0.250 C 
ATOM     11  C   UNL A   1      32.447  20.926  23.572  1.00  0.00     0.106 C 
ATOM     12  C   UNL A   1      33.557  20.921  24.626  1.00  0.00     0.252 C 
ATOM     13  C   UNL A   1      34.157  19.523  24.748  1.00  0.00     0.106 C 
ATOM     14  O   UNL A   1      32.935  21.260  25.861  1.00  0.00    -0.422 OA
ATOM     15  O   UNL A   1      34.572  21.808  24.154  1.00  0.00    -0.422 OA
ATOM     16  C   UNL A   1      33.586  22.012  26.761  1.00  0.00     0.329 C 
ATOM     17  C   UNL A   1      35.128  22.745  24.931  1.00  0.00     0.329 C 
ATOM     18  O   UNL A   1      33.307  21.927  27.952  1.00  0.00    -0.251 OA
ATOM     19  O   UNL A   1      36.064  23.420  24.506  1.00  0.00    -0.251 OA
ENDBRANCH   9  10
ENDBRANCH   7   8
BRANCH   7  20
ATOM     20  C   UNL A   1      32.290  26.552  23.481  1.00  0.00     0.047 C 
BRANCH  20  21
ATOM     21  C   UNL A   1      32.546  28.030  23.171  1.00  0.00     0.102 C 
BRANCH  21  22
ATOM     22  C   UNL A   1      31.306  28.896  23.072  1.00  0.00     0.217 C 
ATOM     23  N   UNL A   1      31.296  29.747  22.002  1.00  0.00    -0.370 N 
ATOM     24  O   UNL A   1      30.376  28.875  23.865  1.00  0.00    -0.275 OA
ATOM     25  H   UNL A   1      32.051  29.753  21.371  1.00  0.00     0.159 HD
ATOM     26  H   UNL A   1      30.532  30.353  21.863  1.00  0.00     0.159 HD
ENDBRANCH  21  22
ENDBRANCH  20  21
ENDBRANCH   7  20
ENDBRANCH   4   7
ENDBRANCH   2   3
ENDBRANCH   1   2
BRANCH   1  27
ATOM     27  C   UNL A   1      33.042  30.219  26.485  1.00  0.00     0.118 C 
BRANCH  27  28
ATOM     28  N   UNL A   1      32.982  31.635  26.841  1.00  0.00    -0.352 N 
ATOM     29  C   UNL A   1      33.804  32.394  27.641  1.00  0.00     0.251 C 
ATOM     30  H   UNL A   1      32.230  32.127  26.440  1.00  0.00     0.163 HD
ATOM     31  O   UNL A   1      33.485  33.546  27.898  1.00  0.00    -0.269 OA
BRANCH  29  32
ATOM     32  C   UNL A   1      35.039  31.808  28.210  1.00  0.00     0.039 A 
ATOM     33  C   UNL A   1      36.199  32.586  28.261  1.00  0.00     0.014 A 
ATOM     34  C   UNL A   1      35.059  30.501  28.695  1.00  0.00     0.014 A 
ATOM     35  C   UNL A   1      37.354  32.065  28.852  1.00  0.00     0.010 A 
ATOM     36  C   UNL A   1      36.154  30.042  29.408  1.00  0.00     0.010 A 
ATOM     37  C   UNL A   1      37.330  30.800  29.457  1.00  0.00    -0.014 A 
BRANCH  37  38
ATOM     38  C   UNL A   1      38.530  30.206  30.094  1.00  0.00     0.031 A 
ATOM     39  C   UNL A   1      38.936  30.655  31.476  1.00  0.00     0.074 A 
ATOM     40  C   UNL A   1      39.303  29.349  29.399  1.00  0.00     0.049 A 
ATOM     41  N   UNL A   1      39.996  30.336  32.170  1.00  0.00    -0.248 NA
ATOM     42  C   UNL A   1      38.059  31.632  32.148  1.00  0.00     0.031 C 
ATOM     43  C   UNL A   1      39.070  28.921  28.017  1.00  0.00     0.029 A 
ATOM     44  N   UNL A   1      40.457  28.701  29.756  1.00  0.00    -0.354 N 
ATOM     45  C   UNL A   1      39.942  31.114  33.321  1.00  0.00     0.074 A 
ATOM     46  C   UNL A   1      38.777  31.960  33.211  1.00  0.00     0.031 C 
ATOM     47  C   UNL A   1      40.039  28.067  27.651  1.00  0.00     0.029 A 
ATOM     48  C   UNL A   1      40.975  27.906  28.759  1.00  0.00     0.049 A 
ATOM     49  H   UNL A   1      40.877  28.795  30.641  1.00  0.00     0.167 HD
ATOM     50  C   UNL A   1      40.762  31.094  34.399  1.00  0.00     0.034 A 
ATOM     51  C   UNL A   1      42.074  27.128  28.750  1.00  0.00     0.034 A 
ATOM     52  C   UNL A   1      41.862  30.184  34.539  1.00  0.00     0.049 A 
ATOM     53  C   UNL A   1      42.903  27.036  30.004  1.00  0.00     0.074 A 
ATOM     54  C   UNL A   1      42.697  30.000  35.626  1.00  0.00     0.029 A 
ATOM     55  N   UNL A   1      42.270  29.290  33.561  1.00  0.00    -0.354 N 
ATOM     56  N   UNL A   1      42.746  27.665  31.144  1.00  0.00    -0.248 NA
ATOM     57  C   UNL A   1      44.030  26.093  29.989  1.00  0.00     0.031 C 
ATOM     58  C   UNL A   1      43.611  28.993  35.303  1.00  0.00     0.029 A 
ATOM     59  C   UNL A   1      43.335  28.540  34.023  1.00  0.00     0.049 A 
ATOM     60  H   UNL A   1      41.861  29.202  32.670  1.00  0.00     0.167 HD
ATOM     61  C   UNL A   1      43.721  27.160  31.996  1.00  0.00     0.074 A 
ATOM     62  C   UNL A   1      44.455  26.162  31.243  1.00  0.00     0.031 C 
ATOM     63  C   UNL A   1      43.998  27.501  33.278  1.00  0.00     0.034 A 
BRANCH  50  64
ATOM     64  C   UNL A   1      40.443  32.028  35.537  1.00  0.00     0.023 A 
ATOM     65  C   UNL A   1      41.224  33.188  35.726  1.00  0.00     0.012 A 
ATOM     66  C   UNL A   1      39.355  31.784  36.398  1.00  0.00     0.148 A 
ATOM     67  C   UNL A   1      40.959  34.065  36.776  1.00  0.00     0.002 A 
ATOM     68  C   UNL A   1      39.065  32.690  37.413  1.00  0.00     0.091 A 
ATOM     69  F   UNL A   1      38.637  30.667  36.221  1.00  0.00    -0.205 F 
ATOM     70  C   UNL A   1      39.874  33.821  37.612  1.00  0.00     0.022 A 
BRANCH  68  71
ATOM     71  S   UNL A   1      37.640  32.513  38.492  1.00  0.00     0.127 S 
ATOM     72  O   UNL A   1      37.997  33.397  39.600  1.00  0.00    -0.237 OA
ATOM     73  O   UNL A   1      36.551  33.003  37.646  1.00  0.00    -0.237 OA
ATOM     74  O   UNL A   1      37.561  31.096  38.821  1.00  0.00    -0.744 OA
ENDBRANCH  68  71
ENDBRANCH  50  64
BRANCH  51  75
ATOM     75  C   UNL A   1      42.387  26.295  27.555  1.00  0.00     0.023 A 
ATOM     76  C   UNL A   1      43.136  26.857  26.502  1.00  0.00     0.012 A 
ATOM     77  C   UNL A   1      41.991  24.947  27.470  1.00  0.00     0.148 A 
ATOM     78  C   UNL A   1      43.450  26.105  25.370  1.00  0.00     0.002 A 
ATOM     79  C   UNL A   1      42.358  24.185  26.365  1.00  0.00     0.091 A 
ATOM     80  F   UNL A   1      41.274  24.429  28.478  1.00  0.00    -0.205 F 
ATOM     81  C   UNL A   1      43.071  24.767  25.305  1.00  0.00     0.022 A 
BRANCH  79  82
ATOM     82  S   UNL A   1      42.043  22.420  26.273  1.00  0.00     0.127 S 
ATOM     83  O   UNL A   1      42.651  21.940  27.511  1.00  0.00    -0.237 OA
ATOM     84  O   UNL A   1      40.580  22.371  26.244  1.00  0.00    -0.237 OA
ATOM     85  O   UNL A   1      42.674  21.978  25.036  1.00  0.00    -0.744 OA
ENDBRANCH  79  82
ENDBRANCH  51  75
BRANCH  63  86
ATOM     86  C   UNL A   1      45.101  26.752  33.976  1.00  0.00     0.023 A 
ATOM     87  C   UNL A   1      46.437  27.174  33.831  1.00  0.00     0.012 A 
ATOM     88  C   UNL A   1      44.800  25.681  34.838  1.00  0.00     0.148 A 
ATOM     89  C   UNL A   1      47.462  26.518  34.511  1.00  0.00     0.002 A 
ATOM     90  C   UNL A   1      45.822  25.065  35.551  1.00  0.00     0.091 A 
ATOM     91  F   UNL A   1      43.524  25.282  34.946  1.00  0.00    -0.205 F 
ATOM     92  C   UNL A   1      47.153  25.474  35.379  1.00  0.00     0.022 A 
BRANCH  90  93
ATOM     93  S   UNL A   1      45.495  23.781  36.763  1.00  0.00     0.127 S 
ATOM     94  O   UNL A   1      44.915  22.726  35.932  1.00  0.00    -0.237 OA
ATOM     95  O   UNL A   1      46.833  23.485  37.277  1.00  0.00    -0.237 OA
ATOM     96  O   UNL A   1      44.596  24.378  37.741  1.00  0.00    -0.744 OA
ENDBRANCH  90  93
ENDBRANCH  63  86
ENDBRANCH  37  38
ENDBRANCH  29  32
ENDBRANCH  27  28
ENDBRANCH   1  27
TORSDOF 18
ENDMDL
MODEL 3
REMARK VINA RESULT:     -11.2      2.201      2.988
REMARK SMILES CC1(C)OC(=O)C(/C=N/[C@@H](CCC(N)=O)C(=O)NCCCNC(=O)c2ccc(-c3c4nc(c(-c5cccc(S(=O)(=O)[O-])c5F)c5ccc([nH]5)c(-c5cccc(S(=O)(=O)[O-])c5F)c5nc(c(-c6cccc(S(=O)(=O)[O-])c6F)c6ccc3[nH]6)C=C5)C=C4)cc2)C(=O)O1
REMARK SMILES IDX 20 1 19 2 18 3 16 4 17 5 10 7 9 8 8 9 7 10 1 11 2 12 3 13
REMARK SMILES IDX 4 14 90 15 5 16 88 17 6 18 89 19 11 20 12 21 13 22 14 23
REMARK SMILES IDX 15 24 21 27 22 28 23 29 24 31 25 32 26 33 87 34 27 35 86 36
REMARK SMILES IDX 28 37 29 38 30 39 80 40 31 41 85 42 79 43 81 44 32 45 84 46
REMARK SMILES IDX 78 47 77 48 33 50 65 51 45 52 64 53 46 54 49 55 63 56 82 57
REMARK SMILES IDX 47 58 48 59 62 61 83 62 50 63 34 64 35 65 43 66 36 67 38 68
REMARK SMILES IDX 44 69 37 70 39 71 40 72 41 73 42 74 66 75 67 76 75 77 68 78
REMARK SMILES IDX 70 79 76 80 69 81 71 82 72 83 73 84 74 85 51 86 52 87 60 88
REMARK SMILES IDX 53 89 55 90 61 91 54 92 56 93 57 94 58 95 59 96
REMARK H PARENT 18 6 14 25 14 26 22 30 81 49 49 60
REMARK Flexibility Score: inf
ROOT
ATOM      1  C   UNL A   1      33.465  28.812  25.255  1.00  0.00     0.042 C 
ENDROOT
BRANCH   1   2
ATOM      2  C   UNL A   1      33.342  27.349  24.904  1.00  0.00     0.117 C 
BRANCH   2   3
ATOM      3  N   UNL A   1      33.788  27.023  23.581  1.00  0.00    -0.354 N 
ATOM      4  C   UNL A   1      33.121  26.379  22.585  1.00  0.00     0.244 C 
ATOM      5  O   UNL A   1      33.644  26.391  21.464  1.00  0.00    -0.273 OA
ATOM      6  H   UNL A   1      34.705  27.305  23.362  1.00  0.00     0.163 HD
BRANCH   4   7
ATOM      7  C   UNL A   1      31.784  25.646  22.824  1.00  0.00     0.194 C 
BRANCH   7   8
ATOM      8  N   UNL A   1      31.909  24.596  23.859  1.00  0.00    -0.283 NA
ATOM      9  C   UNL A   1      30.997  23.778  24.214  1.00  0.00     0.105 C 
BRANCH   9  10
ATOM     10  C   UNL A   1      31.243  22.759  25.309  1.00  0.00     0.250 C 
ATOM     11  C   UNL A   1      35.027  23.527  26.244  1.00  0.00     0.106 C 
ATOM     12  C   UNL A   1      33.812  22.634  26.498  1.00  0.00     0.252 C 
ATOM     13  C   UNL A   1      34.153  21.568  27.536  1.00  0.00     0.106 C 
ATOM     14  O   UNL A   1      33.525  21.990  25.261  1.00  0.00    -0.422 OA
ATOM     15  O   UNL A   1      32.790  23.476  27.035  1.00  0.00    -0.422 OA
ATOM     16  C   UNL A   1      32.255  21.751  24.902  1.00  0.00     0.329 C 
ATOM     17  C   UNL A   1      31.531  23.460  26.582  1.00  0.00     0.329 C 
ATOM     18  O   UNL A   1      31.993  20.831  24.135  1.00  0.00    -0.251 OA
ATOM     19  O   UNL A   1      30.669  24.135  27.141  1.00  0.00    -0.251 OA
ENDBRANCH   9  10
ENDBRANCH   7   8
BRANCH   7  20
ATOM     20  C   UNL A   1      30.452  26.405  22.696  1.00  0.00     0.047 C 
BRANCH  20  21
ATOM     21  C   UNL A   1      30.074  27.594  23.583  1.00  0.00     0.102 C 
BRANCH  21  22
ATOM     22  C   UNL A   1      30.063  28.943  22.891  1.00  0.00     0.217 C 
ATOM     23  N   UNL A   1      30.520  29.976  23.660  1.00  0.00    -0.370 N 
ATOM     24  O   UNL A   1      29.677  29.135  21.747  1.00  0.00    -0.275 OA
ATOM     25  H   UNL A   1      30.828  29.806  24.579  1.00  0.00     0.159 HD
ATOM     26  H   UNL A   1      30.541  30.890  23.294  1.00  0.00     0.159 HD
ENDBRANCH  21  22
ENDBRANCH  20  21
ENDBRANCH   7  20
ENDBRANCH   4   7
ENDBRANCH   2   3
ENDBRANCH   1   2
BRANCH   1  27
ATOM     27  C   UNL A   1      32.654  29.202  26.471  1.00  0.00     0.118 C 
BRANCH  27  28
ATOM     28  N   UNL A   1      32.511  30.649  26.617  1.00  0.00    -0.352 N 
ATOM     29  C   UNL A   1      33.296  31.566  27.276  1.00  0.00     0.251 C 
ATOM     30  H   UNL A   1      31.723  31.031  26.167  1.00  0.00     0.163 HD
ATOM     31  O   UNL A   1      32.909  32.722  27.370  1.00  0.00    -0.269 OA
BRANCH  29  32
ATOM     32  C   UNL A   1      34.573  31.145  27.896  1.00  0.00     0.039 A 
ATOM     33  C   UNL A   1      35.630  32.059  27.961  1.00  0.00     0.014 A 
ATOM     34  C   UNL A   1      34.735  29.860  28.412  1.00  0.00     0.014 A 
ATOM     35  C   UNL A   1      36.819  31.694  28.597  1.00  0.00     0.010 A 
ATOM     36  C   UNL A   1      35.855  29.553  29.168  1.00  0.00     0.010 A 
ATOM     37  C   UNL A   1      36.929  30.448  29.231  1.00  0.00    -0.014 A 
BRANCH  37  38
ATOM     38  C   UNL A   1      38.171  30.016  29.917  1.00  0.00     0.031 A 
ATOM     39  C   UNL A   1      38.473  30.535  31.301  1.00  0.00     0.074 A 
ATOM     40  C   UNL A   1      39.065  29.249  29.264  1.00  0.00     0.049 A 
ATOM     41  N   UNL A   1      39.541  30.361  32.033  1.00  0.00    -0.248 NA
ATOM     42  C   UNL A   1      37.462  31.409  31.926  1.00  0.00     0.031 C 
ATOM     43  C   UNL A   1      38.931  28.773  27.885  1.00  0.00     0.029 A 
ATOM     44  N   UNL A   1      40.277  28.754  29.669  1.00  0.00    -0.354 N 
ATOM     45  C   UNL A   1      39.355  31.146  33.166  1.00  0.00     0.074 A 
ATOM     46  C   UNL A   1      38.100  31.840  33.002  1.00  0.00     0.031 C 
ATOM     47  C   UNL A   1      40.009  28.038  27.566  1.00  0.00     0.029 A 
ATOM     48  C   UNL A   1      40.921  28.011  28.706  1.00  0.00     0.049 A 
ATOM     49  H   UNL A   1      40.653  28.914  30.564  1.00  0.00     0.167 HD
ATOM     50  C   UNL A   1      40.135  31.245  34.268  1.00  0.00     0.034 A 
ATOM     51  C   UNL A   1      42.107  27.374  28.746  1.00  0.00     0.034 A 
ATOM     52  C   UNL A   1      41.333  30.479  34.461  1.00  0.00     0.049 A 
ATOM     53  C   UNL A   1      42.899  27.406  30.026  1.00  0.00     0.074 A 
ATOM     54  C   UNL A   1      42.148  30.418  35.576  1.00  0.00     0.029 A 
ATOM     55  N   UNL A   1      41.879  29.626  33.515  1.00  0.00    -0.354 N 
ATOM     56  N   UNL A   1      42.628  28.030  31.148  1.00  0.00    -0.248 NA
ATOM     57  C   UNL A   1      44.132  26.608  30.065  1.00  0.00     0.031 C 
ATOM     58  C   UNL A   1      43.189  29.525  35.303  1.00  0.00     0.029 A 
ATOM     59  C   UNL A   1      43.012  29.020  34.025  1.00  0.00     0.049 A 
ATOM     60  H   UNL A   1      41.513  29.473  32.613  1.00  0.00     0.167 HD
ATOM     61  C   UNL A   1      43.630  27.664  32.039  1.00  0.00     0.074 A 
ATOM     62  C   UNL A   1      44.504  26.751  31.330  1.00  0.00     0.031 C 
ATOM     63  C   UNL A   1      43.821  28.058  33.322  1.00  0.00     0.034 A 
BRANCH  50  64
ATOM     64  C   UNL A   1      39.668  32.152  35.376  1.00  0.00     0.023 A 
ATOM     65  C   UNL A   1      38.827  31.640  36.388  1.00  0.00     0.012 A 
ATOM     66  C   UNL A   1      40.083  33.496  35.442  1.00  0.00     0.148 A 
ATOM     67  C   UNL A   1      38.371  32.459  37.419  1.00  0.00     0.002 A 
ATOM     68  C   UNL A   1      39.666  34.294  36.503  1.00  0.00     0.091 A 
ATOM     69  F   UNL A   1      40.862  33.975  34.463  1.00  0.00    -0.205 F 
ATOM     70  C   UNL A   1      38.798  33.781  37.483  1.00  0.00     0.022 A 
BRANCH  68  71
ATOM     71  S   UNL A   1      40.226  35.986  36.723  1.00  0.00     0.127 S 
ATOM     72  O   UNL A   1      41.675  35.808  36.810  1.00  0.00    -0.237 OA
ATOM     73  O   UNL A   1      39.763  36.626  35.491  1.00  0.00    -0.237 OA
ATOM     74  O   UNL A   1      39.580  36.466  37.936  1.00  0.00    -0.744 OA
ENDBRANCH  68  71
ENDBRANCH  50  64
BRANCH  51  75
ATOM     75  C   UNL A   1      42.558  26.566  27.579  1.00  0.00     0.023 A 
ATOM     76  C   UNL A   1      43.420  27.150  26.630  1.00  0.00     0.012 A 
ATOM     77  C   UNL A   1      42.179  25.219  27.423  1.00  0.00     0.148 A 
ATOM     78  C   UNL A   1      43.865  26.421  25.527  1.00  0.00     0.002 A 
ATOM     79  C   UNL A   1      42.674  24.480  26.353  1.00  0.00     0.091 A 
ATOM     80  F   UNL A   1      41.354  24.679  28.331  1.00  0.00    -0.205 F 
ATOM     81  C   UNL A   1      43.501  25.084  25.392  1.00  0.00     0.022 A 
BRANCH  79  82
ATOM     82  S   UNL A   1      42.378  22.716  26.190  1.00  0.00     0.127 S 
ATOM     83  O   UNL A   1      40.919  22.655  26.185  1.00  0.00    -0.237 OA
ATOM     84  O   UNL A   1      43.014  22.416  24.907  1.00  0.00    -0.237 OA
ATOM     85  O   UNL A   1      43.041  22.106  27.336  1.00  0.00    -0.744 OA
ENDBRANCH  79  82
ENDBRANCH  51  75
BRANCH  63  86
ATOM     86  C   UNL A   1      44.984  27.462  34.068  1.00  0.00     0.023 A 
ATOM     87  C   UNL A   1      46.232  28.114  34.060  1.00  0.00     0.012 A 
ATOM     88  C   UNL A   1      44.813  26.299  34.843  1.00  0.00     0.148 A 
ATOM     89  C   UNL A   1      47.303  27.598  34.787  1.00  0.00     0.002 A 
ATOM     90  C   UNL A   1      45.871  25.818  35.604  1.00  0.00     0.091 A 
ATOM     91  F   UNL A   1      43.622  25.682  34.820  1.00  0.00    -0.205 F 
ATOM     92  C   UNL A   1      47.119  26.459  35.568  1.00  0.00     0.022 A 
BRANCH  90  93
ATOM     93  S   UNL A   1      45.686  24.417  36.712  1.00  0.00     0.127 S 
ATOM     94  O   UNL A   1      45.400  23.331  35.776  1.00  0.00    -0.237 OA
ATOM     95  O   UNL A   1      47.002  24.343  37.348  1.00  0.00    -0.237 OA
ATOM     96  O   UNL A   1      44.601  24.770  37.619  1.00  0.00    -0.744 OA
ENDBRANCH  90  93
ENDBRANCH  63  86
ENDBRANCH  37  38
ENDBRANCH  29  32
ENDBRANCH  27  28
ENDBRANCH   1  27
TORSDOF 18
ENDMDL
