MODEL 1
REMARK VINA RESULT:     -11.4      0.000      0.000
REMARK SMILES CC[C@@H](C)N(C)c1ccc(/C=C/C(=O)NCCCNC(=O)c2ccc(-c3c4nc(c(-c5cccc(S(=O)(=O)[O-])c5F)c5ccc([nH]5)c(-c5cccc(S(=O)(=O)[O-])c5F)c5nc(c(-c6cccc(S(=O)(=O)[O-])c6F)c6ccc3[nH]6)C=C5)C=C4)cc2)cc1F
REMARK SMILES IDX 16 1 15 2 13 3 14 4 12 6 11 7 10 8 7 9 8 10 86 11 9 12 85 13
REMARK SMILES IDX 87 14 5 15 6 16 3 17 4 18 2 19 1 20 17 21 18 22 19 23 20 24
REMARK SMILES IDX 21 26 22 27 23 28 84 29 24 30 83 31 25 32 26 33 27 34 77 35
REMARK SMILES IDX 28 36 82 37 76 38 78 39 29 40 81 41 75 42 74 43 30 45 62 46
REMARK SMILES IDX 42 47 61 48 43 49 46 50 60 51 79 52 44 53 45 54 59 56 80 57
REMARK SMILES IDX 47 58 31 59 32 60 40 61 33 62 35 63 41 64 34 65 36 66 37 67
REMARK SMILES IDX 38 68 39 69 63 70 64 71 72 72 65 73 67 74 73 75 66 76 68 77
REMARK SMILES IDX 69 78 70 79 71 80 48 81 49 82 57 83 50 84 52 85 58 86 51 87
REMARK SMILES IDX 53 88 54 89 55 90 56 91
REMARK H PARENT 15 5 19 25 78 44 46 55
REMARK Flexibility Score: inf
ROOT
ATOM      1  C   UNL A   1      31.886  30.485  25.947  1.00  0.00     0.118 C 
ENDROOT
BRANCH   1   2
ATOM      2  N   UNL A   1      30.993  30.351  24.807  1.00  0.00    -0.352 N 
ATOM      3  C   UNL A   1      30.808  29.321  23.937  1.00  0.00     0.244 C 
ATOM      4  O   UNL A   1      29.895  29.375  23.116  1.00  0.00    -0.270 OA
ATOM      5  H   UNL A   1      30.428  31.139  24.635  1.00  0.00     0.163 HD
BRANCH   3   6
ATOM      6  C   UNL A   1      31.618  28.086  24.040  1.00  0.00     0.072 C 
ATOM      7  C   UNL A   1      31.387  27.114  24.934  1.00  0.00     0.014 C 
BRANCH   7   8
ATOM      8  C   UNL A   1      32.130  25.852  25.024  1.00  0.00    -0.022 A 
ATOM      9  C   UNL A   1      33.490  23.335  25.067  1.00  0.00     0.073 A 
ATOM     10  C   UNL A   1      33.451  24.175  26.194  1.00  0.00     0.029 A 
ATOM     11  C   UNL A   1      32.797  23.791  23.934  1.00  0.00     0.147 A 
ATOM     12  C   UNL A   1      32.780  25.409  26.178  1.00  0.00     0.010 A 
ATOM     13  C   UNL A   1      32.141  25.021  23.903  1.00  0.00     0.049 A 
ATOM     14  F   UNL A   1      32.680  23.020  22.844  1.00  0.00    -0.205 F 
BRANCH   9  15
ATOM     15  N   UNL A   1      34.152  22.112  25.110  1.00  0.00    -0.370 N 
ATOM     16  C   UNL A   1      33.683  21.136  26.085  1.00  0.00     0.144 C 
BRANCH  15  17
ATOM     17  C   UNL A   1      35.448  21.877  24.435  1.00  0.00     0.078 C 
ATOM     18  C   UNL A   1      36.221  20.748  25.123  1.00  0.00     0.031 C 
BRANCH  17  19
ATOM     19  C   UNL A   1      36.279  23.160  24.284  1.00  0.00     0.021 C 
ATOM     20  C   UNL A   1      37.393  23.301  25.312  1.00  0.00     0.006 C 
ENDBRANCH  17  19
ENDBRANCH  15  17
ENDBRANCH   9  15
ENDBRANCH   7   8
ENDBRANCH   3   6
ENDBRANCH   1   2
BRANCH   1  21
ATOM     21  C   UNL A   1      31.565  31.729  26.772  1.00  0.00     0.042 C 
BRANCH  21  22
ATOM     22  C   UNL A   1      32.804  32.415  27.341  1.00  0.00     0.118 C 
BRANCH  22  23
ATOM     23  N   UNL A   1      32.565  33.822  27.640  1.00  0.00    -0.352 N 
ATOM     24  C   UNL A   1      33.108  34.616  28.621  1.00  0.00     0.251 C 
ATOM     25  H   UNL A   1      31.916  34.271  27.051  1.00  0.00     0.163 HD
ATOM     26  O   UNL A   1      32.617  35.715  28.854  1.00  0.00    -0.269 OA
BRANCH  24  27
ATOM     27  C   UNL A   1      34.276  34.143  29.395  1.00  0.00     0.039 A 
ATOM     28  C   UNL A   1      34.066  33.343  30.520  1.00  0.00     0.014 A 
ATOM     29  C   UNL A   1      35.573  34.502  29.018  1.00  0.00     0.014 A 
ATOM     30  C   UNL A   1      35.164  32.849  31.230  1.00  0.00     0.010 A 
ATOM     31  C   UNL A   1      36.663  33.947  29.679  1.00  0.00     0.010 A 
ATOM     32  C   UNL A   1      36.471  33.116  30.793  1.00  0.00    -0.014 A 
BRANCH  32  33
ATOM     33  C   UNL A   1      37.655  32.522  31.463  1.00  0.00     0.031 A 
ATOM     34  C   UNL A   1      38.382  31.366  30.833  1.00  0.00     0.074 A 
ATOM     35  C   UNL A   1      38.010  32.956  32.689  1.00  0.00     0.049 A 
ATOM     36  N   UNL A   1      39.365  30.651  31.313  1.00  0.00    -0.248 NA
ATOM     37  C   UNL A   1      37.929  30.940  29.497  1.00  0.00     0.031 C 
ATOM     38  C   UNL A   1      37.340  34.025  33.432  1.00  0.00     0.029 A 
ATOM     39  N   UNL A   1      39.001  32.533  33.539  1.00  0.00    -0.354 N 
ATOM     40  C   UNL A   1      39.622  29.670  30.363  1.00  0.00     0.074 A 
ATOM     41  C   UNL A   1      38.674  29.862  29.289  1.00  0.00     0.031 C 
ATOM     42  C   UNL A   1      37.941  34.178  34.622  1.00  0.00     0.029 A 
ATOM     43  C   UNL A   1      39.010  33.193  34.747  1.00  0.00     0.049 A 
ATOM     44  H   UNL A   1      39.645  31.825  33.306  1.00  0.00     0.167 HD
ATOM     45  C   UNL A   1      40.581  28.713  30.373  1.00  0.00     0.034 A 
ATOM     46  C   UNL A   1      39.781  33.015  35.838  1.00  0.00     0.034 A 
ATOM     47  C   UNL A   1      41.546  28.556  31.425  1.00  0.00     0.049 A 
ATOM     48  C   UNL A   1      40.855  31.964  35.812  1.00  0.00     0.074 A 
ATOM     49  C   UNL A   1      42.607  27.668  31.488  1.00  0.00     0.029 A 
ATOM     50  N   UNL A   1      41.572  29.292  32.599  1.00  0.00    -0.354 N 
ATOM     51  N   UNL A   1      41.169  31.132  34.848  1.00  0.00    -0.248 NA
ATOM     52  C   UNL A   1      41.703  31.845  37.006  1.00  0.00     0.031 C 
ATOM     53  C   UNL A   1      43.253  27.845  32.714  1.00  0.00     0.029 A 
ATOM     54  C   UNL A   1      42.622  28.873  33.397  1.00  0.00     0.049 A 
ATOM     55  H   UNL A   1      40.937  30.007  32.831  1.00  0.00     0.167 HD
ATOM     56  C   UNL A   1      42.269  30.416  35.304  1.00  0.00     0.074 A 
ATOM     57  C   UNL A   1      42.580  30.925  36.624  1.00  0.00     0.031 C 
ATOM     58  C   UNL A   1      42.952  29.419  34.689  1.00  0.00     0.034 A 
BRANCH  45  59
ATOM     59  C   UNL A   1      40.674  27.790  29.185  1.00  0.00     0.023 A 
ATOM     60  C   UNL A   1      39.768  26.717  29.066  1.00  0.00     0.012 A 
ATOM     61  C   UNL A   1      41.585  28.044  28.141  1.00  0.00     0.148 A 
ATOM     62  C   UNL A   1      39.784  25.895  27.940  1.00  0.00     0.002 A 
ATOM     63  C   UNL A   1      41.561  27.253  26.999  1.00  0.00     0.091 A 
ATOM     64  F   UNL A   1      42.451  29.058  28.280  1.00  0.00    -0.205 F 
ATOM     65  C   UNL A   1      40.669  26.171  26.902  1.00  0.00     0.022 A 
BRANCH  63  66
ATOM     66  S   UNL A   1      42.595  27.579  25.566  1.00  0.00     0.127 S 
ATOM     67  O   UNL A   1      42.017  28.826  25.065  1.00  0.00    -0.237 OA
ATOM     68  O   UNL A   1      43.919  27.721  26.171  1.00  0.00    -0.237 OA
ATOM     69  O   UNL A   1      42.442  26.427  24.689  1.00  0.00    -0.744 OA
ENDBRANCH  63  66
ENDBRANCH  45  59
BRANCH  46  70
ATOM     70  C   UNL A   1      39.599  33.905  37.020  1.00  0.00     0.023 A 
ATOM     71  C   UNL A   1      39.972  35.261  36.925  1.00  0.00     0.012 A 
ATOM     72  C   UNL A   1      39.004  33.437  38.207  1.00  0.00     0.148 A 
ATOM     73  C   UNL A   1      39.774  36.129  38.000  1.00  0.00     0.002 A 
ATOM     74  C   UNL A   1      38.755  34.321  39.251  1.00  0.00     0.091 A 
ATOM     75  F   UNL A   1      38.664  32.143  38.278  1.00  0.00    -0.205 F 
ATOM     76  C   UNL A   1      39.155  35.663  39.156  1.00  0.00     0.022 A 
BRANCH  74  77
ATOM     77  S   UNL A   1      37.837  33.848  40.720  1.00  0.00     0.127 S 
ATOM     78  O   UNL A   1      38.773  32.942  41.381  1.00  0.00    -0.237 OA
ATOM     79  O   UNL A   1      37.653  35.139  41.386  1.00  0.00    -0.237 OA
ATOM     80  O   UNL A   1      36.604  33.239  40.237  1.00  0.00    -0.744 OA
ENDBRANCH  74  77
ENDBRANCH  46  70
BRANCH  58  81
ATOM     81  C   UNL A   1      44.132  28.819  35.410  1.00  0.00     0.023 A 
ATOM     82  C   UNL A   1      45.416  29.371  35.237  1.00  0.00     0.012 A 
ATOM     83  C   UNL A   1      43.946  27.779  36.344  1.00  0.00     0.148 A 
ATOM     84  C   UNL A   1      46.501  28.881  35.963  1.00  0.00     0.002 A 
ATOM     85  C   UNL A   1      45.021  27.334  37.104  1.00  0.00     0.091 A 
ATOM     86  F   UNL A   1      42.719  27.257  36.482  1.00  0.00    -0.205 F 
ATOM     87  C   UNL A   1      46.301  27.875  36.906  1.00  0.00     0.022 A 
BRANCH  85  88
ATOM     88  S   UNL A   1      44.837  26.122  38.417  1.00  0.00     0.127 S 
ATOM     89  O   UNL A   1      44.148  25.035  37.724  1.00  0.00    -0.237 OA
ATOM     90  O   UNL A   1      46.229  25.835  38.769  1.00  0.00    -0.237 OA
ATOM     91  O   UNL A   1      44.070  26.777  39.467  1.00  0.00    -0.744 OA
ENDBRANCH  85  88
ENDBRANCH  58  81
ENDBRANCH  32  33
ENDBRANCH  24  27
ENDBRANCH  22  23
ENDBRANCH  21  22
ENDBRANCH   1  21
TORSDOF 17
ENDMDL
MODEL 2
REMARK VINA RESULT:     -11.1      6.230     11.579
REMARK SMILES CC[C@@H](C)N(C)c1ccc(/C=C/C(=O)NCCCNC(=O)c2ccc(-c3c4nc(c(-c5cccc(S(=O)(=O)[O-])c5F)c5ccc([nH]5)c(-c5cccc(S(=O)(=O)[O-])c5F)c5nc(c(-c6cccc(S(=O)(=O)[O-])c6F)c6ccc3[nH]6)C=C5)C=C4)cc2)cc1F
REMARK SMILES IDX 16 1 15 2 13 3 14 4 12 6 11 7 10 8 7 9 8 10 86 11 9 12 85 13
REMARK SMILES IDX 87 14 5 15 6 16 3 17 4 18 2 19 1 20 17 21 18 22 19 23 20 24
REMARK SMILES IDX 21 26 22 27 23 28 84 29 24 30 83 31 25 32 26 33 27 34 77 35
REMARK SMILES IDX 28 36 82 37 76 38 78 39 29 40 81 41 75 42 74 43 30 45 62 46
REMARK SMILES IDX 42 47 61 48 43 49 46 50 60 51 79 52 44 53 45 54 59 56 80 57
REMARK SMILES IDX 47 58 31 59 32 60 40 61 33 62 35 63 41 64 34 65 36 66 37 67
REMARK SMILES IDX 38 68 39 69 63 70 64 71 72 72 65 73 67 74 73 75 66 76 68 77
REMARK SMILES IDX 69 78 70 79 71 80 48 81 49 82 57 83 50 84 52 85 58 86 51 87
REMARK SMILES IDX 53 88 54 89 55 90 56 91
REMARK H PARENT 15 5 19 25 78 44 46 55
REMARK Flexibility Score: inf
ROOT
ATOM      1  C   UNL A   1      36.162  21.177  25.547  1.00  0.00     0.118 C 
ENDROOT
BRANCH   1   2
ATOM      2  N   UNL A   1      36.925  22.367  25.889  1.00  0.00    -0.352 N 
ATOM      3  C   UNL A   1      36.555  23.675  25.947  1.00  0.00     0.244 C 
ATOM      4  O   UNL A   1      37.340  24.510  26.391  1.00  0.00    -0.270 OA
ATOM      5  H   UNL A   1      37.868  22.198  26.117  1.00  0.00     0.163 HD
BRANCH   3   6
ATOM      6  C   UNL A   1      35.182  24.092  25.586  1.00  0.00     0.072 C 
ATOM      7  C   UNL A   1      34.736  25.353  25.680  1.00  0.00     0.014 C 
BRANCH   7   8
ATOM      8  C   UNL A   1      33.402  25.813  25.276  1.00  0.00    -0.022 A 
ATOM      9  C   UNL A   1      30.865  26.739  24.331  1.00  0.00     0.073 A 
ATOM     10  C   UNL A   1      31.176  26.702  25.701  1.00  0.00     0.029 A 
ATOM     11  C   UNL A   1      31.883  26.326  23.456  1.00  0.00     0.147 A 
ATOM     12  C   UNL A   1      32.423  26.252  26.169  1.00  0.00     0.010 A 
ATOM     13  C   UNL A   1      33.117  25.863  23.910  1.00  0.00     0.049 A 
ATOM     14  F   UNL A   1      31.730  26.425  22.129  1.00  0.00    -0.205 F 
BRANCH   9  15
ATOM     15  N   UNL A   1      29.628  27.198  23.891  1.00  0.00    -0.370 N 
ATOM     16  C   UNL A   1      28.505  26.273  23.978  1.00  0.00     0.144 C 
BRANCH  15  17
ATOM     17  C   UNL A   1      29.468  28.437  23.098  1.00  0.00     0.078 C 
ATOM     18  C   UNL A   1      30.254  29.591  23.727  1.00  0.00     0.031 C 
BRANCH  17  19
ATOM     19  C   UNL A   1      27.995  28.792  22.844  1.00  0.00     0.021 C 
ATOM     20  C   UNL A   1      27.742  30.279  22.640  1.00  0.00     0.006 C 
ENDBRANCH  17  19
ENDBRANCH  15  17
ENDBRANCH   9  15
ENDBRANCH   7   8
ENDBRANCH   3   6
ENDBRANCH   1   2
BRANCH   1  21
ATOM     21  C   UNL A   1      37.068  20.044  25.068  1.00  0.00     0.042 C 
BRANCH  21  22
ATOM     22  C   UNL A   1      38.531  20.454  24.934  1.00  0.00     0.118 C 
BRANCH  22  23
ATOM     23  N   UNL A   1      39.429  19.513  25.593  1.00  0.00    -0.352 N 
ATOM     24  C   UNL A   1      40.598  19.747  26.277  1.00  0.00     0.251 C 
ATOM     25  H   UNL A   1      39.158  18.568  25.539  1.00  0.00     0.163 HD
ATOM     26  O   UNL A   1      41.328  18.807  26.569  1.00  0.00    -0.269 OA
BRANCH  24  27
ATOM     27  C   UNL A   1      40.973  21.126  26.653  1.00  0.00     0.039 A 
ATOM     28  C   UNL A   1      41.449  21.375  27.943  1.00  0.00     0.014 A 
ATOM     29  C   UNL A   1      40.839  22.175  25.739  1.00  0.00     0.014 A 
ATOM     30  C   UNL A   1      41.853  22.665  28.293  1.00  0.00     0.010 A 
ATOM     31  C   UNL A   1      41.314  23.441  26.064  1.00  0.00     0.010 A 
ATOM     32  C   UNL A   1      41.823  23.701  27.345  1.00  0.00    -0.014 A 
BRANCH  32  33
ATOM     33  C   UNL A   1      42.342  25.057  27.654  1.00  0.00     0.031 A 
ATOM     34  C   UNL A   1      41.445  26.086  28.285  1.00  0.00     0.074 A 
ATOM     35  C   UNL A   1      43.591  25.392  27.271  1.00  0.00     0.049 A 
ATOM     36  N   UNL A   1      41.685  27.347  28.531  1.00  0.00    -0.248 NA
ATOM     37  C   UNL A   1      40.091  25.649  28.666  1.00  0.00     0.031 C 
ATOM     38  C   UNL A   1      44.532  24.501  26.591  1.00  0.00     0.029 A 
ATOM     39  N   UNL A   1      44.272  26.580  27.371  1.00  0.00    -0.354 N 
ATOM     40  C   UNL A   1      40.506  27.863  29.057  1.00  0.00     0.074 A 
ATOM     41  C   UNL A   1      39.541  26.787  29.068  1.00  0.00     0.031 C 
ATOM     42  C   UNL A   1      45.668  25.169  26.339  1.00  0.00     0.029 A 
ATOM     43  C   UNL A   1      45.524  26.546  26.801  1.00  0.00     0.049 A 
ATOM     44  H   UNL A   1      43.900  27.379  27.810  1.00  0.00     0.167 HD
ATOM     45  C   UNL A   1      40.260  29.113  29.515  1.00  0.00     0.034 A 
ATOM     46  C   UNL A   1      46.446  27.517  26.651  1.00  0.00     0.034 A 
ATOM     47  C   UNL A   1      41.238  30.166  29.539  1.00  0.00     0.049 A 
ATOM     48  C   UNL A   1      46.158  28.890  27.193  1.00  0.00     0.074 A 
ATOM     49  C   UNL A   1      41.109  31.443  30.057  1.00  0.00     0.029 A 
ATOM     50  N   UNL A   1      42.520  30.073  29.022  1.00  0.00    -0.354 N 
ATOM     51  N   UNL A   1      45.083  29.323  27.807  1.00  0.00    -0.248 NA
ATOM     52  C   UNL A   1      47.216  29.900  27.051  1.00  0.00     0.031 C 
ATOM     53  C   UNL A   1      42.301  32.133  29.823  1.00  0.00     0.029 A 
ATOM     54  C   UNL A   1      43.189  31.272  29.198  1.00  0.00     0.049 A 
ATOM     55  H   UNL A   1      42.900  29.273  28.592  1.00  0.00     0.167 HD
ATOM     56  C   UNL A   1      45.348  30.642  28.155  1.00  0.00     0.074 A 
ATOM     57  C   UNL A   1      46.692  30.932  27.701  1.00  0.00     0.031 C 
ATOM     58  C   UNL A   1      44.544  31.535  28.785  1.00  0.00     0.034 A 
BRANCH  45  59
ATOM     59  C   UNL A   1      38.894  29.406  30.080  1.00  0.00     0.023 A 
ATOM     60  C   UNL A   1      38.596  29.031  31.406  1.00  0.00     0.012 A 
ATOM     61  C   UNL A   1      37.945  30.139  29.339  1.00  0.00     0.148 A 
ATOM     62  C   UNL A   1      37.368  29.358  31.978  1.00  0.00     0.002 A 
ATOM     63  C   UNL A   1      36.744  30.506  29.932  1.00  0.00     0.091 A 
ATOM     64  F   UNL A   1      38.240  30.470  28.074  1.00  0.00    -0.205 F 
ATOM     65  C   UNL A   1      36.448  30.106  31.247  1.00  0.00     0.022 A 
BRANCH  63  66
ATOM     66  S   UNL A   1      35.531  31.546  29.112  1.00  0.00     0.127 S 
ATOM     67  O   UNL A   1      36.386  32.546  28.472  1.00  0.00    -0.237 OA
ATOM     68  O   UNL A   1      34.897  30.607  28.187  1.00  0.00    -0.237 OA
ATOM     69  O   UNL A   1      34.660  32.055  30.161  1.00  0.00    -0.744 OA
ENDBRANCH  63  66
ENDBRANCH  45  59
BRANCH  46  70
ATOM     70  C   UNL A   1      47.755  27.196  26.015  1.00  0.00     0.023 A 
ATOM     71  C   UNL A   1      48.763  26.581  26.785  1.00  0.00     0.012 A 
ATOM     72  C   UNL A   1      47.985  27.436  24.647  1.00  0.00     0.148 A 
ATOM     73  C   UNL A   1      49.984  26.230  26.206  1.00  0.00     0.002 A 
ATOM     74  C   UNL A   1      49.180  27.029  24.064  1.00  0.00     0.091 A 
ATOM     75  F   UNL A   1      47.017  28.029  23.936  1.00  0.00    -0.205 F 
ATOM     76  C   UNL A   1      50.188  26.441  24.846  1.00  0.00     0.022 A 
BRANCH  74  77
ATOM     77  S   UNL A   1      49.478  27.128  22.296  1.00  0.00     0.127 S 
ATOM     78  O   UNL A   1      48.533  26.141  21.777  1.00  0.00    -0.237 OA
ATOM     79  O   UNL A   1      49.131  28.522  22.013  1.00  0.00    -0.237 OA
ATOM     80  O   UNL A   1      50.887  26.808  22.113  1.00  0.00    -0.744 OA
ENDBRANCH  74  77
ENDBRANCH  46  70
BRANCH  58  81
ATOM     81  C   UNL A   1      45.094  32.911  29.059  1.00  0.00     0.023 A 
ATOM     82  C   UNL A   1      45.916  33.129  30.181  1.00  0.00     0.012 A 
ATOM     83  C   UNL A   1      44.884  33.961  28.140  1.00  0.00     0.148 A 
ATOM     84  C   UNL A   1      46.501  34.376  30.399  1.00  0.00     0.002 A 
ATOM     85  C   UNL A   1      45.514  35.184  28.335  1.00  0.00     0.091 A 
ATOM     86  F   UNL A   1      44.085  33.737  27.087  1.00  0.00    -0.205 F 
ATOM     87  C   UNL A   1      46.313  35.397  29.470  1.00  0.00     0.022 A 
BRANCH  85  88
ATOM     88  S   UNL A   1      45.420  36.518  27.137  1.00  0.00     0.127 S 
ATOM     89  O   UNL A   1      46.031  37.624  27.874  1.00  0.00    -0.237 OA
ATOM     90  O   UNL A   1      46.230  36.001  26.032  1.00  0.00    -0.237 OA
ATOM     91  O   UNL A   1      44.007  36.683  26.826  1.00  0.00    -0.744 OA
ENDBRANCH  85  88
ENDBRANCH  58  81
ENDBRANCH  32  33
ENDBRANCH  24  27
ENDBRANCH  22  23
ENDBRANCH  21  22
ENDBRANCH   1  21
TORSDOF 17
ENDMDL
MODEL 3
REMARK VINA RESULT:     -10.9      6.213     11.366
REMARK SMILES CC[C@@H](C)N(C)c1ccc(/C=C/C(=O)NCCCNC(=O)c2ccc(-c3c4nc(c(-c5cccc(S(=O)(=O)[O-])c5F)c5ccc([nH]5)c(-c5cccc(S(=O)(=O)[O-])c5F)c5nc(c(-c6cccc(S(=O)(=O)[O-])c6F)c6ccc3[nH]6)C=C5)C=C4)cc2)cc1F
REMARK SMILES IDX 16 1 15 2 13 3 14 4 12 6 11 7 10 8 7 9 8 10 86 11 9 12 85 13
REMARK SMILES IDX 87 14 5 15 6 16 3 17 4 18 2 19 1 20 17 21 18 22 19 23 20 24
REMARK SMILES IDX 21 26 22 27 23 28 84 29 24 30 83 31 25 32 26 33 27 34 77 35
REMARK SMILES IDX 28 36 82 37 76 38 78 39 29 40 81 41 75 42 74 43 30 45 62 46
REMARK SMILES IDX 42 47 61 48 43 49 46 50 60 51 79 52 44 53 45 54 59 56 80 57
REMARK SMILES IDX 47 58 31 59 32 60 40 61 33 62 35 63 41 64 34 65 36 66 37 67
REMARK SMILES IDX 38 68 39 69 63 70 64 71 72 72 65 73 67 74 73 75 66 76 68 77
REMARK SMILES IDX 69 78 70 79 71 80 48 81 49 82 57 83 50 84 52 85 58 86 51 87
REMARK SMILES IDX 53 88 54 89 55 90 56 91
REMARK H PARENT 15 5 19 25 78 44 46 55
REMARK Flexibility Score: inf
ROOT
ATOM      1  C   UNL A   1      36.453  20.372  24.936  1.00  0.00     0.118 C 
ENDROOT
BRANCH   1   2
ATOM      2  N   UNL A   1      35.201  19.637  25.023  1.00  0.00    -0.352 N 
ATOM      3  C   UNL A   1      33.912  20.072  25.041  1.00  0.00     0.244 C 
ATOM      4  O   UNL A   1      32.994  19.258  24.988  1.00  0.00    -0.270 OA
ATOM      5  H   UNL A   1      35.304  18.659  25.079  1.00  0.00     0.163 HD
BRANCH   3   6
ATOM      6  C   UNL A   1      33.600  21.519  25.010  1.00  0.00     0.072 C 
ATOM      7  C   UNL A   1      33.309  22.243  26.101  1.00  0.00     0.014 C 
BRANCH   7   8
ATOM      8  C   UNL A   1      33.054  23.688  26.116  1.00  0.00    -0.022 A 
ATOM      9  C   UNL A   1      32.393  26.471  26.115  1.00  0.00     0.073 A 
ATOM     10  C   UNL A   1      33.706  26.023  25.893  1.00  0.00     0.029 A 
ATOM     11  C   UNL A   1      31.424  25.473  26.304  1.00  0.00     0.147 A 
ATOM     12  C   UNL A   1      34.034  24.656  25.888  1.00  0.00     0.010 A 
ATOM     13  C   UNL A   1      31.740  24.115  26.316  1.00  0.00     0.049 A 
ATOM     14  F   UNL A   1      30.126  25.788  26.414  1.00  0.00    -0.205 F 
BRANCH   9  15
ATOM     15  N   UNL A   1      32.090  27.829  26.104  1.00  0.00    -0.370 N 
ATOM     16  C   UNL A   1      31.595  28.410  27.345  1.00  0.00     0.144 C 
BRANCH  15  17
ATOM     17  C   UNL A   1      31.976  28.616  24.856  1.00  0.00     0.078 C 
ATOM     18  C   UNL A   1      31.286  29.957  25.120  1.00  0.00     0.031 C 
BRANCH  17  19
ATOM     19  C   UNL A   1      31.320  27.826  23.715  1.00  0.00     0.021 C 
ATOM     20  C   UNL A   1      29.812  28.013  23.617  1.00  0.00     0.006 C 
ENDBRANCH  17  19
ENDBRANCH  15  17
ENDBRANCH   9  15
ENDBRANCH   7   8
ENDBRANCH   3   6
ENDBRANCH   1   2
BRANCH   1  21
ATOM     21  C   UNL A   1      37.661  19.451  25.093  1.00  0.00     0.042 C 
BRANCH  21  22
ATOM     22  C   UNL A   1      38.960  20.199  25.377  1.00  0.00     0.118 C 
BRANCH  22  23
ATOM     23  N   UNL A   1      40.000  19.317  25.896  1.00  0.00    -0.352 N 
ATOM     24  C   UNL A   1      41.221  19.627  26.444  1.00  0.00     0.251 C 
ATOM     25  H   UNL A   1      39.796  18.355  25.846  1.00  0.00     0.163 HD
ATOM     26  O   UNL A   1      42.051  18.741  26.617  1.00  0.00    -0.269 OA
BRANCH  24  27
ATOM     27  C   UNL A   1      41.534  21.024  26.815  1.00  0.00     0.039 A 
ATOM     28  C   UNL A   1      42.115  21.283  28.058  1.00  0.00     0.014 A 
ATOM     29  C   UNL A   1      41.238  22.075  25.943  1.00  0.00     0.014 A 
ATOM     30  C   UNL A   1      42.460  22.593  28.399  1.00  0.00     0.010 A 
ATOM     31  C   UNL A   1      41.652  23.366  26.252  1.00  0.00     0.010 A 
ATOM     32  C   UNL A   1      42.265  23.640  27.483  1.00  0.00    -0.014 A 
BRANCH  32  33
ATOM     33  C   UNL A   1      42.715  25.025  27.774  1.00  0.00     0.031 A 
ATOM     34  C   UNL A   1      41.751  26.034  28.333  1.00  0.00     0.074 A 
ATOM     35  C   UNL A   1      43.966  25.399  27.437  1.00  0.00     0.049 A 
ATOM     36  N   UNL A   1      41.928  27.310  28.552  1.00  0.00    -0.248 NA
ATOM     37  C   UNL A   1      40.399  25.553  28.667  1.00  0.00     0.031 C 
ATOM     38  C   UNL A   1      44.972  24.528  26.826  1.00  0.00     0.029 A 
ATOM     39  N   UNL A   1      44.594  26.617  27.531  1.00  0.00    -0.354 N 
ATOM     40  C   UNL A   1      40.707  27.792  29.008  1.00  0.00     0.074 A 
ATOM     41  C   UNL A   1      39.786  26.678  29.009  1.00  0.00     0.031 C 
ATOM     42  C   UNL A   1      46.090  25.235  26.605  1.00  0.00     0.029 A 
ATOM     43  C   UNL A   1      45.871  26.618  27.017  1.00  0.00     0.049 A 
ATOM     44  H   UNL A   1      44.171  27.412  27.928  1.00  0.00     0.167 HD
ATOM     45  C   UNL A   1      40.392  29.044  29.417  1.00  0.00     0.034 A 
ATOM     46  C   UNL A   1      46.760  27.621  26.880  1.00  0.00     0.034 A 
ATOM     47  C   UNL A   1      41.326  30.136  29.452  1.00  0.00     0.049 A 
ATOM     48  C   UNL A   1      46.393  28.996  27.366  1.00  0.00     0.074 A 
ATOM     49  C   UNL A   1      41.122  31.422  29.925  1.00  0.00     0.029 A 
ATOM     50  N   UNL A   1      42.632  30.081  28.995  1.00  0.00    -0.354 N 
ATOM     51  N   UNL A   1      45.275  29.402  27.919  1.00  0.00    -0.248 NA
ATOM     52  C   UNL A   1      47.416  30.044  27.241  1.00  0.00     0.031 C 
ATOM     53  C   UNL A   1      42.296  32.152  29.723  1.00  0.00     0.029 A 
ATOM     54  C   UNL A   1      43.245  31.310  29.165  1.00  0.00     0.049 A 
ATOM     55  H   UNL A   1      43.062  29.285  28.607  1.00  0.00     0.167 HD
ATOM     56  C   UNL A   1      45.471  30.740  28.238  1.00  0.00     0.074 A 
ATOM     57  C   UNL A   1      46.823  31.071  27.834  1.00  0.00     0.031 C 
ATOM     58  C   UNL A   1      44.605  31.617  28.804  1.00  0.00     0.034 A 
BRANCH  45  59
ATOM     59  C   UNL A   1      38.991  29.297  29.912  1.00  0.00     0.023 A 
ATOM     60  C   UNL A   1      38.655  28.974  31.243  1.00  0.00     0.012 A 
ATOM     61  C   UNL A   1      38.040  29.944  29.097  1.00  0.00     0.148 A 
ATOM     62  C   UNL A   1      37.390  29.268  31.748  1.00  0.00     0.002 A 
ATOM     63  C   UNL A   1      36.799  30.280  29.623  1.00  0.00     0.091 A 
ATOM     64  F   UNL A   1      38.372  30.226  27.829  1.00  0.00    -0.205 F 
ATOM     65  C   UNL A   1      36.468  29.933  30.944  1.00  0.00     0.022 A 
BRANCH  63  66
ATOM     66  S   UNL A   1      35.574  31.217  28.702  1.00  0.00     0.127 S 
ATOM     67  O   UNL A   1      34.906  30.161  27.942  1.00  0.00    -0.237 OA
ATOM     68  O   UNL A   1      34.766  31.799  29.774  1.00  0.00    -0.237 OA
ATOM     69  O   UNL A   1      36.318  32.181  27.905  1.00  0.00    -0.744 OA
ENDBRANCH  63  66
ENDBRANCH  45  59
BRANCH  46  70
ATOM     70  C   UNL A   1      48.108  27.336  26.312  1.00  0.00     0.023 A 
ATOM     71  C   UNL A   1      48.271  27.288  24.913  1.00  0.00     0.012 A 
ATOM     72  C   UNL A   1      49.236  27.177  27.141  1.00  0.00     0.148 A 
ATOM     73  C   UNL A   1      49.530  27.066  24.352  1.00  0.00     0.002 A 
ATOM     74  C   UNL A   1      50.495  27.016  26.574  1.00  0.00     0.091 A 
ATOM     75  F   UNL A   1      49.057  27.219  28.469  1.00  0.00    -0.205 F 
ATOM     76  C   UNL A   1      50.641  26.942  25.180  1.00  0.00     0.022 A 
BRANCH  74  77
ATOM     77  S   UNL A   1      52.000  26.992  27.553  1.00  0.00     0.127 S 
ATOM     78  O   UNL A   1      51.760  25.860  28.445  1.00  0.00    -0.237 OA
ATOM     79  O   UNL A   1      53.019  26.764  26.527  1.00  0.00    -0.237 OA
ATOM     80  O   UNL A   1      52.074  28.297  28.197  1.00  0.00    -0.744 OA
ENDBRANCH  74  77
ENDBRANCH  46  70
BRANCH  58  81
ATOM     81  C   UNL A   1      45.087  33.022  29.060  1.00  0.00     0.023 A 
ATOM     82  C   UNL A   1      45.770  33.325  30.254  1.00  0.00     0.012 A 
ATOM     83  C   UNL A   1      44.959  34.014  28.066  1.00  0.00     0.148 A 
ATOM     84  C   UNL A   1      46.296  34.598  30.466  1.00  0.00     0.002 A 
ATOM     85  C   UNL A   1      45.534  35.264  28.261  1.00  0.00     0.091 A 
ATOM     86  F   UNL A   1      44.292  33.711  26.943  1.00  0.00    -0.205 F 
ATOM     87  C   UNL A   1      46.191  35.561  29.465  1.00  0.00     0.022 A 
BRANCH  85  88
ATOM     88  S   UNL A   1      45.546  36.529  26.986  1.00  0.00     0.127 S 
ATOM     89  O   UNL A   1      46.137  35.810  25.858  1.00  0.00    -0.237 OA
ATOM     90  O   UNL A   1      44.122  36.832  26.836  1.00  0.00    -0.237 OA
ATOM     91  O   UNL A   1      46.346  37.626  27.513  1.00  0.00    -0.744 OA
ENDBRANCH  85  88
ENDBRANCH  58  81
ENDBRANCH  32  33
ENDBRANCH  24  27
ENDBRANCH  22  23
ENDBRANCH  21  22
ENDBRANCH   1  21
TORSDOF 17
ENDMDL
