MODEL 1
REMARK VINA RESULT:     -12.9      0.000      0.000
REMARK SMILES O=C(NCCCNC(=O)[C@@H]1C[N@@H+](C2CCN(C(=O)c3ccccc3)CC2)C[C@H]1C1CC1)c1ccc(-c2c3nc(c(-c4cccc(S(=O)(=O)[O-])c4F)c4ccc([nH]4)c(-c4cccc(S(=O)(=O)[O-])c4F)c4nc(c(-c5cccc(S(=O)(=O)[O-])c5F)c5ccc2[nH]5)C=C4)C=C3)cc1
REMARK SMILES IDX 4 1 3 2 1 3 2 4 32 6 33 7 94 8 34 9 93 10 35 11 36 12 37 13
REMARK SMILES IDX 87 14 38 15 92 16 86 17 88 18 39 19 91 20 85 21 84 22 40 24
REMARK SMILES IDX 72 25 52 26 71 27 53 28 56 29 70 30 89 31 54 32 55 33 69 35
REMARK SMILES IDX 90 36 57 37 41 38 42 39 50 40 43 41 45 42 51 43 44 44 46 45
REMARK SMILES IDX 47 46 48 47 49 48 73 49 74 50 82 51 75 52 77 53 83 54 76 55
REMARK SMILES IDX 78 56 79 57 80 58 81 59 58 60 59 61 67 62 60 63 62 64 68 65
REMARK SMILES IDX 61 66 63 67 64 68 65 69 66 70 5 71 6 72 7 73 8 74 9 76 10 77
REMARK SMILES IDX 11 78 28 79 12 80 27 81 29 83 30 84 31 85 13 86 14 87 26 88
REMARK SMILES IDX 15 89 25 90 16 91 17 92 18 93 19 94 20 95 24 96 21 97 23 98
REMARK SMILES IDX 22 99
REMARK H PARENT 3 5 88 23 56 34 7 75 12 82
REMARK Flexibility Score: inf
ROOT
ATOM      1  C   UNL A   1      32.741  32.701  27.296  1.00  0.00     0.118 C 
ENDROOT
BRANCH   1   2
ATOM      2  N   UNL A   1      32.596  34.106  27.636  1.00  0.00    -0.352 N 
ATOM      3  O   UNL A   1      32.655  35.880  29.021  1.00  0.00    -0.269 OA
ATOM      4  C   UNL A   1      33.137  34.789  28.693  1.00  0.00     0.251 C 
ATOM      5  H   UNL A   1      32.035  34.639  27.026  1.00  0.00     0.163 HD
BRANCH   4   6
ATOM      6  C   UNL A   1      34.284  34.224  29.434  1.00  0.00     0.039 A 
ATOM      7  C   UNL A   1      34.069  33.423  30.559  1.00  0.00     0.014 A 
ATOM      8  C   UNL A   1      35.584  34.446  28.972  1.00  0.00     0.014 A 
ATOM      9  C   UNL A   1      35.152  32.936  31.283  1.00  0.00     0.010 A 
ATOM     10  C   UNL A   1      36.668  33.884  29.652  1.00  0.00     0.010 A 
ATOM     11  C   UNL A   1      36.462  33.133  30.819  1.00  0.00    -0.014 A 
BRANCH  11  12
ATOM     12  C   UNL A   1      37.583  32.441  31.504  1.00  0.00     0.031 A 
ATOM     13  C   UNL A   1      38.321  31.305  30.856  1.00  0.00     0.074 A 
ATOM     14  C   UNL A   1      37.923  32.853  32.742  1.00  0.00     0.049 A 
ATOM     15  N   UNL A   1      39.333  30.617  31.318  1.00  0.00    -0.248 NA
ATOM     16  C   UNL A   1      37.862  30.875  29.525  1.00  0.00     0.031 C 
ATOM     17  C   UNL A   1      37.237  33.909  33.492  1.00  0.00     0.029 A 
ATOM     18  N   UNL A   1      38.918  32.441  33.588  1.00  0.00    -0.354 N 
ATOM     19  C   UNL A   1      39.610  29.650  30.359  1.00  0.00     0.074 A 
ATOM     20  C   UNL A   1      38.654  29.837  29.287  1.00  0.00     0.031 C 
ATOM     21  C   UNL A   1      37.848  34.081  34.672  1.00  0.00     0.029 A 
ATOM     22  C   UNL A   1      38.934  33.116  34.787  1.00  0.00     0.049 A 
ATOM     23  H   UNL A   1      39.561  31.730  33.361  1.00  0.00     0.167 HD
ATOM     24  C   UNL A   1      40.579  28.705  30.368  1.00  0.00     0.034 A 
ATOM     25  C   UNL A   1      39.724  32.969  35.867  1.00  0.00     0.034 A 
ATOM     26  C   UNL A   1      41.547  28.550  31.424  1.00  0.00     0.049 A 
ATOM     27  C   UNL A   1      40.816  31.941  35.829  1.00  0.00     0.074 A 
ATOM     28  C   UNL A   1      42.610  27.665  31.493  1.00  0.00     0.029 A 
ATOM     29  N   UNL A   1      41.568  29.290  32.595  1.00  0.00    -0.354 N 
ATOM     30  N   UNL A   1      41.144  31.126  34.855  1.00  0.00    -0.248 NA
ATOM     31  C   UNL A   1      41.664  31.828  37.022  1.00  0.00     0.031 C 
ATOM     32  C   UNL A   1      43.262  27.859  32.716  1.00  0.00     0.029 A 
ATOM     33  C   UNL A   1      42.620  28.878  33.399  1.00  0.00     0.049 A 
ATOM     34  H   UNL A   1      40.930  30.004  32.824  1.00  0.00     0.167 HD
ATOM     35  C   UNL A   1      42.247  30.417  35.310  1.00  0.00     0.074 A 
ATOM     36  C   UNL A   1      42.551  30.922  36.635  1.00  0.00     0.031 C 
ATOM     37  C   UNL A   1      42.935  29.423  34.696  1.00  0.00     0.034 A 
BRANCH  24  38
ATOM     38  C   UNL A   1      40.675  27.781  29.181  1.00  0.00     0.023 A 
ATOM     39  C   UNL A   1      39.800  26.679  29.085  1.00  0.00     0.012 A 
ATOM     40  C   UNL A   1      41.572  28.045  28.126  1.00  0.00     0.148 A 
ATOM     41  C   UNL A   1      39.835  25.840  27.972  1.00  0.00     0.002 A 
ATOM     42  C   UNL A   1      41.574  27.224  27.002  1.00  0.00     0.091 A 
ATOM     43  F   UNL A   1      42.409  29.084  28.244  1.00  0.00    -0.205 F 
ATOM     44  C   UNL A   1      40.713  26.118  26.928  1.00  0.00     0.022 A 
BRANCH  42  45
ATOM     45  S   UNL A   1      42.617  27.541  25.574  1.00  0.00     0.127 S 
ATOM     46  O   UNL A   1      43.944  27.594  26.185  1.00  0.00    -0.237 OA
ATOM     47  O   UNL A   1      42.375  26.360  24.745  1.00  0.00    -0.237 OA
ATOM     48  O   UNL A   1      42.141  28.792  25.000  1.00  0.00    -0.744 OA
ENDBRANCH  42  45
ENDBRANCH  24  38
BRANCH  25  49
ATOM     49  C   UNL A   1      39.530  33.857  37.047  1.00  0.00     0.023 A 
ATOM     50  C   UNL A   1      39.863  35.221  36.952  1.00  0.00     0.012 A 
ATOM     51  C   UNL A   1      38.958  33.372  38.239  1.00  0.00     0.148 A 
ATOM     52  C   UNL A   1      39.648  36.082  38.029  1.00  0.00     0.002 A 
ATOM     53  C   UNL A   1      38.690  34.245  39.285  1.00  0.00     0.091 A 
ATOM     54  F   UNL A   1      38.663  32.066  38.317  1.00  0.00    -0.205 F 
ATOM     55  C   UNL A   1      39.049  35.598  39.190  1.00  0.00     0.022 A 
BRANCH  53  56
ATOM     56  S   UNL A   1      37.784  33.731  40.750  1.00  0.00     0.127 S 
ATOM     57  O   UNL A   1      37.605  34.999  41.450  1.00  0.00    -0.237 OA
ATOM     58  O   UNL A   1      36.564  33.167  40.173  1.00  0.00    -0.237 OA
ATOM     59  O   UNL A   1      38.640  32.753  41.410  1.00  0.00    -0.744 OA
ENDBRANCH  53  56
ENDBRANCH  25  49
BRANCH  37  60
ATOM     60  C   UNL A   1      44.095  28.823  35.444  1.00  0.00     0.023 A 
ATOM     61  C   UNL A   1      45.390  29.346  35.254  1.00  0.00     0.012 A 
ATOM     62  C   UNL A   1      43.895  27.787  36.374  1.00  0.00     0.148 A 
ATOM     63  C   UNL A   1      46.474  28.823  35.957  1.00  0.00     0.002 A 
ATOM     64  C   UNL A   1      44.973  27.301  37.105  1.00  0.00     0.091 A 
ATOM     65  F   UNL A   1      42.659  27.288  36.523  1.00  0.00    -0.205 F 
ATOM     66  C   UNL A   1      46.264  27.810  36.890  1.00  0.00     0.022 A 
BRANCH  64  67
ATOM     67  S   UNL A   1      44.778  26.061  38.390  1.00  0.00     0.127 S 
ATOM     68  O   UNL A   1      46.154  25.889  38.850  1.00  0.00    -0.237 OA
ATOM     69  O   UNL A   1      43.895  26.735  39.344  1.00  0.00    -0.237 OA
ATOM     70  O   UNL A   1      44.184  24.903  37.737  1.00  0.00    -0.744 OA
ENDBRANCH  64  67
ENDBRANCH  37  60
ENDBRANCH  11  12
ENDBRANCH   4   6
ENDBRANCH   1   2
BRANCH   1  71
ATOM     71  C   UNL A   1      31.473  32.150  26.651  1.00  0.00     0.042 C 
BRANCH  71  72
ATOM     72  C   UNL A   1      31.470  30.631  26.521  1.00  0.00     0.117 C 
BRANCH  72  73
ATOM     73  N   UNL A   1      32.779  30.120  26.176  1.00  0.00    -0.356 N 
ATOM     74  C   UNL A   1      33.198  28.958  25.638  1.00  0.00     0.229 C 
ATOM     75  H   UNL A   1      33.510  30.747  26.377  1.00  0.00     0.163 HD
ATOM     76  O   UNL A   1      34.426  28.798  25.612  1.00  0.00    -0.275 OA
BRANCH  74  77
ATOM     77  C   UNL A   1      32.321  27.933  24.950  1.00  0.00     0.142 C 
ATOM     78  C   UNL A   1      33.173  26.707  24.654  1.00  0.00     0.276 C 
ATOM     79  C   UNL A   1      31.529  28.142  23.672  1.00  0.00     0.065 C 
ATOM     80  N   UNL A   1      32.347  25.829  23.832  1.00  0.00    -0.331 N 
ATOM     81  C   UNL A   1      31.491  26.729  23.032  1.00  0.00     0.267 C 
ATOM     82  H   UNL A   1      32.979  25.258  23.270  1.00  0.00     0.348 HD
BRANCH  79  83
ATOM     83  C   UNL A   1      30.136  28.725  23.800  1.00  0.00    -0.001 C 
ATOM     84  C   UNL A   1      29.719  30.105  23.341  1.00  0.00     0.004 C 
ATOM     85  C   UNL A   1      29.222  28.892  22.610  1.00  0.00     0.004 C 
ENDBRANCH  79  83
BRANCH  80  86
ATOM     86  C   UNL A   1      31.603  24.727  24.481  1.00  0.00     0.187 C 
ATOM     87  C   UNL A   1      31.859  24.430  25.963  1.00  0.00     0.086 C 
ATOM     88  C   UNL A   1      31.593  23.401  23.693  1.00  0.00     0.086 C 
ATOM     89  C   UNL A   1      33.045  23.519  26.225  1.00  0.00     0.126 C 
ATOM     90  C   UNL A   1      32.699  22.401  24.036  1.00  0.00     0.126 C 
ATOM     91  N   UNL A   1      32.977  22.283  25.470  1.00  0.00    -0.338 N 
ATOM     92  C   UNL A   1      33.468  21.142  26.107  1.00  0.00     0.253 C 
ATOM     93  O   UNL A   1      33.786  21.105  27.294  1.00  0.00    -0.269 OA
BRANCH  92  94
ATOM     94  C   UNL A   1      33.582  19.881  25.358  1.00  0.00     0.040 A 
ATOM     95  C   UNL A   1      32.431  19.097  25.236  1.00  0.00     0.014 A 
ATOM     96  C   UNL A   1      34.810  19.432  24.864  1.00  0.00     0.014 A 
ATOM     97  C   UNL A   1      32.497  17.875  24.573  1.00  0.00     0.001 A 
ATOM     98  C   UNL A   1      34.869  18.208  24.196  1.00  0.00     0.001 A 
ATOM     99  C   UNL A   1      33.713  17.436  24.048  1.00  0.00     0.000 A 
ENDBRANCH  92  94
ENDBRANCH  80  86
ENDBRANCH  74  77
ENDBRANCH  72  73
ENDBRANCH  71  72
ENDBRANCH   1  71
TORSDOF 16
ENDMDL
MODEL 2
REMARK VINA RESULT:     -12.6      1.193      2.031
REMARK SMILES O=C(NCCCNC(=O)[C@@H]1C[N@@H+](C2CCN(C(=O)c3ccccc3)CC2)C[C@H]1C1CC1)c1ccc(-c2c3nc(c(-c4cccc(S(=O)(=O)[O-])c4F)c4ccc([nH]4)c(-c4cccc(S(=O)(=O)[O-])c4F)c4nc(c(-c5cccc(S(=O)(=O)[O-])c5F)c5ccc2[nH]5)C=C4)C=C3)cc1
REMARK SMILES IDX 4 1 3 2 1 3 2 4 32 6 33 7 94 8 34 9 93 10 35 11 36 12 37 13
REMARK SMILES IDX 87 14 38 15 92 16 86 17 88 18 39 19 91 20 85 21 84 22 40 24
REMARK SMILES IDX 72 25 52 26 71 27 53 28 56 29 70 30 89 31 54 32 55 33 69 35
REMARK SMILES IDX 90 36 57 37 41 38 42 39 50 40 43 41 45 42 51 43 44 44 46 45
REMARK SMILES IDX 47 46 48 47 49 48 73 49 74 50 82 51 75 52 77 53 83 54 76 55
REMARK SMILES IDX 78 56 79 57 80 58 81 59 58 60 59 61 67 62 60 63 62 64 68 65
REMARK SMILES IDX 61 66 63 67 64 68 65 69 66 70 5 71 6 72 7 73 8 74 9 76 10 77
REMARK SMILES IDX 11 78 28 79 12 80 27 81 29 83 30 84 31 85 13 86 14 87 26 88
REMARK SMILES IDX 15 89 25 90 16 91 17 92 18 93 19 94 20 95 24 96 21 97 23 98
REMARK SMILES IDX 22 99
REMARK H PARENT 3 5 88 23 56 34 7 75 12 82
REMARK Flexibility Score: inf
ROOT
ATOM      1  C   UNL A   1      32.702  32.834  27.273  1.00  0.00     0.118 C 
ENDROOT
BRANCH   1   2
ATOM      2  N   UNL A   1      32.555  34.233  27.638  1.00  0.00    -0.352 N 
ATOM      3  O   UNL A   1      32.612  35.982  29.053  1.00  0.00    -0.269 OA
ATOM      4  C   UNL A   1      33.095  34.898  28.707  1.00  0.00     0.251 C 
ATOM      5  H   UNL A   1      31.995  34.775  27.037  1.00  0.00     0.163 HD
BRANCH   4   6
ATOM      6  C   UNL A   1      34.242  34.321  29.439  1.00  0.00     0.039 A 
ATOM      7  C   UNL A   1      34.028  33.519  30.564  1.00  0.00     0.014 A 
ATOM      8  C   UNL A   1      35.541  34.532  28.969  1.00  0.00     0.014 A 
ATOM      9  C   UNL A   1      35.112  33.021  31.279  1.00  0.00     0.010 A 
ATOM     10  C   UNL A   1      36.625  33.959  29.639  1.00  0.00     0.010 A 
ATOM     11  C   UNL A   1      36.420  33.208  30.807  1.00  0.00    -0.014 A 
BRANCH  11  12
ATOM     12  C   UNL A   1      37.540  32.504  31.482  1.00  0.00     0.031 A 
ATOM     13  C   UNL A   1      38.264  31.364  30.826  1.00  0.00     0.074 A 
ATOM     14  C   UNL A   1      37.891  32.910  32.719  1.00  0.00     0.049 A 
ATOM     15  N   UNL A   1      39.273  30.667  31.279  1.00  0.00    -0.248 NA
ATOM     16  C   UNL A   1      37.793  30.942  29.497  1.00  0.00     0.031 C 
ATOM     17  C   UNL A   1      37.219  33.970  33.476  1.00  0.00     0.029 A 
ATOM     18  N   UNL A   1      38.889  32.487  33.558  1.00  0.00    -0.354 N 
ATOM     19  C   UNL A   1      39.535  29.699  30.316  1.00  0.00     0.074 A 
ATOM     20  C   UNL A   1      38.574  29.898  29.251  1.00  0.00     0.031 C 
ATOM     21  C   UNL A   1      37.840  34.133  34.653  1.00  0.00     0.029 A 
ATOM     22  C   UNL A   1      38.918  33.159  34.758  1.00  0.00     0.049 A 
ATOM     23  H   UNL A   1      39.524  31.771  33.324  1.00  0.00     0.167 HD
ATOM     24  C   UNL A   1      40.497  28.746  30.316  1.00  0.00     0.034 A 
ATOM     25  C   UNL A   1      39.714  33.002  35.833  1.00  0.00     0.034 A 
ATOM     26  C   UNL A   1      41.471  28.581  31.365  1.00  0.00     0.049 A 
ATOM     27  C   UNL A   1      40.797  31.965  35.784  1.00  0.00     0.074 A 
ATOM     28  C   UNL A   1      42.526  27.686  31.425  1.00  0.00     0.029 A 
ATOM     29  N   UNL A   1      41.506  29.317  32.539  1.00  0.00    -0.354 N 
ATOM     30  N   UNL A   1      41.111  31.150  34.806  1.00  0.00    -0.248 NA
ATOM     31  C   UNL A   1      41.652  31.842  36.972  1.00  0.00     0.031 C 
ATOM     32  C   UNL A   1      43.188  27.871  32.644  1.00  0.00     0.029 A 
ATOM     33  C   UNL A   1      42.559  28.894  33.334  1.00  0.00     0.049 A 
ATOM     34  H   UNL A   1      40.875  30.035  32.773  1.00  0.00     0.167 HD
ATOM     35  C   UNL A   1      42.212  30.430  35.252  1.00  0.00     0.074 A 
ATOM     36  C   UNL A   1      42.528  30.929  36.576  1.00  0.00     0.031 C 
ATOM     37  C   UNL A   1      42.887  29.432  34.630  1.00  0.00     0.034 A 
BRANCH  24  38
ATOM     38  C   UNL A   1      40.577  27.826  29.126  1.00  0.00     0.023 A 
ATOM     39  C   UNL A   1      39.673  26.749  29.017  1.00  0.00     0.012 A 
ATOM     40  C   UNL A   1      41.491  28.068  28.080  1.00  0.00     0.148 A 
ATOM     41  C   UNL A   1      39.693  25.913  27.901  1.00  0.00     0.002 A 
ATOM     42  C   UNL A   1      41.480  27.253  26.953  1.00  0.00     0.091 A 
ATOM     43  F   UNL A   1      42.356  29.083  28.210  1.00  0.00    -0.205 F 
ATOM     44  C   UNL A   1      40.588  26.171  26.866  1.00  0.00     0.022 A 
BRANCH  42  45
ATOM     45  S   UNL A   1      42.544  27.546  25.535  1.00  0.00     0.127 S 
ATOM     46  O   UNL A   1      42.263  26.372  24.709  1.00  0.00    -0.237 OA
ATOM     47  O   UNL A   1      42.015  28.803  25.005  1.00  0.00    -0.237 OA
ATOM     48  O   UNL A   1      43.899  27.632  26.062  1.00  0.00    -0.744 OA
ENDBRANCH  42  45
ENDBRANCH  24  38
BRANCH  25  49
ATOM     49  C   UNL A   1      39.535  33.888  37.016  1.00  0.00     0.023 A 
ATOM     50  C   UNL A   1      39.910  35.242  36.933  1.00  0.00     0.012 A 
ATOM     51  C   UNL A   1      38.936  33.413  38.200  1.00  0.00     0.148 A 
ATOM     52  C   UNL A   1      39.710  36.103  38.014  1.00  0.00     0.002 A 
ATOM     53  C   UNL A   1      38.685  34.288  39.249  1.00  0.00     0.091 A 
ATOM     54  F   UNL A   1      38.602  32.116  38.266  1.00  0.00    -0.205 F 
ATOM     55  C   UNL A   1      39.086  35.630  39.165  1.00  0.00     0.022 A 
BRANCH  53  56
ATOM     56  S   UNL A   1      37.749  33.793  40.702  1.00  0.00     0.127 S 
ATOM     57  O   UNL A   1      36.553  33.211  40.102  1.00  0.00    -0.237 OA
ATOM     58  O   UNL A   1      38.653  32.831  41.334  1.00  0.00    -0.237 OA
ATOM     59  O   UNL A   1      37.550  35.016  41.468  1.00  0.00    -0.744 OA
ENDBRANCH  53  56
ENDBRANCH  25  49
BRANCH  37  60
ATOM     60  C   UNL A   1      44.047  28.821  35.369  1.00  0.00     0.023 A 
ATOM     61  C   UNL A   1      45.342  29.346  35.188  1.00  0.00     0.012 A 
ATOM     62  C   UNL A   1      43.847  27.770  36.283  1.00  0.00     0.148 A 
ATOM     63  C   UNL A   1      46.426  28.811  35.882  1.00  0.00     0.002 A 
ATOM     64  C   UNL A   1      44.924  27.273  37.007  1.00  0.00     0.091 A 
ATOM     65  F   UNL A   1      42.610  27.270  36.424  1.00  0.00    -0.205 F 
ATOM     66  C   UNL A   1      46.215  27.785  36.799  1.00  0.00     0.022 A 
BRANCH  64  67
ATOM     67  S   UNL A   1      44.729  26.014  38.272  1.00  0.00     0.127 S 
ATOM     68  O   UNL A   1      44.118  24.922  37.516  1.00  0.00    -0.237 OA
ATOM     69  O   UNL A   1      46.111  25.770  38.687  1.00  0.00    -0.237 OA
ATOM     70  O   UNL A   1      43.890  26.612  39.302  1.00  0.00    -0.744 OA
ENDBRANCH  64  67
ENDBRANCH  37  60
ENDBRANCH  11  12
ENDBRANCH   4   6
ENDBRANCH   1   2
BRANCH   1  71
ATOM     71  C   UNL A   1      31.451  32.305  26.579  1.00  0.00     0.042 C 
BRANCH  71  72
ATOM     72  C   UNL A   1      31.481  30.799  26.341  1.00  0.00     0.117 C 
BRANCH  72  73
ATOM     73  N   UNL A   1      31.060  30.460  24.999  1.00  0.00    -0.356 N 
ATOM     74  C   UNL A   1      31.162  29.338  24.261  1.00  0.00     0.229 C 
ATOM     75  H   UNL A   1      30.608  31.199  24.531  1.00  0.00     0.163 HD
ATOM     76  O   UNL A   1      30.812  29.447  23.077  1.00  0.00    -0.275 OA
BRANCH  74  77
ATOM     77  C   UNL A   1      31.521  27.963  24.784  1.00  0.00     0.142 C 
ATOM     78  C   UNL A   1      30.307  27.061  24.613  1.00  0.00     0.276 C 
ATOM     79  C   UNL A   1      32.021  27.636  26.180  1.00  0.00     0.065 C 
ATOM     80  N   UNL A   1      30.630  25.813  25.294  1.00  0.00    -0.331 N 
ATOM     81  C   UNL A   1      31.501  26.196  26.425  1.00  0.00     0.267 C 
ATOM     82  H   UNL A   1      29.748  25.389  25.582  1.00  0.00     0.348 HD
BRANCH  79  83
ATOM     83  C   UNL A   1      33.514  27.731  26.427  1.00  0.00    -0.001 C 
ATOM     84  C   UNL A   1      34.414  28.841  25.932  1.00  0.00     0.004 C 
ATOM     85  C   UNL A   1      34.105  28.726  27.397  1.00  0.00     0.004 C 
ENDBRANCH  79  83
BRANCH  80  86
ATOM     86  C   UNL A   1      31.153  24.677  24.504  1.00  0.00     0.187 C 
ATOM     87  C   UNL A   1      30.837  23.248  24.960  1.00  0.00     0.086 C 
ATOM     88  C   UNL A   1      32.650  24.774  24.144  1.00  0.00     0.086 C 
ATOM     89  C   UNL A   1      31.787  22.699  26.010  1.00  0.00     0.126 C 
ATOM     90  C   UNL A   1      33.625  24.107  25.116  1.00  0.00     0.126 C 
ATOM     91  N   UNL A   1      33.178  22.803  25.613  1.00  0.00    -0.338 N 
ATOM     92  C   UNL A   1      34.014  21.761  26.015  1.00  0.00     0.253 C 
ATOM     93  O   UNL A   1      33.610  20.716  26.523  1.00  0.00    -0.269 OA
BRANCH  92  94
ATOM     94  C   UNL A   1      35.465  21.863  25.793  1.00  0.00     0.040 A 
ATOM     95  C   UNL A   1      36.090  23.059  26.154  1.00  0.00     0.014 A 
ATOM     96  C   UNL A   1      36.182  20.843  25.161  1.00  0.00     0.014 A 
ATOM     97  C   UNL A   1      37.453  23.221  25.926  1.00  0.00     0.001 A 
ATOM     98  C   UNL A   1      37.550  21.009  24.939  1.00  0.00     0.001 A 
ATOM     99  C   UNL A   1      38.183  22.193  25.326  1.00  0.00     0.000 A 
ENDBRANCH  92  94
ENDBRANCH  80  86
ENDBRANCH  74  77
ENDBRANCH  72  73
ENDBRANCH  71  72
ENDBRANCH   1  71
TORSDOF 16
ENDMDL
MODEL 3
REMARK VINA RESULT:     -12.6      5.447      8.911
REMARK SMILES O=C(NCCCNC(=O)[C@@H]1C[N@@H+](C2CCN(C(=O)c3ccccc3)CC2)C[C@H]1C1CC1)c1ccc(-c2c3nc(c(-c4cccc(S(=O)(=O)[O-])c4F)c4ccc([nH]4)c(-c4cccc(S(=O)(=O)[O-])c4F)c4nc(c(-c5cccc(S(=O)(=O)[O-])c5F)c5ccc2[nH]5)C=C4)C=C3)cc1
REMARK SMILES IDX 4 1 3 2 1 3 2 4 32 6 33 7 94 8 34 9 93 10 35 11 36 12 37 13
REMARK SMILES IDX 87 14 38 15 92 16 86 17 88 18 39 19 91 20 85 21 84 22 40 24
REMARK SMILES IDX 72 25 52 26 71 27 53 28 56 29 70 30 89 31 54 32 55 33 69 35
REMARK SMILES IDX 90 36 57 37 41 38 42 39 50 40 43 41 45 42 51 43 44 44 46 45
REMARK SMILES IDX 47 46 48 47 49 48 73 49 74 50 82 51 75 52 77 53 83 54 76 55
REMARK SMILES IDX 78 56 79 57 80 58 81 59 58 60 59 61 67 62 60 63 62 64 68 65
REMARK SMILES IDX 61 66 63 67 64 68 65 69 66 70 5 71 6 72 7 73 8 74 9 76 10 77
REMARK SMILES IDX 11 78 28 79 12 80 27 81 29 83 30 84 31 85 13 86 14 87 26 88
REMARK SMILES IDX 15 89 25 90 16 91 17 92 18 93 19 94 20 95 24 96 21 97 23 98
REMARK SMILES IDX 22 99
REMARK H PARENT 3 5 88 23 56 34 7 75 12 82
REMARK Flexibility Score: inf
ROOT
ATOM      1  C   UNL A   1      37.190  23.583  25.229  1.00  0.00     0.118 C 
ENDROOT
BRANCH   1   2
ATOM      2  N   UNL A   1      38.127  22.613  25.768  1.00  0.00    -0.352 N 
ATOM      3  O   UNL A   1      40.148  21.909  26.466  1.00  0.00    -0.269 OA
ATOM      4  C   UNL A   1      39.338  22.838  26.368  1.00  0.00     0.251 C 
ATOM      5  H   UNL A   1      37.857  21.669  25.693  1.00  0.00     0.163 HD
BRANCH   4   6
ATOM      6  C   UNL A   1      39.671  24.180  26.889  1.00  0.00     0.039 A 
ATOM      7  C   UNL A   1      39.462  24.484  28.238  1.00  0.00     0.014 A 
ATOM      8  C   UNL A   1      40.251  25.128  26.042  1.00  0.00     0.014 A 
ATOM      9  C   UNL A   1      39.729  25.763  28.712  1.00  0.00     0.010 A 
ATOM     10  C   UNL A   1      40.599  26.386  26.541  1.00  0.00     0.010 A 
ATOM     11  C   UNL A   1      40.331  26.718  27.878  1.00  0.00    -0.014 A 
BRANCH  11  12
ATOM     12  C   UNL A   1      40.780  28.008  28.462  1.00  0.00     0.031 A 
ATOM     13  C   UNL A   1      42.236  28.323  28.649  1.00  0.00     0.074 A 
ATOM     14  C   UNL A   1      39.839  28.898  28.834  1.00  0.00     0.049 A 
ATOM     15  N   UNL A   1      42.783  29.412  29.123  1.00  0.00    -0.248 NA
ATOM     16  C   UNL A   1      43.206  27.283  28.267  1.00  0.00     0.031 C 
ATOM     17  C   UNL A   1      38.393  28.674  28.752  1.00  0.00     0.029 A 
ATOM     18  N   UNL A   1      39.948  30.161  29.356  1.00  0.00    -0.354 N 
ATOM     19  C   UNL A   1      44.154  29.180  29.136  1.00  0.00     0.074 A 
ATOM     20  C   UNL A   1      44.356  27.841  28.624  1.00  0.00     0.031 C 
ATOM     21  C   UNL A   1      37.751  29.770  29.178  1.00  0.00     0.029 A 
ATOM     22  C   UNL A   1      38.734  30.754  29.613  1.00  0.00     0.049 A 
ATOM     23  H   UNL A   1      40.812  30.601  29.529  1.00  0.00     0.167 HD
ATOM     24  C   UNL A   1      45.148  30.012  29.526  1.00  0.00     0.034 A 
ATOM     25  C   UNL A   1      38.440  31.952  30.153  1.00  0.00     0.034 A 
ATOM     26  C   UNL A   1      44.937  31.356  30.001  1.00  0.00     0.049 A 
ATOM     27  C   UNL A   1      39.564  32.869  30.536  1.00  0.00     0.074 A 
ATOM     28  C   UNL A   1      45.884  32.301  30.358  1.00  0.00     0.029 A 
ATOM     29  N   UNL A   1      43.697  31.944  30.194  1.00  0.00    -0.354 N 
ATOM     30  N   UNL A   1      40.856  32.679  30.414  1.00  0.00    -0.248 NA
ATOM     31  C   UNL A   1      39.196  34.172  31.103  1.00  0.00     0.031 C 
ATOM     32  C   UNL A   1      45.216  33.454  30.783  1.00  0.00     0.029 A 
ATOM     33  C   UNL A   1      43.852  33.236  30.672  1.00  0.00     0.049 A 
ATOM     34  H   UNL A   1      42.832  31.508  30.018  1.00  0.00     0.167 HD
ATOM     35  C   UNL A   1      41.455  33.845  30.872  1.00  0.00     0.074 A 
ATOM     36  C   UNL A   1      40.382  34.747  31.243  1.00  0.00     0.031 C 
ATOM     37  C   UNL A   1      42.774  34.136  30.994  1.00  0.00     0.034 A 
BRANCH  24  38
ATOM     38  C   UNL A   1      46.566  29.515  29.420  1.00  0.00     0.023 A 
ATOM     39  C   UNL A   1      47.152  28.845  30.514  1.00  0.00     0.012 A 
ATOM     40  C   UNL A   1      47.292  29.639  28.218  1.00  0.00     0.148 A 
ATOM     41  C   UNL A   1      48.445  28.331  30.423  1.00  0.00     0.002 A 
ATOM     42  C   UNL A   1      48.567  29.090  28.122  1.00  0.00     0.091 A 
ATOM     43  F   UNL A   1      46.727  30.296  27.195  1.00  0.00    -0.205 F 
ATOM     44  C   UNL A   1      49.147  28.444  29.226  1.00  0.00     0.022 A 
BRANCH  42  45
ATOM     45  S   UNL A   1      49.523  29.120  26.602  1.00  0.00     0.127 S 
ATOM     46  O   UNL A   1      49.800  30.549  26.457  1.00  0.00    -0.237 OA
ATOM     47  O   UNL A   1      50.687  28.307  26.951  1.00  0.00    -0.237 OA
ATOM     48  O   UNL A   1      48.664  28.541  25.577  1.00  0.00    -0.744 OA
ENDBRANCH  42  45
ENDBRANCH  24  38
BRANCH  25  49
ATOM     49  C   UNL A   1      37.015  32.358  30.311  1.00  0.00     0.023 A 
ATOM     50  C   UNL A   1      36.323  32.019  31.488  1.00  0.00     0.012 A 
ATOM     51  C   UNL A   1      36.365  33.134  29.331  1.00  0.00     0.148 A 
ATOM     52  C   UNL A   1      35.002  32.428  31.678  1.00  0.00     0.002 A 
ATOM     53  C   UNL A   1      35.072  33.589  29.553  1.00  0.00     0.091 A 
ATOM     54  F   UNL A   1      37.035  33.433  28.209  1.00  0.00    -0.205 F 
ATOM     55  C   UNL A   1      34.381  33.223  30.719  1.00  0.00     0.022 A 
BRANCH  53  56
ATOM     56  S   UNL A   1      34.260  34.741  28.438  1.00  0.00     0.127 S 
ATOM     57  O   UNL A   1      32.855  34.551  28.782  1.00  0.00    -0.237 OA
ATOM     58  O   UNL A   1      34.830  36.023  28.855  1.00  0.00    -0.237 OA
ATOM     59  O   UNL A   1      34.652  34.323  27.098  1.00  0.00    -0.744 OA
ENDBRANCH  53  56
ENDBRANCH  25  49
BRANCH  37  60
ATOM     60  C   UNL A   1      43.132  35.492  31.538  1.00  0.00     0.023 A 
ATOM     61  C   UNL A   1      43.152  35.701  32.931  1.00  0.00     0.012 A 
ATOM     62  C   UNL A   1      43.506  36.539  30.675  1.00  0.00     0.148 A 
ATOM     63  C   UNL A   1      43.507  36.942  33.456  1.00  0.00     0.002 A 
ATOM     64  C   UNL A   1      43.904  37.760  31.207  1.00  0.00     0.091 A 
ATOM     65  F   UNL A   1      43.459  36.327  29.351  1.00  0.00    -0.205 F 
ATOM     66  C   UNL A   1      43.894  37.966  32.596  1.00  0.00     0.022 A 
BRANCH  64  67
ATOM     67  S   UNL A   1      44.504  39.104  30.177  1.00  0.00     0.127 S 
ATOM     68  O   UNL A   1      43.389  39.290  29.250  1.00  0.00    -0.237 OA
ATOM     69  O   UNL A   1      44.680  40.187  31.146  1.00  0.00    -0.237 OA
ATOM     70  O   UNL A   1      45.743  38.624  29.580  1.00  0.00    -0.744 OA
ENDBRANCH  64  67
ENDBRANCH  37  60
ENDBRANCH  11  12
ENDBRANCH   4   6
ENDBRANCH   1   2
BRANCH   1  71
ATOM     71  C   UNL A   1      35.746  23.127  25.418  1.00  0.00     0.042 C 
BRANCH  71  72
ATOM     72  C   UNL A   1      35.623  21.789  26.139  1.00  0.00     0.117 C 
BRANCH  72  73
ATOM     73  N   UNL A   1      34.749  21.877  27.288  1.00  0.00    -0.356 N 
ATOM     74  C   UNL A   1      33.503  22.359  27.458  1.00  0.00     0.229 C 
ATOM     75  H   UNL A   1      35.146  21.511  28.111  1.00  0.00     0.163 HD
ATOM     76  O   UNL A   1      33.107  22.404  28.632  1.00  0.00    -0.275 OA
BRANCH  74  77
ATOM     77  C   UNL A   1      32.526  22.702  26.353  1.00  0.00     0.142 C 
ATOM     78  C   UNL A   1      31.304  23.350  26.987  1.00  0.00     0.276 C 
ATOM     79  C   UNL A   1      31.939  21.734  25.341  1.00  0.00     0.065 C 
ATOM     80  N   UNL A   1      30.320  23.491  25.920  1.00  0.00    -0.331 N 
ATOM     81  C   UNL A   1      30.549  22.342  25.020  1.00  0.00     0.267 C 
ATOM     82  H   UNL A   1      29.398  23.491  26.357  1.00  0.00     0.348 HD
BRANCH  79  83
ATOM     83  C   UNL A   1      32.734  21.478  24.077  1.00  0.00    -0.001 C 
ATOM     84  C   UNL A   1      33.087  20.114  23.525  1.00  0.00     0.004 C 
ATOM     85  C   UNL A   1      32.086  20.974  22.809  1.00  0.00     0.004 C 
ENDBRANCH  79  83
BRANCH  80  86
ATOM     86  C   UNL A   1      30.208  24.784  25.211  1.00  0.00     0.187 C 
ATOM     87  C   UNL A   1      31.128  25.057  24.015  1.00  0.00     0.086 C 
ATOM     88  C   UNL A   1      30.188  26.025  26.128  1.00  0.00     0.086 C 
ATOM     89  C   UNL A   1      32.495  25.603  24.386  1.00  0.00     0.126 C 
ATOM     90  C   UNL A   1      31.541  26.682  26.407  1.00  0.00     0.126 C 
ATOM     91  N   UNL A   1      32.416  26.776  25.236  1.00  0.00    -0.338 N 
ATOM     92  C   UNL A   1      33.389  27.755  25.029  1.00  0.00     0.253 C 
ATOM     93  O   UNL A   1      34.176  27.748  24.084  1.00  0.00    -0.269 OA
BRANCH  92  94
ATOM     94  C   UNL A   1      33.479  28.900  25.948  1.00  0.00     0.040 A 
ATOM     95  C   UNL A   1      32.452  29.847  25.899  1.00  0.00     0.014 A 
ATOM     96  C   UNL A   1      34.589  29.088  26.777  1.00  0.00     0.014 A 
ATOM     97  C   UNL A   1      32.512  30.970  26.720  1.00  0.00     0.001 A 
ATOM     98  C   UNL A   1      34.640  30.213  27.599  1.00  0.00     0.001 A 
ATOM     99  C   UNL A   1      33.602  31.148  27.574  1.00  0.00     0.000 A 
ENDBRANCH  92  94
ENDBRANCH  80  86
ENDBRANCH  74  77
ENDBRANCH  72  73
ENDBRANCH  71  72
ENDBRANCH   1  71
TORSDOF 16
ENDMDL
