MODEL 1
REMARK VINA RESULT:     -13.5      0.000      0.000
REMARK SMILES Cc1nc2ccc(Cl)cc2cc1C(=O)N1CCC(C(=O)NCCCNC(=O)c2ccc(-c3c4nc(c(-c5cccc(S(=O)(=O)[O-])c5F)c5ccc([nH]5)c(-c5cccc(S(=O)(=O)[O-])c5F)c5nc(c(-c6cccc(S(=O)(=O)[O-])c6F)c6ccc3[nH]6)C=C5)C=C4)cc2)CC1
REMARK SMILES IDX 24 1 23 2 22 3 21 4 19 5 20 6 18 8 13 9 14 10 15 11 16 12
REMARK SMILES IDX 92 13 17 14 91 15 12 16 1 17 2 18 3 19 4 20 11 21 5 22 10 23
REMARK SMILES IDX 6 24 9 25 7 26 8 27 25 28 26 29 27 31 28 32 29 33 90 34
REMARK SMILES IDX 30 35 89 36 31 37 32 38 33 39 83 40 34 41 88 42 82 43 84 44
REMARK SMILES IDX 35 45 87 46 81 47 80 48 36 50 68 51 48 52 67 53 49 54 52 55
REMARK SMILES IDX 66 56 85 57 50 58 51 59 65 61 86 62 53 63 37 64 38 65 46 66
REMARK SMILES IDX 39 67 41 68 47 69 40 70 42 71 43 72 44 73 45 74 69 75 70 76
REMARK SMILES IDX 78 77 71 78 73 79 79 80 72 81 74 82 75 83 76 84 77 85 54 86
REMARK SMILES IDX 55 87 63 88 56 89 58 90 64 91 57 92 59 93 60 94 61 95 62 96
REMARK H PARENT 21 7 25 30 84 49 52 60
REMARK Flexibility Score: inf
ROOT
ATOM      1  C   UNL A   1      32.806  32.893  27.327  1.00  0.00     0.118 C 
ENDROOT
BRANCH   1   2
ATOM      2  C   UNL A   1      31.649  32.274  26.563  1.00  0.00     0.042 C 
BRANCH   2   3
ATOM      3  C   UNL A   1      31.790  30.776  26.350  1.00  0.00     0.117 C 
BRANCH   3   4
ATOM      4  N   UNL A   1      31.247  30.339  25.071  1.00  0.00    -0.356 N 
ATOM      5  C   UNL A   1      31.489  29.223  24.334  1.00  0.00     0.223 C 
ATOM      6  O   UNL A   1      30.873  29.081  23.274  1.00  0.00    -0.275 OA
ATOM      7  H   UNL A   1      30.594  30.958  24.672  1.00  0.00     0.163 HD
BRANCH   5   8
ATOM      8  C   UNL A   1      32.466  28.158  24.800  1.00  0.00     0.082 C 
ATOM      9  C   UNL A   1      32.961  24.042  25.697  1.00  0.00     0.255 C 
ATOM     10  O   UNL A   1      32.049  23.572  26.370  1.00  0.00    -0.269 OA
ATOM     11  N   UNL A   1      33.036  25.406  25.400  1.00  0.00    -0.339 N 
ATOM     12  C   UNL A   1      32.836  26.324  26.509  1.00  0.00     0.120 C 
ATOM     13  C   UNL A   1      33.585  25.966  24.168  1.00  0.00     0.120 C 
ATOM     14  C   UNL A   1      32.017  27.536  26.125  1.00  0.00     0.035 C 
ATOM     15  C   UNL A   1      32.778  27.158  23.677  1.00  0.00     0.035 C 
BRANCH   9  16
ATOM     16  C   UNL A   1      34.133  23.188  25.361  1.00  0.00     0.061 A 
ATOM     17  C   UNL A   1      32.770  21.403  24.139  1.00  0.00     0.067 C 
ATOM     18  C   UNL A   1      34.050  21.974  24.681  1.00  0.00     0.051 A 
ATOM     19  N   UNL A   1      35.138  21.157  24.520  1.00  0.00    -0.252 NA
ATOM     20  C   UNL A   1      36.327  21.525  25.032  1.00  0.00     0.071 A 
ATOM     21  C   UNL A   1      35.373  23.536  25.909  1.00  0.00     0.026 A 
ATOM     22  C   UNL A   1      37.436  20.699  24.909  1.00  0.00     0.030 A 
ATOM     23  C   UNL A   1      36.494  22.734  25.724  1.00  0.00     0.002 A 
ATOM     24  C   UNL A   1      38.689  21.066  25.418  1.00  0.00     0.023 A 
ATOM     25  C   UNL A   1      37.744  23.121  26.232  1.00  0.00     0.030 A 
ATOM     26  C   UNL A   1      38.839  22.286  26.066  1.00  0.00     0.041 A 
ATOM     27  Cl  UNL A   1      40.377  22.769  26.663  1.00  0.00    -0.084 Cl
ENDBRANCH   9  16
ENDBRANCH   5   8
ENDBRANCH   3   4
ENDBRANCH   2   3
ENDBRANCH   1   2
BRANCH   1  28
ATOM     28  N   UNL A   1      32.538  34.270  27.724  1.00  0.00    -0.352 N 
ATOM     29  C   UNL A   1      33.076  35.010  28.748  1.00  0.00     0.251 C 
ATOM     30  H   UNL A   1      31.870  34.741  27.175  1.00  0.00     0.163 HD
ATOM     31  O   UNL A   1      32.568  36.088  29.049  1.00  0.00    -0.269 OA
BRANCH  29  32
ATOM     32  C   UNL A   1      34.249  34.505  29.490  1.00  0.00     0.039 A 
ATOM     33  C   UNL A   1      34.062  33.935  30.752  1.00  0.00     0.014 A 
ATOM     34  C   UNL A   1      35.531  34.593  28.944  1.00  0.00     0.014 A 
ATOM     35  C   UNL A   1      35.154  33.395  31.434  1.00  0.00     0.010 A 
ATOM     36  C   UNL A   1      36.597  33.968  29.578  1.00  0.00     0.010 A 
ATOM     37  C   UNL A   1      36.425  33.374  30.835  1.00  0.00    -0.014 A 
BRANCH  37  38
ATOM     38  C   UNL A   1      37.589  32.738  31.502  1.00  0.00     0.031 A 
ATOM     39  C   UNL A   1      38.289  31.575  30.853  1.00  0.00     0.074 A 
ATOM     40  C   UNL A   1      37.946  33.135  32.740  1.00  0.00     0.049 A 
ATOM     41  N   UNL A   1      39.261  30.833  31.317  1.00  0.00    -0.248 NA
ATOM     42  C   UNL A   1      37.810  31.168  29.521  1.00  0.00     0.031 C 
ATOM     43  C   UNL A   1      37.284  34.186  33.514  1.00  0.00     0.029 A 
ATOM     44  N   UNL A   1      38.930  32.673  33.578  1.00  0.00    -0.354 N 
ATOM     45  C   UNL A   1      39.481  29.852  30.358  1.00  0.00     0.074 A 
ATOM     46  C   UNL A   1      38.513  30.067  29.304  1.00  0.00     0.031 C 
ATOM     47  C   UNL A   1      37.875  34.285  34.716  1.00  0.00     0.029 A 
ATOM     48  C   UNL A   1      38.933  33.284  34.811  1.00  0.00     0.049 A 
ATOM     49  H   UNL A   1      39.571  31.972  33.323  1.00  0.00     0.167 HD
ATOM     50  C   UNL A   1      40.423  28.879  30.336  1.00  0.00     0.034 A 
ATOM     51  C   UNL A   1      39.690  33.054  35.901  1.00  0.00     0.034 A 
ATOM     52  C   UNL A   1      41.409  28.696  31.366  1.00  0.00     0.049 A 
ATOM     53  C   UNL A   1      40.763  32.003  35.838  1.00  0.00     0.074 A 
ATOM     54  C   UNL A   1      42.468  27.806  31.395  1.00  0.00     0.029 A 
ATOM     55  N   UNL A   1      41.450  29.406  32.557  1.00  0.00    -0.354 N 
ATOM     56  N   UNL A   1      41.068  31.195  34.851  1.00  0.00    -0.248 NA
ATOM     57  C   UNL A   1      41.622  31.856  37.021  1.00  0.00     0.031 C 
ATOM     58  C   UNL A   1      43.133  27.959  32.617  1.00  0.00     0.029 A 
ATOM     59  C   UNL A   1      42.508  28.967  33.334  1.00  0.00     0.049 A 
ATOM     60  H   UNL A   1      40.820  30.118  32.811  1.00  0.00     0.167 HD
ATOM     61  C   UNL A   1      42.171  30.466  35.280  1.00  0.00     0.074 A 
ATOM     62  C   UNL A   1      42.493  30.943  36.610  1.00  0.00     0.031 C 
ATOM     63  C   UNL A   1      42.846  29.482  34.637  1.00  0.00     0.034 A 
BRANCH  50  64
ATOM     64  C   UNL A   1      40.457  27.971  29.134  1.00  0.00     0.023 A 
ATOM     65  C   UNL A   1      39.514  26.927  29.020  1.00  0.00     0.012 A 
ATOM     66  C   UNL A   1      41.397  28.164  28.103  1.00  0.00     0.148 A 
ATOM     67  C   UNL A   1      39.537  26.063  27.928  1.00  0.00     0.002 A 
ATOM     68  C   UNL A   1      41.381  27.328  26.991  1.00  0.00     0.091 A 
ATOM     69  F   UNL A   1      42.300  29.146  28.234  1.00  0.00    -0.205 F 
ATOM     70  C   UNL A   1      40.464  26.268  26.910  1.00  0.00     0.022 A 
BRANCH  68  71
ATOM     71  S   UNL A   1      42.480  27.564  25.590  1.00  0.00     0.127 S 
ATOM     72  O   UNL A   1      42.198  26.373  24.790  1.00  0.00    -0.237 OA
ATOM     73  O   UNL A   1      41.983  28.815  25.016  1.00  0.00    -0.237 OA
ATOM     74  O   UNL A   1      43.823  27.645  26.144  1.00  0.00    -0.744 OA
ENDBRANCH  68  71
ENDBRANCH  50  64
BRANCH  51  75
ATOM     75  C   UNL A   1      39.484  33.877  37.126  1.00  0.00     0.023 A 
ATOM     76  C   UNL A   1      39.900  35.221  37.140  1.00  0.00     0.012 A 
ATOM     77  C   UNL A   1      38.828  33.347  38.254  1.00  0.00     0.148 A 
ATOM     78  C   UNL A   1      39.691  36.017  38.266  1.00  0.00     0.002 A 
ATOM     79  C   UNL A   1      38.573  34.161  39.351  1.00  0.00     0.091 A 
ATOM     80  F   UNL A   1      38.447  32.062  38.221  1.00  0.00    -0.205 F 
ATOM     81  C   UNL A   1      39.018  35.492  39.366  1.00  0.00     0.022 A 
BRANCH  79  82
ATOM     82  S   UNL A   1      37.596  33.610  40.754  1.00  0.00     0.127 S 
ATOM     83  O   UNL A   1      38.485  32.629  41.371  1.00  0.00    -0.237 OA
ATOM     84  O   UNL A   1      37.430  34.852  41.510  1.00  0.00    -0.237 OA
ATOM     85  O   UNL A   1      36.362  33.079  40.191  1.00  0.00    -0.744 OA
ENDBRANCH  79  82
ENDBRANCH  51  75
BRANCH  63  86
ATOM     86  C   UNL A   1      44.028  28.868  35.341  1.00  0.00     0.023 A 
ATOM     87  C   UNL A   1      45.309  29.436  35.191  1.00  0.00     0.012 A 
ATOM     88  C   UNL A   1      43.854  27.779  36.219  1.00  0.00     0.148 A 
ATOM     89  C   UNL A   1      46.402  28.911  35.879  1.00  0.00     0.002 A 
ATOM     90  C   UNL A   1      44.937  27.293  36.940  1.00  0.00     0.091 A 
ATOM     91  F   UNL A   1      42.630  27.242  36.334  1.00  0.00    -0.205 F 
ATOM     92  C   UNL A   1      46.214  27.849  36.761  1.00  0.00     0.022 A 
BRANCH  90  93
ATOM     93  S   UNL A   1      44.772  25.997  38.171  1.00  0.00     0.127 S 
ATOM     94  O   UNL A   1      46.103  25.991  38.777  1.00  0.00    -0.237 OA
ATOM     95  O   UNL A   1      43.713  26.521  39.033  1.00  0.00    -0.237 OA
ATOM     96  O   UNL A   1      44.416  24.789  37.440  1.00  0.00    -0.744 OA
ENDBRANCH  90  93
ENDBRANCH  63  86
ENDBRANCH  37  38
ENDBRANCH  29  32
ENDBRANCH   1  28
TORSDOF 14
ENDMDL
MODEL 2
REMARK VINA RESULT:     -13.3      1.727      2.259
REMARK SMILES Cc1nc2ccc(Cl)cc2cc1C(=O)N1CCC(C(=O)NCCCNC(=O)c2ccc(-c3c4nc(c(-c5cccc(S(=O)(=O)[O-])c5F)c5ccc([nH]5)c(-c5cccc(S(=O)(=O)[O-])c5F)c5nc(c(-c6cccc(S(=O)(=O)[O-])c6F)c6ccc3[nH]6)C=C5)C=C4)cc2)CC1
REMARK SMILES IDX 24 1 23 2 22 3 21 4 19 5 20 6 18 8 13 9 14 10 15 11 16 12
REMARK SMILES IDX 92 13 17 14 91 15 12 16 1 17 2 18 3 19 4 20 11 21 5 22 10 23
REMARK SMILES IDX 6 24 9 25 7 26 8 27 25 28 26 29 27 31 28 32 29 33 90 34
REMARK SMILES IDX 30 35 89 36 31 37 32 38 33 39 83 40 34 41 88 42 82 43 84 44
REMARK SMILES IDX 35 45 87 46 81 47 80 48 36 50 68 51 48 52 67 53 49 54 52 55
REMARK SMILES IDX 66 56 85 57 50 58 51 59 65 61 86 62 53 63 37 64 38 65 46 66
REMARK SMILES IDX 39 67 41 68 47 69 40 70 42 71 43 72 44 73 45 74 69 75 70 76
REMARK SMILES IDX 78 77 71 78 73 79 79 80 72 81 74 82 75 83 76 84 77 85 54 86
REMARK SMILES IDX 55 87 63 88 56 89 58 90 64 91 57 92 59 93 60 94 61 95 62 96
REMARK H PARENT 21 7 25 30 84 49 52 60
REMARK Flexibility Score: inf
ROOT
ATOM      1  C   UNL A   1      32.937  32.167  27.053  1.00  0.00     0.118 C 
ENDROOT
BRANCH   1   2
ATOM      2  C   UNL A   1      31.680  31.335  26.869  1.00  0.00     0.042 C 
BRANCH   2   3
ATOM      3  C   UNL A   1      31.707  30.453  25.631  1.00  0.00     0.117 C 
BRANCH   3   4
ATOM      4  N   UNL A   1      30.659  30.795  24.679  1.00  0.00    -0.356 N 
ATOM      5  C   UNL A   1      29.972  30.024  23.794  1.00  0.00     0.223 C 
ATOM      6  O   UNL A   1      29.106  30.565  23.101  1.00  0.00    -0.275 OA
ATOM      7  H   UNL A   1      30.404  31.746  24.675  1.00  0.00     0.163 HD
BRANCH   5   8
ATOM      8  C   UNL A   1      30.233  28.533  23.667  1.00  0.00     0.082 C 
ATOM      9  C   UNL A   1      33.171  25.566  22.922  1.00  0.00     0.255 C 
ATOM     10  O   UNL A   1      33.903  25.827  21.973  1.00  0.00    -0.269 OA
ATOM     11  N   UNL A   1      32.071  26.364  23.249  1.00  0.00    -0.339 N 
ATOM     12  C   UNL A   1      31.194  26.743  22.153  1.00  0.00     0.120 C 
ATOM     13  C   UNL A   1      31.571  26.587  24.604  1.00  0.00     0.120 C 
ATOM     14  C   UNL A   1      30.712  28.172  22.258  1.00  0.00     0.035 C 
ATOM     15  C   UNL A   1      31.121  28.025  24.813  1.00  0.00     0.035 C 
BRANCH   9  16
ATOM     16  C   UNL A   1      33.320  24.259  23.620  1.00  0.00     0.061 A 
ATOM     17  C   UNL A   1      34.764  25.180  25.518  1.00  0.00     0.067 C 
ATOM     18  C   UNL A   1      34.067  24.072  24.782  1.00  0.00     0.051 A 
ATOM     19  N   UNL A   1      34.289  22.826  25.308  1.00  0.00    -0.252 NA
ATOM     20  C   UNL A   1      33.780  21.744  24.690  1.00  0.00     0.071 A 
ATOM     21  C   UNL A   1      32.823  23.118  22.981  1.00  0.00     0.026 A 
ATOM     22  C   UNL A   1      34.019  20.469  25.187  1.00  0.00     0.030 A 
ATOM     23  C   UNL A   1      33.011  21.850  23.521  1.00  0.00     0.002 A 
ATOM     24  C   UNL A   1      33.485  19.328  24.573  1.00  0.00     0.023 A 
ATOM     25  C   UNL A   1      32.463  20.718  22.899  1.00  0.00     0.030 A 
ATOM     26  C   UNL A   1      32.696  19.460  23.438  1.00  0.00     0.041 A 
ATOM     27  Cl  UNL A   1      32.003  18.073  22.695  1.00  0.00    -0.084 Cl
ENDBRANCH   9  16
ENDBRANCH   5   8
ENDBRANCH   3   4
ENDBRANCH   2   3
ENDBRANCH   1   2
BRANCH   1  28
ATOM     28  N   UNL A   1      32.642  33.549  27.410  1.00  0.00    -0.352 N 
ATOM     29  C   UNL A   1      33.145  34.320  28.428  1.00  0.00     0.251 C 
ATOM     30  H   UNL A   1      31.983  33.998  26.833  1.00  0.00     0.163 HD
ATOM     31  O   UNL A   1      32.616  35.399  28.692  1.00  0.00    -0.269 OA
BRANCH  29  32
ATOM     32  C   UNL A   1      34.305  33.848  29.212  1.00  0.00     0.039 A 
ATOM     33  C   UNL A   1      34.095  32.969  30.277  1.00  0.00     0.014 A 
ATOM     34  C   UNL A   1      35.598  34.271  28.897  1.00  0.00     0.014 A 
ATOM     35  C   UNL A   1      35.189  32.465  30.983  1.00  0.00     0.010 A 
ATOM     36  C   UNL A   1      36.689  33.693  29.534  1.00  0.00     0.010 A 
ATOM     37  C   UNL A   1      36.498  32.794  30.592  1.00  0.00    -0.014 A 
BRANCH  37  38
ATOM     38  C   UNL A   1      37.682  32.214  31.273  1.00  0.00     0.031 A 
ATOM     39  C   UNL A   1      38.438  31.078  30.637  1.00  0.00     0.074 A 
ATOM     40  C   UNL A   1      38.011  32.633  32.511  1.00  0.00     0.049 A 
ATOM     41  N   UNL A   1      39.437  30.382  31.114  1.00  0.00    -0.248 NA
ATOM     42  C   UNL A   1      37.988  30.643  29.303  1.00  0.00     0.031 C 
ATOM     43  C   UNL A   1      37.298  33.660  33.272  1.00  0.00     0.029 A 
ATOM     44  N   UNL A   1      39.007  32.219  33.360  1.00  0.00    -0.354 N 
ATOM     45  C   UNL A   1      39.708  29.405  30.163  1.00  0.00     0.074 A 
ATOM     46  C   UNL A   1      38.740  29.571  29.100  1.00  0.00     0.031 C 
ATOM     47  C   UNL A   1      37.873  33.791  34.478  1.00  0.00     0.029 A 
ATOM     48  C   UNL A   1      38.973  32.837  34.589  1.00  0.00     0.049 A 
ATOM     49  H   UNL A   1      39.681  31.545  33.115  1.00  0.00     0.167 HD
ATOM     50  C   UNL A   1      40.691  28.474  30.156  1.00  0.00     0.034 A 
ATOM     51  C   UNL A   1      39.729  32.648  35.687  1.00  0.00     0.034 A 
ATOM     52  C   UNL A   1      41.675  28.340  31.195  1.00  0.00     0.049 A 
ATOM     53  C   UNL A   1      40.848  31.644  35.639  1.00  0.00     0.074 A 
ATOM     54  C   UNL A   1      42.771  27.497  31.239  1.00  0.00     0.029 A 
ATOM     55  N   UNL A   1      41.675  29.059  32.381  1.00  0.00    -0.354 N 
ATOM     56  N   UNL A   1      41.196  30.844  34.660  1.00  0.00    -0.248 NA
ATOM     57  C   UNL A   1      41.702  31.541  36.830  1.00  0.00     0.031 C 
ATOM     58  C   UNL A   1      43.418  27.686  32.465  1.00  0.00     0.029 A 
ATOM     59  C   UNL A   1      42.744  28.671  33.170  1.00  0.00     0.049 A 
ATOM     60  H   UNL A   1      41.012  29.745  32.625  1.00  0.00     0.167 HD
ATOM     61  C   UNL A   1      42.325  30.166  35.104  1.00  0.00     0.074 A 
ATOM     62  C   UNL A   1      42.615  30.665  36.433  1.00  0.00     0.031 C 
ATOM     63  C   UNL A   1      43.048  29.208  34.473  1.00  0.00     0.034 A 
BRANCH  50  64
ATOM     64  C   UNL A   1      40.775  27.561  28.960  1.00  0.00     0.023 A 
ATOM     65  C   UNL A   1      39.911  26.449  28.868  1.00  0.00     0.012 A 
ATOM     66  C   UNL A   1      41.682  27.814  27.913  1.00  0.00     0.148 A 
ATOM     67  C   UNL A   1      39.982  25.579  27.782  1.00  0.00     0.002 A 
ATOM     68  C   UNL A   1      41.712  26.970  26.808  1.00  0.00     0.091 A 
ATOM     69  F   UNL A   1      42.512  28.861  28.023  1.00  0.00    -0.205 F 
ATOM     70  C   UNL A   1      40.876  25.844  26.748  1.00  0.00     0.022 A 
BRANCH  68  71
ATOM     71  S   UNL A   1      42.770  27.275  25.388  1.00  0.00     0.127 S 
ATOM     72  O   UNL A   1      42.582  26.050  24.612  1.00  0.00    -0.237 OA
ATOM     73  O   UNL A   1      42.159  28.468  24.801  1.00  0.00    -0.237 OA
ATOM     74  O   UNL A   1      44.107  27.482  25.923  1.00  0.00    -0.744 OA
ENDBRANCH  68  71
ENDBRANCH  50  64
BRANCH  51  75
ATOM     75  C   UNL A   1      39.478  33.468  36.904  1.00  0.00     0.023 A 
ATOM     76  C   UNL A   1      39.942  34.795  36.958  1.00  0.00     0.012 A 
ATOM     77  C   UNL A   1      38.733  32.955  37.984  1.00  0.00     0.148 A 
ATOM     78  C   UNL A   1      39.692  35.591  38.077  1.00  0.00     0.002 A 
ATOM     79  C   UNL A   1      38.439  33.770  39.071  1.00  0.00     0.091 A 
ATOM     80  F   UNL A   1      38.307  31.686  37.914  1.00  0.00    -0.205 F 
ATOM     81  C   UNL A   1      38.931  35.083  39.127  1.00  0.00     0.022 A 
BRANCH  79  82
ATOM     82  S   UNL A   1      37.356  33.246  40.404  1.00  0.00     0.127 S 
ATOM     83  O   UNL A   1      36.145  32.874  39.677  1.00  0.00    -0.237 OA
ATOM     84  O   UNL A   1      38.102  32.123  40.973  1.00  0.00    -0.237 OA
ATOM     85  O   UNL A   1      37.234  34.397  41.288  1.00  0.00    -0.744 OA
ENDBRANCH  79  82
ENDBRANCH  51  75
BRANCH  63  86
ATOM     86  C   UNL A   1      44.250  28.651  35.191  1.00  0.00     0.023 A 
ATOM     87  C   UNL A   1      45.529  29.187  34.943  1.00  0.00     0.012 A 
ATOM     88  C   UNL A   1      44.098  27.651  36.173  1.00  0.00     0.148 A 
ATOM     89  C   UNL A   1      46.641  28.718  35.640  1.00  0.00     0.002 A 
ATOM     90  C   UNL A   1      45.202  27.224  36.899  1.00  0.00     0.091 A 
ATOM     91  F   UNL A   1      42.875  27.141  36.380  1.00  0.00    -0.205 F 
ATOM     92  C   UNL A   1      46.477  27.746  36.625  1.00  0.00     0.022 A 
BRANCH  90  93
ATOM     93  S   UNL A   1      45.071  26.051  38.253  1.00  0.00     0.127 S 
ATOM     94  O   UNL A   1      46.476  25.836  38.597  1.00  0.00    -0.237 OA
ATOM     95  O   UNL A   1      44.310  26.808  39.246  1.00  0.00    -0.237 OA
ATOM     96  O   UNL A   1      44.377  24.890  37.714  1.00  0.00    -0.744 OA
ENDBRANCH  90  93
ENDBRANCH  63  86
ENDBRANCH  37  38
ENDBRANCH  29  32
ENDBRANCH   1  28
TORSDOF 14
ENDMDL
MODEL 3
REMARK VINA RESULT:     -13.2      1.620      2.046
REMARK SMILES Cc1nc2ccc(Cl)cc2cc1C(=O)N1CCC(C(=O)NCCCNC(=O)c2ccc(-c3c4nc(c(-c5cccc(S(=O)(=O)[O-])c5F)c5ccc([nH]5)c(-c5cccc(S(=O)(=O)[O-])c5F)c5nc(c(-c6cccc(S(=O)(=O)[O-])c6F)c6ccc3[nH]6)C=C5)C=C4)cc2)CC1
REMARK SMILES IDX 24 1 23 2 22 3 21 4 19 5 20 6 18 8 13 9 14 10 15 11 16 12
REMARK SMILES IDX 92 13 17 14 91 15 12 16 1 17 2 18 3 19 4 20 11 21 5 22 10 23
REMARK SMILES IDX 6 24 9 25 7 26 8 27 25 28 26 29 27 31 28 32 29 33 90 34
REMARK SMILES IDX 30 35 89 36 31 37 32 38 33 39 83 40 34 41 88 42 82 43 84 44
REMARK SMILES IDX 35 45 87 46 81 47 80 48 36 50 68 51 48 52 67 53 49 54 52 55
REMARK SMILES IDX 66 56 85 57 50 58 51 59 65 61 86 62 53 63 37 64 38 65 46 66
REMARK SMILES IDX 39 67 41 68 47 69 40 70 42 71 43 72 44 73 45 74 69 75 70 76
REMARK SMILES IDX 78 77 71 78 73 79 79 80 72 81 74 82 75 83 76 84 77 85 54 86
REMARK SMILES IDX 55 87 63 88 56 89 58 90 64 91 57 92 59 93 60 94 61 95 62 96
REMARK H PARENT 21 7 25 30 84 49 52 60
REMARK Flexibility Score: inf
ROOT
ATOM      1  C   UNL A   1      32.849  32.582  27.257  1.00  0.00     0.118 C 
ENDROOT
BRANCH   1   2
ATOM      2  C   UNL A   1      31.674  31.918  26.559  1.00  0.00     0.042 C 
BRANCH   2   3
ATOM      3  C   UNL A   1      31.918  30.459  26.207  1.00  0.00     0.117 C 
BRANCH   3   4
ATOM      4  N   UNL A   1      31.283  30.073  24.954  1.00  0.00    -0.356 N 
ATOM      5  C   UNL A   1      31.212  28.870  24.324  1.00  0.00     0.223 C 
ATOM      6  O   UNL A   1      30.587  28.806  23.262  1.00  0.00    -0.275 OA
ATOM      7  H   UNL A   1      30.829  30.808  24.483  1.00  0.00     0.163 HD
BRANCH   5   8
ATOM      8  C   UNL A   1      31.854  27.626  24.911  1.00  0.00     0.082 C 
ATOM      9  C   UNL A   1      31.140  23.740  26.454  1.00  0.00     0.255 C 
ATOM     10  O   UNL A   1      30.201  23.688  27.241  1.00  0.00    -0.269 OA
ATOM     11  N   UNL A   1      31.603  24.951  25.932  1.00  0.00    -0.339 N 
ATOM     12  C   UNL A   1      31.809  26.032  26.881  1.00  0.00     0.120 C 
ATOM     13  C   UNL A   1      32.172  25.125  24.597  1.00  0.00     0.120 C 
ATOM     14  C   UNL A   1      31.370  27.375  26.343  1.00  0.00     0.035 C 
ATOM     15  C   UNL A   1      31.726  26.430  23.956  1.00  0.00     0.035 C 
BRANCH   9  16
ATOM     16  C   UNL A   1      31.952  22.516  26.206  1.00  0.00     0.061 A 
ATOM     17  C   UNL A   1      33.668  23.009  28.037  1.00  0.00     0.067 C 
ATOM     18  C   UNL A   1      33.117  22.195  26.901  1.00  0.00     0.051 A 
ATOM     19  N   UNL A   1      33.904  21.132  26.542  1.00  0.00    -0.252 NA
ATOM     20  C   UNL A   1      33.555  20.372  25.488  1.00  0.00     0.071 A 
ATOM     21  C   UNL A   1      31.623  21.728  25.097  1.00  0.00     0.026 A 
ATOM     22  C   UNL A   1      34.354  19.309  25.087  1.00  0.00     0.030 A 
ATOM     23  C   UNL A   1      32.394  20.627  24.742  1.00  0.00     0.002 A 
ATOM     24  C   UNL A   1      34.004  18.492  24.003  1.00  0.00     0.023 A 
ATOM     25  C   UNL A   1      32.024  19.813  23.660  1.00  0.00     0.030 A 
ATOM     26  C   UNL A   1      32.829  18.741  23.303  1.00  0.00     0.041 A 
ATOM     27  Cl  UNL A   1      32.366  17.725  21.996  1.00  0.00    -0.084 Cl
ENDBRANCH   9  16
ENDBRANCH   5   8
ENDBRANCH   3   4
ENDBRANCH   2   3
ENDBRANCH   1   2
BRANCH   1  28
ATOM     28  N   UNL A   1      32.570  33.965  27.622  1.00  0.00    -0.352 N 
ATOM     29  C   UNL A   1      33.095  34.729  28.636  1.00  0.00     0.251 C 
ATOM     30  H   UNL A   1      31.906  34.421  27.057  1.00  0.00     0.163 HD
ATOM     31  O   UNL A   1      32.578  35.810  28.910  1.00  0.00    -0.269 OA
BRANCH  29  32
ATOM     32  C   UNL A   1      34.263  34.244  29.400  1.00  0.00     0.039 A 
ATOM     33  C   UNL A   1      34.055  33.555  30.597  1.00  0.00     0.014 A 
ATOM     34  C   UNL A   1      35.560  34.471  28.937  1.00  0.00     0.014 A 
ATOM     35  C   UNL A   1      35.148  33.036  31.294  1.00  0.00     0.010 A 
ATOM     36  C   UNL A   1      36.637  33.869  29.578  1.00  0.00     0.010 A 
ATOM     37  C   UNL A   1      36.446  33.157  30.769  1.00  0.00    -0.014 A 
BRANCH  37  38
ATOM     38  C   UNL A   1      37.618  32.550  31.447  1.00  0.00     0.031 A 
ATOM     39  C   UNL A   1      38.353  31.405  30.803  1.00  0.00     0.074 A 
ATOM     40  C   UNL A   1      37.954  32.954  32.688  1.00  0.00     0.049 A 
ATOM     41  N   UNL A   1      39.339  30.687  31.276  1.00  0.00    -0.248 NA
ATOM     42  C   UNL A   1      37.897  30.988  29.466  1.00  0.00     0.031 C 
ATOM     43  C   UNL A   1      37.259  33.987  33.457  1.00  0.00     0.029 A 
ATOM     44  N   UNL A   1      38.941  32.515  33.536  1.00  0.00    -0.354 N 
ATOM     45  C   UNL A   1      39.592  29.712  30.318  1.00  0.00     0.074 A 
ATOM     46  C   UNL A   1      38.629  29.904  29.256  1.00  0.00     0.031 C 
ATOM     47  C   UNL A   1      37.835  34.099  34.664  1.00  0.00     0.029 A 
ATOM     48  C   UNL A   1      38.917  33.124  34.768  1.00  0.00     0.049 A 
ATOM     49  H   UNL A   1      39.602  31.830  33.286  1.00  0.00     0.167 HD
ATOM     50  C   UNL A   1      40.558  28.763  30.305  1.00  0.00     0.034 A 
ATOM     51  C   UNL A   1      39.668  32.912  35.866  1.00  0.00     0.034 A 
ATOM     52  C   UNL A   1      41.538  28.603  31.344  1.00  0.00     0.049 A 
ATOM     53  C   UNL A   1      40.768  31.888  35.812  1.00  0.00     0.074 A 
ATOM     54  C   UNL A   1      42.618  27.739  31.382  1.00  0.00     0.029 A 
ATOM     55  N   UNL A   1      41.550  29.312  32.536  1.00  0.00    -0.354 N 
ATOM     56  N   UNL A   1      41.102  31.089  34.828  1.00  0.00    -0.248 NA
ATOM     57  C   UNL A   1      41.619  31.761  37.003  1.00  0.00     0.031 C 
ATOM     58  C   UNL A   1      43.267  27.907  32.611  1.00  0.00     0.029 A 
ATOM     59  C   UNL A   1      42.611  28.899  33.323  1.00  0.00     0.049 A 
ATOM     60  H   UNL A   1      40.900  30.009  32.784  1.00  0.00     0.167 HD
ATOM     61  C   UNL A   1      42.218  30.387  35.267  1.00  0.00     0.074 A 
ATOM     62  C   UNL A   1      42.516  30.870  36.600  1.00  0.00     0.031 C 
ATOM     63  C   UNL A   1      42.924  29.420  34.629  1.00  0.00     0.034 A 
BRANCH  50  64
ATOM     64  C   UNL A   1      40.626  27.857  29.102  1.00  0.00     0.023 A 
ATOM     65  C   UNL A   1      39.755  26.751  29.011  1.00  0.00     0.012 A 
ATOM     66  C   UNL A   1      41.526  28.112  28.049  1.00  0.00     0.148 A 
ATOM     67  C   UNL A   1      39.811  25.888  27.918  1.00  0.00     0.002 A 
ATOM     68  C   UNL A   1      41.541  27.275  26.939  1.00  0.00     0.091 A 
ATOM     69  F   UNL A   1      42.362  29.154  28.158  1.00  0.00    -0.205 F 
ATOM     70  C   UNL A   1      40.697  26.154  26.879  1.00  0.00     0.022 A 
BRANCH  68  71
ATOM     71  S   UNL A   1      42.588  27.584  25.511  1.00  0.00     0.127 S 
ATOM     72  O   UNL A   1      42.314  26.409  24.684  1.00  0.00    -0.237 OA
ATOM     73  O   UNL A   1      42.038  28.837  24.992  1.00  0.00    -0.237 OA
ATOM     74  O   UNL A   1      43.945  27.688  26.026  1.00  0.00    -0.744 OA
ENDBRANCH  68  71
ENDBRANCH  50  64
BRANCH  51  75
ATOM     75  C   UNL A   1      39.431  33.728  37.089  1.00  0.00     0.023 A 
ATOM     76  C   UNL A   1      39.865  35.066  37.129  1.00  0.00     0.012 A 
ATOM     77  C   UNL A   1      38.728  33.199  38.190  1.00  0.00     0.148 A 
ATOM     78  C   UNL A   1      39.627  35.857  38.254  1.00  0.00     0.002 A 
ATOM     79  C   UNL A   1      38.445  34.008  39.283  1.00  0.00     0.091 A 
ATOM     80  F   UNL A   1      38.330  31.920  38.132  1.00  0.00    -0.205 F 
ATOM     81  C   UNL A   1      38.907  35.333  39.325  1.00  0.00     0.022 A 
BRANCH  79  82
ATOM     82  S   UNL A   1      37.411  33.461  40.646  1.00  0.00     0.127 S 
ATOM     83  O   UNL A   1      36.219  32.990  39.946  1.00  0.00    -0.237 OA
ATOM     84  O   UNL A   1      38.233  32.406  41.241  1.00  0.00    -0.237 OA
ATOM     85  O   UNL A   1      37.226  34.630  41.494  1.00  0.00    -0.744 OA
ENDBRANCH  79  82
ENDBRANCH  51  75
BRANCH  63  86
ATOM     86  C   UNL A   1      44.114  28.835  35.345  1.00  0.00     0.023 A 
ATOM     87  C   UNL A   1      45.391  29.401  35.163  1.00  0.00     0.012 A 
ATOM     88  C   UNL A   1      43.950  27.777  36.261  1.00  0.00     0.148 A 
ATOM     89  C   UNL A   1      46.492  28.904  35.860  1.00  0.00     0.002 A 
ATOM     90  C   UNL A   1      45.041  27.319  36.989  1.00  0.00     0.091 A 
ATOM     91  F   UNL A   1      42.730  27.240  36.405  1.00  0.00    -0.205 F 
ATOM     92  C   UNL A   1      46.315  27.873  36.781  1.00  0.00     0.022 A 
BRANCH  90  93
ATOM     93  S   UNL A   1      44.891  26.066  38.266  1.00  0.00     0.127 S 
ATOM     94  O   UNL A   1      46.276  25.935  38.718  1.00  0.00    -0.237 OA
ATOM     95  O   UNL A   1      43.995  26.709  39.227  1.00  0.00    -0.237 OA
ATOM     96  O   UNL A   1      44.335  24.889  37.613  1.00  0.00    -0.744 OA
ENDBRANCH  90  93
ENDBRANCH  63  86
ENDBRANCH  37  38
ENDBRANCH  29  32
ENDBRANCH   1  28
TORSDOF 14
ENDMDL
