MODEL 1
REMARK VINA RESULT:     -11.0      0.000      0.000
REMARK SMILES N#Cc1cc2c(nc1N(CC(=O)NCCCNC(=O)c1ccc(-c3c4nc(c(-c5cccc(S(=O)(=O)[O-])c5F)c5ccc([nH]5)c(-c5cccc(S(=O)(=O)[O-])c5F)c5nc(c(-c6cccc(S(=O)(=O)[O-])c6F)c6ccc3[nH]6)C=C5)C=C4)cc1)CC(F)(F)F)CCC2
REMARK SMILES IDX 15 1 14 2 13 3 11 4 12 5 10 7 9 8 8 9 3 10 4 11 5 12 7 13
REMARK SMILES IDX 6 14 90 15 88 16 89 17 2 18 1 19 83 20 84 21 85 22 86 23
REMARK SMILES IDX 87 24 16 25 17 26 18 27 19 29 20 30 21 31 82 32 22 33 81 34
REMARK SMILES IDX 23 35 24 36 25 37 75 38 26 39 80 40 74 41 76 42 27 43 79 44
REMARK SMILES IDX 73 45 72 46 28 48 60 49 40 50 59 51 41 52 44 53 58 54 77 55
REMARK SMILES IDX 42 56 43 57 57 59 78 60 45 61 29 62 30 63 38 64 31 65 33 66
REMARK SMILES IDX 39 67 32 68 34 69 35 70 36 71 37 72 61 73 62 74 70 75 63 76
REMARK SMILES IDX 65 77 71 78 64 79 66 80 67 81 68 82 69 83 46 84 47 85 55 86
REMARK SMILES IDX 48 87 50 88 56 89 49 90 51 91 52 92 53 93 54 94
REMARK H PARENT 13 6 17 28 76 47 44 58
REMARK Flexibility Score: inf
ROOT
ATOM      1  C   UNL A   1      31.299  32.396  26.505  1.00  0.00     0.042 C 
ENDROOT
BRANCH   1   2
ATOM      2  C   UNL A   1      31.257  30.878  26.376  1.00  0.00     0.117 C 
BRANCH   2   3
ATOM      3  N   UNL A   1      31.185  30.435  24.995  1.00  0.00    -0.354 N 
ATOM      4  C   UNL A   1      31.388  29.187  24.484  1.00  0.00     0.239 C 
ATOM      5  O   UNL A   1      31.297  29.031  23.264  1.00  0.00    -0.273 OA
ATOM      6  H   UNL A   1      30.959  31.132  24.337  1.00  0.00     0.163 HD
BRANCH   4   7
ATOM      7  C   UNL A   1      31.720  28.009  25.408  1.00  0.00     0.218 C 
BRANCH   7   8
ATOM      8  N   UNL A   1      33.141  27.590  25.325  1.00  0.00    -0.337 N 
BRANCH   8   9
ATOM      9  C   UNL A   1      33.416  26.263  25.023  1.00  0.00     0.147 A 
ATOM     10  C   UNL A   1      33.780  25.734  23.760  1.00  0.00     0.095 A 
ATOM     11  C   UNL A   1      34.175  24.384  23.633  1.00  0.00     0.029 A 
ATOM     12  C   UNL A   1      34.117  23.573  24.739  1.00  0.00    -0.025 A 
ATOM     13  N   UNL A   1      33.338  25.409  26.085  1.00  0.00    -0.234 NA
ATOM     14  C   UNL A   1      33.669  24.118  25.921  1.00  0.00     0.046 A 
ATOM     15  C   UNL A   1      34.490  22.140  24.905  1.00  0.00     0.038 C 
ATOM     16  C   UNL A   1      33.641  23.088  27.014  1.00  0.00     0.057 C 
ATOM     17  C   UNL A   1      33.731  21.791  26.196  1.00  0.00     0.011 C 
BRANCH  10  18
ATOM     18  C   UNL A   1      33.696  26.466  22.533  1.00  0.00     0.103 C 
ATOM     19  N   UNL A   1      33.666  27.103  21.566  1.00  0.00    -0.192 NA
ENDBRANCH  10  18
ENDBRANCH   8   9
BRANCH   8  20
ATOM     20  C   UNL A   1      34.140  28.679  25.531  1.00  0.00     0.234 C 
BRANCH  20  21
ATOM     21  C   UNL A   1      34.471  29.058  26.989  1.00  0.00     0.405 C 
ATOM     22  F   UNL A   1      33.620  28.507  27.878  1.00  0.00    -0.169 F 
ATOM     23  F   UNL A   1      35.722  28.660  27.311  1.00  0.00    -0.169 F 
ATOM     24  F   UNL A   1      34.424  30.400  27.174  1.00  0.00    -0.169 F 
ENDBRANCH  20  21
ENDBRANCH   8  20
ENDBRANCH   7   8
ENDBRANCH   4   7
ENDBRANCH   2   3
ENDBRANCH   1   2
BRANCH   1  25
ATOM     25  C   UNL A   1      32.668  32.933  26.913  1.00  0.00     0.118 C 
BRANCH  25  26
ATOM     26  N   UNL A   1      32.558  34.180  27.661  1.00  0.00    -0.352 N 
ATOM     27  C   UNL A   1      33.209  34.571  28.804  1.00  0.00     0.251 C 
ATOM     28  H   UNL A   1      31.925  34.838  27.292  1.00  0.00     0.163 HD
ATOM     29  O   UNL A   1      32.806  35.545  29.433  1.00  0.00    -0.269 OA
BRANCH  27  30
ATOM     30  C   UNL A   1      34.386  33.813  29.282  1.00  0.00     0.039 A 
ATOM     31  C   UNL A   1      35.665  34.272  28.962  1.00  0.00     0.014 A 
ATOM     32  C   UNL A   1      34.226  32.644  30.032  1.00  0.00     0.014 A 
ATOM     33  C   UNL A   1      36.784  33.590  29.445  1.00  0.00     0.010 A 
ATOM     34  C   UNL A   1      35.341  32.011  30.576  1.00  0.00     0.010 A 
ATOM     35  C   UNL A   1      36.632  32.473  30.283  1.00  0.00    -0.014 A 
BRANCH  35  36
ATOM     36  C   UNL A   1      37.816  31.785  30.861  1.00  0.00     0.031 A 
ATOM     37  C   UNL A   1      38.287  32.123  32.251  1.00  0.00     0.074 A 
ATOM     38  C   UNL A   1      38.485  30.878  30.118  1.00  0.00     0.049 A 
ATOM     39  N   UNL A   1      39.300  31.631  32.916  1.00  0.00    -0.248 NA
ATOM     40  C   UNL A   1      37.534  33.153  32.989  1.00  0.00     0.031 C 
ATOM     41  C   UNL A   1      38.155  30.505  28.741  1.00  0.00     0.029 A 
ATOM     42  N   UNL A   1      39.586  30.110  30.411  1.00  0.00    -0.354 N 
ATOM     43  C   UNL A   1      39.311  32.292  34.138  1.00  0.00     0.074 A 
ATOM     44  C   UNL A   1      38.235  33.256  34.110  1.00  0.00     0.031 C 
ATOM     45  C   UNL A   1      39.013  29.562  28.320  1.00  0.00     0.029 A 
ATOM     46  C   UNL A   1      39.981  29.290  29.377  1.00  0.00     0.049 A 
ATOM     47  H   UNL A   1      40.049  30.143  31.279  1.00  0.00     0.167 HD
ATOM     48  C   UNL A   1      40.119  32.086  35.203  1.00  0.00     0.034 A 
ATOM     49  C   UNL A   1      41.008  28.419  29.292  1.00  0.00     0.034 A 
ATOM     50  C   UNL A   1      41.167  31.102  35.239  1.00  0.00     0.049 A 
ATOM     51  C   UNL A   1      41.903  28.234  30.492  1.00  0.00     0.074 A 
ATOM     52  C   UNL A   1      42.010  30.790  36.292  1.00  0.00     0.029 A 
ATOM     53  N   UNL A   1      41.513  30.272  34.186  1.00  0.00    -0.354 N 
ATOM     54  N   UNL A   1      41.814  28.778  31.680  1.00  0.00    -0.248 NA
ATOM     55  C   UNL A   1      43.023  27.290  30.349  1.00  0.00     0.031 C 
ATOM     56  C   UNL A   1      42.887  29.793  35.865  1.00  0.00     0.029 A 
ATOM     57  C   UNL A   1      42.563  29.452  34.561  1.00  0.00     0.049 A 
ATOM     58  H   UNL A   1      41.079  30.267  33.302  1.00  0.00     0.167 HD
ATOM     59  C   UNL A   1      42.831  28.208  32.438  1.00  0.00     0.074 A 
ATOM     60  C   UNL A   1      43.512  27.261  31.582  1.00  0.00     0.031 C 
ATOM     61  C   UNL A   1      43.181  28.460  33.723  1.00  0.00     0.034 A 
BRANCH  48  62
ATOM     62  C   UNL A   1      39.865  32.873  36.464  1.00  0.00     0.023 A 
ATOM     63  C   UNL A   1      40.433  34.157  36.593  1.00  0.00     0.012 A 
ATOM     64  C   UNL A   1      38.951  32.419  37.434  1.00  0.00     0.148 A 
ATOM     65  C   UNL A   1      40.101  34.974  37.672  1.00  0.00     0.002 A 
ATOM     66  C   UNL A   1      38.588  33.258  38.481  1.00  0.00     0.091 A 
ATOM     67  F   UNL A   1      38.432  31.190  37.297  1.00  0.00    -0.205 F 
ATOM     68  C   UNL A   1      39.167  34.533  38.605  1.00  0.00     0.022 A 
BRANCH  66  69
ATOM     69  S   UNL A   1      37.325  32.827  39.684  1.00  0.00     0.127 S 
ATOM     70  O   UNL A   1      37.854  31.578  40.232  1.00  0.00    -0.237 OA
ATOM     71  O   UNL A   1      37.376  33.965  40.600  1.00  0.00    -0.237 OA
ATOM     72  O   UNL A   1      36.082  32.692  38.937  1.00  0.00    -0.744 OA
ENDBRANCH  66  69
ENDBRANCH  48  62
BRANCH  49  73
ATOM     73  C   UNL A   1      41.213  27.601  28.060  1.00  0.00     0.023 A 
ATOM     74  C   UNL A   1      41.770  28.206  26.915  1.00  0.00     0.012 A 
ATOM     75  C   UNL A   1      40.855  26.239  28.005  1.00  0.00     0.148 A 
ATOM     76  C   UNL A   1      41.923  27.489  25.728  1.00  0.00     0.002 A 
ATOM     77  C   UNL A   1      41.071  25.512  26.839  1.00  0.00     0.091 A 
ATOM     78  F   UNL A   1      40.315  25.678  29.095  1.00  0.00    -0.205 F 
ATOM     79  C   UNL A   1      41.581  26.140  25.692  1.00  0.00     0.022 A 
BRANCH  77  80
ATOM     80  S   UNL A   1      40.796  23.739  26.740  1.00  0.00     0.127 S 
ATOM     81  O   UNL A   1      39.400  23.676  26.315  1.00  0.00    -0.237 OA
ATOM     82  O   UNL A   1      41.769  23.339  25.723  1.00  0.00    -0.237 OA
ATOM     83  O   UNL A   1      41.077  23.225  28.072  1.00  0.00    -0.744 OA
ENDBRANCH  77  80
ENDBRANCH  49  73
BRANCH  61  84
ATOM     84  C   UNL A   1      44.320  27.675  34.322  1.00  0.00     0.023 A 
ATOM     85  C   UNL A   1      45.623  28.208  34.312  1.00  0.00     0.012 A 
ATOM     86  C   UNL A   1      44.069  26.471  35.013  1.00  0.00     0.148 A 
ATOM     87  C   UNL A   1      46.663  27.547  34.962  1.00  0.00     0.002 A 
ATOM     88  C   UNL A   1      45.098  25.849  35.708  1.00  0.00     0.091 A 
ATOM     89  F   UNL A   1      42.823  25.975  35.001  1.00  0.00    -0.205 F 
ATOM     90  C   UNL A   1      46.399  26.378  35.673  1.00  0.00     0.022 A 
BRANCH  88  91
ATOM     91  S   UNL A   1      44.832  24.407  36.747  1.00  0.00     0.127 S 
ATOM     92  O   UNL A   1      46.186  24.136  37.229  1.00  0.00    -0.237 OA
ATOM     93  O   UNL A   1      43.916  24.925  37.763  1.00  0.00    -0.237 OA
ATOM     94  O   UNL A   1      44.267  23.382  35.881  1.00  0.00    -0.744 OA
ENDBRANCH  88  91
ENDBRANCH  61  84
ENDBRANCH  35  36
ENDBRANCH  27  30
ENDBRANCH  25  26
ENDBRANCH   1  25
TORSDOF 18
ENDMDL
MODEL 2
REMARK VINA RESULT:     -10.7      5.103      9.837
REMARK SMILES N#Cc1cc2c(nc1N(CC(=O)NCCCNC(=O)c1ccc(-c3c4nc(c(-c5cccc(S(=O)(=O)[O-])c5F)c5ccc([nH]5)c(-c5cccc(S(=O)(=O)[O-])c5F)c5nc(c(-c6cccc(S(=O)(=O)[O-])c6F)c6ccc3[nH]6)C=C5)C=C4)cc1)CC(F)(F)F)CCC2
REMARK SMILES IDX 15 1 14 2 13 3 11 4 12 5 10 7 9 8 8 9 3 10 4 11 5 12 7 13
REMARK SMILES IDX 6 14 90 15 88 16 89 17 2 18 1 19 83 20 84 21 85 22 86 23
REMARK SMILES IDX 87 24 16 25 17 26 18 27 19 29 20 30 21 31 82 32 22 33 81 34
REMARK SMILES IDX 23 35 24 36 25 37 75 38 26 39 80 40 74 41 76 42 27 43 79 44
REMARK SMILES IDX 73 45 72 46 28 48 60 49 40 50 59 51 41 52 44 53 58 54 77 55
REMARK SMILES IDX 42 56 43 57 57 59 78 60 45 61 29 62 30 63 38 64 31 65 33 66
REMARK SMILES IDX 39 67 32 68 34 69 35 70 36 71 37 72 61 73 62 74 70 75 63 76
REMARK SMILES IDX 65 77 71 78 64 79 66 80 67 81 68 82 69 83 46 84 47 85 55 86
REMARK SMILES IDX 48 87 50 88 56 89 49 90 51 91 52 92 53 93 54 94
REMARK H PARENT 13 6 17 28 76 47 44 58
REMARK Flexibility Score: inf
ROOT
ATOM      1  C   UNL A   1      35.852  23.654  26.063  1.00  0.00     0.042 C 
ENDROOT
BRANCH   1   2
ATOM      2  C   UNL A   1      34.692  24.342  25.353  1.00  0.00     0.117 C 
BRANCH   2   3
ATOM      3  N   UNL A   1      34.388  23.740  24.066  1.00  0.00    -0.354 N 
ATOM      4  C   UNL A   1      34.026  24.349  22.901  1.00  0.00     0.239 C 
ATOM      5  O   UNL A   1      33.790  23.640  21.918  1.00  0.00    -0.273 OA
ATOM      6  H   UNL A   1      34.452  22.758  24.031  1.00  0.00     0.163 HD
BRANCH   4   7
ATOM      7  C   UNL A   1      33.917  25.876  22.818  1.00  0.00     0.218 C 
BRANCH   7   8
ATOM      8  N   UNL A   1      32.575  26.383  23.200  1.00  0.00    -0.337 N 
BRANCH   8   9
ATOM      9  C   UNL A   1      32.506  27.509  24.007  1.00  0.00     0.147 A 
ATOM     10  C   UNL A   1      31.538  28.542  23.950  1.00  0.00     0.095 A 
ATOM     11  C   UNL A   1      31.506  29.555  24.934  1.00  0.00     0.029 A 
ATOM     12  C   UNL A   1      32.485  29.567  25.898  1.00  0.00    -0.025 A 
ATOM     13  N   UNL A   1      33.480  27.587  24.962  1.00  0.00    -0.234 NA
ATOM     14  C   UNL A   1      33.454  28.592  25.852  1.00  0.00     0.046 A 
ATOM     15  C   UNL A   1      32.685  30.483  27.056  1.00  0.00     0.038 C 
ATOM     16  C   UNL A   1      34.456  28.774  26.957  1.00  0.00     0.057 C 
ATOM     17  C   UNL A   1      34.165  30.222  27.378  1.00  0.00     0.011 C 
BRANCH  10  18
ATOM     18  C   UNL A   1      30.599  28.697  22.880  1.00  0.00     0.103 C 
ATOM     19  N   UNL A   1      29.812  28.768  22.033  1.00  0.00    -0.192 NA
ENDBRANCH  10  18
ENDBRANCH   8   9
BRANCH   8  20
ATOM     20  C   UNL A   1      31.422  25.635  22.617  1.00  0.00     0.234 C 
BRANCH  20  21
ATOM     21  C   UNL A   1      30.505  24.884  23.604  1.00  0.00     0.405 C 
ATOM     22  F   UNL A   1      31.157  24.468  24.709  1.00  0.00    -0.169 F 
ATOM     23  F   UNL A   1      29.483  25.675  23.998  1.00  0.00    -0.169 F 
ATOM     24  F   UNL A   1      29.956  23.786  23.030  1.00  0.00    -0.169 F 
ENDBRANCH  20  21
ENDBRANCH   8  20
ENDBRANCH   7   8
ENDBRANCH   4   7
ENDBRANCH   2   3
ENDBRANCH   1   2
BRANCH   1  25
ATOM     25  C   UNL A   1      37.082  23.470  25.181  1.00  0.00     0.118 C 
BRANCH  25  26
ATOM     26  N   UNL A   1      38.026  22.520  25.761  1.00  0.00    -0.352 N 
ATOM     27  C   UNL A   1      39.207  22.757  26.419  1.00  0.00     0.251 C 
ATOM     28  H   UNL A   1      37.779  21.572  25.666  1.00  0.00     0.163 HD
ATOM     29  O   UNL A   1      39.993  21.833  26.611  1.00  0.00    -0.269 OA
BRANCH  27  30
ATOM     30  C   UNL A   1      39.535  24.122  26.883  1.00  0.00     0.039 A 
ATOM     31  C   UNL A   1      39.256  24.475  28.205  1.00  0.00     0.014 A 
ATOM     32  C   UNL A   1      40.105  25.055  26.013  1.00  0.00     0.014 A 
ATOM     33  C   UNL A   1      39.602  25.746  28.668  1.00  0.00     0.010 A 
ATOM     34  C   UNL A   1      40.520  26.293  26.496  1.00  0.00     0.010 A 
ATOM     35  C   UNL A   1      40.267  26.655  27.828  1.00  0.00    -0.014 A 
BRANCH  35  36
ATOM     36  C   UNL A   1      40.705  27.982  28.332  1.00  0.00     0.031 A 
ATOM     37  C   UNL A   1      42.170  28.327  28.392  1.00  0.00     0.074 A 
ATOM     38  C   UNL A   1      39.781  28.865  28.768  1.00  0.00     0.049 A 
ATOM     39  N   UNL A   1      42.738  29.430  28.805  1.00  0.00    -0.248 NA
ATOM     40  C   UNL A   1      43.125  27.300  27.939  1.00  0.00     0.031 C 
ATOM     41  C   UNL A   1      38.337  28.625  28.808  1.00  0.00     0.029 A 
ATOM     42  N   UNL A   1      39.917  30.137  29.268  1.00  0.00    -0.354 N 
ATOM     43  C   UNL A   1      44.106  29.228  28.672  1.00  0.00     0.074 A 
ATOM     44  C   UNL A   1      44.292  27.881  28.184  1.00  0.00     0.031 C 
ATOM     45  C   UNL A   1      37.720  29.722  29.277  1.00  0.00     0.029 A 
ATOM     46  C   UNL A   1      38.721  30.729  29.610  1.00  0.00     0.049 A 
ATOM     47  H   UNL A   1      40.788  30.584  29.371  1.00  0.00     0.167 HD
ATOM     48  C   UNL A   1      45.115  30.101  28.896  1.00  0.00     0.034 A 
ATOM     49  C   UNL A   1      38.463  31.945  30.134  1.00  0.00     0.034 A 
ATOM     50  C   UNL A   1      44.923  31.452  29.349  1.00  0.00     0.049 A 
ATOM     51  C   UNL A   1      39.616  32.882  30.394  1.00  0.00     0.074 A 
ATOM     52  C   UNL A   1      45.883  32.426  29.563  1.00  0.00     0.029 A 
ATOM     53  N   UNL A   1      43.698  32.022  29.653  1.00  0.00    -0.354 N 
ATOM     54  N   UNL A   1      40.889  32.715  30.139  1.00  0.00    -0.248 NA
ATOM     55  C   UNL A   1      39.291  34.191  30.985  1.00  0.00     0.031 C 
ATOM     56  C   UNL A   1      45.242  33.575  30.026  1.00  0.00     0.029 A 
ATOM     57  C   UNL A   1      43.878  33.332  30.059  1.00  0.00     0.049 A 
ATOM     58  H   UNL A   1      42.829  31.563  29.591  1.00  0.00     0.167 HD
ATOM     59  C   UNL A   1      41.509  33.909  30.492  1.00  0.00     0.074 A 
ATOM     60  C   UNL A   1      40.469  34.799  30.959  1.00  0.00     0.031 C 
ATOM     61  C   UNL A   1      42.826  34.232  30.449  1.00  0.00     0.034 A 
BRANCH  48  62
ATOM     62  C   UNL A   1      46.524  29.670  28.581  1.00  0.00     0.023 A 
ATOM     63  C   UNL A   1      47.078  30.009  27.330  1.00  0.00     0.012 A 
ATOM     64  C   UNL A   1      47.343  29.082  29.564  1.00  0.00     0.148 A 
ATOM     65  C   UNL A   1      48.424  29.763  27.059  1.00  0.00     0.002 A 
ATOM     66  C   UNL A   1      48.694  28.884  29.304  1.00  0.00     0.091 A 
ATOM     67  F   UNL A   1      46.792  28.757  30.743  1.00  0.00    -0.205 F 
ATOM     68  C   UNL A   1      49.233  29.218  28.051  1.00  0.00     0.022 A 
BRANCH  66  69
ATOM     69  S   UNL A   1      49.847  28.276  30.541  1.00  0.00     0.127 S 
ATOM     70  O   UNL A   1      49.652  29.241  31.624  1.00  0.00    -0.237 OA
ATOM     71  O   UNL A   1      49.323  26.939  30.814  1.00  0.00    -0.237 OA
ATOM     72  O   UNL A   1      51.163  28.309  29.920  1.00  0.00    -0.744 OA
ENDBRANCH  66  69
ENDBRANCH  48  62
BRANCH  49  73
ATOM     73  C   UNL A   1      37.058  32.383  30.386  1.00  0.00     0.023 A 
ATOM     74  C   UNL A   1      36.462  32.107  31.633  1.00  0.00     0.012 A 
ATOM     75  C   UNL A   1      36.303  33.059  29.406  1.00  0.00     0.148 A 
ATOM     76  C   UNL A   1      35.133  32.449  31.884  1.00  0.00     0.002 A 
ATOM     77  C   UNL A   1      35.000  33.457  29.685  1.00  0.00     0.091 A 
ATOM     78  F   UNL A   1      36.876  33.306  28.220  1.00  0.00    -0.205 F 
ATOM     79  C   UNL A   1      34.405  33.131  30.914  1.00  0.00     0.022 A 
BRANCH  77  80
ATOM     80  S   UNL A   1      34.033  34.463  28.554  1.00  0.00     0.127 S 
ATOM     81  O   UNL A   1      32.780  34.619  29.290  1.00  0.00    -0.237 OA
ATOM     82  O   UNL A   1      34.847  35.675  28.457  1.00  0.00    -0.237 OA
ATOM     83  O   UNL A   1      33.952  33.696  27.320  1.00  0.00    -0.744 OA
ENDBRANCH  77  80
ENDBRANCH  49  73
BRANCH  61  84
ATOM     84  C   UNL A   1      43.235  35.621  30.868  1.00  0.00     0.023 A 
ATOM     85  C   UNL A   1      43.610  35.871  32.202  1.00  0.00     0.012 A 
ATOM     86  C   UNL A   1      43.377  36.642  29.906  1.00  0.00     0.148 A 
ATOM     87  C   UNL A   1      44.100  37.120  32.577  1.00  0.00     0.002 A 
ATOM     88  C   UNL A   1      43.921  37.865  30.274  1.00  0.00     0.091 A 
ATOM     89  F   UNL A   1      43.004  36.386  28.643  1.00  0.00    -0.205 F 
ATOM     90  C   UNL A   1      44.272  38.110  31.613  1.00  0.00     0.022 A 
BRANCH  88  91
ATOM     91  S   UNL A   1      44.289  39.160  29.085  1.00  0.00     0.127 S 
ATOM     92  O   UNL A   1      42.955  39.690  28.802  1.00  0.00    -0.237 OA
ATOM     93  O   UNL A   1      45.148  40.055  29.862  1.00  0.00    -0.237 OA
ATOM     94  O   UNL A   1      44.946  38.506  27.963  1.00  0.00    -0.744 OA
ENDBRANCH  88  91
ENDBRANCH  61  84
ENDBRANCH  35  36
ENDBRANCH  27  30
ENDBRANCH  25  26
ENDBRANCH   1  25
TORSDOF 18
ENDMDL
MODEL 3
REMARK VINA RESULT:     -10.7      2.199      3.201
REMARK SMILES N#Cc1cc2c(nc1N(CC(=O)NCCCNC(=O)c1ccc(-c3c4nc(c(-c5cccc(S(=O)(=O)[O-])c5F)c5ccc([nH]5)c(-c5cccc(S(=O)(=O)[O-])c5F)c5nc(c(-c6cccc(S(=O)(=O)[O-])c6F)c6ccc3[nH]6)C=C5)C=C4)cc1)CC(F)(F)F)CCC2
REMARK SMILES IDX 15 1 14 2 13 3 11 4 12 5 10 7 9 8 8 9 3 10 4 11 5 12 7 13
REMARK SMILES IDX 6 14 90 15 88 16 89 17 2 18 1 19 83 20 84 21 85 22 86 23
REMARK SMILES IDX 87 24 16 25 17 26 18 27 19 29 20 30 21 31 82 32 22 33 81 34
REMARK SMILES IDX 23 35 24 36 25 37 75 38 26 39 80 40 74 41 76 42 27 43 79 44
REMARK SMILES IDX 73 45 72 46 28 48 60 49 40 50 59 51 41 52 44 53 58 54 77 55
REMARK SMILES IDX 42 56 43 57 57 59 78 60 45 61 29 62 30 63 38 64 31 65 33 66
REMARK SMILES IDX 39 67 32 68 34 69 35 70 36 71 37 72 61 73 62 74 70 75 63 76
REMARK SMILES IDX 65 77 71 78 64 79 66 80 67 81 68 82 69 83 46 84 47 85 55 86
REMARK SMILES IDX 48 87 50 88 56 89 49 90 51 91 52 92 53 93 54 94
REMARK H PARENT 13 6 17 28 76 47 44 58
REMARK Flexibility Score: inf
ROOT
ATOM      1  C   UNL A   1      32.824  28.895  24.026  1.00  0.00     0.042 C 
ENDROOT
BRANCH   1   2
ATOM      2  C   UNL A   1      33.901  28.001  23.423  1.00  0.00     0.117 C 
BRANCH   2   3
ATOM      3  N   UNL A   1      33.391  27.146  22.366  1.00  0.00    -0.354 N 
ATOM      4  C   UNL A   1      33.490  25.792  22.237  1.00  0.00     0.239 C 
ATOM      5  O   UNL A   1      32.998  25.260  21.238  1.00  0.00    -0.273 OA
ATOM      6  H   UNL A   1      32.908  27.607  21.643  1.00  0.00     0.163 HD
BRANCH   4   7
ATOM      7  C   UNL A   1      34.196  24.955  23.310  1.00  0.00     0.218 C 
BRANCH   7   8
ATOM      8  N   UNL A   1      33.260  24.114  24.098  1.00  0.00    -0.337 N 
BRANCH   8   9
ATOM      9  C   UNL A   1      33.579  22.776  24.284  1.00  0.00     0.147 A 
ATOM     10  C   UNL A   1      34.607  22.251  25.106  1.00  0.00     0.095 A 
ATOM     11  C   UNL A   1      34.722  20.859  25.315  1.00  0.00     0.029 A 
ATOM     12  C   UNL A   1      33.872  20.019  24.637  1.00  0.00    -0.025 A 
ATOM     13  N   UNL A   1      32.784  21.900  23.603  1.00  0.00    -0.234 NA
ATOM     14  C   UNL A   1      32.952  20.580  23.780  1.00  0.00     0.046 A 
ATOM     15  C   UNL A   1      33.748  18.535  24.678  1.00  0.00     0.038 C 
ATOM     16  C   UNL A   1      32.130  19.520  23.103  1.00  0.00     0.057 C 
ATOM     17  C   UNL A   1      32.986  18.272  23.370  1.00  0.00     0.011 C 
BRANCH  10  18
ATOM     18  C   UNL A   1      35.637  23.047  25.703  1.00  0.00     0.103 C 
ATOM     19  N   UNL A   1      36.512  23.651  26.162  1.00  0.00    -0.192 NA
ENDBRANCH  10  18
ENDBRANCH   8   9
BRANCH   8  20
ATOM     20  C   UNL A   1      32.076  24.831  24.657  1.00  0.00     0.234 C 
BRANCH  20  21
ATOM     21  C   UNL A   1      32.202  25.375  26.094  1.00  0.00     0.405 C 
ATOM     22  F   UNL A   1      33.439  25.839  26.370  1.00  0.00    -0.169 F 
ATOM     23  F   UNL A   1      31.325  26.384  26.298  1.00  0.00    -0.169 F 
ATOM     24  F   UNL A   1      31.923  24.418  27.012  1.00  0.00    -0.169 F 
ENDBRANCH  20  21
ENDBRANCH   8  20
ENDBRANCH   7   8
ENDBRANCH   4   7
ENDBRANCH   2   3
ENDBRANCH   1   2
BRANCH   1  25
ATOM     25  C   UNL A   1      32.989  29.119  25.526  1.00  0.00     0.118 C 
BRANCH  25  26
ATOM     26  N   UNL A   1      32.629  30.478  25.913  1.00  0.00    -0.352 N 
ATOM     27  C   UNL A   1      33.160  31.274  26.897  1.00  0.00     0.251 C 
ATOM     28  H   UNL A   1      31.898  30.883  25.393  1.00  0.00     0.163 HD
ATOM     29  O   UNL A   1      32.565  32.288  27.248  1.00  0.00    -0.269 OA
BRANCH  27  30
ATOM     30  C   UNL A   1      34.440  30.903  27.538  1.00  0.00     0.039 A 
ATOM     31  C   UNL A   1      35.423  31.880  27.709  1.00  0.00     0.014 A 
ATOM     32  C   UNL A   1      34.675  29.591  27.958  1.00  0.00     0.014 A 
ATOM     33  C   UNL A   1      36.617  31.553  28.354  1.00  0.00     0.010 A 
ATOM     34  C   UNL A   1      35.832  29.285  28.669  1.00  0.00     0.010 A 
ATOM     35  C   UNL A   1      36.820  30.261  28.869  1.00  0.00    -0.014 A 
BRANCH  35  36
ATOM     36  C   UNL A   1      38.056  29.924  29.620  1.00  0.00     0.031 A 
ATOM     37  C   UNL A   1      38.302  30.515  30.984  1.00  0.00     0.074 A 
ATOM     38  C   UNL A   1      38.974  29.110  29.057  1.00  0.00     0.049 A 
ATOM     39  N   UNL A   1      39.322  30.340  31.782  1.00  0.00    -0.248 NA
ATOM     40  C   UNL A   1      37.278  31.429  31.518  1.00  0.00     0.031 C 
ATOM     41  C   UNL A   1      38.872  28.517  27.721  1.00  0.00     0.029 A 
ATOM     42  N   UNL A   1      40.176  28.644  29.531  1.00  0.00    -0.354 N 
ATOM     43  C   UNL A   1      39.069  31.122  32.902  1.00  0.00     0.074 A 
ATOM     44  C   UNL A   1      37.823  31.813  32.665  1.00  0.00     0.031 C 
ATOM     45  C   UNL A   1      39.948  27.747  27.496  1.00  0.00     0.029 A 
ATOM     46  C   UNL A   1      40.839  27.819  28.649  1.00  0.00     0.049 A 
ATOM     47  H   UNL A   1      40.531  28.878  30.420  1.00  0.00     0.167 HD
ATOM     48  C   UNL A   1      39.789  31.224  34.043  1.00  0.00     0.034 A 
ATOM     49  C   UNL A   1      42.029  27.194  28.758  1.00  0.00     0.034 A 
ATOM     50  C   UNL A   1      41.012  30.508  34.288  1.00  0.00     0.049 A 
ATOM     51  C   UNL A   1      42.816  27.351  30.035  1.00  0.00     0.074 A 
ATOM     52  C   UNL A   1      41.790  30.513  35.433  1.00  0.00     0.029 A 
ATOM     53  N   UNL A   1      41.631  29.661  33.384  1.00  0.00    -0.354 N 
ATOM     54  N   UNL A   1      42.494  27.994  31.130  1.00  0.00    -0.248 NA
ATOM     55  C   UNL A   1      44.119  26.668  30.104  1.00  0.00     0.031 C 
ATOM     56  C   UNL A   1      42.897  29.693  35.210  1.00  0.00     0.029 A 
ATOM     57  C   UNL A   1      42.786  29.142  33.943  1.00  0.00     0.049 A 
ATOM     58  H   UNL A   1      41.300  29.458  32.479  1.00  0.00     0.167 HD
ATOM     59  C   UNL A   1      43.526  27.754  32.031  1.00  0.00     0.074 A 
ATOM     60  C   UNL A   1      44.474  26.890  31.363  1.00  0.00     0.031 C 
ATOM     61  C   UNL A   1      43.682  28.223  33.294  1.00  0.00     0.034 A 
BRANCH  48  62
ATOM     62  C   UNL A   1      39.249  32.074  35.164  1.00  0.00     0.023 A 
ATOM     63  C   UNL A   1      38.399  31.483  36.121  1.00  0.00     0.012 A 
ATOM     64  C   UNL A   1      39.700  33.393  35.360  1.00  0.00     0.148 A 
ATOM     65  C   UNL A   1      38.002  32.193  37.252  1.00  0.00     0.002 A 
ATOM     66  C   UNL A   1      39.339  34.078  36.514  1.00  0.00     0.091 A 
ATOM     67  F   UNL A   1      40.499  33.940  34.431  1.00  0.00    -0.205 F 
ATOM     68  C   UNL A   1      38.485  33.482  37.457  1.00  0.00     0.022 A 
BRANCH  66  69
ATOM     69  S   UNL A   1      39.979  35.706  36.924  1.00  0.00     0.127 S 
ATOM     70  O   UNL A   1      41.418  35.446  37.002  1.00  0.00    -0.237 OA
ATOM     71  O   UNL A   1      39.565  36.497  35.766  1.00  0.00    -0.237 OA
ATOM     72  O   UNL A   1      39.355  36.083  38.184  1.00  0.00    -0.744 OA
ENDBRANCH  66  69
ENDBRANCH  48  62
BRANCH  49  73
ATOM     73  C   UNL A   1      42.527  26.306  27.665  1.00  0.00     0.023 A 
ATOM     74  C   UNL A   1      43.441  26.818  26.723  1.00  0.00     0.012 A 
ATOM     75  C   UNL A   1      42.100  24.969  27.542  1.00  0.00     0.148 A 
ATOM     76  C   UNL A   1      43.883  26.037  25.655  1.00  0.00     0.002 A 
ATOM     77  C   UNL A   1      42.594  24.174  26.514  1.00  0.00     0.091 A 
ATOM     78  F   UNL A   1      41.221  24.496  28.437  1.00  0.00    -0.205 F 
ATOM     79  C   UNL A   1      43.466  24.713  25.555  1.00  0.00     0.022 A 
BRANCH  77  80
ATOM     80  S   UNL A   1      42.228  22.420  26.385  1.00  0.00     0.127 S 
ATOM     81  O   UNL A   1      42.766  21.909  27.643  1.00  0.00    -0.237 OA
ATOM     82  O   UNL A   1      40.767  22.424  26.294  1.00  0.00    -0.237 OA
ATOM     83  O   UNL A   1      42.901  21.967  25.176  1.00  0.00    -0.744 OA
ENDBRANCH  77  80
ENDBRANCH  49  73
BRANCH  61  84
ATOM     84  C   UNL A   1      44.894  27.784  34.076  1.00  0.00     0.023 A 
ATOM     85  C   UNL A   1      46.052  28.584  34.085  1.00  0.00     0.012 A 
ATOM     86  C   UNL A   1      44.831  26.646  34.906  1.00  0.00     0.148 A 
ATOM     87  C   UNL A   1      47.136  28.250  34.893  1.00  0.00     0.002 A 
ATOM     88  C   UNL A   1      45.892  26.352  35.753  1.00  0.00     0.091 A 
ATOM     89  F   UNL A   1      43.723  25.891  34.874  1.00  0.00    -0.205 F 
ATOM     90  C   UNL A   1      47.051  27.146  35.739  1.00  0.00     0.022 A 
BRANCH  88  91
ATOM     91  S   UNL A   1      45.830  25.022  36.959  1.00  0.00     0.127 S 
ATOM     92  O   UNL A   1      46.928  25.384  37.855  1.00  0.00    -0.237 OA
ATOM     93  O   UNL A   1      44.494  25.190  37.532  1.00  0.00    -0.237 OA
ATOM     94  O   UNL A   1      46.023  23.788  36.212  1.00  0.00    -0.744 OA
ENDBRANCH  88  91
ENDBRANCH  61  84
ENDBRANCH  35  36
ENDBRANCH  27  30
ENDBRANCH  25  26
ENDBRANCH   1  25
TORSDOF 18
ENDMDL
