MODEL 1
REMARK VINA RESULT:     -13.4      0.000      0.000
REMARK SMILES O=C(NCCCNC(=O)c1nn(Cc2ccc(F)cc2)c2c1CN(C(=O)[C@H]1CC1(F)F)CC2)c1ccc(-c2c3nc(c(-c4cccc(S(=O)(=O)[O-])c4F)c4ccc([nH]4)c(-c4cccc(S(=O)(=O)[O-])c4F)c4nc(c(-c5cccc(S(=O)(=O)[O-])c5F)c5ccc2[nH]5)C=C4)C=C3)cc1
REMARK SMILES IDX 4 1 3 2 1 3 2 4 34 6 35 7 96 8 36 9 95 10 37 11 38 12 39 13
REMARK SMILES IDX 89 14 40 15 94 16 88 17 90 18 41 19 93 20 87 21 86 22 42 24
REMARK SMILES IDX 74 25 54 26 73 27 55 28 58 29 72 30 91 31 56 32 57 33 71 35
REMARK SMILES IDX 92 36 59 37 43 38 44 39 52 40 45 41 47 42 53 43 46 44 48 45
REMARK SMILES IDX 49 46 50 47 51 48 75 49 76 50 84 51 77 52 79 53 85 54 78 55
REMARK SMILES IDX 80 56 81 57 82 58 83 59 60 60 61 61 69 62 62 63 64 64 70 65
REMARK SMILES IDX 63 66 65 67 66 68 67 69 68 70 5 71 6 72 7 73 8 74 9 76 10 77
REMARK SMILES IDX 11 78 22 79 12 80 21 81 23 82 33 83 24 84 32 85 13 86 14 87
REMARK SMILES IDX 15 88 20 89 16 90 19 91 17 92 18 93 25 94 26 95 27 96 28 97
REMARK SMILES IDX 29 98 30 99 31 100
REMARK H PARENT 3 5 90 23 58 34 7 75
REMARK Flexibility Score: inf
ROOT
ATOM      1  C   UNL A   1      34.364  31.580  27.690  1.00  0.00     0.118 C 
ENDROOT
BRANCH   1   2
ATOM      2  N   UNL A   1      34.342  31.861  29.113  1.00  0.00    -0.352 N 
ATOM      3  O   UNL A   1      34.875  32.282  31.205  1.00  0.00    -0.269 OA
ATOM      4  C   UNL A   1      35.239  31.764  30.144  1.00  0.00     0.251 C 
ATOM      5  H   UNL A   1      33.469  32.205  29.411  1.00  0.00     0.163 HD
BRANCH   4   6
ATOM      6  C   UNL A   1      36.556  31.066  30.104  1.00  0.00     0.039 A 
ATOM      7  C   UNL A   1      37.795  31.663  29.874  1.00  0.00     0.014 A 
ATOM      8  C   UNL A   1      36.521  29.673  30.327  1.00  0.00     0.014 A 
ATOM      9  C   UNL A   1      38.959  30.886  29.837  1.00  0.00     0.010 A 
ATOM     10  C   UNL A   1      37.678  28.895  30.293  1.00  0.00     0.010 A 
ATOM     11  C   UNL A   1      38.903  29.500  30.034  1.00  0.00    -0.014 A 
BRANCH  11  12
ATOM     12  C   UNL A   1      40.163  28.758  30.133  1.00  0.00     0.031 A 
ATOM     13  C   UNL A   1      40.766  28.706  31.497  1.00  0.00     0.074 A 
ATOM     14  C   UNL A   1      40.712  28.009  29.154  1.00  0.00     0.049 A 
ATOM     15  N   UNL A   1      41.903  29.187  31.886  1.00  0.00    -0.248 NA
ATOM     16  C   UNL A   1      39.968  28.104  32.574  1.00  0.00     0.031 C 
ATOM     17  C   UNL A   1      40.110  27.637  27.872  1.00  0.00     0.029 A 
ATOM     18  N   UNL A   1      41.894  27.317  29.159  1.00  0.00    -0.354 N 
ATOM     19  C   UNL A   1      42.058  28.772  33.210  1.00  0.00     0.074 A 
ATOM     20  C   UNL A   1      40.785  28.240  33.619  1.00  0.00     0.031 C 
ATOM     21  C   UNL A   1      40.820  26.621  27.329  1.00  0.00     0.029 A 
ATOM     22  C   UNL A   1      41.994  26.368  28.149  1.00  0.00     0.049 A 
ATOM     23  H   UNL A   1      42.607  27.478  29.819  1.00  0.00     0.167 HD
ATOM     24  C   UNL A   1      43.279  28.709  33.809  1.00  0.00     0.034 A 
ATOM     25  C   UNL A   1      42.943  25.409  28.025  1.00  0.00     0.034 A 
ATOM     26  C   UNL A   1      44.276  29.433  33.068  1.00  0.00     0.049 A 
ATOM     27  C   UNL A   1      44.124  25.835  28.807  1.00  0.00     0.074 A 
ATOM     28  C   UNL A   1      44.485  30.743  32.694  1.00  0.00     0.029 A 
ATOM     29  N   UNL A   1      45.143  28.672  32.327  1.00  0.00    -0.354 N 
ATOM     30  N   UNL A   1      44.892  26.838  28.487  1.00  0.00    -0.248 NA
ATOM     31  C   UNL A   1      44.336  25.283  30.136  1.00  0.00     0.031 C 
ATOM     32  C   UNL A   1      45.197  30.675  31.461  1.00  0.00     0.029 A 
ATOM     33  C   UNL A   1      45.393  29.326  31.153  1.00  0.00     0.049 A 
ATOM     34  H   UNL A   1      45.520  27.803  32.595  1.00  0.00     0.167 HD
ATOM     35  C   UNL A   1      45.360  27.312  29.700  1.00  0.00     0.074 A 
ATOM     36  C   UNL A   1      45.142  26.221  30.640  1.00  0.00     0.031 C 
ATOM     37  C   UNL A   1      45.590  28.645  29.888  1.00  0.00     0.034 A 
BRANCH  24  38
ATOM     38  C   UNL A   1      43.691  27.718  34.882  1.00  0.00     0.023 A 
ATOM     39  C   UNL A   1      44.268  28.246  36.064  1.00  0.00     0.012 A 
ATOM     40  C   UNL A   1      43.809  26.324  34.689  1.00  0.00     0.148 A 
ATOM     41  C   UNL A   1      44.971  27.444  36.969  1.00  0.00     0.002 A 
ATOM     42  C   UNL A   1      44.434  25.516  35.636  1.00  0.00     0.091 A 
ATOM     43  F   UNL A   1      43.440  25.775  33.528  1.00  0.00    -0.205 F 
ATOM     44  C   UNL A   1      45.046  26.074  36.760  1.00  0.00     0.022 A 
BRANCH  42  45
ATOM     45  S   UNL A   1      44.494  23.730  35.455  1.00  0.00     0.127 S 
ATOM     46  O   UNL A   1      45.089  23.326  36.725  1.00  0.00    -0.237 OA
ATOM     47  O   UNL A   1      43.079  23.394  35.300  1.00  0.00    -0.237 OA
ATOM     48  O   UNL A   1      45.295  23.493  34.260  1.00  0.00    -0.744 OA
ENDBRANCH  42  45
ENDBRANCH  24  38
BRANCH  25  49
ATOM     49  C   UNL A   1      42.885  24.058  27.417  1.00  0.00     0.023 A 
ATOM     50  C   UNL A   1      41.669  23.341  27.435  1.00  0.00     0.012 A 
ATOM     51  C   UNL A   1      43.914  23.597  26.567  1.00  0.00     0.148 A 
ATOM     52  C   UNL A   1      41.464  22.239  26.599  1.00  0.00     0.002 A 
ATOM     53  C   UNL A   1      43.707  22.496  25.739  1.00  0.00     0.091 A 
ATOM     54  F   UNL A   1      45.055  24.294  26.498  1.00  0.00    -0.205 F 
ATOM     55  C   UNL A   1      42.478  21.824  25.741  1.00  0.00     0.022 A 
BRANCH  53  56
ATOM     56  S   UNL A   1      44.959  21.920  24.586  1.00  0.00     0.127 S 
ATOM     57  O   UNL A   1      44.347  20.702  24.054  1.00  0.00    -0.237 OA
ATOM     58  O   UNL A   1      45.033  23.030  23.641  1.00  0.00    -0.237 OA
ATOM     59  O   UNL A   1      46.154  21.685  25.387  1.00  0.00    -0.744 OA
ENDBRANCH  53  56
ENDBRANCH  25  49
BRANCH  37  60
ATOM     60  C   UNL A   1      45.732  29.527  28.673  1.00  0.00     0.023 A 
ATOM     61  C   UNL A   1      44.613  30.004  27.959  1.00  0.00     0.012 A 
ATOM     62  C   UNL A   1      47.005  30.035  28.362  1.00  0.00     0.148 A 
ATOM     63  C   UNL A   1      44.764  30.950  26.944  1.00  0.00     0.002 A 
ATOM     64  C   UNL A   1      47.143  31.022  27.394  1.00  0.00     0.091 A 
ATOM     65  F   UNL A   1      48.060  29.572  29.051  1.00  0.00    -0.205 F 
ATOM     66  C   UNL A   1      46.027  31.472  26.673  1.00  0.00     0.022 A 
BRANCH  64  67
ATOM     67  S   UNL A   1      48.708  31.853  27.107  1.00  0.00     0.127 S 
ATOM     68  O   UNL A   1      49.540  30.772  26.586  1.00  0.00    -0.237 OA
ATOM     69  O   UNL A   1      48.344  32.874  26.122  1.00  0.00    -0.237 OA
ATOM     70  O   UNL A   1      49.118  32.394  28.398  1.00  0.00    -0.744 OA
ENDBRANCH  64  67
ENDBRANCH  37  60
ENDBRANCH  11  12
ENDBRANCH   4   6
ENDBRANCH   1   2
BRANCH   1  71
ATOM     71  C   UNL A   1      34.234  30.103  27.321  1.00  0.00     0.042 C 
BRANCH  71  72
ATOM     72  C   UNL A   1      33.171  29.787  26.262  1.00  0.00     0.118 C 
BRANCH  72  73
ATOM     73  N   UNL A   1      33.731  29.604  24.926  1.00  0.00    -0.351 N 
ATOM     74  C   UNL A   1      33.266  28.895  23.837  1.00  0.00     0.272 C 
ATOM     75  H   UNL A   1      34.588  30.067  24.777  1.00  0.00     0.163 HD
ATOM     76  O   UNL A   1      34.022  28.775  22.870  1.00  0.00    -0.267 OA
BRANCH  74  77
ATOM     77  C   UNL A   1      31.934  28.262  23.844  1.00  0.00     0.155 A 
ATOM     78  N   UNL A   1      30.851  28.807  23.253  1.00  0.00    -0.167 NA
ATOM     79  C   UNL A   1      31.604  26.986  24.389  1.00  0.00     0.026 A 
ATOM     80  N   UNL A   1      29.825  27.983  23.560  1.00  0.00    -0.264 N 
ATOM     81  C   UNL A   1      30.229  26.904  24.281  1.00  0.00     0.046 A 
ATOM     82  C   UNL A   1      32.452  25.945  25.052  1.00  0.00     0.159 C 
ATOM     83  C   UNL A   1      29.398  25.824  24.871  1.00  0.00     0.078 C 
ATOM     84  N   UNL A   1      31.589  24.802  25.443  1.00  0.00    -0.337 N 
ATOM     85  C   UNL A   1      30.247  25.142  25.964  1.00  0.00     0.126 C 
BRANCH  80  86
ATOM     86  C   UNL A   1      28.494  28.249  23.027  1.00  0.00     0.180 C 
BRANCH  86  87
ATOM     87  C   UNL A   1      28.325  29.687  22.606  1.00  0.00    -0.026 A 
ATOM     88  C   UNL A   1      28.258  30.699  23.579  1.00  0.00     0.008 A 
ATOM     89  C   UNL A   1      28.228  30.036  21.249  1.00  0.00     0.008 A 
ATOM     90  C   UNL A   1      28.106  32.032  23.205  1.00  0.00     0.039 A 
ATOM     91  C   UNL A   1      28.079  31.375  20.879  1.00  0.00     0.039 A 
ATOM     92  C   UNL A   1      28.023  32.359  21.859  1.00  0.00     0.123 A 
ATOM     93  F   UNL A   1      27.889  33.641  21.499  1.00  0.00    -0.207 F 
ENDBRANCH  86  87
ENDBRANCH  80  86
BRANCH  84  94
ATOM     94  C   UNL A   1      32.058  23.508  25.289  1.00  0.00     0.232 C 
ATOM     95  O   UNL A   1      32.706  22.906  26.148  1.00  0.00    -0.274 OA
BRANCH  94  96
ATOM     96  C   UNL A   1      31.723  22.820  24.025  1.00  0.00     0.154 C 
ATOM     97  C   UNL A   1      32.550  23.108  22.778  1.00  0.00     0.097 C 
ATOM     98  C   UNL A   1      32.601  21.782  23.437  1.00  0.00     0.260 C 
ATOM     99  F   UNL A   1      33.783  21.368  24.002  1.00  0.00    -0.206 F 
ATOM    100  F   UNL A   1      32.066  20.700  22.774  1.00  0.00    -0.206 F 
ENDBRANCH  94  96
ENDBRANCH  84  94
ENDBRANCH  74  77
ENDBRANCH  72  73
ENDBRANCH  71  72
ENDBRANCH   1  71
TORSDOF 17
ENDMDL
MODEL 2
REMARK VINA RESULT:     -13.4      3.269      7.933
REMARK SMILES O=C(NCCCNC(=O)c1nn(Cc2ccc(F)cc2)c2c1CN(C(=O)[C@H]1CC1(F)F)CC2)c1ccc(-c2c3nc(c(-c4cccc(S(=O)(=O)[O-])c4F)c4ccc([nH]4)c(-c4cccc(S(=O)(=O)[O-])c4F)c4nc(c(-c5cccc(S(=O)(=O)[O-])c5F)c5ccc2[nH]5)C=C4)C=C3)cc1
REMARK SMILES IDX 4 1 3 2 1 3 2 4 34 6 35 7 96 8 36 9 95 10 37 11 38 12 39 13
REMARK SMILES IDX 89 14 40 15 94 16 88 17 90 18 41 19 93 20 87 21 86 22 42 24
REMARK SMILES IDX 74 25 54 26 73 27 55 28 58 29 72 30 91 31 56 32 57 33 71 35
REMARK SMILES IDX 92 36 59 37 43 38 44 39 52 40 45 41 47 42 53 43 46 44 48 45
REMARK SMILES IDX 49 46 50 47 51 48 75 49 76 50 84 51 77 52 79 53 85 54 78 55
REMARK SMILES IDX 80 56 81 57 82 58 83 59 60 60 61 61 69 62 62 63 64 64 70 65
REMARK SMILES IDX 63 66 65 67 66 68 67 69 68 70 5 71 6 72 7 73 8 74 9 76 10 77
REMARK SMILES IDX 11 78 22 79 12 80 21 81 23 82 33 83 24 84 32 85 13 86 14 87
REMARK SMILES IDX 15 88 20 89 16 90 19 91 17 92 18 93 25 94 26 95 27 96 28 97
REMARK SMILES IDX 29 98 30 99 31 100
REMARK H PARENT 3 5 90 23 58 34 7 75
REMARK Flexibility Score: inf
ROOT
ATOM      1  C   UNL A   1      38.722  19.151  25.867  1.00  0.00     0.118 C 
ENDROOT
BRANCH   1   2
ATOM      2  N   UNL A   1      40.085  18.828  25.490  1.00  0.00    -0.352 N 
ATOM      3  O   UNL A   1      42.275  18.659  25.371  1.00  0.00    -0.269 OA
ATOM      4  C   UNL A   1      41.323  19.349  25.754  1.00  0.00     0.251 C 
ATOM      5  H   UNL A   1      40.130  18.041  24.899  1.00  0.00     0.163 HD
BRANCH   4   6
ATOM      6  C   UNL A   1      41.608  20.662  26.402  1.00  0.00     0.039 A 
ATOM      7  C   UNL A   1      42.083  21.807  25.764  1.00  0.00     0.014 A 
ATOM      8  C   UNL A   1      41.360  20.729  27.790  1.00  0.00     0.014 A 
ATOM      9  C   UNL A   1      42.334  22.972  26.497  1.00  0.00     0.010 A 
ATOM     10  C   UNL A   1      41.606  21.889  28.524  1.00  0.00     0.010 A 
ATOM     11  C   UNL A   1      42.107  23.014  27.879  1.00  0.00    -0.014 A 
BRANCH  11  12
ATOM     12  C   UNL A   1      42.243  24.300  28.570  1.00  0.00     0.031 A 
ATOM     13  C   UNL A   1      41.126  25.263  28.348  1.00  0.00     0.074 A 
ATOM     14  C   UNL A   1      43.187  24.602  29.486  1.00  0.00     0.049 A 
ATOM     15  N   UNL A   1      41.176  26.428  27.785  1.00  0.00    -0.248 NA
ATOM     16  C   UNL A   1      39.774  24.843  28.742  1.00  0.00     0.031 C 
ATOM     17  C   UNL A   1      44.151  23.692  30.108  1.00  0.00     0.029 A 
ATOM     18  N   UNL A   1      43.398  25.783  30.147  1.00  0.00    -0.354 N 
ATOM     19  C   UNL A   1      39.900  26.976  27.934  1.00  0.00     0.074 A 
ATOM     20  C   UNL A   1      39.052  25.908  28.394  1.00  0.00     0.031 C 
ATOM     21  C   UNL A   1      44.682  24.290  31.199  1.00  0.00     0.029 A 
ATOM     22  C   UNL A   1      44.204  25.661  31.272  1.00  0.00     0.049 A 
ATOM     23  H   UNL A   1      43.012  26.640  29.852  1.00  0.00     0.167 HD
ATOM     24  C   UNL A   1      39.679  28.317  27.862  1.00  0.00     0.034 A 
ATOM     25  C   UNL A   1      44.421  26.601  32.223  1.00  0.00     0.034 A 
ATOM     26  C   UNL A   1      40.794  29.014  27.282  1.00  0.00     0.049 A 
ATOM     27  C   UNL A   1      44.103  27.921  31.638  1.00  0.00     0.074 A 
ATOM     28  C   UNL A   1      41.443  29.019  26.066  1.00  0.00     0.029 A 
ATOM     29  N   UNL A   1      41.603  29.689  28.159  1.00  0.00    -0.354 N 
ATOM     30  N   UNL A   1      44.809  28.497  30.705  1.00  0.00    -0.248 NA
ATOM     31  C   UNL A   1      42.816  28.535  31.919  1.00  0.00     0.031 C 
ATOM     32  C   UNL A   1      42.795  29.359  26.362  1.00  0.00     0.029 A 
ATOM     33  C   UNL A   1      42.897  29.553  27.741  1.00  0.00     0.049 A 
ATOM     34  H   UNL A   1      41.302  30.185  28.955  1.00  0.00     0.167 HD
ATOM     35  C   UNL A   1      43.888  29.253  29.999  1.00  0.00     0.074 A 
ATOM     36  C   UNL A   1      42.744  29.383  30.891  1.00  0.00     0.031 C 
ATOM     37  C   UNL A   1      44.020  29.434  28.651  1.00  0.00     0.034 A 
BRANCH  24  38
ATOM     38  C   UNL A   1      38.609  29.081  28.621  1.00  0.00     0.023 A 
ATOM     39  C   UNL A   1      37.834  30.013  27.887  1.00  0.00     0.012 A 
ATOM     40  C   UNL A   1      38.512  29.149  30.029  1.00  0.00     0.148 A 
ATOM     41  C   UNL A   1      37.058  30.992  28.516  1.00  0.00     0.002 A 
ATOM     42  C   UNL A   1      37.670  30.068  30.649  1.00  0.00     0.091 A 
ATOM     43  F   UNL A   1      39.332  28.420  30.793  1.00  0.00    -0.205 F 
ATOM     44  C   UNL A   1      36.967  31.014  29.900  1.00  0.00     0.022 A 
BRANCH  42  45
ATOM     45  S   UNL A   1      37.455  30.092  32.433  1.00  0.00     0.127 S 
ATOM     46  O   UNL A   1      36.394  31.083  32.588  1.00  0.00    -0.237 OA
ATOM     47  O   UNL A   1      37.057  28.711  32.708  1.00  0.00    -0.237 OA
ATOM     48  O   UNL A   1      38.761  30.452  32.971  1.00  0.00    -0.744 OA
ENDBRANCH  42  45
ENDBRANCH  24  38
BRANCH  25  49
ATOM     49  C   UNL A   1      44.731  26.468  33.667  1.00  0.00     0.023 A 
ATOM     50  C   UNL A   1      46.006  26.851  34.140  1.00  0.00     0.012 A 
ATOM     51  C   UNL A   1      43.707  26.259  34.616  1.00  0.00     0.148 A 
ATOM     52  C   UNL A   1      46.238  27.069  35.502  1.00  0.00     0.002 A 
ATOM     53  C   UNL A   1      43.945  26.473  35.972  1.00  0.00     0.091 A 
ATOM     54  F   UNL A   1      42.480  25.947  34.182  1.00  0.00    -0.205 F 
ATOM     55  C   UNL A   1      45.204  26.893  36.417  1.00  0.00     0.022 A 
BRANCH  53  56
ATOM     56  S   UNL A   1      42.653  26.292  37.208  1.00  0.00     0.127 S 
ATOM     57  O   UNL A   1      43.408  26.393  38.457  1.00  0.00    -0.237 OA
ATOM     58  O   UNL A   1      41.795  27.437  36.917  1.00  0.00    -0.237 OA
ATOM     59  O   UNL A   1      42.063  24.979  36.972  1.00  0.00    -0.744 OA
ENDBRANCH  53  56
ENDBRANCH  25  49
BRANCH  37  60
ATOM     60  C   UNL A   1      45.362  29.168  28.019  1.00  0.00     0.023 A 
ATOM     61  C   UNL A   1      46.384  30.139  27.994  1.00  0.00     0.012 A 
ATOM     62  C   UNL A   1      45.661  27.855  27.612  1.00  0.00     0.148 A 
ATOM     63  C   UNL A   1      47.668  29.814  27.555  1.00  0.00     0.002 A 
ATOM     64  C   UNL A   1      46.955  27.521  27.234  1.00  0.00     0.091 A 
ATOM     65  F   UNL A   1      44.678  26.942  27.642  1.00  0.00    -0.205 F 
ATOM     66  C   UNL A   1      47.959  28.501  27.191  1.00  0.00     0.022 A 
BRANCH  64  67
ATOM     67  S   UNL A   1      47.437  25.823  26.911  1.00  0.00     0.127 S 
ATOM     68  O   UNL A   1      46.677  25.511  25.703  1.00  0.00    -0.237 OA
ATOM     69  O   UNL A   1      48.883  25.941  26.710  1.00  0.00    -0.237 OA
ATOM     70  O   UNL A   1      47.064  25.066  28.100  1.00  0.00    -0.744 OA
ENDBRANCH  64  67
ENDBRANCH  37  60
ENDBRANCH  11  12
ENDBRANCH   4   6
ENDBRANCH   1   2
BRANCH   1  71
ATOM     71  C   UNL A   1      37.812  19.564  24.712  1.00  0.00     0.042 C 
BRANCH  71  72
ATOM     72  C   UNL A   1      37.968  21.016  24.245  1.00  0.00     0.118 C 
BRANCH  72  73
ATOM     73  N   UNL A   1      37.826  21.984  25.329  1.00  0.00    -0.351 N 
ATOM     74  C   UNL A   1      36.828  22.897  25.604  1.00  0.00     0.272 C 
ATOM     75  H   UNL A   1      38.570  21.986  25.973  1.00  0.00     0.163 HD
ATOM     76  O   UNL A   1      37.035  23.713  26.506  1.00  0.00    -0.267 OA
BRANCH  74  77
ATOM     77  C   UNL A   1      35.578  22.928  24.822  1.00  0.00     0.155 A 
ATOM     78  N   UNL A   1      35.295  23.883  23.913  1.00  0.00    -0.167 NA
ATOM     79  C   UNL A   1      34.539  21.951  24.845  1.00  0.00     0.026 A 
ATOM     80  N   UNL A   1      34.039  23.614  23.492  1.00  0.00    -0.264 N 
ATOM     81  C   UNL A   1      33.535  22.489  24.064  1.00  0.00     0.046 A 
ATOM     82  C   UNL A   1      34.412  20.659  25.592  1.00  0.00     0.159 C 
ATOM     83  C   UNL A   1      32.173  21.913  23.922  1.00  0.00     0.078 C 
ATOM     84  N   UNL A   1      33.109  20.035  25.252  1.00  0.00    -0.337 N 
ATOM     85  C   UNL A   1      31.959  20.955  25.111  1.00  0.00     0.126 C 
BRANCH  80  86
ATOM     86  C   UNL A   1      33.432  24.433  22.450  1.00  0.00     0.180 C 
BRANCH  86  87
ATOM     87  C   UNL A   1      32.681  25.612  23.015  1.00  0.00    -0.026 A 
ATOM     88  C   UNL A   1      33.389  26.710  23.534  1.00  0.00     0.008 A 
ATOM     89  C   UNL A   1      31.277  25.633  23.036  1.00  0.00     0.008 A 
ATOM     90  C   UNL A   1      32.709  27.809  24.055  1.00  0.00     0.039 A 
ATOM     91  C   UNL A   1      30.600  26.738  23.556  1.00  0.00     0.039 A 
ATOM     92  C   UNL A   1      31.321  27.815  24.057  1.00  0.00     0.123 A 
ATOM     93  F   UNL A   1      30.668  28.876  24.547  1.00  0.00    -0.207 F 
ENDBRANCH  86  87
ENDBRANCH  80  86
BRANCH  84  94
ATOM     94  C   UNL A   1      33.035  18.664  25.069  1.00  0.00     0.232 C 
ATOM     95  O   UNL A   1      32.152  17.953  25.555  1.00  0.00    -0.274 OA
BRANCH  94  96
ATOM     96  C   UNL A   1      34.069  18.046  24.214  1.00  0.00     0.154 C 
ATOM     97  C   UNL A   1      34.946  16.939  24.787  1.00  0.00     0.097 C 
ATOM     98  C   UNL A   1      33.954  16.653  23.723  1.00  0.00     0.260 C 
ATOM     99  F   UNL A   1      32.897  15.824  24.008  1.00  0.00    -0.206 F 
ATOM    100  F   UNL A   1      34.417  16.307  22.473  1.00  0.00    -0.206 F 
ENDBRANCH  94  96
ENDBRANCH  84  94
ENDBRANCH  74  77
ENDBRANCH  72  73
ENDBRANCH  71  72
ENDBRANCH   1  71
TORSDOF 17
ENDMDL
MODEL 3
REMARK VINA RESULT:     -13.3      1.704      2.118
REMARK SMILES O=C(NCCCNC(=O)c1nn(Cc2ccc(F)cc2)c2c1CN(C(=O)[C@H]1CC1(F)F)CC2)c1ccc(-c2c3nc(c(-c4cccc(S(=O)(=O)[O-])c4F)c4ccc([nH]4)c(-c4cccc(S(=O)(=O)[O-])c4F)c4nc(c(-c5cccc(S(=O)(=O)[O-])c5F)c5ccc2[nH]5)C=C4)C=C3)cc1
REMARK SMILES IDX 4 1 3 2 1 3 2 4 34 6 35 7 96 8 36 9 95 10 37 11 38 12 39 13
REMARK SMILES IDX 89 14 40 15 94 16 88 17 90 18 41 19 93 20 87 21 86 22 42 24
REMARK SMILES IDX 74 25 54 26 73 27 55 28 58 29 72 30 91 31 56 32 57 33 71 35
REMARK SMILES IDX 92 36 59 37 43 38 44 39 52 40 45 41 47 42 53 43 46 44 48 45
REMARK SMILES IDX 49 46 50 47 51 48 75 49 76 50 84 51 77 52 79 53 85 54 78 55
REMARK SMILES IDX 80 56 81 57 82 58 83 59 60 60 61 61 69 62 62 63 64 64 70 65
REMARK SMILES IDX 63 66 65 67 66 68 67 69 68 70 5 71 6 72 7 73 8 74 9 76 10 77
REMARK SMILES IDX 11 78 22 79 12 80 21 81 23 82 33 83 24 84 32 85 13 86 14 87
REMARK SMILES IDX 15 88 20 89 16 90 19 91 17 92 18 93 25 94 26 95 27 96 28 97
REMARK SMILES IDX 29 98 30 99 31 100
REMARK H PARENT 3 5 90 23 58 34 7 75
REMARK Flexibility Score: inf
ROOT
ATOM      1  C   UNL A   1      35.133  31.147  27.683  1.00  0.00     0.118 C 
ENDROOT
BRANCH   1   2
ATOM      2  N   UNL A   1      35.073  31.542  29.077  1.00  0.00    -0.352 N 
ATOM      3  O   UNL A   1      35.549  32.128  31.143  1.00  0.00    -0.269 OA
ATOM      4  C   UNL A   1      35.939  31.524  30.138  1.00  0.00     0.251 C 
ATOM      5  H   UNL A   1      34.194  31.913  29.321  1.00  0.00     0.163 HD
BRANCH   4   6
ATOM      6  C   UNL A   1      37.252  30.819  30.192  1.00  0.00     0.039 A 
ATOM      7  C   UNL A   1      38.510  31.421  30.161  1.00  0.00     0.014 A 
ATOM      8  C   UNL A   1      37.191  29.412  30.289  1.00  0.00     0.014 A 
ATOM      9  C   UNL A   1      39.669  30.638  30.193  1.00  0.00     0.010 A 
ATOM     10  C   UNL A   1      38.344  28.629  30.323  1.00  0.00     0.010 A 
ATOM     11  C   UNL A   1      39.591  29.241  30.263  1.00  0.00    -0.014 A 
BRANCH  11  12
ATOM     12  C   UNL A   1      40.831  28.481  30.444  1.00  0.00     0.031 A 
ATOM     13  C   UNL A   1      41.332  28.405  31.847  1.00  0.00     0.074 A 
ATOM     14  C   UNL A   1      41.440  27.736  29.498  1.00  0.00     0.049 A 
ATOM     15  N   UNL A   1      42.444  28.865  32.324  1.00  0.00    -0.248 NA
ATOM     16  C   UNL A   1      40.450  27.801  32.856  1.00  0.00     0.031 C 
ATOM     17  C   UNL A   1      40.929  27.387  28.171  1.00  0.00     0.029 A 
ATOM     18  N   UNL A   1      42.609  27.028  29.581  1.00  0.00    -0.354 N 
ATOM     19  C   UNL A   1      42.495  28.434  33.651  1.00  0.00     0.074 A 
ATOM     20  C   UNL A   1      41.189  27.914  33.959  1.00  0.00     0.031 C 
ATOM     21  C   UNL A   1      41.664  26.368  27.669  1.00  0.00     0.029 A 
ATOM     22  C   UNL A   1      42.771  26.090  28.569  1.00  0.00     0.049 A 
ATOM     23  H   UNL A   1      43.275  27.171  30.293  1.00  0.00     0.167 HD
ATOM     24  C   UNL A   1      43.669  28.347  34.336  1.00  0.00     0.034 A 
ATOM     25  C   UNL A   1      43.714  25.119  28.502  1.00  0.00     0.034 A 
ATOM     26  C   UNL A   1      44.726  29.065  33.679  1.00  0.00     0.049 A 
ATOM     27  C   UNL A   1      44.840  25.520  29.374  1.00  0.00     0.074 A 
ATOM     28  C   UNL A   1      44.979  30.377  33.338  1.00  0.00     0.029 A 
ATOM     29  N   UNL A   1      45.636  28.301  32.994  1.00  0.00    -0.354 N 
ATOM     30  N   UNL A   1      45.642  26.515  29.122  1.00  0.00    -0.248 NA
ATOM     31  C   UNL A   1      44.948  24.950  30.707  1.00  0.00     0.031 C 
ATOM     32  C   UNL A   1      45.778  30.313  32.159  1.00  0.00     0.029 A 
ATOM     33  C   UNL A   1      45.979  28.965  31.849  1.00  0.00     0.049 A 
ATOM     34  H   UNL A   1      45.981  27.424  33.278  1.00  0.00     0.167 HD
ATOM     35  C   UNL A   1      46.027  26.969  30.373  1.00  0.00     0.074 A 
ATOM     36  C   UNL A   1      45.726  25.870  31.280  1.00  0.00     0.031 C 
ATOM     37  C   UNL A   1      46.259  28.296  30.594  1.00  0.00     0.034 A 
BRANCH  24  38
ATOM     38  C   UNL A   1      43.988  27.338  35.423  1.00  0.00     0.023 A 
ATOM     39  C   UNL A   1      44.310  27.848  36.706  1.00  0.00     0.012 A 
ATOM     40  C   UNL A   1      44.266  25.971  35.199  1.00  0.00     0.148 A 
ATOM     41  C   UNL A   1      44.926  27.061  37.685  1.00  0.00     0.002 A 
ATOM     42  C   UNL A   1      44.798  25.170  36.206  1.00  0.00     0.091 A 
ATOM     43  F   UNL A   1      44.147  25.456  33.971  1.00  0.00    -0.205 F 
ATOM     44  C   UNL A   1      45.162  25.716  37.438  1.00  0.00     0.022 A 
BRANCH  42  45
ATOM     45  S   UNL A   1      45.054  23.407  35.968  1.00  0.00     0.127 S 
ATOM     46  O   UNL A   1      46.182  23.397  35.040  1.00  0.00    -0.237 OA
ATOM     47  O   UNL A   1      45.366  22.962  37.326  1.00  0.00    -0.237 OA
ATOM     48  O   UNL A   1      43.788  22.902  35.453  1.00  0.00    -0.744 OA
ENDBRANCH  42  45
ENDBRANCH  24  38
BRANCH  25  49
ATOM     49  C   UNL A   1      43.684  23.776  27.874  1.00  0.00     0.023 A 
ATOM     50  C   UNL A   1      42.629  22.890  28.184  1.00  0.00     0.012 A 
ATOM     51  C   UNL A   1      44.500  23.472  26.764  1.00  0.00     0.148 A 
ATOM     52  C   UNL A   1      42.362  21.773  27.385  1.00  0.00     0.002 A 
ATOM     53  C   UNL A   1      44.234  22.356  25.975  1.00  0.00     0.091 A 
ATOM     54  F   UNL A   1      45.473  24.328  26.425  1.00  0.00    -0.205 F 
ATOM     55  C   UNL A   1      43.156  21.513  26.273  1.00  0.00     0.022 A 
BRANCH  53  56
ATOM     56  S   UNL A   1      45.199  21.971  24.508  1.00  0.00     0.127 S 
ATOM     57  O   UNL A   1      46.519  21.693  25.075  1.00  0.00    -0.237 OA
ATOM     58  O   UNL A   1      44.499  20.802  23.985  1.00  0.00    -0.237 OA
ATOM     59  O   UNL A   1      45.147  23.168  23.677  1.00  0.00    -0.744 OA
ENDBRANCH  53  56
ENDBRANCH  25  49
BRANCH  37  60
ATOM     60  C   UNL A   1      46.500  29.190  29.404  1.00  0.00     0.023 A 
ATOM     61  C   UNL A   1      47.741  29.229  28.736  1.00  0.00     0.012 A 
ATOM     62  C   UNL A   1      45.401  29.860  28.838  1.00  0.00     0.148 A 
ATOM     63  C   UNL A   1      47.888  29.936  27.541  1.00  0.00     0.002 A 
ATOM     64  C   UNL A   1      45.536  30.511  27.617  1.00  0.00     0.091 A 
ATOM     65  F   UNL A   1      44.227  29.814  29.485  1.00  0.00    -0.205 F 
ATOM     66  C   UNL A   1      46.781  30.562  26.973  1.00  0.00     0.022 A 
BRANCH  64  67
ATOM     67  S   UNL A   1      44.122  31.197  26.751  1.00  0.00     0.127 S 
ATOM     68  O   UNL A   1      43.561  32.105  27.748  1.00  0.00    -0.237 OA
ATOM     69  O   UNL A   1      44.749  31.860  25.605  1.00  0.00    -0.237 OA
ATOM     70  O   UNL A   1      43.281  30.061  26.392  1.00  0.00    -0.744 OA
ENDBRANCH  64  67
ENDBRANCH  37  60
ENDBRANCH  11  12
ENDBRANCH   4   6
ENDBRANCH   1   2
BRANCH   1  71
ATOM     71  C   UNL A   1      35.271  29.645  27.442  1.00  0.00     0.042 C 
BRANCH  71  72
ATOM     72  C   UNL A   1      34.101  28.993  26.694  1.00  0.00     0.118 C 
BRANCH  72  73
ATOM     73  N   UNL A   1      32.994  28.626  27.573  1.00  0.00    -0.351 N 
ATOM     74  C   UNL A   1      31.833  27.923  27.323  1.00  0.00     0.272 C 
ATOM     75  H   UNL A   1      33.094  28.933  28.504  1.00  0.00     0.163 HD
ATOM     76  O   UNL A   1      30.983  27.891  28.217  1.00  0.00    -0.267 OA
BRANCH  74  77
ATOM     77  C   UNL A   1      31.593  27.273  26.022  1.00  0.00     0.155 A 
ATOM     78  N   UNL A   1      31.262  27.951  24.903  1.00  0.00    -0.167 NA
ATOM     79  C   UNL A   1      31.740  25.885  25.727  1.00  0.00     0.026 A 
ATOM     80  N   UNL A   1      31.040  27.004  23.965  1.00  0.00    -0.264 N 
ATOM     81  C   UNL A   1      31.270  25.750  24.435  1.00  0.00     0.046 A 
ATOM     82  C   UNL A   1      32.184  24.735  26.578  1.00  0.00     0.159 C 
ATOM     83  C   UNL A   1      31.064  24.453  23.742  1.00  0.00     0.078 C 
ATOM     84  N   UNL A   1      32.142  23.493  25.765  1.00  0.00    -0.337 N 
ATOM     85  C   UNL A   1      31.003  23.360  24.830  1.00  0.00     0.126 C 
BRANCH  80  86
ATOM     86  C   UNL A   1      30.710  27.397  22.601  1.00  0.00     0.180 C 
BRANCH  86  87
ATOM     87  C   UNL A   1      29.740  28.551  22.557  1.00  0.00    -0.026 A 
ATOM     88  C   UNL A   1      30.141  29.782  22.009  1.00  0.00     0.008 A 
ATOM     89  C   UNL A   1      28.436  28.419  23.060  1.00  0.00     0.008 A 
ATOM     90  C   UNL A   1      29.254  30.856  21.958  1.00  0.00     0.039 A 
ATOM     91  C   UNL A   1      27.550  29.497  23.003  1.00  0.00     0.039 A 
ATOM     92  C   UNL A   1      27.966  30.703  22.450  1.00  0.00     0.123 A 
ATOM     93  F   UNL A   1      27.111  31.730  22.391  1.00  0.00    -0.207 F 
ENDBRANCH  86  87
ENDBRANCH  80  86
BRANCH  84  94
ATOM     94  C   UNL A   1      33.150  22.554  25.900  1.00  0.00     0.232 C 
ATOM     95  O   UNL A   1      33.024  21.496  26.519  1.00  0.00    -0.274 OA
BRANCH  94  96
ATOM     96  C   UNL A   1      34.433  22.847  25.229  1.00  0.00     0.154 C 
ATOM     97  C   UNL A   1      35.213  21.709  24.582  1.00  0.00     0.097 C 
ATOM     98  C   UNL A   1      34.588  22.770  23.758  1.00  0.00     0.260 C 
ATOM     99  F   UNL A   1      33.573  22.430  22.897  1.00  0.00    -0.206 F 
ATOM    100  F   UNL A   1      35.410  23.650  23.089  1.00  0.00    -0.206 F 
ENDBRANCH  94  96
ENDBRANCH  84  94
ENDBRANCH  74  77
ENDBRANCH  72  73
ENDBRANCH  71  72
ENDBRANCH   1  71
TORSDOF 17
ENDMDL
