MODEL 1
REMARK VINA RESULT:     -12.2      0.000      0.000
REMARK SMILES CC(C)[C@H]1CC[C@@H](C)/C(=C/c2ccc(NC(=O)CCC(=O)NCCCNC(=O)c3ccc(-c4c5nc(c(-c6cccc(S(=O)(=O)[O-])c6F)c6ccc([nH]6)c(-c6cccc(S(=O)(=O)[O-])c6F)c6nc(c(-c7cccc(S(=O)(=O)[O-])c7F)c7ccc4[nH]7)C=C6)C=C5)cc3)cc2)C1=O
REMARK SMILES IDX 23 1 22 2 20 3 21 4 19 6 18 7 16 8 15 9 17 11 14 12 11 13
REMARK SMILES IDX 12 14 93 15 13 16 92 17 10 18 4 19 5 20 94 21 6 22 9 23
REMARK SMILES IDX 95 24 7 25 8 26 2 27 1 28 3 29 24 30 25 31 26 32 27 33 28 35
REMARK SMILES IDX 29 36 30 37 91 38 31 39 90 40 32 41 33 42 34 43 84 44 35 45
REMARK SMILES IDX 89 46 83 47 85 48 36 49 88 50 82 51 81 52 37 54 69 55 49 56
REMARK SMILES IDX 68 57 50 58 53 59 67 60 86 61 51 62 52 63 66 65 87 66 54 67
REMARK SMILES IDX 38 68 39 69 47 70 40 71 42 72 48 73 41 74 43 75 44 76 45 77
REMARK SMILES IDX 46 78 70 79 71 80 79 81 72 82 74 83 80 84 73 85 75 86 76 87
REMARK SMILES IDX 77 88 78 89 55 90 56 91 64 92 57 93 59 94 65 95 58 96 60 97
REMARK SMILES IDX 61 98 62 99 63 100
REMARK H PARENT 22 5 15 10 26 34 85 53 53 64
REMARK Flexibility Score: inf
ROOT
ATOM      1  C   UNL A   1      31.651  30.642  26.249  1.00  0.00     0.117 C 
ENDROOT
BRANCH   1   2
ATOM      2  N   UNL A   1      32.871  30.022  26.743  1.00  0.00    -0.356 N 
ATOM      3  C   UNL A   1      33.504  28.882  26.347  1.00  0.00     0.220 C 
ATOM      4  O   UNL A   1      34.656  28.685  26.736  1.00  0.00    -0.275 OA
ATOM      5  H   UNL A   1      33.309  30.503  27.482  1.00  0.00     0.163 HD
BRANCH   3   6
ATOM      6  C   UNL A   1      32.810  27.878  25.453  1.00  0.00     0.110 C 
BRANCH   6   7
ATOM      7  C   UNL A   1      33.396  27.799  24.049  1.00  0.00     0.110 C 
BRANCH   7   8
ATOM      8  C   UNL A   1      32.350  27.870  22.958  1.00  0.00     0.224 C 
ATOM      9  N   UNL A   1      31.729  26.757  22.467  1.00  0.00    -0.326 N 
ATOM     10  H   UNL A   1      31.071  26.928  21.755  1.00  0.00     0.169 HD
ATOM     11  O   UNL A   1      31.950  28.976  22.580  1.00  0.00    -0.275 OA
BRANCH   9  12
ATOM     12  C   UNL A   1      31.885  25.412  22.819  1.00  0.00     0.041 A 
ATOM     13  C   UNL A   1      32.156  22.644  23.193  1.00  0.00    -0.025 A 
ATOM     14  C   UNL A   1      31.181  23.360  23.891  1.00  0.00     0.010 A 
ATOM     15  C   UNL A   1      33.018  23.332  22.332  1.00  0.00     0.010 A 
ATOM     16  C   UNL A   1      31.051  24.739  23.707  1.00  0.00     0.027 A 
ATOM     17  C   UNL A   1      32.925  24.717  22.202  1.00  0.00     0.027 A 
BRANCH  13  18
ATOM     18  C   UNL A   1      32.273  21.199  23.418  1.00  0.00     0.015 C 
ATOM     19  C   UNL A   1      35.640  21.037  24.687  1.00  0.00     0.063 C 
ATOM     20  C   UNL A   1      35.782  19.538  25.008  1.00  0.00     0.013 C 
ATOM     21  C   UNL A   1      34.194  21.437  24.966  1.00  0.00     0.162 C 
ATOM     22  C   UNL A   1      34.758  18.698  24.235  1.00  0.00     0.009 C 
ATOM     23  C   UNL A   1      33.175  20.620  24.230  1.00  0.00    -0.001 C 
ATOM     24  O   UNL A   1      33.845  22.343  25.713  1.00  0.00    -0.294 OA
ATOM     25  C   UNL A   1      33.303  19.141  24.478  1.00  0.00     0.020 C 
ATOM     26  C   UNL A   1      32.821  18.795  25.895  1.00  0.00     0.013 C 
BRANCH  19  27
ATOM     27  C   UNL A   1      36.717  21.905  25.380  1.00  0.00    -0.007 C 
ATOM     28  C   UNL A   1      38.070  21.186  25.432  1.00  0.00     0.008 C 
ATOM     29  C   UNL A   1      36.882  23.309  24.794  1.00  0.00     0.008 C 
ENDBRANCH  19  27
ENDBRANCH  13  18
ENDBRANCH   9  12
ENDBRANCH   7   8
ENDBRANCH   6   7
ENDBRANCH   3   6
ENDBRANCH   1   2
BRANCH   1  30
ATOM     30  C   UNL A   1      31.447  32.085  26.699  1.00  0.00     0.042 C 
BRANCH  30  31
ATOM     31  C   UNL A   1      32.708  32.824  27.135  1.00  0.00     0.118 C 
BRANCH  31  32
ATOM     32  N   UNL A   1      32.460  34.164  27.632  1.00  0.00    -0.352 N 
ATOM     33  C   UNL A   1      33.107  34.860  28.628  1.00  0.00     0.251 C 
ATOM     34  H   UNL A   1      31.722  34.645  27.194  1.00  0.00     0.163 HD
ATOM     35  O   UNL A   1      32.706  35.973  28.943  1.00  0.00    -0.269 OA
BRANCH  33  36
ATOM     36  C   UNL A   1      34.260  34.259  29.344  1.00  0.00     0.039 A 
ATOM     37  C   UNL A   1      33.997  33.469  30.467  1.00  0.00     0.014 A 
ATOM     38  C   UNL A   1      35.581  34.485  28.946  1.00  0.00     0.014 A 
ATOM     39  C   UNL A   1      35.052  32.871  31.163  1.00  0.00     0.010 A 
ATOM     40  C   UNL A   1      36.631  33.842  29.610  1.00  0.00     0.010 A 
ATOM     41  C   UNL A   1      36.379  33.035  30.732  1.00  0.00    -0.014 A 
BRANCH  41  42
ATOM     42  C   UNL A   1      37.495  32.371  31.459  1.00  0.00     0.031 A 
ATOM     43  C   UNL A   1      38.258  31.237  30.825  1.00  0.00     0.074 A 
ATOM     44  C   UNL A   1      37.806  32.761  32.712  1.00  0.00     0.049 A 
ATOM     45  N   UNL A   1      39.282  30.570  31.293  1.00  0.00    -0.248 NA
ATOM     46  C   UNL A   1      37.799  30.778  29.504  1.00  0.00     0.031 C 
ATOM     47  C   UNL A   1      37.103  33.793  33.477  1.00  0.00     0.029 A 
ATOM     48  N   UNL A   1      38.786  32.324  33.572  1.00  0.00    -0.354 N 
ATOM     49  C   UNL A   1      39.571  29.597  30.344  1.00  0.00     0.074 A 
ATOM     50  C   UNL A   1      38.597  29.741  29.284  1.00  0.00     0.031 C 
ATOM     51  C   UNL A   1      37.677  33.914  34.686  1.00  0.00     0.029 A 
ATOM     52  C   UNL A   1      38.779  32.962  34.791  1.00  0.00     0.049 A 
ATOM     53  H   UNL A   1      39.433  31.620  33.337  1.00  0.00     0.167 HD
ATOM     54  C   UNL A   1      40.575  28.686  30.336  1.00  0.00     0.034 A 
ATOM     55  C   UNL A   1      39.574  32.805  35.869  1.00  0.00     0.034 A 
ATOM     56  C   UNL A   1      41.579  28.576  31.359  1.00  0.00     0.049 A 
ATOM     57  C   UNL A   1      40.713  31.820  35.810  1.00  0.00     0.074 A 
ATOM     58  C   UNL A   1      42.694  27.756  31.384  1.00  0.00     0.029 A 
ATOM     59  N   UNL A   1      41.587  29.296  32.543  1.00  0.00    -0.354 N 
ATOM     60  N   UNL A   1      41.085  31.046  34.820  1.00  0.00    -0.248 NA
ATOM     61  C   UNL A   1      41.567  31.718  37.003  1.00  0.00     0.031 C 
ATOM     62  C   UNL A   1      43.366  27.967  32.593  1.00  0.00     0.029 A 
ATOM     63  C   UNL A   1      42.680  28.933  33.311  1.00  0.00     0.049 A 
ATOM     64  H   UNL A   1      40.914  29.968  32.800  1.00  0.00     0.167 HD
ATOM     65  C   UNL A   1      42.235  30.398  35.255  1.00  0.00     0.074 A 
ATOM     66  C   UNL A   1      42.512  30.886  36.589  1.00  0.00     0.031 C 
ATOM     67  C   UNL A   1      42.986  29.470  34.611  1.00  0.00     0.034 A 
BRANCH  54  68
ATOM     68  C   UNL A   1      40.679  27.767  29.146  1.00  0.00     0.023 A 
ATOM     69  C   UNL A   1      39.835  26.641  29.064  1.00  0.00     0.012 A 
ATOM     70  C   UNL A   1      41.553  28.055  28.079  1.00  0.00     0.148 A 
ATOM     71  C   UNL A   1      39.880  25.799  27.955  1.00  0.00     0.002 A 
ATOM     72  C   UNL A   1      41.562  27.234  26.957  1.00  0.00     0.091 A 
ATOM     73  F   UNL A   1      42.361  29.119  28.183  1.00  0.00    -0.205 F 
ATOM     74  C   UNL A   1      40.734  26.100  26.899  1.00  0.00     0.022 A 
BRANCH  72  75
ATOM     75  S   UNL A   1      42.572  27.579  25.512  1.00  0.00     0.127 S 
ATOM     76  O   UNL A   1      41.993  28.839  25.044  1.00  0.00    -0.237 OA
ATOM     77  O   UNL A   1      43.910  27.703  26.091  1.00  0.00    -0.237 OA
ATOM     78  O   UNL A   1      42.399  26.441  24.621  1.00  0.00    -0.744 OA
ENDBRANCH  72  75
ENDBRANCH  54  68
BRANCH  55  79
ATOM     79  C   UNL A   1      39.377  33.660  37.075  1.00  0.00     0.023 A 
ATOM     80  C   UNL A   1      39.856  34.985  37.066  1.00  0.00     0.012 A 
ATOM     81  C   UNL A   1      38.719  33.177  38.222  1.00  0.00     0.148 A 
ATOM     82  C   UNL A   1      39.717  35.801  38.189  1.00  0.00     0.002 A 
ATOM     83  C   UNL A   1      38.536  34.012  39.319  1.00  0.00     0.091 A 
ATOM     84  F   UNL A   1      38.286  31.908  38.219  1.00  0.00    -0.205 F 
ATOM     85  C   UNL A   1      39.049  35.318  39.311  1.00  0.00     0.022 A 
BRANCH  83  86
ATOM     86  S   UNL A   1      37.578  33.512  40.754  1.00  0.00     0.127 S 
ATOM     87  O   UNL A   1      38.439  32.490  41.346  1.00  0.00    -0.237 OA
ATOM     88  O   UNL A   1      37.492  34.761  41.513  1.00  0.00    -0.237 OA
ATOM     89  O   UNL A   1      36.304  33.045  40.224  1.00  0.00    -0.744 OA
ENDBRANCH  83  86
ENDBRANCH  55  79
BRANCH  67  90
ATOM     90  C   UNL A   1      44.206  28.938  35.318  1.00  0.00     0.023 A 
ATOM     91  C   UNL A   1      45.462  29.539  35.094  1.00  0.00     0.012 A 
ATOM     92  C   UNL A   1      44.099  27.896  36.259  1.00  0.00     0.148 A 
ATOM     93  C   UNL A   1      46.595  29.090  35.773  1.00  0.00     0.002 A 
ATOM     94  C   UNL A   1      45.223  27.486  36.968  1.00  0.00     0.091 A 
ATOM     95  F   UNL A   1      42.901  27.322  36.446  1.00  0.00    -0.205 F 
ATOM     96  C   UNL A   1      46.473  28.074  36.717  1.00  0.00     0.022 A 
BRANCH  94  97
ATOM     97  S   UNL A   1      45.138  26.251  38.270  1.00  0.00     0.127 S 
ATOM     98  O   UNL A   1      46.549  26.082  38.614  1.00  0.00    -0.237 OA
ATOM     99  O   UNL A   1      44.338  26.928  39.292  1.00  0.00    -0.237 OA
ATOM    100  O   UNL A   1      44.492  25.088  37.675  1.00  0.00    -0.744 OA
ENDBRANCH  94  97
ENDBRANCH  67  90
ENDBRANCH  41  42
ENDBRANCH  33  36
ENDBRANCH  31  32
ENDBRANCH  30  31
ENDBRANCH   1  30
TORSDOF 18
ENDMDL
MODEL 2
REMARK VINA RESULT:     -11.9      6.259     11.758
REMARK SMILES CC(C)[C@H]1CC[C@@H](C)/C(=C/c2ccc(NC(=O)CCC(=O)NCCCNC(=O)c3ccc(-c4c5nc(c(-c6cccc(S(=O)(=O)[O-])c6F)c6ccc([nH]6)c(-c6cccc(S(=O)(=O)[O-])c6F)c6nc(c(-c7cccc(S(=O)(=O)[O-])c7F)c7ccc4[nH]7)C=C6)C=C5)cc3)cc2)C1=O
REMARK SMILES IDX 23 1 22 2 20 3 21 4 19 6 18 7 16 8 15 9 17 11 14 12 11 13
REMARK SMILES IDX 12 14 93 15 13 16 92 17 10 18 4 19 5 20 94 21 6 22 9 23
REMARK SMILES IDX 95 24 7 25 8 26 2 27 1 28 3 29 24 30 25 31 26 32 27 33 28 35
REMARK SMILES IDX 29 36 30 37 91 38 31 39 90 40 32 41 33 42 34 43 84 44 35 45
REMARK SMILES IDX 89 46 83 47 85 48 36 49 88 50 82 51 81 52 37 54 69 55 49 56
REMARK SMILES IDX 68 57 50 58 53 59 67 60 86 61 51 62 52 63 66 65 87 66 54 67
REMARK SMILES IDX 38 68 39 69 47 70 40 71 42 72 48 73 41 74 43 75 44 76 45 77
REMARK SMILES IDX 46 78 70 79 71 80 79 81 72 82 74 83 80 84 73 85 75 86 76 87
REMARK SMILES IDX 77 88 78 89 55 90 56 91 64 92 57 93 59 94 65 95 58 96 60 97
REMARK SMILES IDX 61 98 62 99 63 100
REMARK H PARENT 22 5 15 10 26 34 85 53 53 64
REMARK Flexibility Score: inf
ROOT
ATOM      1  C   UNL A   1      36.970  20.681  24.656  1.00  0.00     0.117 C 
ENDROOT
BRANCH   1   2
ATOM      2  N   UNL A   1      37.405  22.015  25.040  1.00  0.00    -0.356 N 
ATOM      3  C   UNL A   1      36.679  23.137  25.306  1.00  0.00     0.220 C 
ATOM      4  O   UNL A   1      37.242  24.084  25.857  1.00  0.00    -0.275 OA
ATOM      5  H   UNL A   1      38.380  22.125  25.120  1.00  0.00     0.163 HD
BRANCH   3   6
ATOM      6  C   UNL A   1      35.215  23.223  24.932  1.00  0.00     0.110 C 
BRANCH   6   7
ATOM      7  C   UNL A   1      34.290  23.448  26.122  1.00  0.00     0.110 C 
BRANCH   7   8
ATOM      8  C   UNL A   1      33.318  22.311  26.348  1.00  0.00     0.224 C 
ATOM      9  N   UNL A   1      31.998  22.398  26.009  1.00  0.00    -0.326 N 
ATOM     10  H   UNL A   1      31.463  21.597  26.210  1.00  0.00     0.169 HD
ATOM     11  O   UNL A   1      33.750  21.221  26.739  1.00  0.00    -0.275 OA
BRANCH   9  12
ATOM     12  C   UNL A   1      31.290  23.453  25.421  1.00  0.00     0.041 A 
ATOM     13  C   UNL A   1      30.172  25.674  24.121  1.00  0.00    -0.025 A 
ATOM     14  C   UNL A   1      29.994  25.495  25.494  1.00  0.00     0.010 A 
ATOM     15  C   UNL A   1      30.885  24.712  23.398  1.00  0.00     0.010 A 
ATOM     16  C   UNL A   1      30.547  24.385  26.139  1.00  0.00     0.027 A 
ATOM     17  C   UNL A   1      31.380  23.575  24.034  1.00  0.00     0.027 A 
BRANCH  13  18
ATOM     18  C   UNL A   1      29.567  26.843  23.473  1.00  0.00     0.015 C 
ATOM     19  C   UNL A   1      31.170  29.482  25.329  1.00  0.00     0.063 C 
ATOM     20  C   UNL A   1      30.618  30.737  24.630  1.00  0.00     0.013 C 
ATOM     21  C   UNL A   1      31.330  28.392  24.272  1.00  0.00     0.162 C 
ATOM     22  C   UNL A   1      29.321  30.431  23.869  1.00  0.00     0.009 C 
ATOM     23  C   UNL A   1      30.076  28.087  23.508  1.00  0.00    -0.001 C 
ATOM     24  O   UNL A   1      32.367  27.786  24.035  1.00  0.00    -0.294 OA
ATOM     25  C   UNL A   1      29.474  29.295  22.841  1.00  0.00     0.020 C 
ATOM     26  C   UNL A   1      30.324  29.716  21.633  1.00  0.00     0.013 C 
BRANCH  19  27
ATOM     27  C   UNL A   1      32.429  29.772  26.181  1.00  0.00    -0.007 C 
ATOM     28  C   UNL A   1      32.361  31.161  26.827  1.00  0.00     0.008 C 
ATOM     29  C   UNL A   1      32.747  28.709  27.235  1.00  0.00     0.008 C 
ENDBRANCH  19  27
ENDBRANCH  13  18
ENDBRANCH   9  12
ENDBRANCH   7   8
ENDBRANCH   6   7
ENDBRANCH   3   6
ENDBRANCH   1   2
BRANCH   1  30
ATOM     30  C   UNL A   1      37.963  19.572  24.987  1.00  0.00     0.042 C 
BRANCH  30  31
ATOM     31  C   UNL A   1      39.035  19.930  26.010  1.00  0.00     0.118 C 
BRANCH  31  32
ATOM     32  N   UNL A   1      40.173  19.030  26.007  1.00  0.00    -0.352 N 
ATOM     33  C   UNL A   1      41.510  19.312  26.179  1.00  0.00     0.251 C 
ATOM     34  H   UNL A   1      39.958  18.081  25.860  1.00  0.00     0.163 HD
ATOM     35  O   UNL A   1      42.331  18.410  26.084  1.00  0.00    -0.269 OA
BRANCH  33  36
ATOM     36  C   UNL A   1      41.963  20.700  26.442  1.00  0.00     0.039 A 
ATOM     37  C   UNL A   1      42.172  21.542  25.347  1.00  0.00     0.014 A 
ATOM     38  C   UNL A   1      42.207  21.168  27.737  1.00  0.00     0.014 A 
ATOM     39  C   UNL A   1      42.584  22.863  25.550  1.00  0.00     0.010 A 
ATOM     40  C   UNL A   1      42.567  22.505  27.941  1.00  0.00     0.010 A 
ATOM     41  C   UNL A   1      42.768  23.364  26.849  1.00  0.00    -0.014 A 
BRANCH  41  42
ATOM     42  C   UNL A   1      43.178  24.781  27.059  1.00  0.00     0.031 A 
ATOM     43  C   UNL A   1      42.233  25.767  27.693  1.00  0.00     0.074 A 
ATOM     44  C   UNL A   1      44.393  25.197  26.647  1.00  0.00     0.049 A 
ATOM     45  N   UNL A   1      42.433  27.026  27.990  1.00  0.00    -0.248 NA
ATOM     46  C   UNL A   1      40.880  25.285  28.017  1.00  0.00     0.031 C 
ATOM     47  C   UNL A   1      45.380  24.368  25.950  1.00  0.00     0.029 A 
ATOM     48  N   UNL A   1      45.001  26.425  26.739  1.00  0.00    -0.354 N 
ATOM     49  C   UNL A   1      41.230  27.494  28.504  1.00  0.00     0.074 A 
ATOM     50  C   UNL A   1      40.294  26.392  28.454  1.00  0.00     0.031 C 
ATOM     51  C   UNL A   1      46.468  25.109  25.685  1.00  0.00     0.029 A 
ATOM     52  C   UNL A   1      46.257  26.467  26.179  1.00  0.00     0.049 A 
ATOM     53  H   UNL A   1      44.576  27.205  27.167  1.00  0.00     0.167 HD
ATOM     54  C   UNL A   1      40.936  28.720  29.004  1.00  0.00     0.034 A 
ATOM     55  C   UNL A   1      47.141  27.480  26.080  1.00  0.00     0.034 A 
ATOM     56  C   UNL A   1      41.878  29.801  29.107  1.00  0.00     0.049 A 
ATOM     57  C   UNL A   1      46.806  28.817  26.691  1.00  0.00     0.074 A 
ATOM     58  C   UNL A   1      41.702  31.041  29.696  1.00  0.00     0.029 A 
ATOM     59  N   UNL A   1      43.169  29.779  28.603  1.00  0.00    -0.354 N 
ATOM     60  N   UNL A   1      45.731  29.178  27.348  1.00  0.00    -0.248 NA
ATOM     61  C   UNL A   1      47.824  29.873  26.583  1.00  0.00     0.031 C 
ATOM     62  C   UNL A   1      42.880  31.777  29.530  1.00  0.00     0.029 A 
ATOM     63  C   UNL A   1      43.797  30.987  28.856  1.00  0.00     0.049 A 
ATOM     64  H   UNL A   1      43.579  29.017  28.134  1.00  0.00     0.167 HD
ATOM     65  C   UNL A   1      45.960  30.484  27.764  1.00  0.00     0.074 A 
ATOM     66  C   UNL A   1      47.284  30.844  27.305  1.00  0.00     0.031 C 
ATOM     67  C   UNL A   1      45.139  31.316  28.452  1.00  0.00     0.034 A 
BRANCH  54  68
ATOM     68  C   UNL A   1      39.546  28.944  29.540  1.00  0.00     0.023 A 
ATOM     69  C   UNL A   1      39.223  28.497  30.837  1.00  0.00     0.012 A 
ATOM     70  C   UNL A   1      38.586  29.658  28.796  1.00  0.00     0.148 A 
ATOM     71  C   UNL A   1      37.958  28.730  31.374  1.00  0.00     0.002 A 
ATOM     72  C   UNL A   1      37.341  29.922  29.354  1.00  0.00     0.091 A 
ATOM     73  F   UNL A   1      38.905  30.059  27.557  1.00  0.00    -0.205 F 
ATOM     74  C   UNL A   1      37.022  29.450  30.639  1.00  0.00     0.022 A 
BRANCH  72  75
ATOM     75  S   UNL A   1      36.093  30.907  28.517  1.00  0.00     0.127 S 
ATOM     76  O   UNL A   1      36.806  32.167  28.308  1.00  0.00    -0.237 OA
ATOM     77  O   UNL A   1      35.854  30.133  27.298  1.00  0.00    -0.237 OA
ATOM     78  O   UNL A   1      34.958  30.973  29.427  1.00  0.00    -0.744 OA
ENDBRANCH  72  75
ENDBRANCH  54  68
BRANCH  55  79
ATOM     79  C   UNL A   1      48.472  27.253  25.447  1.00  0.00     0.023 A 
ATOM     80  C   UNL A   1      49.549  26.816  26.244  1.00  0.00     0.012 A 
ATOM     81  C   UNL A   1      48.678  27.459  24.070  1.00  0.00     0.148 A 
ATOM     82  C   UNL A   1      50.814  26.624  25.690  1.00  0.00     0.002 A 
ATOM     83  C   UNL A   1      49.929  27.216  23.513  1.00  0.00     0.091 A 
ATOM     84  F   UNL A   1      47.647  27.893  23.331  1.00  0.00    -0.205 F 
ATOM     85  C   UNL A   1      51.002  26.814  24.323  1.00  0.00     0.022 A 
BRANCH  83  86
ATOM     86  S   UNL A   1      50.225  27.315  21.744  1.00  0.00     0.127 S 
ATOM     87  O   UNL A   1      51.629  26.922  21.654  1.00  0.00    -0.237 OA
ATOM     88  O   UNL A   1      49.275  26.332  21.220  1.00  0.00    -0.237 OA
ATOM     89  O   UNL A   1      49.922  28.692  21.378  1.00  0.00    -0.744 OA
ENDBRANCH  83  86
ENDBRANCH  55  79
BRANCH  67  90
ATOM     90  C   UNL A   1      45.653  32.691  28.790  1.00  0.00     0.023 A 
ATOM     91  C   UNL A   1      46.352  32.900  29.996  1.00  0.00     0.012 A 
ATOM     92  C   UNL A   1      45.512  33.759  27.881  1.00  0.00     0.148 A 
ATOM     93  C   UNL A   1      46.875  34.157  30.305  1.00  0.00     0.002 A 
ATOM     94  C   UNL A   1      46.077  34.995  28.173  1.00  0.00     0.091 A 
ATOM     95  F   UNL A   1      44.828  33.548  26.747  1.00  0.00    -0.205 F 
ATOM     96  C   UNL A   1      46.748  35.199  29.390  1.00  0.00     0.022 A 
BRANCH  94  97
ATOM     97  S   UNL A   1      46.046  36.364  27.010  1.00  0.00     0.127 S 
ATOM     98  O   UNL A   1      46.529  35.727  25.786  1.00  0.00    -0.237 OA
ATOM     99  O   UNL A   1      44.627  36.725  26.991  1.00  0.00    -0.237 OA
ATOM    100  O   UNL A   1      46.918  37.386  27.574  1.00  0.00    -0.744 OA
ENDBRANCH  94  97
ENDBRANCH  67  90
ENDBRANCH  41  42
ENDBRANCH  33  36
ENDBRANCH  31  32
ENDBRANCH  30  31
ENDBRANCH   1  30
TORSDOF 18
ENDMDL
MODEL 3
REMARK VINA RESULT:     -11.9      2.447      7.807
REMARK SMILES CC(C)[C@H]1CC[C@@H](C)/C(=C/c2ccc(NC(=O)CCC(=O)NCCCNC(=O)c3ccc(-c4c5nc(c(-c6cccc(S(=O)(=O)[O-])c6F)c6ccc([nH]6)c(-c6cccc(S(=O)(=O)[O-])c6F)c6nc(c(-c7cccc(S(=O)(=O)[O-])c7F)c7ccc4[nH]7)C=C6)C=C5)cc3)cc2)C1=O
REMARK SMILES IDX 23 1 22 2 20 3 21 4 19 6 18 7 16 8 15 9 17 11 14 12 11 13
REMARK SMILES IDX 12 14 93 15 13 16 92 17 10 18 4 19 5 20 94 21 6 22 9 23
REMARK SMILES IDX 95 24 7 25 8 26 2 27 1 28 3 29 24 30 25 31 26 32 27 33 28 35
REMARK SMILES IDX 29 36 30 37 91 38 31 39 90 40 32 41 33 42 34 43 84 44 35 45
REMARK SMILES IDX 89 46 83 47 85 48 36 49 88 50 82 51 81 52 37 54 69 55 49 56
REMARK SMILES IDX 68 57 50 58 53 59 67 60 86 61 51 62 52 63 66 65 87 66 54 67
REMARK SMILES IDX 38 68 39 69 47 70 40 71 42 72 48 73 41 74 43 75 44 76 45 77
REMARK SMILES IDX 46 78 70 79 71 80 79 81 72 82 74 83 80 84 73 85 75 86 76 87
REMARK SMILES IDX 77 88 78 89 55 90 56 91 64 92 57 93 59 94 65 95 58 96 60 97
REMARK SMILES IDX 61 98 62 99 63 100
REMARK H PARENT 22 5 15 10 26 34 85 53 53 64
REMARK Flexibility Score: inf
ROOT
ATOM      1  C   UNL A   1      33.153  28.149  22.720  1.00  0.00     0.117 C 
ENDROOT
BRANCH   1   2
ATOM      2  N   UNL A   1      31.933  28.738  22.191  1.00  0.00    -0.356 N 
ATOM      3  C   UNL A   1      30.637  28.330  22.300  1.00  0.00     0.220 C 
ATOM      4  O   UNL A   1      29.745  29.120  21.986  1.00  0.00    -0.275 OA
ATOM      5  H   UNL A   1      32.065  29.563  21.670  1.00  0.00     0.163 HD
BRANCH   3   6
ATOM      6  C   UNL A   1      30.298  26.941  22.792  1.00  0.00     0.110 C 
BRANCH   6   7
ATOM      7  C   UNL A   1      29.733  26.912  24.207  1.00  0.00     0.110 C 
BRANCH   7   8
ATOM      8  C   UNL A   1      30.788  27.093  25.277  1.00  0.00     0.224 C 
ATOM      9  N   UNL A   1      31.560  26.060  25.726  1.00  0.00    -0.326 N 
ATOM     10  H   UNL A   1      32.207  26.298  26.428  1.00  0.00     0.169 HD
ATOM     11  O   UNL A   1      31.050  28.233  25.675  1.00  0.00    -0.275 OA
BRANCH   9  12
ATOM     12  C   UNL A   1      31.570  24.714  25.342  1.00  0.00     0.041 A 
ATOM     13  C   UNL A   1      31.708  21.948  24.887  1.00  0.00    -0.025 A 
ATOM     14  C   UNL A   1      32.399  22.836  24.060  1.00  0.00     0.010 A 
ATOM     15  C   UNL A   1      30.918  22.460  25.922  1.00  0.00     0.010 A 
ATOM     16  C   UNL A   1      32.325  24.213  24.285  1.00  0.00     0.027 A 
ATOM     17  C   UNL A   1      30.797  23.837  26.102  1.00  0.00     0.027 A 
BRANCH  13  18
ATOM     18  C   UNL A   1      31.797  20.509  24.616  1.00  0.00     0.015 C 
ATOM     19  C   UNL A   1      35.368  20.065  24.776  1.00  0.00     0.063 C 
ATOM     20  C   UNL A   1      35.505  18.547  24.569  1.00  0.00     0.013 C 
ATOM     21  C   UNL A   1      34.081  20.315  25.558  1.00  0.00     0.162 C 
ATOM     22  C   UNL A   1      34.259  17.957  23.895  1.00  0.00     0.009 C 
ATOM     23  C   UNL A   1      32.852  19.735  24.923  1.00  0.00    -0.001 C 
ATOM     24  O   UNL A   1      34.005  20.933  26.613  1.00  0.00    -0.294 OA
ATOM     25  C   UNL A   1      32.956  18.257  24.660  1.00  0.00     0.020 C 
ATOM     26  C   UNL A   1      32.864  17.473  25.978  1.00  0.00     0.013 C 
BRANCH  19  27
ATOM     27  C   UNL A   1      36.643  20.709  25.371  1.00  0.00    -0.007 C 
ATOM     28  C   UNL A   1      37.908  19.969  24.919  1.00  0.00     0.008 C 
ATOM     29  C   UNL A   1      36.783  22.210  25.112  1.00  0.00     0.008 C 
ENDBRANCH  19  27
ENDBRANCH  13  18
ENDBRANCH   9  12
ENDBRANCH   7   8
ENDBRANCH   6   7
ENDBRANCH   3   6
ENDBRANCH   1   2
BRANCH   1  30
ATOM     30  C   UNL A   1      34.034  29.115  23.505  1.00  0.00     0.042 C 
BRANCH  30  31
ATOM     31  C   UNL A   1      33.921  29.027  25.023  1.00  0.00     0.118 C 
BRANCH  31  32
ATOM     32  N   UNL A   1      33.151  30.103  25.618  1.00  0.00    -0.352 N 
ATOM     33  C   UNL A   1      33.408  30.835  26.755  1.00  0.00     0.251 C 
ATOM     34  H   UNL A   1      32.326  30.345  25.139  1.00  0.00     0.163 HD
ATOM     35  O   UNL A   1      32.597  31.673  27.127  1.00  0.00    -0.269 OA
BRANCH  33  36
ATOM     36  C   UNL A   1      34.637  30.593  27.549  1.00  0.00     0.039 A 
ATOM     37  C   UNL A   1      34.754  29.375  28.225  1.00  0.00     0.014 A 
ATOM     38  C   UNL A   1      35.652  31.549  27.658  1.00  0.00     0.014 A 
ATOM     39  C   UNL A   1      35.902  29.097  28.973  1.00  0.00     0.010 A 
ATOM     40  C   UNL A   1      36.823  31.248  28.362  1.00  0.00     0.010 A 
ATOM     41  C   UNL A   1      36.957  30.023  29.035  1.00  0.00    -0.014 A 
BRANCH  41  42
ATOM     42  C   UNL A   1      38.191  29.709  29.809  1.00  0.00     0.031 A 
ATOM     43  C   UNL A   1      38.403  30.288  31.183  1.00  0.00     0.074 A 
ATOM     44  C   UNL A   1      39.146  28.929  29.262  1.00  0.00     0.049 A 
ATOM     45  N   UNL A   1      39.394  30.091  32.015  1.00  0.00    -0.248 NA
ATOM     46  C   UNL A   1      37.382  31.224  31.681  1.00  0.00     0.031 C 
ATOM     47  C   UNL A   1      39.106  28.364  27.911  1.00  0.00     0.029 A 
ATOM     48  N   UNL A   1      40.344  28.489  29.769  1.00  0.00    -0.354 N 
ATOM     49  C   UNL A   1      39.135  30.898  33.116  1.00  0.00     0.074 A 
ATOM     50  C   UNL A   1      37.906  31.609  32.836  1.00  0.00     0.031 C 
ATOM     51  C   UNL A   1      40.224  27.648  27.701  1.00  0.00     0.029 A 
ATOM     52  C   UNL A   1      41.066  27.711  28.892  1.00  0.00     0.049 A 
ATOM     53  H   UNL A   1      40.658  28.709  30.676  1.00  0.00     0.167 HD
ATOM     54  C   UNL A   1      39.835  31.015  34.271  1.00  0.00     0.034 A 
ATOM     55  C   UNL A   1      42.265  27.112  29.032  1.00  0.00     0.034 A 
ATOM     56  C   UNL A   1      41.026  30.270  34.576  1.00  0.00     0.049 A 
ATOM     57  C   UNL A   1      42.996  27.219  30.346  1.00  0.00     0.074 A 
ATOM     58  C   UNL A   1      41.743  30.242  35.760  1.00  0.00     0.029 A 
ATOM     59  N   UNL A   1      41.683  29.428  33.693  1.00  0.00    -0.354 N 
ATOM     60  N   UNL A   1      42.633  27.832  31.446  1.00  0.00    -0.248 NA
ATOM     61  C   UNL A   1      44.283  26.514  30.451  1.00  0.00     0.031 C 
ATOM     62  C   UNL A   1      42.845  29.399  35.586  1.00  0.00     0.029 A 
ATOM     63  C   UNL A   1      42.803  28.886  34.300  1.00  0.00     0.049 A 
ATOM     64  H   UNL A   1      41.396  29.243  32.770  1.00  0.00     0.167 HD
ATOM     65  C   UNL A   1      43.622  27.555  32.381  1.00  0.00     0.074 A 
ATOM     66  C   UNL A   1      44.590  26.700  31.727  1.00  0.00     0.031 C 
ATOM     67  C   UNL A   1      43.728  27.984  33.664  1.00  0.00     0.034 A 
BRANCH  54  68
ATOM     68  C   UNL A   1      39.297  31.945  35.327  1.00  0.00     0.023 A 
ATOM     69  C   UNL A   1      38.316  31.481  36.226  1.00  0.00     0.012 A 
ATOM     70  C   UNL A   1      39.811  33.248  35.478  1.00  0.00     0.148 A 
ATOM     71  C   UNL A   1      37.833  32.306  37.239  1.00  0.00     0.002 A 
ATOM     72  C   UNL A   1      39.354  34.052  36.517  1.00  0.00     0.091 A 
ATOM     73  F   UNL A   1      40.730  33.680  34.603  1.00  0.00    -0.205 F 
ATOM     74  C   UNL A   1      38.358  33.586  37.391  1.00  0.00     0.022 A 
BRANCH  72  75
ATOM     75  S   UNL A   1      40.022  35.687  36.843  1.00  0.00     0.127 S 
ATOM     76  O   UNL A   1      39.326  36.047  38.078  1.00  0.00    -0.237 OA
ATOM     77  O   UNL A   1      41.450  35.411  37.008  1.00  0.00    -0.237 OA
ATOM     78  O   UNL A   1      39.691  36.495  35.679  1.00  0.00    -0.744 OA
ENDBRANCH  72  75
ENDBRANCH  54  68
BRANCH  55  79
ATOM     79  C   UNL A   1      42.821  26.282  27.925  1.00  0.00     0.023 A 
ATOM     80  C   UNL A   1      43.857  26.804  27.125  1.00  0.00     0.012 A 
ATOM     81  C   UNL A   1      42.340  24.985  27.662  1.00  0.00     0.148 A 
ATOM     82  C   UNL A   1      44.379  26.067  26.062  1.00  0.00     0.002 A 
ATOM     83  C   UNL A   1      42.899  24.235  26.633  1.00  0.00     0.091 A 
ATOM     84  F   UNL A   1      41.341  24.512  28.421  1.00  0.00    -0.205 F 
ATOM     85  C   UNL A   1      43.907  24.779  25.822  1.00  0.00     0.022 A 
BRANCH  83  86
ATOM     86  S   UNL A   1      42.438  22.524  26.337  1.00  0.00     0.127 S 
ATOM     87  O   UNL A   1      40.980  22.595  26.382  1.00  0.00    -0.237 OA
ATOM     88  O   UNL A   1      43.004  22.281  25.009  1.00  0.00    -0.237 OA
ATOM     89  O   UNL A   1      43.074  21.762  27.404  1.00  0.00    -0.744 OA
ENDBRANCH  83  86
ENDBRANCH  55  79
BRANCH  67  90
ATOM     90  C   UNL A   1      44.910  27.511  34.469  1.00  0.00     0.023 A 
ATOM     91  C   UNL A   1      46.122  28.228  34.420  1.00  0.00     0.012 A 
ATOM     92  C   UNL A   1      44.799  26.403  35.333  1.00  0.00     0.148 A 
ATOM     93  C   UNL A   1      47.214  27.832  35.193  1.00  0.00     0.002 A 
ATOM     94  C   UNL A   1      45.875  26.043  36.137  1.00  0.00     0.091 A 
ATOM     95  F   UNL A   1      43.645  25.720  35.354  1.00  0.00    -0.205 F 
ATOM     96  C   UNL A   1      47.086  26.750  36.060  1.00  0.00     0.022 A 
BRANCH  94  97
ATOM     97  S   UNL A   1      45.766  24.723  37.351  1.00  0.00     0.127 S 
ATOM     98  O   UNL A   1      47.150  24.626  37.812  1.00  0.00    -0.237 OA
ATOM     99  O   UNL A   1      44.833  25.277  38.334  1.00  0.00    -0.237 OA
ATOM    100  O   UNL A   1      45.260  23.562  36.631  1.00  0.00    -0.744 OA
ENDBRANCH  94  97
ENDBRANCH  67  90
ENDBRANCH  41  42
ENDBRANCH  33  36
ENDBRANCH  31  32
ENDBRANCH  30  31
ENDBRANCH   1  30
TORSDOF 18
ENDMDL
