MODEL 1
REMARK VINA RESULT:     -13.5      0.000      0.000
REMARK SMILES O=C(COc1ccccc1/C=C1/SC(=O)N(c2ccc(F)cc2)C1=O)NCCCNC(=O)c1ccc(-c2c3nc(c(-c4cccc(S(=O)(=O)[O-])c4F)c4ccc([nH]4)c(-c4cccc(S(=O)(=O)[O-])c4F)c4nc(c(-c5cccc(S(=O)(=O)[O-])c5F)c5ccc2[nH]5)C=C4)C=C3)cc1
REMARK SMILES IDX 27 1 26 2 1 3 2 4 3 6 4 7 5 8 6 9 10 10 7 11 9 12 8 13 11 14
REMARK SMILES IDX 12 15 13 16 24 17 14 18 16 19 25 20 15 21 17 22 18 23 23 24
REMARK SMILES IDX 19 25 22 26 20 27 21 28 28 29 29 30 30 31 31 32 32 34 33 35
REMARK SMILES IDX 34 36 95 37 35 38 94 39 36 40 37 41 38 42 88 43 39 44 93 45
REMARK SMILES IDX 87 46 89 47 40 48 92 49 86 50 85 51 41 53 73 54 53 55 72 56
REMARK SMILES IDX 54 57 57 58 71 59 90 60 55 61 56 62 70 64 91 65 58 66 42 67
REMARK SMILES IDX 43 68 51 69 44 70 46 71 52 72 45 73 47 74 48 75 49 76 50 77
REMARK SMILES IDX 74 78 75 79 83 80 76 81 78 82 84 83 77 84 79 85 80 86 81 87
REMARK SMILES IDX 82 88 59 89 60 90 68 91 61 92 63 93 69 94 62 95 64 96 65 97
REMARK SMILES IDX 66 98 67 99
REMARK H PARENT 26 5 30 33 89 52 57 63
REMARK Flexibility Score: inf
ROOT
ATOM      1  C   UNL A   1      32.628  29.179  23.865  1.00  0.00     0.117 C 
ENDROOT
BRANCH   1   2
ATOM      2  N   UNL A   1      32.401  27.764  23.528  1.00  0.00    -0.353 N 
ATOM      3  O   UNL A   1      30.565  28.161  22.200  1.00  0.00    -0.271 OA
ATOM      4  C   UNL A   1      31.467  27.398  22.550  1.00  0.00     0.257 C 
ATOM      5  H   UNL A   1      32.913  27.065  23.995  1.00  0.00     0.163 HD
BRANCH   4   6
ATOM      6  C   UNL A   1      31.662  26.007  21.841  1.00  0.00     0.329 C 
BRANCH   6   7
ATOM      7  O   UNL A   1      31.276  24.755  22.432  1.00  0.00    -0.483 OA
BRANCH   7   8
ATOM      8  C   UNL A   1      31.297  24.676  23.809  1.00  0.00     0.127 A 
ATOM      9  C   UNL A   1      30.400  25.451  24.544  1.00  0.00     0.047 A 
ATOM     10  C   UNL A   1      32.349  24.033  24.494  1.00  0.00     0.018 A 
ATOM     11  C   UNL A   1      30.461  25.452  25.945  1.00  0.00     0.004 A 
ATOM     12  C   UNL A   1      32.348  23.950  25.887  1.00  0.00     0.012 A 
ATOM     13  C   UNL A   1      31.397  24.660  26.614  1.00  0.00     0.001 A 
BRANCH  10  14
ATOM     14  C   UNL A   1      33.468  23.479  23.725  1.00  0.00     0.033 C 
ATOM     15  C   UNL A   1      33.927  22.263  24.062  1.00  0.00     0.084 C 
ATOM     16  S   UNL A   1      35.505  22.052  24.692  1.00  0.00    -0.022 SA
ATOM     17  C   UNL A   1      33.180  20.987  24.222  1.00  0.00     0.272 C 
ATOM     18  C   UNL A   1      35.358  20.352  24.866  1.00  0.00     0.298 C 
ATOM     19  N   UNL A   1      34.062  19.976  24.609  1.00  0.00    -0.236 N 
ATOM     20  O   UNL A   1      31.982  20.900  23.988  1.00  0.00    -0.268 OA
ATOM     21  O   UNL A   1      36.349  19.688  25.136  1.00  0.00    -0.260 OA
BRANCH  19  22
ATOM     22  C   UNL A   1      33.702  18.607  24.666  1.00  0.00     0.053 A 
ATOM     23  C   UNL A   1      34.203  17.691  23.734  1.00  0.00     0.030 A 
ATOM     24  C   UNL A   1      32.881  18.135  25.706  1.00  0.00     0.030 A 
ATOM     25  C   UNL A   1      33.901  16.335  23.852  1.00  0.00     0.041 A 
ATOM     26  C   UNL A   1      32.574  16.784  25.820  1.00  0.00     0.041 A 
ATOM     27  C   UNL A   1      33.088  15.895  24.890  1.00  0.00     0.123 A 
ATOM     28  F   UNL A   1      32.796  14.594  24.993  1.00  0.00    -0.207 F 
ENDBRANCH  19  22
ENDBRANCH  10  14
ENDBRANCH   7   8
ENDBRANCH   6   7
ENDBRANCH   4   6
ENDBRANCH   1   2
BRANCH   1  29
ATOM     29  C   UNL A   1      31.912  29.795  25.087  1.00  0.00     0.042 C 
BRANCH  29  30
ATOM     30  C   UNL A   1      32.640  30.089  26.417  1.00  0.00     0.118 C 
BRANCH  30  31
ATOM     31  N   UNL A   1      32.600  31.470  26.897  1.00  0.00    -0.352 N 
ATOM     32  C   UNL A   1      33.571  32.204  27.555  1.00  0.00     0.251 C 
ATOM     33  H   UNL A   1      31.756  31.947  26.726  1.00  0.00     0.163 HD
ATOM     34  O   UNL A   1      33.360  33.396  27.776  1.00  0.00    -0.269 OA
BRANCH  32  35
ATOM     35  C   UNL A   1      34.832  31.580  28.043  1.00  0.00     0.039 A 
ATOM     36  C   UNL A   1      35.985  32.373  28.123  1.00  0.00     0.014 A 
ATOM     37  C   UNL A   1      34.910  30.233  28.402  1.00  0.00     0.014 A 
ATOM     38  C   UNL A   1      37.175  31.846  28.649  1.00  0.00     0.010 A 
ATOM     39  C   UNL A   1      36.086  29.720  28.969  1.00  0.00     0.010 A 
ATOM     40  C   UNL A   1      37.229  30.524  29.121  1.00  0.00    -0.014 A 
BRANCH  40  41
ATOM     41  C   UNL A   1      38.438  30.013  29.837  1.00  0.00     0.031 A 
ATOM     42  C   UNL A   1      38.816  30.506  31.211  1.00  0.00     0.074 A 
ATOM     43  C   UNL A   1      39.255  29.137  29.212  1.00  0.00     0.049 A 
ATOM     44  N   UNL A   1      39.825  30.147  31.969  1.00  0.00    -0.248 NA
ATOM     45  C   UNL A   1      37.967  31.549  31.805  1.00  0.00     0.031 C 
ATOM     46  C   UNL A   1      39.068  28.637  27.848  1.00  0.00     0.029 A 
ATOM     47  N   UNL A   1      40.416  28.528  29.628  1.00  0.00    -0.354 N 
ATOM     48  C   UNL A   1      39.747  30.932  33.116  1.00  0.00     0.074 A 
ATOM     49  C   UNL A   1      38.607  31.810  32.937  1.00  0.00     0.031 C 
ATOM     50  C   UNL A   1      40.069  27.796  27.544  1.00  0.00     0.029 A 
ATOM     51  C   UNL A   1      40.985  27.711  28.677  1.00  0.00     0.049 A 
ATOM     52  H   UNL A   1      40.804  28.665  30.522  1.00  0.00     0.167 HD
ATOM     53  C   UNL A   1      40.531  30.913  34.223  1.00  0.00     0.034 A 
ATOM     54  C   UNL A   1      42.115  26.973  28.706  1.00  0.00     0.034 A 
ATOM     55  C   UNL A   1      41.657  30.033  34.410  1.00  0.00     0.049 A 
ATOM     56  C   UNL A   1      42.943  26.938  29.962  1.00  0.00     0.074 A 
ATOM     57  C   UNL A   1      42.463  29.891  35.528  1.00  0.00     0.029 A 
ATOM     58  N   UNL A   1      42.153  29.160  33.455  1.00  0.00    -0.354 N 
ATOM     59  N   UNL A   1      42.755  27.568  31.094  1.00  0.00    -0.248 NA
ATOM     60  C   UNL A   1      44.116  26.050  29.958  1.00  0.00     0.031 C 
ATOM     61  C   UNL A   1      43.464  28.958  35.236  1.00  0.00     0.029 A 
ATOM     62  C   UNL A   1      43.254  28.481  33.953  1.00  0.00     0.049 A 
ATOM     63  H   UNL A   1      41.777  29.038  32.553  1.00  0.00     0.167 HD
ATOM     64  C   UNL A   1      43.752  27.117  31.953  1.00  0.00     0.074 A 
ATOM     65  C   UNL A   1      44.531  26.146  31.213  1.00  0.00     0.031 C 
ATOM     66  C   UNL A   1      44.000  27.479  33.236  1.00  0.00     0.034 A 
BRANCH  53  67
ATOM     67  C   UNL A   1      40.176  31.853  35.352  1.00  0.00     0.023 A 
ATOM     68  C   UNL A   1      40.841  33.092  35.462  1.00  0.00     0.012 A 
ATOM     69  C   UNL A   1      39.142  31.545  36.260  1.00  0.00     0.148 A 
ATOM     70  C   UNL A   1      40.514  33.989  36.479  1.00  0.00     0.002 A 
ATOM     71  C   UNL A   1      38.789  32.464  37.241  1.00  0.00     0.091 A 
ATOM     72  F   UNL A   1      38.527  30.359  36.149  1.00  0.00    -0.205 F 
ATOM     73  C   UNL A   1      39.483  33.679  37.362  1.00  0.00     0.022 A 
BRANCH  71  74
ATOM     74  S   UNL A   1      37.420  32.200  38.375  1.00  0.00     0.127 S 
ATOM     75  O   UNL A   1      37.940  32.790  39.607  1.00  0.00    -0.237 OA
ATOM     76  O   UNL A   1      36.344  32.961  37.741  1.00  0.00    -0.237 OA
ATOM     77  O   UNL A   1      37.204  30.760  38.418  1.00  0.00    -0.744 OA
ENDBRANCH  71  74
ENDBRANCH  53  67
BRANCH  54  78
ATOM     78  C   UNL A   1      42.496  26.145  27.524  1.00  0.00     0.023 A 
ATOM     79  C   UNL A   1      43.272  26.716  26.496  1.00  0.00     0.012 A 
ATOM     80  C   UNL A   1      42.102  24.798  27.419  1.00  0.00     0.148 A 
ATOM     81  C   UNL A   1      43.612  25.972  25.364  1.00  0.00     0.002 A 
ATOM     82  C   UNL A   1      42.494  24.046  26.318  1.00  0.00     0.091 A 
ATOM     83  F   UNL A   1      41.357  24.276  28.404  1.00  0.00    -0.205 F 
ATOM     84  C   UNL A   1      43.232  24.637  25.280  1.00  0.00     0.022 A 
BRANCH  82  85
ATOM     85  S   UNL A   1      42.165  22.286  26.185  1.00  0.00     0.127 S 
ATOM     86  O   UNL A   1      40.708  22.260  26.090  1.00  0.00    -0.237 OA
ATOM     87  O   UNL A   1      42.869  21.940  24.951  1.00  0.00    -0.237 OA
ATOM     88  O   UNL A   1      42.729  21.686  27.387  1.00  0.00    -0.744 OA
ENDBRANCH  82  85
ENDBRANCH  54  78
BRANCH  66  89
ATOM     89  C   UNL A   1      45.126  26.777  33.956  1.00  0.00     0.023 A 
ATOM     90  C   UNL A   1      46.455  27.221  33.814  1.00  0.00     0.012 A 
ATOM     91  C   UNL A   1      44.853  25.685  34.806  1.00  0.00     0.148 A 
ATOM     92  C   UNL A   1      47.499  26.561  34.463  1.00  0.00     0.002 A 
ATOM     93  C   UNL A   1      45.892  25.067  35.493  1.00  0.00     0.091 A 
ATOM     94  F   UNL A   1      43.588  25.259  34.916  1.00  0.00    -0.205 F 
ATOM     95  C   UNL A   1      47.218  25.491  35.309  1.00  0.00     0.022 A 
BRANCH  93  96
ATOM     96  S   UNL A   1      45.606  23.750  36.680  1.00  0.00     0.127 S 
ATOM     97  O   UNL A   1      46.951  23.528  37.209  1.00  0.00    -0.237 OA
ATOM     98  O   UNL A   1      44.677  24.376  37.623  1.00  0.00    -0.237 OA
ATOM     99  O   UNL A   1      45.039  22.644  35.921  1.00  0.00    -0.744 OA
ENDBRANCH  93  96
ENDBRANCH  66  89
ENDBRANCH  40  41
ENDBRANCH  32  35
ENDBRANCH  30  31
ENDBRANCH  29  30
ENDBRANCH   1  29
TORSDOF 17
ENDMDL
MODEL 2
REMARK VINA RESULT:     -13.0      1.313      7.437
REMARK SMILES O=C(COc1ccccc1/C=C1/SC(=O)N(c2ccc(F)cc2)C1=O)NCCCNC(=O)c1ccc(-c2c3nc(c(-c4cccc(S(=O)(=O)[O-])c4F)c4ccc([nH]4)c(-c4cccc(S(=O)(=O)[O-])c4F)c4nc(c(-c5cccc(S(=O)(=O)[O-])c5F)c5ccc2[nH]5)C=C4)C=C3)cc1
REMARK SMILES IDX 27 1 26 2 1 3 2 4 3 6 4 7 5 8 6 9 10 10 7 11 9 12 8 13 11 14
REMARK SMILES IDX 12 15 13 16 24 17 14 18 16 19 25 20 15 21 17 22 18 23 23 24
REMARK SMILES IDX 19 25 22 26 20 27 21 28 28 29 29 30 30 31 31 32 32 34 33 35
REMARK SMILES IDX 34 36 95 37 35 38 94 39 36 40 37 41 38 42 88 43 39 44 93 45
REMARK SMILES IDX 87 46 89 47 40 48 92 49 86 50 85 51 41 53 73 54 53 55 72 56
REMARK SMILES IDX 54 57 57 58 71 59 90 60 55 61 56 62 70 64 91 65 58 66 42 67
REMARK SMILES IDX 43 68 51 69 44 70 46 71 52 72 45 73 47 74 48 75 49 76 50 77
REMARK SMILES IDX 74 78 75 79 83 80 76 81 78 82 84 83 77 84 79 85 80 86 81 87
REMARK SMILES IDX 82 88 59 89 60 90 68 91 61 92 63 93 69 94 62 95 64 96 65 97
REMARK SMILES IDX 66 98 67 99
REMARK H PARENT 26 5 30 33 89 52 57 63
REMARK Flexibility Score: inf
ROOT
ATOM      1  C   UNL A   1      32.269  29.373  23.878  1.00  0.00     0.117 C 
ENDROOT
BRANCH   1   2
ATOM      2  N   UNL A   1      32.150  27.935  23.588  1.00  0.00    -0.353 N 
ATOM      3  O   UNL A   1      30.454  28.173  22.052  1.00  0.00    -0.271 OA
ATOM      4  C   UNL A   1      31.348  27.477  22.535  1.00  0.00     0.257 C 
ATOM      5  H   UNL A   1      32.641  27.286  24.141  1.00  0.00     0.163 HD
BRANCH   4   6
ATOM      6  C   UNL A   1      31.688  26.069  21.920  1.00  0.00     0.329 C 
BRANCH   6   7
ATOM      7  O   UNL A   1      31.174  24.831  22.440  1.00  0.00    -0.483 OA
BRANCH   7   8
ATOM      8  C   UNL A   1      31.166  24.680  23.811  1.00  0.00     0.127 A 
ATOM      9  C   UNL A   1      30.261  25.424  24.568  1.00  0.00     0.047 A 
ATOM     10  C   UNL A   1      32.199  23.993  24.482  1.00  0.00     0.018 A 
ATOM     11  C   UNL A   1      30.293  25.350  25.968  1.00  0.00     0.004 A 
ATOM     12  C   UNL A   1      32.169  23.837  25.869  1.00  0.00     0.012 A 
ATOM     13  C   UNL A   1      31.209  24.516  26.613  1.00  0.00     0.001 A 
BRANCH  10  14
ATOM     14  C   UNL A   1      33.329  23.470  23.707  1.00  0.00     0.033 C 
ATOM     15  C   UNL A   1      33.826  22.269  24.044  1.00  0.00     0.084 C 
ATOM     16  S   UNL A   1      35.412  22.104  24.665  1.00  0.00    -0.022 SA
ATOM     17  C   UNL A   1      33.116  20.972  24.211  1.00  0.00     0.272 C 
ATOM     18  C   UNL A   1      35.316  20.401  24.843  1.00  0.00     0.298 C 
ATOM     19  N   UNL A   1      34.030  19.987  24.595  1.00  0.00    -0.236 N 
ATOM     20  O   UNL A   1      31.920  20.849  23.984  1.00  0.00    -0.268 OA
ATOM     21  O   UNL A   1      36.327  19.767  25.108  1.00  0.00    -0.260 OA
BRANCH  19  22
ATOM     22  C   UNL A   1      33.710  18.609  24.656  1.00  0.00     0.053 A 
ATOM     23  C   UNL A   1      34.284  17.695  23.764  1.00  0.00     0.030 A 
ATOM     24  C   UNL A   1      32.854  18.126  25.663  1.00  0.00     0.030 A 
ATOM     25  C   UNL A   1      34.019  16.333  23.889  1.00  0.00     0.041 A 
ATOM     26  C   UNL A   1      32.584  16.768  25.783  1.00  0.00     0.041 A 
ATOM     27  C   UNL A   1      33.170  15.882  24.894  1.00  0.00     0.123 A 
ATOM     28  F   UNL A   1      32.914  14.574  25.003  1.00  0.00    -0.207 F 
ENDBRANCH  19  22
ENDBRANCH  10  14
ENDBRANCH   7   8
ENDBRANCH   6   7
ENDBRANCH   4   6
ENDBRANCH   1   2
BRANCH   1  29
ATOM     29  C   UNL A   1      31.380  30.006  24.971  1.00  0.00     0.042 C 
BRANCH  29  30
ATOM     30  C   UNL A   1      31.911  30.351  26.380  1.00  0.00     0.118 C 
BRANCH  30  31
ATOM     31  N   UNL A   1      31.847  31.756  26.780  1.00  0.00    -0.352 N 
ATOM     32  C   UNL A   1      32.807  32.545  27.388  1.00  0.00     0.251 C 
ATOM     33  H   UNL A   1      30.992  32.207  26.587  1.00  0.00     0.163 HD
ATOM     34  O   UNL A   1      32.574  33.744  27.542  1.00  0.00    -0.269 OA
BRANCH  32  35
ATOM     35  C   UNL A   1      34.082  31.974  27.902  1.00  0.00     0.039 A 
ATOM     36  C   UNL A   1      35.175  32.834  28.087  1.00  0.00     0.014 A 
ATOM     37  C   UNL A   1      34.234  30.616  28.186  1.00  0.00     0.014 A 
ATOM     38  C   UNL A   1      36.371  32.353  28.642  1.00  0.00     0.010 A 
ATOM     39  C   UNL A   1      35.413  30.146  28.782  1.00  0.00     0.010 A 
ATOM     40  C   UNL A   1      36.491  31.010  29.039  1.00  0.00    -0.014 A 
BRANCH  40  41
ATOM     41  C   UNL A   1      37.697  30.535  29.785  1.00  0.00     0.031 A 
ATOM     42  C   UNL A   1      38.660  29.540  29.188  1.00  0.00     0.074 A 
ATOM     43  C   UNL A   1      37.895  30.952  31.054  1.00  0.00     0.049 A 
ATOM     44  N   UNL A   1      39.760  29.044  29.702  1.00  0.00    -0.248 NA
ATOM     45  C   UNL A   1      38.340  29.019  27.851  1.00  0.00     0.031 C 
ATOM     46  C   UNL A   1      37.002  31.844  31.797  1.00  0.00     0.029 A 
ATOM     47  N   UNL A   1      38.896  30.667  31.953  1.00  0.00    -0.354 N 
ATOM     48  C   UNL A   1      40.251  28.138  28.766  1.00  0.00     0.074 A 
ATOM     49  C   UNL A   1      39.309  28.131  27.666  1.00  0.00     0.031 C 
ATOM     50  C   UNL A   1      37.496  32.040  33.029  1.00  0.00     0.029 A 
ATOM     51  C   UNL A   1      38.728  31.271  33.180  1.00  0.00     0.049 A 
ATOM     52  H   UNL A   1      39.661  30.086  31.741  1.00  0.00     0.167 HD
ATOM     53  C   UNL A   1      41.388  27.398  28.805  1.00  0.00     0.034 A 
ATOM     54  C   UNL A   1      39.475  31.217  34.302  1.00  0.00     0.034 A 
ATOM     55  C   UNL A   1      42.334  27.411  29.892  1.00  0.00     0.049 A 
ATOM     56  C   UNL A   1      40.753  30.422  34.303  1.00  0.00     0.074 A 
ATOM     57  C   UNL A   1      43.550  26.752  29.984  1.00  0.00     0.029 A 
ATOM     58  N   UNL A   1      42.169  28.100  31.083  1.00  0.00    -0.354 N 
ATOM     59  N   UNL A   1      41.279  29.702  33.343  1.00  0.00    -0.248 NA
ATOM     60  C   UNL A   1      41.565  30.472  35.528  1.00  0.00     0.031 C 
ATOM     61  C   UNL A   1      44.101  27.016  31.244  1.00  0.00     0.029 A 
ATOM     62  C   UNL A   1      43.254  27.879  31.918  1.00  0.00     0.049 A 
ATOM     63  H   UNL A   1      41.394  28.666  31.305  1.00  0.00     0.167 HD
ATOM     64  C   UNL A   1      42.504  29.255  33.829  1.00  0.00     0.074 A 
ATOM     65  C   UNL A   1      42.648  29.802  35.162  1.00  0.00     0.031 C 
ATOM     66  C   UNL A   1      43.422  28.461  33.225  1.00  0.00     0.034 A 
BRANCH  53  67
ATOM     67  C   UNL A   1      41.701  26.528  27.609  1.00  0.00     0.023 A 
ATOM     68  C   UNL A   1      42.359  27.088  26.494  1.00  0.00     0.012 A 
ATOM     69  C   UNL A   1      41.410  25.149  27.614  1.00  0.00     0.148 A 
ATOM     70  C   UNL A   1      42.683  26.302  25.388  1.00  0.00     0.002 A 
ATOM     71  C   UNL A   1      41.780  24.362  26.529  1.00  0.00     0.091 A 
ATOM     72  F   UNL A   1      40.777  24.633  28.677  1.00  0.00    -0.205 F 
ATOM     73  C   UNL A   1      42.402  24.939  25.410  1.00  0.00     0.022 A 
BRANCH  71  74
ATOM     74  S   UNL A   1      41.541  22.582  26.492  1.00  0.00     0.127 S 
ATOM     75  O   UNL A   1      40.092  22.482  26.323  1.00  0.00    -0.237 OA
ATOM     76  O   UNL A   1      42.319  22.190  25.316  1.00  0.00    -0.237 OA
ATOM     77  O   UNL A   1      42.056  22.078  27.758  1.00  0.00    -0.744 OA
ENDBRANCH  71  74
ENDBRANCH  53  67
BRANCH  54  78
ATOM     78  C   UNL A   1      39.071  32.000  35.507  1.00  0.00     0.023 A 
ATOM     79  C   UNL A   1      38.175  31.434  36.435  1.00  0.00     0.012 A 
ATOM     80  C   UNL A   1      39.572  33.294  35.739  1.00  0.00     0.148 A 
ATOM     81  C   UNL A   1      37.754  32.159  37.552  1.00  0.00     0.002 A 
ATOM     82  C   UNL A   1      39.196  33.987  36.884  1.00  0.00     0.091 A 
ATOM     83  F   UNL A   1      40.417  33.818  34.839  1.00  0.00    -0.205 F 
ATOM     84  C   UNL A   1      38.271  33.430  37.781  1.00  0.00     0.022 A 
BRANCH  82  85
ATOM     85  S   UNL A   1      39.910  35.574  37.329  1.00  0.00     0.127 S 
ATOM     86  O   UNL A   1      39.187  35.893  38.558  1.00  0.00    -0.237 OA
ATOM     87  O   UNL A   1      41.319  35.228  37.515  1.00  0.00    -0.237 OA
ATOM     88  O   UNL A   1      39.652  36.454  36.198  1.00  0.00    -0.744 OA
ENDBRANCH  82  85
ENDBRANCH  54  78
BRANCH  66  89
ATOM     89  C   UNL A   1      44.704  28.180  33.971  1.00  0.00     0.023 A 
ATOM     90  C   UNL A   1      45.810  29.044  33.844  1.00  0.00     0.012 A 
ATOM     91  C   UNL A   1      44.797  27.066  34.829  1.00  0.00     0.148 A 
ATOM     92  C   UNL A   1      47.002  28.775  34.517  1.00  0.00     0.002 A 
ATOM     93  C   UNL A   1      45.969  26.835  35.540  1.00  0.00     0.091 A 
ATOM     94  F   UNL A   1      43.745  26.240  34.925  1.00  0.00    -0.205 F 
ATOM     95  C   UNL A   1      47.080  27.678  35.371  1.00  0.00     0.022 A 
BRANCH  93  96
ATOM     96  S   UNL A   1      46.118  25.505  36.738  1.00  0.00     0.127 S 
ATOM     97  O   UNL A   1      47.307  25.911  37.487  1.00  0.00    -0.237 OA
ATOM     98  O   UNL A   1      44.863  25.614  37.482  1.00  0.00    -0.237 OA
ATOM     99  O   UNL A   1      46.253  24.281  35.961  1.00  0.00    -0.744 OA
ENDBRANCH  93  96
ENDBRANCH  66  89
ENDBRANCH  40  41
ENDBRANCH  32  35
ENDBRANCH  30  31
ENDBRANCH  29  30
ENDBRANCH   1  29
TORSDOF 17
ENDMDL
MODEL 3
REMARK VINA RESULT:     -12.5      1.166      1.732
REMARK SMILES O=C(COc1ccccc1/C=C1/SC(=O)N(c2ccc(F)cc2)C1=O)NCCCNC(=O)c1ccc(-c2c3nc(c(-c4cccc(S(=O)(=O)[O-])c4F)c4ccc([nH]4)c(-c4cccc(S(=O)(=O)[O-])c4F)c4nc(c(-c5cccc(S(=O)(=O)[O-])c5F)c5ccc2[nH]5)C=C4)C=C3)cc1
REMARK SMILES IDX 27 1 26 2 1 3 2 4 3 6 4 7 5 8 6 9 10 10 7 11 9 12 8 13 11 14
REMARK SMILES IDX 12 15 13 16 24 17 14 18 16 19 25 20 15 21 17 22 18 23 23 24
REMARK SMILES IDX 19 25 22 26 20 27 21 28 28 29 29 30 30 31 31 32 32 34 33 35
REMARK SMILES IDX 34 36 95 37 35 38 94 39 36 40 37 41 38 42 88 43 39 44 93 45
REMARK SMILES IDX 87 46 89 47 40 48 92 49 86 50 85 51 41 53 73 54 53 55 72 56
REMARK SMILES IDX 54 57 57 58 71 59 90 60 55 61 56 62 70 64 91 65 58 66 42 67
REMARK SMILES IDX 43 68 51 69 44 70 46 71 52 72 45 73 47 74 48 75 49 76 50 77
REMARK SMILES IDX 74 78 75 79 83 80 76 81 78 82 84 83 77 84 79 85 80 86 81 87
REMARK SMILES IDX 82 88 59 89 60 90 68 91 61 92 63 93 69 94 62 95 64 96 65 97
REMARK SMILES IDX 66 98 67 99
REMARK H PARENT 26 5 30 33 89 52 57 63
REMARK Flexibility Score: inf
ROOT
ATOM      1  C   UNL A   1      31.684  28.414  24.758  1.00  0.00     0.117 C 
ENDROOT
BRANCH   1   2
ATOM      2  N   UNL A   1      32.413  27.188  24.395  1.00  0.00    -0.353 N 
ATOM      3  O   UNL A   1      31.641  27.121  22.229  1.00  0.00    -0.271 OA
ATOM      4  C   UNL A   1      32.462  26.745  23.067  1.00  0.00     0.257 C 
ATOM      5  H   UNL A   1      32.873  26.671  25.096  1.00  0.00     0.163 HD
BRANCH   4   6
ATOM      6  C   UNL A   1      33.665  25.820  22.652  1.00  0.00     0.329 C 
BRANCH   6   7
ATOM      7  O   UNL A   1      33.736  24.420  22.973  1.00  0.00    -0.483 OA
BRANCH   7   8
ATOM      8  C   UNL A   1      34.172  24.087  24.238  1.00  0.00     0.127 A 
ATOM      9  C   UNL A   1      35.458  24.458  24.630  1.00  0.00     0.047 A 
ATOM     10  C   UNL A   1      33.458  23.178  25.047  1.00  0.00     0.018 A 
ATOM     11  C   UNL A   1      35.953  24.055  25.879  1.00  0.00     0.004 A 
ATOM     12  C   UNL A   1      33.905  22.862  26.331  1.00  0.00     0.012 A 
ATOM     13  C   UNL A   1      35.157  23.307  26.748  1.00  0.00     0.001 A 
BRANCH  10  14
ATOM     14  C   UNL A   1      32.253  22.539  24.510  1.00  0.00     0.033 C 
ATOM     15  C   UNL A   1      32.336  21.256  24.123  1.00  0.00     0.084 C 
ATOM     16  S   UNL A   1      32.147  20.807  22.482  1.00  0.00    -0.022 SA
ATOM     17  C   UNL A   1      32.834  20.076  24.881  1.00  0.00     0.272 C 
ATOM     18  C   UNL A   1      32.374  19.131  22.769  1.00  0.00     0.298 C 
ATOM     19  N   UNL A   1      32.761  18.939  24.073  1.00  0.00    -0.236 N 
ATOM     20  O   UNL A   1      33.194  20.156  26.048  1.00  0.00    -0.268 OA
ATOM     21  O   UNL A   1      32.145  18.332  21.872  1.00  0.00    -0.260 OA
BRANCH  19  22
ATOM     22  C   UNL A   1      32.985  17.626  24.555  1.00  0.00     0.053 A 
ATOM     23  C   UNL A   1      31.927  16.842  25.029  1.00  0.00     0.030 A 
ATOM     24  C   UNL A   1      34.273  17.064  24.502  1.00  0.00     0.030 A 
ATOM     25  C   UNL A   1      32.153  15.525  25.425  1.00  0.00     0.041 A 
ATOM     26  C   UNL A   1      34.500  15.753  24.904  1.00  0.00     0.041 A 
ATOM     27  C   UNL A   1      33.436  14.994  25.362  1.00  0.00     0.123 A 
ATOM     28  F   UNL A   1      33.647  13.732  25.751  1.00  0.00    -0.207 F 
ENDBRANCH  19  22
ENDBRANCH  10  14
ENDBRANCH   7   8
ENDBRANCH   6   7
ENDBRANCH   4   6
ENDBRANCH   1   2
BRANCH   1  29
ATOM     29  C   UNL A   1      32.470  29.655  25.234  1.00  0.00     0.042 C 
BRANCH  29  30
ATOM     30  C   UNL A   1      32.712  29.964  26.728  1.00  0.00     0.118 C 
BRANCH  30  31
ATOM     31  N   UNL A   1      32.765  31.374  27.108  1.00  0.00    -0.352 N 
ATOM     32  C   UNL A   1      33.804  32.100  27.663  1.00  0.00     0.251 C 
ATOM     33  H   UNL A   1      31.938  31.883  26.942  1.00  0.00     0.163 HD
ATOM     34  O   UNL A   1      33.664  33.314  27.807  1.00  0.00    -0.269 OA
BRANCH  32  35
ATOM     35  C   UNL A   1      35.055  31.445  28.136  1.00  0.00     0.039 A 
ATOM     36  C   UNL A   1      36.241  32.194  28.144  1.00  0.00     0.014 A 
ATOM     37  C   UNL A   1      35.092  30.112  28.548  1.00  0.00     0.014 A 
ATOM     38  C   UNL A   1      37.426  31.641  28.652  1.00  0.00     0.010 A 
ATOM     39  C   UNL A   1      36.266  29.576  29.098  1.00  0.00     0.010 A 
ATOM     40  C   UNL A   1      37.444  30.337  29.178  1.00  0.00    -0.014 A 
BRANCH  40  41
ATOM     41  C   UNL A   1      38.657  29.807  29.875  1.00  0.00     0.031 A 
ATOM     42  C   UNL A   1      39.098  30.337  31.216  1.00  0.00     0.074 A 
ATOM     43  C   UNL A   1      39.418  28.878  29.259  1.00  0.00     0.049 A 
ATOM     44  N   UNL A   1      40.117  29.968  31.955  1.00  0.00    -0.248 NA
ATOM     45  C   UNL A   1      38.309  31.434  31.795  1.00  0.00     0.031 C 
ATOM     46  C   UNL A   1      39.168  28.334  27.922  1.00  0.00     0.029 A 
ATOM     47  N   UNL A   1      40.569  28.240  29.661  1.00  0.00    -0.354 N 
ATOM     48  C   UNL A   1      40.107  30.798  33.072  1.00  0.00     0.074 A 
ATOM     49  C   UNL A   1      38.996  31.712  32.895  1.00  0.00     0.031 C 
ATOM     50  C   UNL A   1      40.125  27.443  27.619  1.00  0.00     0.029 A 
ATOM     51  C   UNL A   1      41.075  27.365  28.725  1.00  0.00     0.049 A 
ATOM     52  H   UNL A   1      40.992  28.395  30.536  1.00  0.00     0.167 HD
ATOM     53  C   UNL A   1      40.927  30.791  34.153  1.00  0.00     0.034 A 
ATOM     54  C   UNL A   1      42.176  26.586  28.747  1.00  0.00     0.034 A 
ATOM     55  C   UNL A   1      42.024  29.876  34.339  1.00  0.00     0.049 A 
ATOM     56  C   UNL A   1      43.044  26.566  29.976  1.00  0.00     0.074 A 
ATOM     57  C   UNL A   1      42.861  29.744  35.436  1.00  0.00     0.029 A 
ATOM     58  N   UNL A   1      42.454  28.948  33.404  1.00  0.00    -0.354 N 
ATOM     59  N   UNL A   1      42.917  27.246  31.089  1.00  0.00    -0.248 NA
ATOM     60  C   UNL A   1      44.182  25.634  29.970  1.00  0.00     0.031 C 
ATOM     61  C   UNL A   1      43.816  28.763  35.149  1.00  0.00     0.029 A 
ATOM     62  C   UNL A   1      43.546  28.246  33.893  1.00  0.00     0.049 A 
ATOM     63  H   UNL A   1      42.045  28.806  32.519  1.00  0.00     0.167 HD
ATOM     64  C   UNL A   1      43.925  26.789  31.933  1.00  0.00     0.074 A 
ATOM     65  C   UNL A   1      44.642  25.761  31.207  1.00  0.00     0.031 C 
ATOM     66  C   UNL A   1      44.229  27.189  33.192  1.00  0.00     0.034 A 
BRANCH  53  67
ATOM     67  C   UNL A   1      40.645  31.786  35.255  1.00  0.00     0.023 A 
ATOM     68  C   UNL A   1      41.500  32.894  35.428  1.00  0.00     0.012 A 
ATOM     69  C   UNL A   1      39.502  31.666  36.072  1.00  0.00     0.148 A 
ATOM     70  C   UNL A   1      41.248  33.841  36.421  1.00  0.00     0.002 A 
ATOM     71  C   UNL A   1      39.231  32.639  37.027  1.00  0.00     0.091 A 
ATOM     72  F   UNL A   1      38.704  30.602  35.902  1.00  0.00    -0.205 F 
ATOM     73  C   UNL A   1      40.110  33.719  37.213  1.00  0.00     0.022 A 
BRANCH  71  74
ATOM     74  S   UNL A   1      37.748  32.621  38.041  1.00  0.00     0.127 S 
ATOM     75  O   UNL A   1      37.779  31.264  38.585  1.00  0.00    -0.237 OA
ATOM     76  O   UNL A   1      38.029  33.674  39.017  1.00  0.00    -0.237 OA
ATOM     77  O   UNL A   1      36.640  32.906  37.141  1.00  0.00    -0.744 OA
ENDBRANCH  71  74
ENDBRANCH  53  67
BRANCH  54  78
ATOM     78  C   UNL A   1      42.486  25.699  27.588  1.00  0.00     0.023 A 
ATOM     79  C   UNL A   1      43.296  26.181  26.540  1.00  0.00     0.012 A 
ATOM     80  C   UNL A   1      41.991  24.384  27.521  1.00  0.00     0.148 A 
ATOM     81  C   UNL A   1      43.573  25.384  25.429  1.00  0.00     0.002 A 
ATOM     82  C   UNL A   1      42.319  23.574  26.439  1.00  0.00     0.091 A 
ATOM     83  F   UNL A   1      41.215  23.947  28.523  1.00  0.00    -0.205 F 
ATOM     84  C   UNL A   1      43.092  24.079  25.383  1.00  0.00     0.022 A 
BRANCH  82  85
ATOM     85  S   UNL A   1      41.856  21.841  26.357  1.00  0.00     0.127 S 
ATOM     86  O   UNL A   1      42.656  21.371  25.229  1.00  0.00    -0.237 OA
ATOM     87  O   UNL A   1      42.288  21.352  27.665  1.00  0.00    -0.237 OA
ATOM     88  O   UNL A   1      40.413  21.827  26.156  1.00  0.00    -0.744 OA
ENDBRANCH  82  85
ENDBRANCH  54  78
BRANCH  66  89
ATOM     89  C   UNL A   1      45.350  26.471  33.903  1.00  0.00     0.023 A 
ATOM     90  C   UNL A   1      46.669  26.966  33.844  1.00  0.00     0.012 A 
ATOM     91  C   UNL A   1      45.084  25.313  34.662  1.00  0.00     0.148 A 
ATOM     92  C   UNL A   1      47.710  26.292  34.484  1.00  0.00     0.002 A 
ATOM     93  C   UNL A   1      46.117  24.679  35.343  1.00  0.00     0.091 A 
ATOM     94  F   UNL A   1      43.830  24.841  34.692  1.00  0.00    -0.205 F 
ATOM     95  C   UNL A   1      47.434  25.156  35.240  1.00  0.00     0.022 A 
BRANCH  93  96
ATOM     96  S   UNL A   1      45.832  23.271  36.421  1.00  0.00     0.127 S 
ATOM     97  O   UNL A   1      44.930  22.453  35.611  1.00  0.00    -0.237 OA
ATOM     98  O   UNL A   1      47.180  22.720  36.575  1.00  0.00    -0.237 OA
ATOM     99  O   UNL A   1      45.260  23.814  37.645  1.00  0.00    -0.744 OA
ENDBRANCH  93  96
ENDBRANCH  66  89
ENDBRANCH  40  41
ENDBRANCH  32  35
ENDBRANCH  30  31
ENDBRANCH  29  30
ENDBRANCH   1  29
TORSDOF 17
ENDMDL
