MODEL 1
REMARK VINA RESULT:     -13.0      0.000      0.000
REMARK SMILES O=C(C[C@H]1c2ccccc2CCN1C(=O)Nc1ccccc1Br)NCCCNC(=O)c1ccc(-c2c3nc(c(-c4cccc(S(=O)(=O)[O-])c4F)c4ccc([nH]4)c(-c4cccc(S(=O)(=O)[O-])c4F)c4nc(c(-c5cccc(S(=O)(=O)[O-])c5F)c5ccc2[nH]5)C=C4)C=C3)cc1
REMARK SMILES IDX 26 1 25 2 24 3 1 4 2 5 3 7 4 8 5 9 13 10 6 11 10 12 12 13
REMARK SMILES IDX 7 14 9 15 11 16 8 17 14 18 15 19 16 20 17 22 18 23 22 24
REMARK SMILES IDX 19 25 21 26 23 27 20 28 27 29 28 30 29 31 30 33 31 34 32 35
REMARK SMILES IDX 93 36 33 37 92 38 34 39 35 40 36 41 86 42 37 43 91 44 85 45
REMARK SMILES IDX 87 46 38 47 90 48 84 49 83 50 39 52 71 53 51 54 70 55 52 56
REMARK SMILES IDX 55 57 69 58 88 59 53 60 54 61 68 63 89 64 56 65 40 66 41 67
REMARK SMILES IDX 49 68 42 69 44 70 50 71 43 72 45 73 46 74 47 75 48 76 72 77
REMARK SMILES IDX 73 78 81 79 74 80 76 81 82 82 75 83 77 84 78 85 79 86 80 87
REMARK SMILES IDX 57 88 58 89 66 90 59 91 61 92 67 93 60 94 62 95 63 96 64 97
REMARK SMILES IDX 65 98
REMARK H PARENT 24 6 16 21 28 32 87 51 55 62
REMARK Flexibility Score: inf
ROOT
ATOM      1  C   UNL A   1      31.411  29.704  26.508  1.00  0.00     0.042 C 
ENDROOT
BRANCH   1   2
ATOM      2  C   UNL A   1      31.885  28.546  27.378  1.00  0.00     0.117 C 
BRANCH   2   3
ATOM      3  N   UNL A   1      32.389  27.424  26.614  1.00  0.00    -0.356 N 
ATOM      4  O   UNL A   1      30.489  26.162  26.854  1.00  0.00    -0.275 OA
ATOM      5  C   UNL A   1      31.616  26.306  26.389  1.00  0.00     0.222 C 
ATOM      6  H   UNL A   1      33.301  27.462  26.247  1.00  0.00     0.163 HD
BRANCH   5   7
ATOM      7  C   UNL A   1      32.269  25.258  25.515  1.00  0.00     0.130 C 
BRANCH   7   8
ATOM      8  C   UNL A   1      31.605  25.148  24.129  1.00  0.00     0.127 C 
ATOM      9  C   UNL A   1      31.164  26.512  23.588  1.00  0.00    -0.022 A 
ATOM     10  N   UNL A   1      32.536  24.466  23.181  1.00  0.00    -0.317 N 
ATOM     11  C   UNL A   1      29.842  26.958  23.685  1.00  0.00     0.006 A 
ATOM     12  C   UNL A   1      32.117  27.349  22.979  1.00  0.00    -0.041 A 
ATOM     13  C   UNL A   1      33.236  25.337  22.215  1.00  0.00     0.127 C 
ATOM     14  C   UNL A   1      29.494  28.227  23.216  1.00  0.00     0.000 A 
ATOM     15  C   UNL A   1      31.780  28.635  22.555  1.00  0.00     0.004 A 
ATOM     16  C   UNL A   1      33.467  26.764  22.708  1.00  0.00     0.057 C 
ATOM     17  C   UNL A   1      30.463  29.069  22.670  1.00  0.00     0.000 A 
BRANCH  10  18
ATOM     18  C   UNL A   1      32.454  23.086  23.126  1.00  0.00     0.322 C 
ATOM     19  O   UNL A   1      31.427  22.507  22.759  1.00  0.00    -0.248 OA
ATOM     20  N   UNL A   1      33.548  22.299  23.324  1.00  0.00    -0.307 N 
ATOM     21  H   UNL A   1      33.515  21.437  22.851  1.00  0.00     0.171 HD
BRANCH  20  22
ATOM     22  C   UNL A   1      34.712  22.496  24.078  1.00  0.00     0.057 A 
ATOM     23  C   UNL A   1      35.851  22.877  23.360  1.00  0.00     0.027 A 
ATOM     24  C   UNL A   1      34.774  22.406  25.480  1.00  0.00     0.041 A 
ATOM     25  C   UNL A   1      36.989  23.317  24.036  1.00  0.00     0.002 A 
ATOM     26  C   UNL A   1      35.923  22.836  26.151  1.00  0.00     0.018 A 
ATOM     27  Br  UNL A   1      33.347  21.719  26.530  1.00  0.00    -0.049 Br
ATOM     28  C   UNL A   1      37.015  23.321  25.429  1.00  0.00     0.001 A 
ENDBRANCH  20  22
ENDBRANCH  10  18
ENDBRANCH   7   8
ENDBRANCH   5   7
ENDBRANCH   2   3
ENDBRANCH   1   2
BRANCH   1  29
ATOM     29  C   UNL A   1      32.485  30.724  26.142  1.00  0.00     0.118 C 
BRANCH  29  30
ATOM     30  N   UNL A   1      32.213  32.065  26.642  1.00  0.00    -0.352 N 
ATOM     31  C   UNL A   1      32.964  32.843  27.496  1.00  0.00     0.251 C 
ATOM     32  H   UNL A   1      31.375  32.473  26.325  1.00  0.00     0.163 HD
ATOM     33  O   UNL A   1      32.552  33.932  27.866  1.00  0.00    -0.269 OA
BRANCH  31  34
ATOM     34  C   UNL A   1      34.268  32.338  27.985  1.00  0.00     0.039 A 
ATOM     35  C   UNL A   1      35.361  33.208  28.022  1.00  0.00     0.014 A 
ATOM     36  C   UNL A   1      34.400  31.021  28.429  1.00  0.00     0.014 A 
ATOM     37  C   UNL A   1      36.569  32.780  28.584  1.00  0.00     0.010 A 
ATOM     38  C   UNL A   1      35.585  30.613  29.036  1.00  0.00     0.010 A 
ATOM     39  C   UNL A   1      36.676  31.492  29.133  1.00  0.00    -0.014 A 
BRANCH  39  40
ATOM     40  C   UNL A   1      37.896  31.045  29.857  1.00  0.00     0.031 A 
ATOM     41  C   UNL A   1      38.823  30.042  29.227  1.00  0.00     0.074 A 
ATOM     42  C   UNL A   1      38.092  31.436  31.133  1.00  0.00     0.049 A 
ATOM     43  N   UNL A   1      39.840  29.414  29.754  1.00  0.00    -0.248 NA
ATOM     44  C   UNL A   1      38.551  29.679  27.826  1.00  0.00     0.031 C 
ATOM     45  C   UNL A   1      37.231  32.354  31.878  1.00  0.00     0.029 A 
ATOM     46  N   UNL A   1      39.057  31.075  32.042  1.00  0.00    -0.354 N 
ATOM     47  C   UNL A   1      40.305  28.550  28.771  1.00  0.00     0.074 A 
ATOM     48  C   UNL A   1      39.446  28.722  27.619  1.00  0.00     0.031 C 
ATOM     49  C   UNL A   1      37.694  32.472  33.134  1.00  0.00     0.029 A 
ATOM     50  C   UNL A   1      38.862  31.612  33.293  1.00  0.00     0.049 A 
ATOM     51  H   UNL A   1      39.814  30.486  31.819  1.00  0.00     0.167 HD
ATOM     52  C   UNL A   1      41.363  27.705  28.815  1.00  0.00     0.034 A 
ATOM     53  C   UNL A   1      39.535  31.420  34.446  1.00  0.00     0.034 A 
ATOM     54  C   UNL A   1      42.243  27.571  29.945  1.00  0.00     0.049 A 
ATOM     55  C   UNL A   1      40.728  30.502  34.458  1.00  0.00     0.074 A 
ATOM     56  C   UNL A   1      43.387  26.802  30.055  1.00  0.00     0.029 A 
ATOM     57  N   UNL A   1      42.076  28.216  31.159  1.00  0.00    -0.354 N 
ATOM     58  N   UNL A   1      41.234  29.799  33.474  1.00  0.00    -0.248 NA
ATOM     59  C   UNL A   1      41.463  30.377  35.725  1.00  0.00     0.031 C 
ATOM     60  C   UNL A   1      43.905  26.970  31.343  1.00  0.00     0.029 A 
ATOM     61  C   UNL A   1      43.095  27.862  32.026  1.00  0.00     0.049 A 
ATOM     62  H   UNL A   1      41.342  28.836  31.374  1.00  0.00     0.167 HD
ATOM     63  C   UNL A   1      42.372  29.187  33.990  1.00  0.00     0.074 A 
ATOM     64  C   UNL A   1      42.484  29.609  35.371  1.00  0.00     0.031 C 
ATOM     65  C   UNL A   1      43.238  28.345  33.376  1.00  0.00     0.034 A 
BRANCH  52  66
ATOM     66  C   UNL A   1      41.663  26.892  27.583  1.00  0.00     0.023 A 
ATOM     67  C   UNL A   1      42.198  27.528  26.445  1.00  0.00     0.012 A 
ATOM     68  C   UNL A   1      41.480  25.495  27.573  1.00  0.00     0.148 A 
ATOM     69  C   UNL A   1      42.515  26.793  25.304  1.00  0.00     0.002 A 
ATOM     70  C   UNL A   1      41.840  24.763  26.447  1.00  0.00     0.091 A 
ATOM     71  F   UNL A   1      40.952  24.911  28.657  1.00  0.00    -0.205 F 
ATOM     72  C   UNL A   1      42.347  25.411  25.308  1.00  0.00     0.022 A 
BRANCH  70  73
ATOM     73  S   UNL A   1      41.733  22.971  26.385  1.00  0.00     0.127 S 
ATOM     74  O   UNL A   1      42.466  22.590  27.592  1.00  0.00    -0.237 OA
ATOM     75  O   UNL A   1      40.289  22.743  26.451  1.00  0.00    -0.237 OA
ATOM     76  O   UNL A   1      42.352  22.577  25.127  1.00  0.00    -0.744 OA
ENDBRANCH  70  73
ENDBRANCH  52  66
BRANCH  53  77
ATOM     77  C   UNL A   1      39.131  32.159  35.675  1.00  0.00     0.023 A 
ATOM     78  C   UNL A   1      39.486  33.516  35.810  1.00  0.00     0.012 A 
ATOM     79  C   UNL A   1      38.378  31.542  36.693  1.00  0.00     0.148 A 
ATOM     80  C   UNL A   1      39.126  34.237  36.949  1.00  0.00     0.002 A 
ATOM     81  C   UNL A   1      37.976  32.280  37.800  1.00  0.00     0.091 A 
ATOM     82  F   UNL A   1      38.059  30.248  36.552  1.00  0.00    -0.205 F 
ATOM     83  C   UNL A   1      38.362  33.623  37.939  1.00  0.00     0.022 A 
BRANCH  81  84
ATOM     84  S   UNL A   1      36.885  31.609  39.060  1.00  0.00     0.127 S 
ATOM     85  O   UNL A   1      36.724  30.229  38.611  1.00  0.00    -0.237 OA
ATOM     86  O   UNL A   1      37.686  31.774  40.274  1.00  0.00    -0.237 OA
ATOM     87  O   UNL A   1      35.685  32.434  39.017  1.00  0.00    -0.744 OA
ENDBRANCH  81  84
ENDBRANCH  53  77
BRANCH  65  88
ATOM     88  C   UNL A   1      44.430  27.861  34.159  1.00  0.00     0.023 A 
ATOM     89  C   UNL A   1      45.604  28.637  34.209  1.00  0.00     0.012 A 
ATOM     90  C   UNL A   1      44.344  26.684  34.928  1.00  0.00     0.148 A 
ATOM     91  C   UNL A   1      46.683  28.238  34.997  1.00  0.00     0.002 A 
ATOM     92  C   UNL A   1      45.404  26.317  35.748  1.00  0.00     0.091 A 
ATOM     93  F   UNL A   1      43.224  25.950  34.850  1.00  0.00    -0.205 F 
ATOM     94  C   UNL A   1      46.578  27.088  35.777  1.00  0.00     0.022 A 
BRANCH  92  95
ATOM     95  S   UNL A   1      45.320  24.908  36.860  1.00  0.00     0.127 S 
ATOM     96  O   UNL A   1      46.611  24.988  37.540  1.00  0.00    -0.237 OA
ATOM     97  O   UNL A   1      44.167  25.242  37.698  1.00  0.00    -0.237 OA
ATOM     98  O   UNL A   1      45.133  23.738  36.012  1.00  0.00    -0.744 OA
ENDBRANCH  92  95
ENDBRANCH  65  88
ENDBRANCH  39  40
ENDBRANCH  31  34
ENDBRANCH  29  30
ENDBRANCH   1  29
TORSDOF 16
ENDMDL
MODEL 2
REMARK VINA RESULT:     -12.8      1.442      7.465
REMARK SMILES O=C(C[C@H]1c2ccccc2CCN1C(=O)Nc1ccccc1Br)NCCCNC(=O)c1ccc(-c2c3nc(c(-c4cccc(S(=O)(=O)[O-])c4F)c4ccc([nH]4)c(-c4cccc(S(=O)(=O)[O-])c4F)c4nc(c(-c5cccc(S(=O)(=O)[O-])c5F)c5ccc2[nH]5)C=C4)C=C3)cc1
REMARK SMILES IDX 26 1 25 2 24 3 1 4 2 5 3 7 4 8 5 9 13 10 6 11 10 12 12 13
REMARK SMILES IDX 7 14 9 15 11 16 8 17 14 18 15 19 16 20 17 22 18 23 22 24
REMARK SMILES IDX 19 25 21 26 23 27 20 28 27 29 28 30 29 31 30 33 31 34 32 35
REMARK SMILES IDX 93 36 33 37 92 38 34 39 35 40 36 41 86 42 37 43 91 44 85 45
REMARK SMILES IDX 87 46 38 47 90 48 84 49 83 50 39 52 71 53 51 54 70 55 52 56
REMARK SMILES IDX 55 57 69 58 88 59 53 60 54 61 68 63 89 64 56 65 40 66 41 67
REMARK SMILES IDX 49 68 42 69 44 70 50 71 43 72 45 73 46 74 47 75 48 76 72 77
REMARK SMILES IDX 73 78 81 79 74 80 76 81 82 82 75 83 77 84 78 85 79 86 80 87
REMARK SMILES IDX 57 88 58 89 66 90 59 91 61 92 67 93 60 94 62 95 63 96 64 97
REMARK SMILES IDX 65 98
REMARK H PARENT 24 6 16 21 28 32 87 51 55 62
REMARK Flexibility Score: inf
ROOT
ATOM      1  C   UNL A   1      31.456  29.218  26.691  1.00  0.00     0.042 C 
ENDROOT
BRANCH   1   2
ATOM      2  C   UNL A   1      31.943  27.952  27.385  1.00  0.00     0.117 C 
BRANCH   2   3
ATOM      3  N   UNL A   1      32.515  26.983  26.474  1.00  0.00    -0.356 N 
ATOM      4  O   UNL A   1      30.978  25.348  26.944  1.00  0.00    -0.275 OA
ATOM      5  C   UNL A   1      31.953  25.737  26.307  1.00  0.00     0.222 C 
ATOM      6  H   UNL A   1      33.322  27.221  25.963  1.00  0.00     0.163 HD
BRANCH   5   7
ATOM      7  C   UNL A   1      32.635  24.874  25.268  1.00  0.00     0.130 C 
BRANCH   7   8
ATOM      8  C   UNL A   1      31.736  24.599  24.047  1.00  0.00     0.127 C 
ATOM      9  C   UNL A   1      31.002  25.857  23.572  1.00  0.00    -0.022 A 
ATOM     10  N   UNL A   1      32.554  24.003  22.948  1.00  0.00    -0.317 N 
ATOM     11  C   UNL A   1      29.674  26.120  23.921  1.00  0.00     0.006 A 
ATOM     12  C   UNL A   1      31.684  26.783  22.762  1.00  0.00    -0.041 A 
ATOM     13  C   UNL A   1      32.915  24.908  21.840  1.00  0.00     0.127 C 
ATOM     14  C   UNL A   1      29.058  27.301  23.500  1.00  0.00     0.000 A 
ATOM     15  C   UNL A   1      31.086  27.986  22.383  1.00  0.00     0.004 A 
ATOM     16  C   UNL A   1      33.026  26.378  22.239  1.00  0.00     0.057 C 
ATOM     17  C   UNL A   1      29.768  28.238  22.749  1.00  0.00     0.000 A 
BRANCH  10  18
ATOM     18  C   UNL A   1      32.666  22.623  22.946  1.00  0.00     0.322 C 
ATOM     19  O   UNL A   1      31.768  21.895  22.510  1.00  0.00    -0.248 OA
ATOM     20  N   UNL A   1      33.831  22.003  23.280  1.00  0.00    -0.307 N 
ATOM     21  H   UNL A   1      33.963  21.131  22.845  1.00  0.00     0.171 HD
BRANCH  20  22
ATOM     22  C   UNL A   1      34.877  22.383  24.131  1.00  0.00     0.057 A 
ATOM     23  C   UNL A   1      35.963  23.021  23.521  1.00  0.00     0.027 A 
ATOM     24  C   UNL A   1      34.860  22.228  25.528  1.00  0.00     0.041 A 
ATOM     25  C   UNL A   1      36.940  23.639  24.302  1.00  0.00     0.002 A 
ATOM     26  C   UNL A   1      35.850  22.838  26.305  1.00  0.00     0.018 A 
ATOM     27  Br  UNL A   1      33.532  21.214  26.433  1.00  0.00    -0.049 Br
ATOM     28  C   UNL A   1      36.869  23.570  25.692  1.00  0.00     0.001 A 
ENDBRANCH  20  22
ENDBRANCH  10  18
ENDBRANCH   7   8
ENDBRANCH   5   7
ENDBRANCH   2   3
ENDBRANCH   1   2
BRANCH   1  29
ATOM     29  C   UNL A   1      32.555  30.106  26.115  1.00  0.00     0.118 C 
BRANCH  29  30
ATOM     30  N   UNL A   1      32.444  31.505  26.507  1.00  0.00    -0.352 N 
ATOM     31  C   UNL A   1      33.272  32.248  27.320  1.00  0.00     0.251 C 
ATOM     32  H   UNL A   1      31.668  31.987  26.139  1.00  0.00     0.163 HD
ATOM     33  O   UNL A   1      32.992  33.404  27.597  1.00  0.00    -0.269 OA
BRANCH  31  34
ATOM     34  C   UNL A   1      34.495  31.626  27.877  1.00  0.00     0.039 A 
ATOM     35  C   UNL A   1      35.630  32.419  28.073  1.00  0.00     0.014 A 
ATOM     36  C   UNL A   1      34.510  30.275  28.229  1.00  0.00     0.014 A 
ATOM     37  C   UNL A   1      36.755  31.875  28.701  1.00  0.00     0.010 A 
ATOM     38  C   UNL A   1      35.610  29.750  28.902  1.00  0.00     0.010 A 
ATOM     39  C   UNL A   1      36.738  30.547  29.158  1.00  0.00    -0.014 A 
BRANCH  39  40
ATOM     40  C   UNL A   1      37.859  29.971  29.946  1.00  0.00     0.031 A 
ATOM     41  C   UNL A   1      38.129  30.459  31.342  1.00  0.00     0.074 A 
ATOM     42  C   UNL A   1      38.715  29.112  29.355  1.00  0.00     0.049 A 
ATOM     43  N   UNL A   1      39.143  30.200  32.126  1.00  0.00    -0.248 NA
ATOM     44  C   UNL A   1      37.140  31.381  31.924  1.00  0.00     0.031 C 
ATOM     45  C   UNL A   1      38.599  28.612  27.985  1.00  0.00     0.029 A 
ATOM     46  N   UNL A   1      39.876  28.542  29.819  1.00  0.00    -0.354 N 
ATOM     47  C   UNL A   1      38.941  30.958  33.272  1.00  0.00     0.074 A 
ATOM     48  C   UNL A   1      37.715  31.702  33.075  1.00  0.00     0.031 C 
ATOM     49  C   UNL A   1      39.653  27.824  27.713  1.00  0.00     0.029 A 
ATOM     50  C   UNL A   1      40.536  27.792  28.874  1.00  0.00     0.049 A 
ATOM     51  H   UNL A   1      40.204  28.661  30.740  1.00  0.00     0.167 HD
ATOM     52  C   UNL A   1      39.697  31.015  34.395  1.00  0.00     0.034 A 
ATOM     53  C   UNL A   1      41.729  27.164  28.927  1.00  0.00     0.034 A 
ATOM     54  C   UNL A   1      40.890  30.239  34.606  1.00  0.00     0.049 A 
ATOM     55  C   UNL A   1      42.531  27.215  30.200  1.00  0.00     0.074 A 
ATOM     56  C   UNL A   1      41.678  30.168  35.741  1.00  0.00     0.029 A 
ATOM     57  N   UNL A   1      41.469  29.404  33.664  1.00  0.00    -0.354 N 
ATOM     58  N   UNL A   1      42.251  27.828  31.325  1.00  0.00    -0.248 NA
ATOM     59  C   UNL A   1      43.793  26.462  30.225  1.00  0.00     0.031 C 
ATOM     60  C   UNL A   1      42.744  29.301  35.479  1.00  0.00     0.029 A 
ATOM     61  C   UNL A   1      42.605  28.815  34.190  1.00  0.00     0.049 A 
ATOM     62  H   UNL A   1      41.123  29.252  32.755  1.00  0.00     0.167 HD
ATOM     63  C   UNL A   1      43.277  27.496  32.204  1.00  0.00     0.074 A 
ATOM     64  C   UNL A   1      44.179  26.622  31.484  1.00  0.00     0.031 C 
ATOM     65  C   UNL A   1      43.456  27.888  33.489  1.00  0.00     0.034 A 
BRANCH  52  66
ATOM     66  C   UNL A   1      39.229  31.911  35.511  1.00  0.00     0.023 A 
ATOM     67  C   UNL A   1      38.324  31.412  36.469  1.00  0.00     0.012 A 
ATOM     68  C   UNL A   1      39.731  33.220  35.650  1.00  0.00     0.148 A 
ATOM     69  C   UNL A   1      37.901  32.211  37.531  1.00  0.00     0.002 A 
ATOM     70  C   UNL A   1      39.338  33.995  36.735  1.00  0.00     0.091 A 
ATOM     71  F   UNL A   1      40.575  33.685  34.718  1.00  0.00    -0.205 F 
ATOM     72  C   UNL A   1      38.415  33.496  37.670  1.00  0.00     0.022 A 
BRANCH  70  73
ATOM     73  S   UNL A   1      40.004  35.635  37.044  1.00  0.00     0.127 S 
ATOM     74  O   UNL A   1      41.431  35.349  37.196  1.00  0.00    -0.237 OA
ATOM     75  O   UNL A   1      39.653  36.349  35.816  1.00  0.00    -0.237 OA
ATOM     76  O   UNL A   1      39.332  36.121  38.241  1.00  0.00    -0.744 OA
ENDBRANCH  70  73
ENDBRANCH  52  66
BRANCH  53  77
ATOM     77  C   UNL A   1      42.210  26.380  27.755  1.00  0.00     0.023 A 
ATOM     78  C   UNL A   1      43.066  26.996  26.820  1.00  0.00     0.012 A 
ATOM     79  C   UNL A   1      41.854  25.030  27.574  1.00  0.00     0.148 A 
ATOM     80  C   UNL A   1      43.532  26.292  25.709  1.00  0.00     0.002 A 
ATOM     81  C   UNL A   1      42.365  24.318  26.495  1.00  0.00     0.091 A 
ATOM     82  F   UNL A   1      41.030  24.465  28.468  1.00  0.00    -0.205 F 
ATOM     83  C   UNL A   1      43.191  24.951  25.552  1.00  0.00     0.022 A 
BRANCH  81  84
ATOM     84  S   UNL A   1      42.083  22.556  26.283  1.00  0.00     0.127 S 
ATOM     85  O   UNL A   1      42.737  22.302  25.002  1.00  0.00    -0.237 OA
ATOM     86  O   UNL A   1      42.771  21.998  27.448  1.00  0.00    -0.237 OA
ATOM     87  O   UNL A   1      40.636  22.387  26.302  1.00  0.00    -0.744 OA
ENDBRANCH  81  84
ENDBRANCH  53  77
BRANCH  65  88
ATOM     88  C   UNL A   1      44.639  27.335  34.239  1.00  0.00     0.023 A 
ATOM     89  C   UNL A   1      45.866  28.026  34.228  1.00  0.00     0.012 A 
ATOM     90  C   UNL A   1      44.498  26.183  35.037  1.00  0.00     0.148 A 
ATOM     91  C   UNL A   1      46.943  27.565  34.986  1.00  0.00     0.002 A 
ATOM     92  C   UNL A   1      45.560  25.757  35.827  1.00  0.00     0.091 A 
ATOM     93  F   UNL A   1      43.327  25.530  35.017  1.00  0.00    -0.205 F 
ATOM     94  C   UNL A   1      46.786  26.442  35.795  1.00  0.00     0.022 A 
BRANCH  92  95
ATOM     95  S   UNL A   1      45.418  24.380  36.972  1.00  0.00     0.127 S 
ATOM     96  O   UNL A   1      44.333  24.828  37.842  1.00  0.00    -0.237 OA
ATOM     97  O   UNL A   1      45.069  23.271  36.083  1.00  0.00    -0.237 OA
ATOM     98  O   UNL A   1      46.721  24.254  37.612  1.00  0.00    -0.744 OA
ENDBRANCH  92  95
ENDBRANCH  65  88
ENDBRANCH  39  40
ENDBRANCH  31  34
ENDBRANCH  29  30
ENDBRANCH   1  29
TORSDOF 16
ENDMDL
MODEL 3
REMARK VINA RESULT:     -12.7      5.536     10.518
REMARK SMILES O=C(C[C@H]1c2ccccc2CCN1C(=O)Nc1ccccc1Br)NCCCNC(=O)c1ccc(-c2c3nc(c(-c4cccc(S(=O)(=O)[O-])c4F)c4ccc([nH]4)c(-c4cccc(S(=O)(=O)[O-])c4F)c4nc(c(-c5cccc(S(=O)(=O)[O-])c5F)c5ccc2[nH]5)C=C4)C=C3)cc1
REMARK SMILES IDX 26 1 25 2 24 3 1 4 2 5 3 7 4 8 5 9 13 10 6 11 10 12 12 13
REMARK SMILES IDX 7 14 9 15 11 16 8 17 14 18 15 19 16 20 17 22 18 23 22 24
REMARK SMILES IDX 19 25 21 26 23 27 20 28 27 29 28 30 29 31 30 33 31 34 32 35
REMARK SMILES IDX 93 36 33 37 92 38 34 39 35 40 36 41 86 42 37 43 91 44 85 45
REMARK SMILES IDX 87 46 38 47 90 48 84 49 83 50 39 52 71 53 51 54 70 55 52 56
REMARK SMILES IDX 55 57 69 58 88 59 53 60 54 61 68 63 89 64 56 65 40 66 41 67
REMARK SMILES IDX 49 68 42 69 44 70 50 71 43 72 45 73 46 74 47 75 48 76 72 77
REMARK SMILES IDX 73 78 81 79 74 80 76 81 82 82 75 83 77 84 78 85 79 86 80 87
REMARK SMILES IDX 57 88 58 89 66 90 59 91 61 92 67 93 60 94 62 95 63 96 64 97
REMARK SMILES IDX 65 98
REMARK H PARENT 24 6 16 21 28 32 87 51 55 62
REMARK Flexibility Score: inf
ROOT
ATOM      1  C   UNL A   1      38.190  20.615  24.871  1.00  0.00     0.042 C 
ENDROOT
BRANCH   1   2
ATOM      2  C   UNL A   1      37.851  22.091  25.040  1.00  0.00     0.117 C 
BRANCH   2   3
ATOM      3  N   UNL A   1      36.433  22.367  24.949  1.00  0.00    -0.356 N 
ATOM      4  O   UNL A   1      36.495  22.953  22.733  1.00  0.00    -0.275 OA
ATOM      5  C   UNL A   1      35.854  22.761  23.763  1.00  0.00     0.222 C 
ATOM      6  H   UNL A   1      35.871  22.270  25.751  1.00  0.00     0.163 HD
BRANCH   5   7
ATOM      7  C   UNL A   1      34.354  22.942  23.826  1.00  0.00     0.130 C 
BRANCH   7   8
ATOM      8  C   UNL A   1      33.857  23.258  25.251  1.00  0.00     0.127 C 
ATOM      9  C   UNL A   1      33.197  24.637  25.343  1.00  0.00    -0.022 A 
ATOM     10  N   UNL A   1      32.926  22.182  25.706  1.00  0.00    -0.317 N 
ATOM     11  C   UNL A   1      33.882  25.759  25.821  1.00  0.00     0.006 A 
ATOM     12  C   UNL A   1      31.861  24.786  24.928  1.00  0.00    -0.041 A 
ATOM     13  C   UNL A   1      31.487  22.510  25.678  1.00  0.00     0.127 C 
ATOM     14  C   UNL A   1      33.253  27.006  25.847  1.00  0.00     0.000 A 
ATOM     15  C   UNL A   1      31.249  26.041  24.908  1.00  0.00     0.004 A 
ATOM     16  C   UNL A   1      31.097  23.538  24.618  1.00  0.00     0.057 C 
ATOM     17  C   UNL A   1      31.948  27.149  25.375  1.00  0.00     0.000 A 
BRANCH  10  18
ATOM     18  C   UNL A   1      33.504  21.099  26.345  1.00  0.00     0.322 C 
ATOM     19  O   UNL A   1      34.188  21.231  27.365  1.00  0.00    -0.248 OA
ATOM     20  N   UNL A   1      33.224  19.819  25.973  1.00  0.00    -0.307 N 
ATOM     21  H   UNL A   1      33.296  19.163  26.702  1.00  0.00     0.171 HD
BRANCH  20  22
ATOM     22  C   UNL A   1      32.849  19.269  24.741  1.00  0.00     0.057 A 
ATOM     23  C   UNL A   1      32.379  20.175  23.783  1.00  0.00     0.027 A 
ATOM     24  C   UNL A   1      32.985  17.912  24.403  1.00  0.00     0.041 A 
ATOM     25  C   UNL A   1      32.199  19.764  22.462  1.00  0.00     0.002 A 
ATOM     26  C   UNL A   1      32.791  17.504  23.080  1.00  0.00     0.018 A 
ATOM     27  Br  UNL A   1      33.430  16.575  25.679  1.00  0.00    -0.049 Br
ATOM     28  C   UNL A   1      32.431  18.437  22.106  1.00  0.00     0.001 A 
ENDBRANCH  20  22
ENDBRANCH  10  18
ENDBRANCH   7   8
ENDBRANCH   5   7
ENDBRANCH   2   3
ENDBRANCH   1   2
BRANCH   1  29
ATOM     29  C   UNL A   1      38.701  19.917  26.127  1.00  0.00     0.118 C 
BRANCH  29  30
ATOM     30  N   UNL A   1      39.946  19.187  25.926  1.00  0.00    -0.352 N 
ATOM     31  C   UNL A   1      41.244  19.636  26.039  1.00  0.00     0.251 C 
ATOM     32  H   UNL A   1      39.846  18.241  25.675  1.00  0.00     0.163 HD
ATOM     33  O   UNL A   1      42.180  18.898  25.770  1.00  0.00    -0.269 OA
BRANCH  31  34
ATOM     34  C   UNL A   1      41.498  21.031  26.465  1.00  0.00     0.039 A 
ATOM     35  C   UNL A   1      41.760  21.291  27.813  1.00  0.00     0.014 A 
ATOM     36  C   UNL A   1      41.505  22.070  25.533  1.00  0.00     0.014 A 
ATOM     37  C   UNL A   1      42.112  22.585  28.214  1.00  0.00     0.010 A 
ATOM     38  C   UNL A   1      41.907  23.345  25.924  1.00  0.00     0.010 A 
ATOM     39  C   UNL A   1      42.229  23.612  27.264  1.00  0.00    -0.014 A 
BRANCH  39  40
ATOM     40  C   UNL A   1      42.728  24.966  27.627  1.00  0.00     0.031 A 
ATOM     41  C   UNL A   1      41.796  25.976  28.236  1.00  0.00     0.074 A 
ATOM     42  C   UNL A   1      43.980  25.326  27.281  1.00  0.00     0.049 A 
ATOM     43  N   UNL A   1      41.996  27.246  28.473  1.00  0.00    -0.248 NA
ATOM     44  C   UNL A   1      40.451  25.500  28.601  1.00  0.00     0.031 C 
ATOM     45  C   UNL A   1      44.961  24.459  26.627  1.00  0.00     0.029 A 
ATOM     46  N   UNL A   1      44.628  26.534  27.391  1.00  0.00    -0.354 N 
ATOM     47  C   UNL A   1      40.794  27.733  28.972  1.00  0.00     0.074 A 
ATOM     48  C   UNL A   1      39.864  26.625  28.988  1.00  0.00     0.031 C 
ATOM     49  C   UNL A   1      46.077  25.163  26.380  1.00  0.00     0.029 A 
ATOM     50  C   UNL A   1      45.880  26.540  26.823  1.00  0.00     0.049 A 
ATOM     51  H   UNL A   1      44.231  27.319  27.834  1.00  0.00     0.167 HD
ATOM     52  C   UNL A   1      40.499  28.984  29.398  1.00  0.00     0.034 A 
ATOM     53  C   UNL A   1      46.765  27.544  26.658  1.00  0.00     0.034 A 
ATOM     54  C   UNL A   1      41.440  30.072  29.425  1.00  0.00     0.049 A 
ATOM     55  C   UNL A   1      46.424  28.917  27.173  1.00  0.00     0.074 A 
ATOM     56  C   UNL A   1      41.257  31.353  29.914  1.00  0.00     0.029 A 
ATOM     57  N   UNL A   1      42.736  30.010  28.942  1.00  0.00    -0.354 N 
ATOM     58  N   UNL A   1      45.330  29.323  27.770  1.00  0.00    -0.248 NA
ATOM     59  C   UNL A   1      47.449  29.961  27.024  1.00  0.00     0.031 C 
ATOM     60  C   UNL A   1      42.439  32.072  29.711  1.00  0.00     0.029 A 
ATOM     61  C   UNL A   1      43.366  31.229  29.118  1.00  0.00     0.049 A 
ATOM     62  H   UNL A   1      43.150  29.215  28.533  1.00  0.00     0.167 HD
ATOM     63  C   UNL A   1      45.554  30.654  28.110  1.00  0.00     0.074 A 
ATOM     64  C   UNL A   1      46.890  30.982  27.659  1.00  0.00     0.031 C 
ATOM     65  C   UNL A   1      44.722  31.524  28.732  1.00  0.00     0.034 A 
BRANCH  52  66
ATOM     66  C   UNL A   1      39.109  29.237  29.922  1.00  0.00     0.023 A 
ATOM     67  C   UNL A   1      38.787  28.862  31.242  1.00  0.00     0.012 A 
ATOM     68  C   UNL A   1      38.147  29.902  29.137  1.00  0.00     0.148 A 
ATOM     69  C   UNL A   1      37.518  29.115  31.762  1.00  0.00     0.002 A 
ATOM     70  C   UNL A   1      36.899  30.189  29.677  1.00  0.00     0.091 A 
ATOM     71  F   UNL A   1      38.465  30.232  27.878  1.00  0.00    -0.205 F 
ATOM     72  C   UNL A   1      36.579  29.787  30.985  1.00  0.00     0.022 A 
BRANCH  70  73
ATOM     73  S   UNL A   1      35.649  31.119  28.782  1.00  0.00     0.127 S 
ATOM     74  O   UNL A   1      34.915  30.050  28.105  1.00  0.00    -0.237 OA
ATOM     75  O   UNL A   1      34.913  31.772  29.865  1.00  0.00    -0.237 OA
ATOM     76  O   UNL A   1      36.377  32.030  27.909  1.00  0.00    -0.744 OA
ENDBRANCH  70  73
ENDBRANCH  52  66
BRANCH  53  77
ATOM     77  C   UNL A   1      48.088  27.274  26.028  1.00  0.00     0.023 A 
ATOM     78  C   UNL A   1      49.141  26.778  26.822  1.00  0.00     0.012 A 
ATOM     79  C   UNL A   1      48.303  27.475  24.650  1.00  0.00     0.148 A 
ATOM     80  C   UNL A   1      50.393  26.518  26.263  1.00  0.00     0.002 A 
ATOM     81  C   UNL A   1      49.535  27.163  24.090  1.00  0.00     0.091 A 
ATOM     82  F   UNL A   1      47.292  27.958  23.914  1.00  0.00    -0.205 F 
ATOM     83  C   UNL A   1      50.587  26.700  24.896  1.00  0.00     0.022 A 
BRANCH  81  84
ATOM     84  S   UNL A   1      49.837  27.244  22.320  1.00  0.00     0.127 S 
ATOM     85  O   UNL A   1      49.676  28.671  22.055  1.00  0.00    -0.237 OA
ATOM     86  O   UNL A   1      51.210  26.748  22.224  1.00  0.00    -0.237 OA
ATOM     87  O   UNL A   1      48.840  26.370  21.714  1.00  0.00    -0.744 OA
ENDBRANCH  81  84
ENDBRANCH  53  77
BRANCH  65  88
ATOM     88  C   UNL A   1      45.238  32.908  29.027  1.00  0.00     0.023 A 
ATOM     89  C   UNL A   1      45.934  33.159  30.225  1.00  0.00     0.012 A 
ATOM     90  C   UNL A   1      45.119  33.931  28.066  1.00  0.00     0.148 A 
ATOM     91  C   UNL A   1      46.487  34.416  30.471  1.00  0.00     0.002 A 
ATOM     92  C   UNL A   1      45.714  35.166  28.297  1.00  0.00     0.091 A 
ATOM     93  F   UNL A   1      44.436  33.675  26.941  1.00  0.00    -0.205 F 
ATOM     94  C   UNL A   1      46.390  35.413  29.503  1.00  0.00     0.022 A 
BRANCH  92  95
ATOM     95  S   UNL A   1      45.725  36.475  27.066  1.00  0.00     0.127 S 
ATOM     96  O   UNL A   1      44.301  36.773  26.936  1.00  0.00    -0.237 OA
ATOM     97  O   UNL A   1      46.508  37.518  27.731  1.00  0.00    -0.237 OA
ATOM     98  O   UNL A   1      46.356  35.908  25.882  1.00  0.00    -0.744 OA
ENDBRANCH  92  95
ENDBRANCH  65  88
ENDBRANCH  39  40
ENDBRANCH  31  34
ENDBRANCH  29  30
ENDBRANCH   1  29
TORSDOF 16
ENDMDL
