MODEL 1
REMARK VINA RESULT:      -8.7      0.000      0.000
REMARK SMILES CCOc1cc(OCC)cc(-c2ccc([C@@H](C)C(=O)NCCCNC(=O)c3ccc(-c4c5nc(c(-c6cccc(S(=O)(=O)[O-])c6F)c6ccc([nH]6)c(-c6cccc(S(=O)(=O)[O-])c6F)c6nc(c(-c7cccc(S(=O)(=O)[O-])c7F)c7ccc4[nH]7)C=C6)C=C5)cc3)cc2)c1
REMARK SMILES IDX 21 1 20 2 18 3 19 4 16 6 17 7 15 8 12 9 13 10 91 11 14 12
REMARK SMILES IDX 90 13 11 14 4 15 5 16 92 17 6 18 10 19 3 20 2 21 1 22 7 23
REMARK SMILES IDX 8 24 9 25 22 26 23 27 24 28 25 29 26 31 27 32 28 33 89 34
REMARK SMILES IDX 29 35 88 36 30 37 31 38 32 39 82 40 33 41 87 42 81 43 83 44
REMARK SMILES IDX 34 45 86 46 80 47 79 48 35 50 67 51 47 52 66 53 48 54 51 55
REMARK SMILES IDX 65 56 84 57 49 58 50 59 64 61 85 62 52 63 36 64 37 65 45 66
REMARK SMILES IDX 38 67 40 68 46 69 39 70 41 71 42 72 43 73 44 74 68 75 69 76
REMARK SMILES IDX 77 77 70 78 72 79 78 80 71 81 73 82 74 83 75 84 76 85 53 86
REMARK SMILES IDX 54 87 62 88 55 89 57 90 63 91 56 92 58 93 59 94 60 95 61 96
REMARK H PARENT 20 5 24 30 83 49 51 60
REMARK Flexibility Score: inf
ROOT
ATOM      1  C   UNL A   1      43.151  24.284  25.487  1.00  0.00     0.117 C 
ENDROOT
BRANCH   1   2
ATOM      2  N   UNL A   1      44.419  24.645  24.885  1.00  0.00    -0.356 N 
ATOM      3  C   UNL A   1      45.702  24.287  25.163  1.00  0.00     0.227 C 
ATOM      4  O   UNL A   1      46.575  24.797  24.448  1.00  0.00    -0.274 OA
ATOM      5  H   UNL A   1      44.336  25.270  24.129  1.00  0.00     0.163 HD
BRANCH   3   6
ATOM      6  C   UNL A   1      46.109  23.301  26.270  1.00  0.00     0.105 C 
ATOM      7  C   UNL A   1      45.698  21.851  26.021  1.00  0.00     0.023 C 
BRANCH   6   8
ATOM      8  C   UNL A   1      45.830  23.813  27.670  1.00  0.00    -0.036 A 
ATOM      9  C   UNL A   1      45.275  24.894  30.246  1.00  0.00    -0.018 A 
ATOM     10  C   UNL A   1      44.455  23.918  29.664  1.00  0.00     0.009 A 
ATOM     11  C   UNL A   1      46.389  25.318  29.510  1.00  0.00     0.009 A 
ATOM     12  C   UNL A   1      44.754  23.353  28.427  1.00  0.00     0.005 A 
ATOM     13  C   UNL A   1      46.650  24.803  28.233  1.00  0.00     0.005 A 
BRANCH   9  14
ATOM     14  C   UNL A   1      44.957  25.421  31.588  1.00  0.00    -0.011 A 
ATOM     15  C   UNL A   1      45.227  25.445  34.003  1.00  0.00     0.123 A 
ATOM     16  C   UNL A   1      44.403  26.567  34.103  1.00  0.00     0.092 A 
ATOM     17  C   UNL A   1      45.492  24.873  32.758  1.00  0.00     0.055 A 
ATOM     18  C   UNL A   1      43.823  27.110  32.957  1.00  0.00     0.123 A 
ATOM     19  C   UNL A   1      44.094  26.523  31.722  1.00  0.00     0.055 A 
BRANCH  15  20
ATOM     20  O   UNL A   1      45.648  24.832  35.152  1.00  0.00    -0.494 OA
BRANCH  20  21
ATOM     21  C   UNL A   1      45.337  25.565  36.344  1.00  0.00     0.226 C 
ATOM     22  C   UNL A   1      44.662  24.681  37.385  1.00  0.00     0.049 C 
ENDBRANCH  20  21
ENDBRANCH  15  20
BRANCH  18  23
ATOM     23  O   UNL A   1      43.017  28.199  33.142  1.00  0.00    -0.494 OA
BRANCH  23  24
ATOM     24  C   UNL A   1      43.617  29.468  33.400  1.00  0.00     0.226 C 
ATOM     25  C   UNL A   1      42.598  30.599  33.464  1.00  0.00     0.049 C 
ENDBRANCH  23  24
ENDBRANCH  18  23
ENDBRANCH   9  14
ENDBRANCH   6   8
ENDBRANCH   3   6
ENDBRANCH   1   2
BRANCH   1  26
ATOM     26  C   UNL A   1      42.679  22.889  25.081  1.00  0.00     0.042 C 
BRANCH  26  27
ATOM     27  C   UNL A   1      41.872  22.170  26.153  1.00  0.00     0.118 C 
BRANCH  27  28
ATOM     28  N   UNL A   1      40.442  22.189  25.870  1.00  0.00    -0.352 N 
ATOM     29  C   UNL A   1      39.470  23.088  26.236  1.00  0.00     0.251 C 
ATOM     30  H   UNL A   1      40.120  21.434  25.327  1.00  0.00     0.163 HD
ATOM     31  O   UNL A   1      38.290  22.785  26.070  1.00  0.00    -0.269 OA
BRANCH  29  32
ATOM     32  C   UNL A   1      39.819  24.402  26.826  1.00  0.00     0.039 A 
ATOM     33  C   UNL A   1      39.837  24.531  28.219  1.00  0.00     0.014 A 
ATOM     34  C   UNL A   1      40.072  25.518  26.025  1.00  0.00     0.014 A 
ATOM     35  C   UNL A   1      40.154  25.761  28.803  1.00  0.00     0.010 A 
ATOM     36  C   UNL A   1      40.473  26.718  26.606  1.00  0.00     0.010 A 
ATOM     37  C   UNL A   1      40.502  26.859  28.001  1.00  0.00    -0.014 A 
BRANCH  37  38
ATOM     38  C   UNL A   1      40.893  28.163  28.599  1.00  0.00     0.031 A 
ATOM     39  C   UNL A   1      42.346  28.497  28.812  1.00  0.00     0.074 A 
ATOM     40  C   UNL A   1      39.937  29.011  29.025  1.00  0.00     0.049 A 
ATOM     41  N   UNL A   1      42.876  29.552  29.376  1.00  0.00    -0.248 NA
ATOM     42  C   UNL A   1      43.333  27.503  28.359  1.00  0.00     0.031 C 
ATOM     43  C   UNL A   1      38.495  28.770  28.948  1.00  0.00     0.029 A 
ATOM     44  N   UNL A   1      40.034  30.237  29.636  1.00  0.00    -0.354 N 
ATOM     45  C   UNL A   1      44.249  29.332  29.380  1.00  0.00     0.074 A 
ATOM     46  C   UNL A   1      44.468  28.028  28.795  1.00  0.00     0.031 C 
ATOM     47  C   UNL A   1      37.843  29.814  29.483  1.00  0.00     0.029 A 
ATOM     48  C   UNL A   1      38.817  30.785  29.971  1.00  0.00     0.049 A 
ATOM     49  H   UNL A   1      40.894  30.683  29.817  1.00  0.00     0.167 HD
ATOM     50  C   UNL A   1      45.240  30.153  29.804  1.00  0.00     0.034 A 
ATOM     51  C   UNL A   1      38.520  31.934  30.607  1.00  0.00     0.034 A 
ATOM     52  C   UNL A   1      45.020  31.468  30.342  1.00  0.00     0.049 A 
ATOM     53  C   UNL A   1      39.638  32.846  31.032  1.00  0.00     0.074 A 
ATOM     54  C   UNL A   1      45.958  32.412  30.718  1.00  0.00     0.029 A 
ATOM     55  N   UNL A   1      43.774  32.025  30.586  1.00  0.00    -0.354 N 
ATOM     56  N   UNL A   1      40.931  32.687  30.889  1.00  0.00    -0.248 NA
ATOM     57  C   UNL A   1      39.257  34.112  31.673  1.00  0.00     0.031 C 
ATOM     58  C   UNL A   1      45.279  33.530  31.212  1.00  0.00     0.029 A 
ATOM     59  C   UNL A   1      43.917  33.294  31.116  1.00  0.00     0.049 A 
ATOM     60  H   UNL A   1      42.913  31.580  30.409  1.00  0.00     0.167 HD
ATOM     61  C   UNL A   1      41.516  33.845  31.386  1.00  0.00     0.074 A 
ATOM     62  C   UNL A   1      40.433  34.707  31.817  1.00  0.00     0.031 C 
ATOM     63  C   UNL A   1      42.830  34.163  31.491  1.00  0.00     0.034 A 
BRANCH  50  64
ATOM     64  C   UNL A   1      46.661  29.674  29.650  1.00  0.00     0.023 A 
ATOM     65  C   UNL A   1      47.271  28.957  30.701  1.00  0.00     0.012 A 
ATOM     66  C   UNL A   1      47.374  29.880  28.454  1.00  0.00     0.148 A 
ATOM     67  C   UNL A   1      48.578  28.488  30.579  1.00  0.00     0.002 A 
ATOM     68  C   UNL A   1      48.661  29.369  28.321  1.00  0.00     0.091 A 
ATOM     69  F   UNL A   1      46.788  30.580  27.472  1.00  0.00    -0.205 F 
ATOM     70  C   UNL A   1      49.268  28.685  29.387  1.00  0.00     0.022 A 
BRANCH  68  71
ATOM     71  S   UNL A   1      49.604  29.498  26.798  1.00  0.00     0.127 S 
ATOM     72  O   UNL A   1      50.794  28.712  27.121  1.00  0.00    -0.237 OA
ATOM     73  O   UNL A   1      48.706  28.873  25.827  1.00  0.00    -0.237 OA
ATOM     74  O   UNL A   1      49.833  30.920  26.585  1.00  0.00    -0.744 OA
ENDBRANCH  68  71
ENDBRANCH  50  64
BRANCH  51  75
ATOM     75  C   UNL A   1      37.096  32.317  30.823  1.00  0.00     0.023 A 
ATOM     76  C   UNL A   1      36.527  32.167  32.102  1.00  0.00     0.012 A 
ATOM     77  C   UNL A   1      36.316  32.856  29.782  1.00  0.00     0.148 A 
ATOM     78  C   UNL A   1      35.196  32.517  32.335  1.00  0.00     0.002 A 
ATOM     79  C   UNL A   1      35.008  33.255  30.034  1.00  0.00     0.091 A 
ATOM     80  F   UNL A   1      36.876  32.983  28.571  1.00  0.00    -0.205 F 
ATOM     81  C   UNL A   1      34.441  33.069  31.304  1.00  0.00     0.022 A 
BRANCH  79  82
ATOM     82  S   UNL A   1      34.001  34.098  28.808  1.00  0.00     0.127 S 
ATOM     83  O   UNL A   1      33.702  33.016  27.876  1.00  0.00    -0.237 OA
ATOM     84  O   UNL A   1      32.869  34.549  29.618  1.00  0.00    -0.237 OA
ATOM     85  O   UNL A   1      34.841  35.168  28.283  1.00  0.00    -0.744 OA
ENDBRANCH  79  82
ENDBRANCH  51  75
BRANCH  63  86
ATOM     86  C   UNL A   1      43.180  35.513  32.058  1.00  0.00     0.023 A 
ATOM     87  C   UNL A   1      43.233  35.697  33.453  1.00  0.00     0.012 A 
ATOM     88  C   UNL A   1      43.530  36.579  31.205  1.00  0.00     0.148 A 
ATOM     89  C   UNL A   1      43.597  36.931  33.991  1.00  0.00     0.002 A 
ATOM     90  C   UNL A   1      43.941  37.790  31.748  1.00  0.00     0.091 A 
ATOM     91  F   UNL A   1      43.455  36.389  29.879  1.00  0.00    -0.205 F 
ATOM     92  C   UNL A   1      43.962  37.972  33.141  1.00  0.00     0.022 A 
BRANCH  90  93
ATOM     93  S   UNL A   1      44.523  39.152  30.733  1.00  0.00     0.127 S 
ATOM     94  O   UNL A   1      43.684  39.018  29.544  1.00  0.00    -0.237 OA
ATOM     95  O   UNL A   1      44.214  40.315  31.568  1.00  0.00    -0.237 OA
ATOM     96  O   UNL A   1      45.946  38.919  30.525  1.00  0.00    -0.744 OA
ENDBRANCH  90  93
ENDBRANCH  63  86
ENDBRANCH  37  38
ENDBRANCH  29  32
ENDBRANCH  27  28
ENDBRANCH  26  27
ENDBRANCH   1  26
TORSDOF 19
ENDMDL
MODEL 2
REMARK VINA RESULT:      -8.3      1.187      7.721
REMARK SMILES CCOc1cc(OCC)cc(-c2ccc([C@@H](C)C(=O)NCCCNC(=O)c3ccc(-c4c5nc(c(-c6cccc(S(=O)(=O)[O-])c6F)c6ccc([nH]6)c(-c6cccc(S(=O)(=O)[O-])c6F)c6nc(c(-c7cccc(S(=O)(=O)[O-])c7F)c7ccc4[nH]7)C=C6)C=C5)cc3)cc2)c1
REMARK SMILES IDX 21 1 20 2 18 3 19 4 16 6 17 7 15 8 12 9 13 10 91 11 14 12
REMARK SMILES IDX 90 13 11 14 4 15 5 16 92 17 6 18 10 19 3 20 2 21 1 22 7 23
REMARK SMILES IDX 8 24 9 25 22 26 23 27 24 28 25 29 26 31 27 32 28 33 89 34
REMARK SMILES IDX 29 35 88 36 30 37 31 38 32 39 82 40 33 41 87 42 81 43 83 44
REMARK SMILES IDX 34 45 86 46 80 47 79 48 35 50 67 51 47 52 66 53 48 54 51 55
REMARK SMILES IDX 65 56 84 57 49 58 50 59 64 61 85 62 52 63 36 64 37 65 45 66
REMARK SMILES IDX 38 67 40 68 46 69 39 70 41 71 42 72 43 73 44 74 68 75 69 76
REMARK SMILES IDX 77 77 70 78 72 79 78 80 71 81 73 82 74 83 75 84 76 85 53 86
REMARK SMILES IDX 54 87 62 88 55 89 57 90 63 91 56 92 58 93 59 94 60 95 61 96
REMARK H PARENT 20 5 24 30 83 49 51 60
REMARK Flexibility Score: inf
ROOT
ATOM      1  C   UNL A   1      43.573  24.822  25.423  1.00  0.00     0.117 C 
ENDROOT
BRANCH   1   2
ATOM      2  N   UNL A   1      44.892  25.175  24.935  1.00  0.00    -0.356 N 
ATOM      3  C   UNL A   1      46.140  24.746  25.271  1.00  0.00     0.227 C 
ATOM      4  O   UNL A   1      47.077  25.271  24.657  1.00  0.00    -0.274 OA
ATOM      5  H   UNL A   1      44.884  25.856  24.225  1.00  0.00     0.163 HD
BRANCH   3   6
ATOM      6  C   UNL A   1      46.433  23.666  26.324  1.00  0.00     0.105 C 
ATOM      7  C   UNL A   1      46.044  22.246  25.915  1.00  0.00     0.023 C 
BRANCH   6   8
ATOM      8  C   UNL A   1      46.021  24.061  27.729  1.00  0.00    -0.036 A 
ATOM      9  C   UNL A   1      45.214  24.926  30.320  1.00  0.00    -0.018 A 
ATOM     10  C   UNL A   1      44.494  23.956  29.608  1.00  0.00     0.009 A 
ATOM     11  C   UNL A   1      46.356  25.454  29.706  1.00  0.00     0.009 A 
ATOM     12  C   UNL A   1      44.917  23.496  28.363  1.00  0.00     0.005 A 
ATOM     13  C   UNL A   1      46.741  25.046  28.421  1.00  0.00     0.005 A 
BRANCH   9  14
ATOM     14  C   UNL A   1      44.766  25.338  31.665  1.00  0.00    -0.011 A 
ATOM     15  C   UNL A   1      43.852  26.973  33.214  1.00  0.00     0.123 A 
ATOM     16  C   UNL A   1      43.800  26.013  34.225  1.00  0.00     0.092 A 
ATOM     17  C   UNL A   1      44.339  26.639  31.948  1.00  0.00     0.055 A 
ATOM     18  C   UNL A   1      44.257  24.718  33.982  1.00  0.00     0.123 A 
ATOM     19  C   UNL A   1      44.746  24.404  32.715  1.00  0.00     0.055 A 
BRANCH  15  20
ATOM     20  O   UNL A   1      43.556  28.273  33.522  1.00  0.00    -0.494 OA
BRANCH  20  21
ATOM     21  C   UNL A   1      43.886  29.202  32.482  1.00  0.00     0.226 C 
ATOM     22  C   UNL A   1      45.026  30.124  32.895  1.00  0.00     0.049 C 
ENDBRANCH  20  21
ENDBRANCH  15  20
BRANCH  18  23
ATOM     23  O   UNL A   1      44.187  23.842  35.029  1.00  0.00    -0.494 OA
BRANCH  23  24
ATOM     24  C   UNL A   1      43.905  24.346  36.335  1.00  0.00     0.226 C 
ATOM     25  C   UNL A   1      45.109  24.277  37.265  1.00  0.00     0.049 C 
ENDBRANCH  23  24
ENDBRANCH  18  23
ENDBRANCH   9  14
ENDBRANCH   6   8
ENDBRANCH   3   6
ENDBRANCH   1   2
BRANCH   1  26
ATOM     26  C   UNL A   1      42.991  23.598  24.718  1.00  0.00     0.042 C 
BRANCH  26  27
ATOM     27  C   UNL A   1      42.595  22.469  25.660  1.00  0.00     0.118 C 
BRANCH  27  28
ATOM     28  N   UNL A   1      41.149  22.312  25.753  1.00  0.00    -0.352 N 
ATOM     29  C   UNL A   1      40.210  23.055  26.425  1.00  0.00     0.251 C 
ATOM     30  H   UNL A   1      40.785  21.547  25.251  1.00  0.00     0.163 HD
ATOM     31  O   UNL A   1      39.072  22.606  26.542  1.00  0.00    -0.269 OA
BRANCH  29  32
ATOM     32  C   UNL A   1      40.547  24.374  27.011  1.00  0.00     0.039 A 
ATOM     33  C   UNL A   1      41.126  24.417  28.284  1.00  0.00     0.014 A 
ATOM     34  C   UNL A   1      40.248  25.566  26.348  1.00  0.00     0.014 A 
ATOM     35  C   UNL A   1      41.447  25.648  28.865  1.00  0.00     0.010 A 
ATOM     36  C   UNL A   1      40.647  26.785  26.888  1.00  0.00     0.010 A 
ATOM     37  C   UNL A   1      41.235  26.842  28.159  1.00  0.00    -0.014 A 
BRANCH  37  38
ATOM     38  C   UNL A   1      41.614  28.160  28.734  1.00  0.00     0.031 A 
ATOM     39  C   UNL A   1      40.556  29.091  29.264  1.00  0.00     0.074 A 
ATOM     40  C   UNL A   1      42.903  28.553  28.703  1.00  0.00     0.049 A 
ATOM     41  N   UNL A   1      40.686  30.302  29.742  1.00  0.00    -0.248 NA
ATOM     42  C   UNL A   1      39.164  28.611  29.227  1.00  0.00     0.031 C 
ATOM     43  C   UNL A   1      44.012  27.776  28.144  1.00  0.00     0.029 A 
ATOM     44  N   UNL A   1      43.496  29.718  29.125  1.00  0.00    -0.354 N 
ATOM     45  C   UNL A   1      39.397  30.741  30.024  1.00  0.00     0.074 A 
ATOM     46  C   UNL A   1      38.496  29.680  29.631  1.00  0.00     0.031 C 
ATOM     47  C   UNL A   1      45.148  28.480  28.264  1.00  0.00     0.029 A 
ATOM     48  C   UNL A   1      44.848  29.771  28.877  1.00  0.00     0.049 A 
ATOM     49  H   UNL A   1      42.999  30.446  29.566  1.00  0.00     0.167 HD
ATOM     50  C   UNL A   1      39.001  31.907  30.587  1.00  0.00     0.034 A 
ATOM     51  C   UNL A   1      45.742  30.751  29.108  1.00  0.00     0.034 A 
ATOM     52  C   UNL A   1      39.904  32.940  31.018  1.00  0.00     0.049 A 
ATOM     53  C   UNL A   1      45.282  32.020  29.770  1.00  0.00     0.074 A 
ATOM     54  C   UNL A   1      39.609  34.119  31.679  1.00  0.00     0.029 A 
ATOM     55  N   UNL A   1      41.276  32.920  30.829  1.00  0.00    -0.354 N 
ATOM     56  N   UNL A   1      44.079  32.353  30.168  1.00  0.00    -0.248 NA
ATOM     57  C   UNL A   1      46.309  33.034  30.048  1.00  0.00     0.031 C 
ATOM     58  C   UNL A   1      40.803  34.824  31.866  1.00  0.00     0.029 A 
ATOM     59  C   UNL A   1      41.844  34.069  31.350  1.00  0.00     0.049 A 
ATOM     60  H   UNL A   1      41.775  32.195  30.387  1.00  0.00     0.167 HD
ATOM     61  C   UNL A   1      44.208  33.596  30.776  1.00  0.00     0.074 A 
ATOM     62  C   UNL A   1      45.612  33.948  30.712  1.00  0.00     0.031 C 
ATOM     63  C   UNL A   1      43.250  34.383  31.326  1.00  0.00     0.034 A 
BRANCH  50  64
ATOM     64  C   UNL A   1      37.525  32.107  30.821  1.00  0.00     0.023 A 
ATOM     65  C   UNL A   1      36.958  31.726  32.055  1.00  0.00     0.012 A 
ATOM     66  C   UNL A   1      36.710  32.719  29.849  1.00  0.00     0.148 A 
ATOM     67  C   UNL A   1      35.600  31.915  32.304  1.00  0.00     0.002 A 
ATOM     68  C   UNL A   1      35.365  32.947  30.123  1.00  0.00     0.091 A 
ATOM     69  F   UNL A   1      37.259  33.058  28.674  1.00  0.00    -0.205 F 
ATOM     70  C   UNL A   1      34.806  32.534  31.343  1.00  0.00     0.022 A 
BRANCH  68  71
ATOM     71  S   UNL A   1      34.276  33.810  28.984  1.00  0.00     0.127 S 
ATOM     72  O   UNL A   1      33.211  34.260  29.878  1.00  0.00    -0.237 OA
ATOM     73  O   UNL A   1      35.142  34.878  28.481  1.00  0.00    -0.237 OA
ATOM     74  O   UNL A   1      33.880  32.829  27.983  1.00  0.00    -0.744 OA
ENDBRANCH  68  71
ENDBRANCH  50  64
BRANCH  51  75
ATOM     75  C   UNL A   1      47.178  30.541  28.767  1.00  0.00     0.023 A 
ATOM     76  C   UNL A   1      47.673  31.022  27.539  1.00  0.00     0.012 A 
ATOM     77  C   UNL A   1      48.058  29.902  29.661  1.00  0.00     0.148 A 
ATOM     78  C   UNL A   1      49.012  30.841  27.192  1.00  0.00     0.002 A 
ATOM     79  C   UNL A   1      49.403  29.774  29.333  1.00  0.00     0.091 A 
ATOM     80  F   UNL A   1      47.563  29.445  30.820  1.00  0.00    -0.205 F 
ATOM     81  C   UNL A   1      49.878  30.227  28.092  1.00  0.00     0.022 A 
BRANCH  79  82
ATOM     82  S   UNL A   1      50.619  29.118  30.481  1.00  0.00     0.127 S 
ATOM     83  O   UNL A   1      50.835  30.258  31.366  1.00  0.00    -0.237 OA
ATOM     84  O   UNL A   1      49.888  28.000  31.077  1.00  0.00    -0.237 OA
ATOM     85  O   UNL A   1      51.761  28.733  29.661  1.00  0.00    -0.744 OA
ENDBRANCH  79  82
ENDBRANCH  51  75
BRANCH  63  86
ATOM     86  C   UNL A   1      43.684  35.687  31.940  1.00  0.00     0.023 A 
ATOM     87  C   UNL A   1      44.024  35.741  33.306  1.00  0.00     0.012 A 
ATOM     88  C   UNL A   1      43.828  36.842  31.145  1.00  0.00     0.148 A 
ATOM     89  C   UNL A   1      44.469  36.932  33.879  1.00  0.00     0.002 A 
ATOM     90  C   UNL A   1      44.319  38.011  31.712  1.00  0.00     0.091 A 
ATOM     91  F   UNL A   1      43.481  36.775  29.851  1.00  0.00    -0.205 F 
ATOM     92  C   UNL A   1      44.628  38.062  33.081  1.00  0.00     0.022 A 
BRANCH  90  93
ATOM     93  S   UNL A   1      44.649  39.486  30.741  1.00  0.00     0.127 S 
ATOM     94  O   UNL A   1      45.220  38.918  29.521  1.00  0.00    -0.237 OA
ATOM     95  O   UNL A   1      43.311  40.057  30.579  1.00  0.00    -0.237 OA
ATOM     96  O   UNL A   1      45.560  40.297  31.539  1.00  0.00    -0.744 OA
ENDBRANCH  90  93
ENDBRANCH  63  86
ENDBRANCH  37  38
ENDBRANCH  29  32
ENDBRANCH  27  28
ENDBRANCH  26  27
ENDBRANCH   1  26
TORSDOF 19
ENDMDL
MODEL 3
REMARK VINA RESULT:      -8.1      3.502      7.378
REMARK SMILES CCOc1cc(OCC)cc(-c2ccc([C@@H](C)C(=O)NCCCNC(=O)c3ccc(-c4c5nc(c(-c6cccc(S(=O)(=O)[O-])c6F)c6ccc([nH]6)c(-c6cccc(S(=O)(=O)[O-])c6F)c6nc(c(-c7cccc(S(=O)(=O)[O-])c7F)c7ccc4[nH]7)C=C6)C=C5)cc3)cc2)c1
REMARK SMILES IDX 21 1 20 2 18 3 19 4 16 6 17 7 15 8 12 9 13 10 91 11 14 12
REMARK SMILES IDX 90 13 11 14 4 15 5 16 92 17 6 18 10 19 3 20 2 21 1 22 7 23
REMARK SMILES IDX 8 24 9 25 22 26 23 27 24 28 25 29 26 31 27 32 28 33 89 34
REMARK SMILES IDX 29 35 88 36 30 37 31 38 32 39 82 40 33 41 87 42 81 43 83 44
REMARK SMILES IDX 34 45 86 46 80 47 79 48 35 50 67 51 47 52 66 53 48 54 51 55
REMARK SMILES IDX 65 56 84 57 49 58 50 59 64 61 85 62 52 63 36 64 37 65 45 66
REMARK SMILES IDX 38 67 40 68 46 69 39 70 41 71 42 72 43 73 44 74 68 75 69 76
REMARK SMILES IDX 77 77 70 78 72 79 78 80 71 81 73 82 74 83 75 84 76 85 53 86
REMARK SMILES IDX 54 87 62 88 55 89 57 90 63 91 56 92 58 93 59 94 60 95 61 96
REMARK H PARENT 20 5 24 30 83 49 51 60
REMARK Flexibility Score: inf
ROOT
ATOM      1  C   UNL A   1      45.655  22.795  26.494  1.00  0.00     0.117 C 
ENDROOT
BRANCH   1   2
ATOM      2  N   UNL A   1      44.434  22.251  27.054  1.00  0.00    -0.356 N 
ATOM      3  C   UNL A   1      43.121  22.556  26.863  1.00  0.00     0.227 C 
ATOM      4  O   UNL A   1      42.309  21.893  27.522  1.00  0.00    -0.274 OA
ATOM      5  H   UNL A   1      44.582  21.520  27.696  1.00  0.00     0.163 HD
BRANCH   3   6
ATOM      6  C   UNL A   1      42.611  23.632  25.892  1.00  0.00     0.105 C 
ATOM      7  C   UNL A   1      43.572  23.980  24.757  1.00  0.00     0.023 C 
BRANCH   6   8
ATOM      8  C   UNL A   1      41.982  24.826  26.585  1.00  0.00    -0.036 A 
ATOM      9  C   UNL A   1      40.682  27.026  27.843  1.00  0.00    -0.018 A 
ATOM     10  C   UNL A   1      41.276  25.996  28.587  1.00  0.00     0.009 A 
ATOM     11  C   UNL A   1      40.757  26.933  26.447  1.00  0.00     0.009 A 
ATOM     12  C   UNL A   1      41.956  24.947  27.973  1.00  0.00     0.005 A 
ATOM     13  C   UNL A   1      41.377  25.839  25.827  1.00  0.00     0.005 A 
BRANCH   9  14
ATOM     14  C   UNL A   1      40.027  28.153  28.535  1.00  0.00    -0.011 A 
ATOM     15  C   UNL A   1      38.353  29.910  28.663  1.00  0.00     0.123 A 
ATOM     16  C   UNL A   1      38.735  30.205  29.973  1.00  0.00     0.092 A 
ATOM     17  C   UNL A   1      39.000  28.900  27.949  1.00  0.00     0.055 A 
ATOM     18  C   UNL A   1      39.783  29.503  30.568  1.00  0.00     0.123 A 
ATOM     19  C   UNL A   1      40.422  28.502  29.839  1.00  0.00     0.055 A 
BRANCH  15  20
ATOM     20  O   UNL A   1      37.439  30.720  28.045  1.00  0.00    -0.494 OA
BRANCH  20  21
ATOM     21  C   UNL A   1      36.109  30.587  28.561  1.00  0.00     0.226 C 
ATOM     22  C   UNL A   1      35.202  29.844  27.588  1.00  0.00     0.049 C 
ENDBRANCH  20  21
ENDBRANCH  15  20
BRANCH  18  23
ATOM     23  O   UNL A   1      40.107  29.862  31.846  1.00  0.00    -0.494 OA
BRANCH  23  24
ATOM     24  C   UNL A   1      39.267  30.787  32.539  1.00  0.00     0.226 C 
ATOM     25  C   UNL A   1      38.621  30.181  33.777  1.00  0.00     0.049 C 
ENDBRANCH  23  24
ENDBRANCH  18  23
ENDBRANCH   9  14
ENDBRANCH   6   8
ENDBRANCH   3   6
ENDBRANCH   1   2
BRANCH   1  26
ATOM     26  C   UNL A   1      46.174  24.003  27.273  1.00  0.00     0.042 C 
BRANCH  26  27
ATOM     27  C   UNL A   1      47.533  24.507  26.803  1.00  0.00     0.118 C 
BRANCH  27  28
ATOM     28  N   UNL A   1      47.435  25.294  25.581  1.00  0.00    -0.352 N 
ATOM     29  C   UNL A   1      46.752  26.456  25.317  1.00  0.00     0.251 C 
ATOM     30  H   UNL A   1      47.944  24.935  24.818  1.00  0.00     0.163 HD
ATOM     31  O   UNL A   1      46.636  26.823  24.150  1.00  0.00    -0.269 OA
BRANCH  29  32
ATOM     32  C   UNL A   1      46.154  27.262  26.408  1.00  0.00     0.039 A 
ATOM     33  C   UNL A   1      44.761  27.297  26.532  1.00  0.00     0.014 A 
ATOM     34  C   UNL A   1      46.944  28.026  27.270  1.00  0.00     0.014 A 
ATOM     35  C   UNL A   1      44.169  28.056  27.546  1.00  0.00     0.010 A 
ATOM     36  C   UNL A   1      46.360  28.709  28.332  1.00  0.00     0.010 A 
ATOM     37  C   UNL A   1      44.965  28.747  28.473  1.00  0.00    -0.014 A 
BRANCH  37  38
ATOM     38  C   UNL A   1      44.361  29.519  29.590  1.00  0.00     0.031 A 
ATOM     39  C   UNL A   1      44.022  28.838  30.890  1.00  0.00     0.074 A 
ATOM     40  C   UNL A   1      44.042  30.816  29.407  1.00  0.00     0.049 A 
ATOM     41  N   UNL A   1      43.434  29.329  31.950  1.00  0.00    -0.248 NA
ATOM     42  C   UNL A   1      44.361  27.409  31.004  1.00  0.00     0.031 C 
ATOM     43  C   UNL A   1      44.248  31.571  28.169  1.00  0.00     0.029 A 
ATOM     44  N   UNL A   1      43.451  31.722  30.252  1.00  0.00    -0.354 N 
ATOM     45  C   UNL A   1      43.298  28.266  32.837  1.00  0.00     0.074 A 
ATOM     46  C   UNL A   1      43.832  27.096  32.177  1.00  0.00     0.031 C 
ATOM     47  C   UNL A   1      43.798  32.824  28.336  1.00  0.00     0.029 A 
ATOM     48  C   UNL A   1      43.242  32.956  29.679  1.00  0.00     0.049 A 
ATOM     49  H   UNL A   1      43.201  31.509  31.181  1.00  0.00     0.167 HD
ATOM     50  C   UNL A   1      42.801  28.269  34.097  1.00  0.00     0.034 A 
ATOM     51  C   UNL A   1      42.660  34.064  30.176  1.00  0.00     0.034 A 
ATOM     52  C   UNL A   1      42.313  29.444  34.767  1.00  0.00     0.049 A 
ATOM     53  C   UNL A   1      42.153  34.051  31.592  1.00  0.00     0.074 A 
ATOM     54  C   UNL A   1      41.872  29.570  36.072  1.00  0.00     0.029 A 
ATOM     55  N   UNL A   1      42.197  30.696  34.183  1.00  0.00    -0.354 N 
ATOM     56  N   UNL A   1      42.173  33.076  32.467  1.00  0.00    -0.248 NA
ATOM     57  C   UNL A   1      41.577  35.304  32.103  1.00  0.00     0.031 C 
ATOM     58  C   UNL A   1      41.466  30.894  36.269  1.00  0.00     0.029 A 
ATOM     59  C   UNL A   1      41.683  31.599  35.097  1.00  0.00     0.049 A 
ATOM     60  H   UNL A   1      42.444  30.911  33.254  1.00  0.00     0.167 HD
ATOM     61  C   UNL A   1      41.647  33.604  33.640  1.00  0.00     0.074 A 
ATOM     62  C   UNL A   1      41.337  34.994  33.370  1.00  0.00     0.031 C 
ATOM     63  C   UNL A   1      41.428  32.992  34.830  1.00  0.00     0.034 A 
BRANCH  50  64
ATOM     64  C   UNL A   1      42.813  26.968  34.858  1.00  0.00     0.023 A 
ATOM     65  C   UNL A   1      41.632  26.201  34.942  1.00  0.00     0.012 A 
ATOM     66  C   UNL A   1      43.996  26.475  35.441  1.00  0.00     0.148 A 
ATOM     67  C   UNL A   1      41.619  24.985  35.625  1.00  0.00     0.002 A 
ATOM     68  C   UNL A   1      43.987  25.240  36.081  1.00  0.00     0.091 A 
ATOM     69  F   UNL A   1      45.105  27.225  35.370  1.00  0.00    -0.205 F 
ATOM     70  C   UNL A   1      42.797  24.501  36.185  1.00  0.00     0.022 A 
BRANCH  68  71
ATOM     71  S   UNL A   1      45.470  24.490  36.764  1.00  0.00     0.127 S 
ATOM     72  O   UNL A   1      44.958  23.205  37.237  1.00  0.00    -0.237 OA
ATOM     73  O   UNL A   1      46.339  24.405  35.591  1.00  0.00    -0.237 OA
ATOM     74  O   UNL A   1      45.938  25.397  37.802  1.00  0.00    -0.744 OA
ENDBRANCH  68  71
ENDBRANCH  50  64
BRANCH  51  75
ATOM     75  C   UNL A   1      42.585  35.300  29.346  1.00  0.00     0.023 A 
ATOM     76  C   UNL A   1      41.521  35.457  28.438  1.00  0.00     0.012 A 
ATOM     77  C   UNL A   1      43.539  36.327  29.474  1.00  0.00     0.148 A 
ATOM     78  C   UNL A   1      41.424  36.603  27.647  1.00  0.00     0.002 A 
ATOM     79  C   UNL A   1      43.405  37.491  28.724  1.00  0.00     0.091 A 
ATOM     80  F   UNL A   1      44.547  36.152  30.339  1.00  0.00    -0.205 F 
ATOM     81  C   UNL A   1      42.359  37.622  27.798  1.00  0.00     0.022 A 
BRANCH  79  82
ATOM     82  S   UNL A   1      44.482  38.912  28.944  1.00  0.00     0.127 S 
ATOM     83  O   UNL A   1      44.346  39.167  30.375  1.00  0.00    -0.237 OA
ATOM     84  O   UNL A   1      45.776  38.367  28.532  1.00  0.00    -0.237 OA
ATOM     85  O   UNL A   1      43.948  39.945  28.066  1.00  0.00    -0.744 OA
ENDBRANCH  79  82
ENDBRANCH  51  75
BRANCH  63  86
ATOM     86  C   UNL A   1      40.860  33.824  35.950  1.00  0.00     0.023 A 
ATOM     87  C   UNL A   1      39.467  33.865  36.157  1.00  0.00     0.012 A 
ATOM     88  C   UNL A   1      41.713  34.503  36.842  1.00  0.00     0.148 A 
ATOM     89  C   UNL A   1      38.931  34.597  37.216  1.00  0.00     0.002 A 
ATOM     90  C   UNL A   1      41.175  35.188  37.924  1.00  0.00     0.091 A 
ATOM     91  F   UNL A   1      43.035  34.467  36.616  1.00  0.00    -0.205 F 
ATOM     92  C   UNL A   1      39.783  35.247  38.105  1.00  0.00     0.022 A 
BRANCH  90  93
ATOM     93  S   UNL A   1      42.199  35.971  39.174  1.00  0.00     0.127 S 
ATOM     94  O   UNL A   1      41.272  36.073  40.299  1.00  0.00    -0.237 OA
ATOM     95  O   UNL A   1      43.272  34.992  39.355  1.00  0.00    -0.237 OA
ATOM     96  O   UNL A   1      42.630  37.241  38.602  1.00  0.00    -0.744 OA
ENDBRANCH  90  93
ENDBRANCH  63  86
ENDBRANCH  37  38
ENDBRANCH  29  32
ENDBRANCH  27  28
ENDBRANCH  26  27
ENDBRANCH   1  26
TORSDOF 19
ENDMDL
