MODEL 1
REMARK VINA RESULT:     -11.0      0.000      0.000
REMARK SMILES CCC[C@H](Nc1cc(C)c(N)c(C(=O)NCCCNC(=O)c2ccc(-c3c4nc(c(-c5cccc(S(=O)(=O)[O-])c5F)c5ccc([nH]5)c(-c5cccc(S(=O)(=O)[O-])c5F)c5nc(c(-c6cccc(S(=O)(=O)[O-])c6F)c6ccc3[nH]6)C=C5)C=C4)cc2)c1)c1cccs1
REMARK SMILES IDX 16 1 15 2 13 3 14 4 12 6 6 7 7 8 85 9 8 10 9 11 10 12 5 13
REMARK SMILES IDX 4 15 3 16 2 17 1 18 86 19 87 20 90 21 88 22 89 23 11 24
REMARK SMILES IDX 17 27 18 28 19 29 20 30 21 32 22 33 23 34 84 35 24 36 83 37
REMARK SMILES IDX 25 38 26 39 27 40 77 41 28 42 82 43 76 44 78 45 29 46 81 47
REMARK SMILES IDX 75 48 74 49 30 51 62 52 42 53 61 54 43 55 46 56 60 57 79 58
REMARK SMILES IDX 44 59 45 60 59 62 80 63 47 64 31 65 32 66 40 67 33 68 35 69
REMARK SMILES IDX 41 70 34 71 36 72 37 73 38 74 39 75 63 76 64 77 72 78 65 79
REMARK SMILES IDX 67 80 73 81 66 82 68 83 69 84 70 85 71 86 48 87 49 88 57 89
REMARK SMILES IDX 50 90 52 91 58 92 51 93 53 94 54 95 55 96 56 97
REMARK H PARENT 15 5 5 14 11 25 11 26 19 31 78 50 46 61
REMARK Flexibility Score: inf
ROOT
ATOM      1  C   UNL A   1      31.745  28.349  27.128  1.00  0.00     0.118 C 
ENDROOT
BRANCH   1   2
ATOM      2  N   UNL A   1      31.371  28.024  25.764  1.00  0.00    -0.352 N 
ATOM      3  C   UNL A   1      31.268  26.848  25.065  1.00  0.00     0.253 C 
ATOM      4  O   UNL A   1      30.936  26.955  23.880  1.00  0.00    -0.269 OA
ATOM      5  H   UNL A   1      31.143  28.817  25.226  1.00  0.00     0.163 HD
BRANCH   3   6
ATOM      6  C   UNL A   1      31.483  25.490  25.665  1.00  0.00     0.065 A 
ATOM      7  C   UNL A   1      32.974  23.647  26.273  1.00  0.00     0.036 A 
ATOM      8  C   UNL A   1      31.901  23.004  26.882  1.00  0.00     0.031 A 
ATOM      9  C   UNL A   1      32.737  24.869  25.644  1.00  0.00     0.041 A 
ATOM     10  C   UNL A   1      30.597  23.516  26.793  1.00  0.00    -0.025 A 
ATOM     11  C   UNL A   1      29.457  22.671  27.292  1.00  0.00     0.046 C 
ATOM     12  C   UNL A   1      30.375  24.765  26.174  1.00  0.00     0.047 A 
BRANCH   7  13
ATOM     13  N   UNL A   1      34.217  23.060  26.149  1.00  0.00    -0.377 N 
ATOM     14  H   UNL A   1      34.779  23.020  26.956  1.00  0.00     0.161 HD
BRANCH  13  15
ATOM     15  C   UNL A   1      34.774  22.486  24.905  1.00  0.00     0.119 C 
BRANCH  15  16
ATOM     16  C   UNL A   1      36.329  22.355  24.910  1.00  0.00     0.030 C 
BRANCH  16  17
ATOM     17  C   UNL A   1      37.091  23.645  25.251  1.00  0.00    -0.001 C 
ATOM     18  C   UNL A   1      38.268  23.457  26.198  1.00  0.00     0.004 C 
ENDBRANCH  16  17
ENDBRANCH  15  16
BRANCH  15  19
ATOM     19  C   UNL A   1      34.171  21.117  24.586  1.00  0.00     0.027 A 
ATOM     20  C   UNL A   1      32.911  20.803  24.102  1.00  0.00     0.017 A 
ATOM     21  S   UNL A   1      35.078  19.683  24.884  1.00  0.00    -0.147 S 
ATOM     22  C   UNL A   1      32.657  19.401  24.102  1.00  0.00     0.012 A 
ATOM     23  C   UNL A   1      33.734  18.682  24.566  1.00  0.00     0.065 A 
ENDBRANCH  15  19
ENDBRANCH  13  15
ENDBRANCH   7  13
BRANCH  12  24
ATOM     24  N   UNL A   1      29.085  25.315  26.192  1.00  0.00    -0.398 N 
ATOM     25  H   UNL A   1      28.961  26.274  26.376  1.00  0.00     0.156 HD
ATOM     26  H   UNL A   1      28.303  24.742  26.019  1.00  0.00     0.156 HD
ENDBRANCH  12  24
ENDBRANCH   3   6
ENDBRANCH   1   2
BRANCH   1  27
ATOM     27  C   UNL A   1      33.267  28.342  27.283  1.00  0.00     0.042 C 
BRANCH  27  28
ATOM     28  C   UNL A   1      33.953  29.348  26.363  1.00  0.00     0.118 C 
BRANCH  28  29
ATOM     29  N   UNL A   1      33.897  30.700  26.911  1.00  0.00    -0.352 N 
ATOM     30  C   UNL A   1      34.664  31.274  27.895  1.00  0.00     0.251 C 
ATOM     31  H   UNL A   1      33.210  31.285  26.517  1.00  0.00     0.163 HD
ATOM     32  O   UNL A   1      34.314  32.334  28.402  1.00  0.00    -0.269 OA
BRANCH  30  33
ATOM     33  C   UNL A   1      35.904  30.606  28.335  1.00  0.00     0.039 A 
ATOM     34  C   UNL A   1      37.072  30.768  27.586  1.00  0.00     0.014 A 
ATOM     35  C   UNL A   1      35.904  29.813  29.484  1.00  0.00     0.014 A 
ATOM     36  C   UNL A   1      38.259  30.178  28.026  1.00  0.00     0.010 A 
ATOM     37  C   UNL A   1      37.100  29.296  29.962  1.00  0.00     0.010 A 
ATOM     38  C   UNL A   1      38.288  29.465  29.235  1.00  0.00    -0.014 A 
BRANCH  38  39
ATOM     39  C   UNL A   1      39.539  28.873  29.768  1.00  0.00     0.031 A 
ATOM     40  C   UNL A   1      40.263  29.558  30.895  1.00  0.00     0.074 A 
ATOM     41  C   UNL A   1      40.082  27.798  29.162  1.00  0.00     0.049 A 
ATOM     42  N   UNL A   1      41.439  29.294  31.401  1.00  0.00    -0.248 NA
ATOM     43  C   UNL A   1      39.592  30.716  31.510  1.00  0.00     0.031 C 
ATOM     44  C   UNL A   1      39.501  27.087  28.022  1.00  0.00     0.029 A 
ATOM     45  N   UNL A   1      41.264  27.142  29.396  1.00  0.00    -0.354 N 
ATOM     46  C   UNL A   1      41.668  30.277  32.356  1.00  0.00     0.074 A 
ATOM     47  C   UNL A   1      40.524  31.162  32.338  1.00  0.00     0.031 C 
ATOM     48  C   UNL A   1      40.331  26.098  27.651  1.00  0.00     0.029 A 
ATOM     49  C   UNL A   1      41.520  26.134  28.496  1.00  0.00     0.049 A 
ATOM     50  H   UNL A   1      41.871  27.370  30.137  1.00  0.00     0.167 HD
ATOM     51  C   UNL A   1      42.726  30.419  33.189  1.00  0.00     0.034 A 
ATOM     52  C   UNL A   1      42.602  25.343  28.351  1.00  0.00     0.034 A 
ATOM     53  C   UNL A   1      43.840  29.511  33.227  1.00  0.00     0.049 A 
ATOM     54  C   UNL A   1      43.756  25.506  29.305  1.00  0.00     0.074 A 
ATOM     55  C   UNL A   1      44.920  29.513  34.090  1.00  0.00     0.029 A 
ATOM     56  N   UNL A   1      44.020  28.446  32.359  1.00  0.00    -0.354 N 
ATOM     57  N   UNL A   1      43.893  26.355  30.294  1.00  0.00    -0.248 NA
ATOM     58  C   UNL A   1      44.889  24.583  29.145  1.00  0.00     0.031 C 
ATOM     59  C   UNL A   1      45.772  28.468  33.722  1.00  0.00     0.029 A 
ATOM     60  C   UNL A   1      45.200  27.790  32.657  1.00  0.00     0.049 A 
ATOM     61  H   UNL A   1      43.402  28.194  31.636  1.00  0.00     0.167 HD
ATOM     62  C   UNL A   1      45.103  26.040  30.902  1.00  0.00     0.074 A 
ATOM     63  C   UNL A   1      45.656  24.916  30.176  1.00  0.00     0.031 C 
ATOM     64  C   UNL A   1      45.705  26.632  31.962  1.00  0.00     0.034 A 
BRANCH  51  65
ATOM     65  C   UNL A   1      42.712  31.576  34.153  1.00  0.00     0.023 A 
ATOM     66  C   UNL A   1      43.280  32.810  33.776  1.00  0.00     0.012 A 
ATOM     67  C   UNL A   1      42.085  31.460  35.410  1.00  0.00     0.148 A 
ATOM     68  C   UNL A   1      43.263  33.897  34.648  1.00  0.00     0.002 A 
ATOM     69  C   UNL A   1      42.027  32.564  36.253  1.00  0.00     0.091 A 
ATOM     70  F   UNL A   1      41.567  30.276  35.759  1.00  0.00    -0.205 F 
ATOM     71  C   UNL A   1      42.627  33.778  35.880  1.00  0.00     0.022 A 
BRANCH  69  72
ATOM     72  S   UNL A   1      41.158  32.538  37.824  1.00  0.00     0.127 S 
ATOM     73  O   UNL A   1      41.988  31.621  38.605  1.00  0.00    -0.237 OA
ATOM     74  O   UNL A   1      41.237  33.938  38.241  1.00  0.00    -0.237 OA
ATOM     75  O   UNL A   1      39.812  32.065  37.532  1.00  0.00    -0.744 OA
ENDBRANCH  69  72
ENDBRANCH  51  65
BRANCH  52  76
ATOM     76  C   UNL A   1      42.626  24.294  27.291  1.00  0.00     0.023 A 
ATOM     77  C   UNL A   1      43.270  24.562  26.068  1.00  0.00     0.012 A 
ATOM     78  C   UNL A   1      42.040  23.030  27.497  1.00  0.00     0.148 A 
ATOM     79  C   UNL A   1      43.295  23.605  25.053  1.00  0.00     0.002 A 
ATOM     80  C   UNL A   1      42.122  22.060  26.505  1.00  0.00     0.091 A 
ATOM     81  F   UNL A   1      41.430  22.796  28.667  1.00  0.00    -0.205 F 
ATOM     82  C   UNL A   1      42.730  22.352  25.273  1.00  0.00     0.022 A 
BRANCH  80  83
ATOM     83  S   UNL A   1      41.544  20.376  26.748  1.00  0.00     0.127 S 
ATOM     84  O   UNL A   1      42.399  19.922  27.842  1.00  0.00    -0.237 OA
ATOM     85  O   UNL A   1      40.141  20.589  27.106  1.00  0.00    -0.237 OA
ATOM     86  O   UNL A   1      41.742  19.703  25.472  1.00  0.00    -0.744 OA
ENDBRANCH  80  83
ENDBRANCH  52  76
BRANCH  64  87
ATOM     87  C   UNL A   1      47.001  26.048  32.458  1.00  0.00     0.023 A 
ATOM     88  C   UNL A   1      47.007  25.163  33.553  1.00  0.00     0.012 A 
ATOM     89  C   UNL A   1      48.200  26.297  31.759  1.00  0.00     0.148 A 
ATOM     90  C   UNL A   1      48.194  24.552  33.960  1.00  0.00     0.002 A 
ATOM     91  C   UNL A   1      49.366  25.644  32.137  1.00  0.00     0.091 A 
ATOM     92  F   UNL A   1      48.172  27.157  30.730  1.00  0.00    -0.205 F 
ATOM     93  C   UNL A   1      49.367  24.780  33.244  1.00  0.00     0.022 A 
BRANCH  91  94
ATOM     94  S   UNL A   1      50.898  25.794  31.213  1.00  0.00     0.127 S 
ATOM     95  O   UNL A   1      51.716  24.746  31.821  1.00  0.00    -0.237 OA
ATOM     96  O   UNL A   1      50.461  25.512  29.845  1.00  0.00    -0.237 OA
ATOM     97  O   UNL A   1      51.372  27.154  31.430  1.00  0.00    -0.744 OA
ENDBRANCH  91  94
ENDBRANCH  64  87
ENDBRANCH  38  39
ENDBRANCH  30  33
ENDBRANCH  28  29
ENDBRANCH  27  28
ENDBRANCH   1  27
TORSDOF 19
ENDMDL
MODEL 2
REMARK VINA RESULT:     -10.1      3.756      9.410
REMARK SMILES CCC[C@H](Nc1cc(C)c(N)c(C(=O)NCCCNC(=O)c2ccc(-c3c4nc(c(-c5cccc(S(=O)(=O)[O-])c5F)c5ccc([nH]5)c(-c5cccc(S(=O)(=O)[O-])c5F)c5nc(c(-c6cccc(S(=O)(=O)[O-])c6F)c6ccc3[nH]6)C=C5)C=C4)cc2)c1)c1cccs1
REMARK SMILES IDX 16 1 15 2 13 3 14 4 12 6 6 7 7 8 85 9 8 10 9 11 10 12 5 13
REMARK SMILES IDX 4 15 3 16 2 17 1 18 86 19 87 20 90 21 88 22 89 23 11 24
REMARK SMILES IDX 17 27 18 28 19 29 20 30 21 32 22 33 23 34 84 35 24 36 83 37
REMARK SMILES IDX 25 38 26 39 27 40 77 41 28 42 82 43 76 44 78 45 29 46 81 47
REMARK SMILES IDX 75 48 74 49 30 51 62 52 42 53 61 54 43 55 46 56 60 57 79 58
REMARK SMILES IDX 44 59 45 60 59 62 80 63 47 64 31 65 32 66 40 67 33 68 35 69
REMARK SMILES IDX 41 70 34 71 36 72 37 73 38 74 39 75 63 76 64 77 72 78 65 79
REMARK SMILES IDX 67 80 73 81 66 82 68 83 69 84 70 85 71 86 48 87 49 88 57 89
REMARK SMILES IDX 50 90 52 91 58 92 51 93 53 94 54 95 55 96 56 97
REMARK H PARENT 15 5 5 14 11 25 11 26 19 31 78 50 46 61
REMARK Flexibility Score: inf
ROOT
ATOM      1  C   UNL A   1      36.602  21.019  25.111  1.00  0.00     0.118 C 
ENDROOT
BRANCH   1   2
ATOM      2  N   UNL A   1      35.670  21.136  26.217  1.00  0.00    -0.352 N 
ATOM      3  C   UNL A   1      34.408  21.661  26.339  1.00  0.00     0.253 C 
ATOM      4  O   UNL A   1      33.912  21.607  27.470  1.00  0.00    -0.269 OA
ATOM      5  H   UNL A   1      36.017  20.758  27.058  1.00  0.00     0.163 HD
BRANCH   3   6
ATOM      6  C   UNL A   1      33.616  22.228  25.199  1.00  0.00     0.065 A 
ATOM      7  C   UNL A   1      32.622  24.144  24.047  1.00  0.00     0.036 A 
ATOM      8  C   UNL A   1      32.233  23.299  23.013  1.00  0.00     0.031 A 
ATOM      9  C   UNL A   1      33.280  23.585  25.142  1.00  0.00     0.041 A 
ATOM     10  C   UNL A   1      32.413  21.910  23.099  1.00  0.00    -0.025 A 
ATOM     11  C   UNL A   1      31.788  21.036  22.047  1.00  0.00     0.046 C 
ATOM     12  C   UNL A   1      33.102  21.359  24.202  1.00  0.00     0.047 A 
BRANCH   7  13
ATOM     13  N   UNL A   1      32.258  25.475  24.092  1.00  0.00    -0.377 N 
ATOM     14  H   UNL A   1      32.935  26.137  23.822  1.00  0.00     0.161 HD
BRANCH  13  15
ATOM     15  C   UNL A   1      30.938  25.990  24.514  1.00  0.00     0.119 C 
BRANCH  15  16
ATOM     16  C   UNL A   1      30.829  26.275  26.044  1.00  0.00     0.030 C 
BRANCH  16  17
ATOM     17  C   UNL A   1      31.994  27.077  26.644  1.00  0.00    -0.001 C 
ATOM     18  C   UNL A   1      31.579  28.185  27.601  1.00  0.00     0.004 C 
ENDBRANCH  16  17
ENDBRANCH  15  16
BRANCH  15  19
ATOM     19  C   UNL A   1      30.550  27.260  23.754  1.00  0.00     0.027 A 
ATOM     20  C   UNL A   1      29.291  27.752  23.450  1.00  0.00     0.017 A 
ATOM     21  S   UNL A   1      31.772  28.273  23.085  1.00  0.00    -0.147 S 
ATOM     22  C   UNL A   1      29.337  28.873  22.571  1.00  0.00     0.012 A 
ATOM     23  C   UNL A   1      30.627  29.218  22.243  1.00  0.00     0.065 A 
ENDBRANCH  15  19
ENDBRANCH  13  15
ENDBRANCH   7  13
BRANCH  12  24
ATOM     24  N   UNL A   1      33.371  19.983  24.220  1.00  0.00    -0.398 N 
ATOM     25  H   UNL A   1      33.415  19.501  25.077  1.00  0.00     0.156 HD
ATOM     26  H   UNL A   1      33.514  19.498  23.375  1.00  0.00     0.156 HD
ENDBRANCH  12  24
ENDBRANCH   3   6
ENDBRANCH   1   2
BRANCH   1  27
ATOM     27  C   UNL A   1      37.305  22.354  24.859  1.00  0.00     0.042 C 
BRANCH  27  28
ATOM     28  C   UNL A   1      38.206  22.769  26.020  1.00  0.00     0.118 C 
BRANCH  28  29
ATOM     29  N   UNL A   1      39.488  22.071  25.978  1.00  0.00    -0.352 N 
ATOM     30  C   UNL A   1      40.757  22.568  26.146  1.00  0.00     0.251 C 
ATOM     31  H   UNL A   1      39.435  21.103  25.807  1.00  0.00     0.163 HD
ATOM     32  O   UNL A   1      41.727  21.888  25.830  1.00  0.00    -0.269 OA
BRANCH  30  33
ATOM     33  C   UNL A   1      40.941  23.922  26.704  1.00  0.00     0.039 A 
ATOM     34  C   UNL A   1      41.111  24.078  28.081  1.00  0.00     0.014 A 
ATOM     35  C   UNL A   1      40.935  25.035  25.861  1.00  0.00     0.014 A 
ATOM     36  C   UNL A   1      41.335  25.352  28.608  1.00  0.00     0.010 A 
ATOM     37  C   UNL A   1      41.238  26.288  26.375  1.00  0.00     0.010 A 
ATOM     38  C   UNL A   1      41.432  26.462  27.754  1.00  0.00    -0.014 A 
BRANCH  38  39
ATOM     39  C   UNL A   1      41.727  27.823  28.265  1.00  0.00     0.031 A 
ATOM     40  C   UNL A   1      43.157  28.244  28.473  1.00  0.00     0.074 A 
ATOM     41  C   UNL A   1      40.716  28.625  28.653  1.00  0.00     0.049 A 
ATOM     42  N   UNL A   1      43.623  29.321  29.047  1.00  0.00    -0.248 NA
ATOM     43  C   UNL A   1      44.199  27.313  28.007  1.00  0.00     0.031 C 
ATOM     44  C   UNL A   1      39.292  28.299  28.556  1.00  0.00     0.029 A 
ATOM     45  N   UNL A   1      40.734  29.863  29.244  1.00  0.00    -0.354 N 
ATOM     46  C   UNL A   1      45.005  29.176  29.055  1.00  0.00     0.074 A 
ATOM     47  C   UNL A   1      45.301  27.894  28.456  1.00  0.00     0.031 C 
ATOM     48  C   UNL A   1      38.574  29.307  29.076  1.00  0.00     0.029 A 
ATOM     49  C   UNL A   1      39.484  30.329  29.583  1.00  0.00     0.049 A 
ATOM     50  H   UNL A   1      41.562  30.370  29.411  1.00  0.00     0.167 HD
ATOM     51  C   UNL A   1      45.946  30.043  29.500  1.00  0.00     0.034 A 
ATOM     52  C   UNL A   1      39.114  31.441  30.249  1.00  0.00     0.034 A 
ATOM     53  C   UNL A   1      45.644  31.333  30.057  1.00  0.00     0.049 A 
ATOM     54  C   UNL A   1      40.179  32.399  30.712  1.00  0.00     0.074 A 
ATOM     55  C   UNL A   1      46.522  32.322  30.457  1.00  0.00     0.029 A 
ATOM     56  N   UNL A   1      44.364  31.808  30.299  1.00  0.00    -0.354 N 
ATOM     57  N   UNL A   1      41.480  32.309  30.586  1.00  0.00    -0.248 NA
ATOM     58  C   UNL A   1      39.725  33.626  31.383  1.00  0.00     0.031 C 
ATOM     59  C   UNL A   1      45.775  33.384  30.975  1.00  0.00     0.029 A 
ATOM     60  C   UNL A   1      44.429  33.073  30.856  1.00  0.00     0.049 A 
ATOM     61  H   UNL A   1      43.533  31.319  30.106  1.00  0.00     0.167 HD
ATOM     62  C   UNL A   1      41.998  33.486  31.116  1.00  0.00     0.074 A 
ATOM     63  C   UNL A   1      40.868  34.276  31.559  1.00  0.00     0.031 C 
ATOM     64  C   UNL A   1      43.291  33.872  31.233  1.00  0.00     0.034 A 
BRANCH  51  65
ATOM     65  C   UNL A   1      47.391  29.640  29.369  1.00  0.00     0.023 A 
ATOM     66  C   UNL A   1      48.044  29.008  30.446  1.00  0.00     0.012 A 
ATOM     67  C   UNL A   1      48.087  29.835  28.159  1.00  0.00     0.148 A 
ATOM     68  C   UNL A   1      49.377  28.614  30.339  1.00  0.00     0.002 A 
ATOM     69  C   UNL A   1      49.400  29.393  28.041  1.00  0.00     0.091 A 
ATOM     70  F   UNL A   1      47.457  30.453  27.151  1.00  0.00    -0.205 F 
ATOM     71  C   UNL A   1      50.050  28.796  29.134  1.00  0.00     0.022 A 
BRANCH  69  72
ATOM     72  S   UNL A   1      50.326  29.502  26.507  1.00  0.00     0.127 S 
ATOM     73  O   UNL A   1      51.580  28.841  26.873  1.00  0.00    -0.237 OA
ATOM     74  O   UNL A   1      49.483  28.743  25.585  1.00  0.00    -0.237 OA
ATOM     75  O   UNL A   1      50.437  30.922  26.203  1.00  0.00    -0.744 OA
ENDBRANCH  69  72
ENDBRANCH  51  65
BRANCH  52  76
ATOM     76  C   UNL A   1      37.669  31.733  30.473  1.00  0.00     0.023 A 
ATOM     77  C   UNL A   1      37.125  31.574  31.762  1.00  0.00     0.012 A 
ATOM     78  C   UNL A   1      36.841  32.188  29.429  1.00  0.00     0.148 A 
ATOM     79  C   UNL A   1      35.773  31.826  31.999  1.00  0.00     0.002 A 
ATOM     80  C   UNL A   1      35.510  32.495  29.685  1.00  0.00     0.091 A 
ATOM     81  F   UNL A   1      37.378  32.329  28.209  1.00  0.00    -0.205 F 
ATOM     82  C   UNL A   1      34.968  32.294  30.964  1.00  0.00     0.022 A 
BRANCH  80  83
ATOM     83  S   UNL A   1      34.432  33.232  28.450  1.00  0.00     0.127 S 
ATOM     84  O   UNL A   1      33.925  32.053  27.754  1.00  0.00    -0.237 OA
ATOM     85  O   UNL A   1      33.452  33.928  29.285  1.00  0.00    -0.237 OA
ATOM     86  O   UNL A   1      35.282  34.114  27.662  1.00  0.00    -0.744 OA
ENDBRANCH  80  83
ENDBRANCH  52  76
BRANCH  64  87
ATOM     87  C   UNL A   1      43.573  35.238  31.802  1.00  0.00     0.023 A 
ATOM     88  C   UNL A   1      43.701  36.349  30.947  1.00  0.00     0.012 A 
ATOM     89  C   UNL A   1      43.600  35.428  33.198  1.00  0.00     0.148 A 
ATOM     90  C   UNL A   1      43.875  37.629  31.475  1.00  0.00     0.002 A 
ATOM     91  C   UNL A   1      43.721  36.711  33.716  1.00  0.00     0.091 A 
ATOM     92  F   UNL A   1      43.494  34.352  33.991  1.00  0.00    -0.205 F 
ATOM     93  C   UNL A   1      43.870  37.811  32.856  1.00  0.00     0.022 A 
BRANCH  91  94
ATOM     94  S   UNL A   1      43.619  37.054  35.475  1.00  0.00     0.127 S 
ATOM     95  O   UNL A   1      42.280  36.561  35.798  1.00  0.00    -0.237 OA
ATOM     96  O   UNL A   1      44.713  36.244  36.011  1.00  0.00    -0.237 OA
ATOM     97  O   UNL A   1      43.801  38.492  35.620  1.00  0.00    -0.744 OA
ENDBRANCH  91  94
ENDBRANCH  64  87
ENDBRANCH  38  39
ENDBRANCH  30  33
ENDBRANCH  28  29
ENDBRANCH  27  28
ENDBRANCH   1  27
TORSDOF 19
ENDMDL
MODEL 3
REMARK VINA RESULT:      -9.9      4.332      9.425
REMARK SMILES CCC[C@H](Nc1cc(C)c(N)c(C(=O)NCCCNC(=O)c2ccc(-c3c4nc(c(-c5cccc(S(=O)(=O)[O-])c5F)c5ccc([nH]5)c(-c5cccc(S(=O)(=O)[O-])c5F)c5nc(c(-c6cccc(S(=O)(=O)[O-])c6F)c6ccc3[nH]6)C=C5)C=C4)cc2)c1)c1cccs1
REMARK SMILES IDX 16 1 15 2 13 3 14 4 12 6 6 7 7 8 85 9 8 10 9 11 10 12 5 13
REMARK SMILES IDX 4 15 3 16 2 17 1 18 86 19 87 20 90 21 88 22 89 23 11 24
REMARK SMILES IDX 17 27 18 28 19 29 20 30 21 32 22 33 23 34 84 35 24 36 83 37
REMARK SMILES IDX 25 38 26 39 27 40 77 41 28 42 82 43 76 44 78 45 29 46 81 47
REMARK SMILES IDX 75 48 74 49 30 51 62 52 42 53 61 54 43 55 46 56 60 57 79 58
REMARK SMILES IDX 44 59 45 60 59 62 80 63 47 64 31 65 32 66 40 67 33 68 35 69
REMARK SMILES IDX 41 70 34 71 36 72 37 73 38 74 39 75 63 76 64 77 72 78 65 79
REMARK SMILES IDX 67 80 73 81 66 82 68 83 69 84 70 85 71 86 48 87 49 88 57 89
REMARK SMILES IDX 50 90 52 91 58 92 51 93 53 94 54 95 55 96 56 97
REMARK H PARENT 15 5 5 14 11 25 11 26 19 31 78 50 46 61
REMARK Flexibility Score: inf
ROOT
ATOM      1  C   UNL A   1      36.738  21.002  25.119  1.00  0.00     0.118 C 
ENDROOT
BRANCH   1   2
ATOM      2  N   UNL A   1      35.827  21.076  26.246  1.00  0.00    -0.352 N 
ATOM      3  C   UNL A   1      34.618  21.693  26.447  1.00  0.00     0.253 C 
ATOM      4  O   UNL A   1      34.126  21.556  27.573  1.00  0.00    -0.269 OA
ATOM      5  H   UNL A   1      36.144  20.576  27.034  1.00  0.00     0.163 HD
BRANCH   3   6
ATOM      6  C   UNL A   1      33.873  22.453  25.391  1.00  0.00     0.065 A 
ATOM      7  C   UNL A   1      33.121  24.574  24.430  1.00  0.00     0.036 A 
ATOM      8  C   UNL A   1      32.577  23.875  23.357  1.00  0.00     0.031 A 
ATOM      9  C   UNL A   1      33.734  23.844  25.448  1.00  0.00     0.041 A 
ATOM     10  C   UNL A   1      32.558  22.472  23.335  1.00  0.00    -0.025 A 
ATOM     11  C   UNL A   1      31.774  21.779  22.253  1.00  0.00     0.046 C 
ATOM     12  C   UNL A   1      33.202  21.745  24.360  1.00  0.00     0.047 A 
BRANCH   7  13
ATOM     13  N   UNL A   1      32.955  25.935  24.588  1.00  0.00    -0.377 N 
ATOM     14  H   UNL A   1      33.633  26.522  24.182  1.00  0.00     0.161 HD
BRANCH  13  15
ATOM     15  C   UNL A   1      31.845  26.584  25.317  1.00  0.00     0.119 C 
BRANCH  15  16
ATOM     16  C   UNL A   1      32.310  27.512  26.482  1.00  0.00     0.030 C 
BRANCH  16  17
ATOM     17  C   UNL A   1      33.813  27.830  26.503  1.00  0.00    -0.001 C 
ATOM     18  C   UNL A   1      34.168  29.196  27.070  1.00  0.00     0.004 C 
ENDBRANCH  16  17
ENDBRANCH  15  16
BRANCH  15  19
ATOM     19  C   UNL A   1      30.941  27.391  24.383  1.00  0.00     0.027 A 
ATOM     20  C   UNL A   1      31.098  28.683  23.908  1.00  0.00     0.017 A 
ATOM     21  S   UNL A   1      29.458  26.717  23.823  1.00  0.00    -0.147 S 
ATOM     22  C   UNL A   1      29.953  29.150  23.200  1.00  0.00     0.012 A 
ATOM     23  C   UNL A   1      28.961  28.199  23.138  1.00  0.00     0.065 A 
ENDBRANCH  15  19
ENDBRANCH  13  15
ENDBRANCH   7  13
BRANCH  12  24
ATOM     24  N   UNL A   1      33.271  20.348  24.265  1.00  0.00    -0.398 N 
ATOM     25  H   UNL A   1      34.131  19.887  24.399  1.00  0.00     0.156 HD
ATOM     26  H   UNL A   1      32.459  19.827  24.067  1.00  0.00     0.156 HD
ENDBRANCH  12  24
ENDBRANCH   3   6
ENDBRANCH   1   2
BRANCH   1  27
ATOM     27  C   UNL A   1      37.363  22.372  24.845  1.00  0.00     0.042 C 
BRANCH  27  28
ATOM     28  C   UNL A   1      38.210  22.872  26.012  1.00  0.00     0.118 C 
BRANCH  28  29
ATOM     29  N   UNL A   1      39.493  22.178  26.079  1.00  0.00    -0.352 N 
ATOM     30  C   UNL A   1      40.751  22.690  26.279  1.00  0.00     0.251 C 
ATOM     31  H   UNL A   1      39.449  21.201  25.965  1.00  0.00     0.163 HD
ATOM     32  O   UNL A   1      41.737  21.996  26.055  1.00  0.00    -0.269 OA
BRANCH  30  33
ATOM     33  C   UNL A   1      40.905  24.077  26.760  1.00  0.00     0.039 A 
ATOM     34  C   UNL A   1      41.110  24.310  28.122  1.00  0.00     0.014 A 
ATOM     35  C   UNL A   1      40.837  25.143  25.862  1.00  0.00     0.014 A 
ATOM     36  C   UNL A   1      41.306  25.616  28.575  1.00  0.00     0.010 A 
ATOM     37  C   UNL A   1      41.113  26.431  26.302  1.00  0.00     0.010 A 
ATOM     38  C   UNL A   1      41.341  26.683  27.663  1.00  0.00    -0.014 A 
BRANCH  38  39
ATOM     39  C   UNL A   1      41.604  28.078  28.094  1.00  0.00     0.031 A 
ATOM     40  C   UNL A   1      43.021  28.579  28.163  1.00  0.00     0.074 A 
ATOM     41  C   UNL A   1      40.587  28.844  28.536  1.00  0.00     0.049 A 
ATOM     42  N   UNL A   1      43.476  29.702  28.652  1.00  0.00    -0.248 NA
ATOM     43  C   UNL A   1      44.069  27.682  27.645  1.00  0.00     0.031 C 
ATOM     44  C   UNL A   1      39.179  28.443  28.574  1.00  0.00     0.029 A 
ATOM     45  N   UNL A   1      40.588  30.106  29.075  1.00  0.00    -0.354 N 
ATOM     46  C   UNL A   1      44.859  29.626  28.547  1.00  0.00     0.074 A 
ATOM     47  C   UNL A   1      45.173  28.336  27.975  1.00  0.00     0.031 C 
ATOM     48  C   UNL A   1      38.454  29.436  29.114  1.00  0.00     0.029 A 
ATOM     49  C   UNL A   1      39.348  30.522  29.501  1.00  0.00     0.049 A 
ATOM     50  H   UNL A   1      41.398  30.661  29.151  1.00  0.00     0.167 HD
ATOM     51  C   UNL A   1      45.786  30.558  28.876  1.00  0.00     0.034 A 
ATOM     52  C   UNL A   1      38.975  31.642  30.153  1.00  0.00     0.034 A 
ATOM     53  C   UNL A   1      45.463  31.854  29.406  1.00  0.00     0.049 A 
ATOM     54  C   UNL A   1      40.022  32.672  30.487  1.00  0.00     0.074 A 
ATOM     55  C   UNL A   1      46.317  32.902  29.691  1.00  0.00     0.029 A 
ATOM     56  N   UNL A   1      44.184  32.274  29.740  1.00  0.00    -0.354 N 
ATOM     57  N   UNL A   1      41.312  32.642  30.252  1.00  0.00    -0.248 NA
ATOM     58  C   UNL A   1      39.561  33.902  31.146  1.00  0.00     0.031 C 
ATOM     59  C   UNL A   1      45.560  33.946  30.230  1.00  0.00     0.029 A 
ATOM     60  C   UNL A   1      44.228  33.563  30.239  1.00  0.00     0.049 A 
ATOM     61  H   UNL A   1      43.367  31.736  29.637  1.00  0.00     0.167 HD
ATOM     62  C   UNL A   1      41.808  33.864  30.691  1.00  0.00     0.074 A 
ATOM     63  C   UNL A   1      40.679  34.616  31.198  1.00  0.00     0.031 C 
ATOM     64  C   UNL A   1      43.084  34.320  30.681  1.00  0.00     0.034 A 
BRANCH  51  65
ATOM     65  C   UNL A   1      47.235  30.223  28.637  1.00  0.00     0.023 A 
ATOM     66  C   UNL A   1      47.869  30.658  27.456  1.00  0.00     0.012 A 
ATOM     67  C   UNL A   1      47.984  29.527  29.607  1.00  0.00     0.148 A 
ATOM     68  C   UNL A   1      49.214  30.372  27.223  1.00  0.00     0.002 A 
ATOM     69  C   UNL A   1      49.337  29.290  29.391  1.00  0.00     0.091 A 
ATOM     70  F   UNL A   1      47.361  29.105  30.715  1.00  0.00    -0.205 F 
ATOM     71  C   UNL A   1      49.949  29.699  28.195  1.00  0.00     0.022 A 
BRANCH  69  72
ATOM     72  S   UNL A   1      50.392  28.508  30.616  1.00  0.00     0.127 S 
ATOM     73  O   UNL A   1      49.411  27.804  31.442  1.00  0.00    -0.237 OA
ATOM     74  O   UNL A   1      51.229  27.639  29.789  1.00  0.00    -0.237 OA
ATOM     75  O   UNL A   1      51.106  29.588  31.281  1.00  0.00    -0.744 OA
ENDBRANCH  69  72
ENDBRANCH  51  65
BRANCH  52  76
ATOM     76  C   UNL A   1      37.541  31.871  30.489  1.00  0.00     0.023 A 
ATOM     77  C   UNL A   1      37.040  31.417  31.725  1.00  0.00     0.012 A 
ATOM     78  C   UNL A   1      36.680  32.553  29.608  1.00  0.00     0.148 A 
ATOM     79  C   UNL A   1      35.699  31.604  32.060  1.00  0.00     0.002 A 
ATOM     80  C   UNL A   1      35.360  32.789  29.974  1.00  0.00     0.091 A 
ATOM     81  F   UNL A   1      37.175  32.974  28.437  1.00  0.00    -0.205 F 
ATOM     82  C   UNL A   1      34.861  32.297  31.191  1.00  0.00     0.022 A 
BRANCH  80  83
ATOM     83  S   UNL A   1      34.245  33.789  28.982  1.00  0.00     0.127 S 
ATOM     84  O   UNL A   1      33.331  34.311  29.994  1.00  0.00    -0.237 OA
ATOM     85  O   UNL A   1      35.160  34.776  28.406  1.00  0.00    -0.237 OA
ATOM     86  O   UNL A   1      33.658  32.878  28.010  1.00  0.00    -0.744 OA
ENDBRANCH  80  83
ENDBRANCH  52  76
BRANCH  64  87
ATOM     87  C   UNL A   1      43.339  35.721  31.171  1.00  0.00     0.023 A 
ATOM     88  C   UNL A   1      43.569  35.963  32.538  1.00  0.00     0.012 A 
ATOM     89  C   UNL A   1      43.456  36.780  30.248  1.00  0.00     0.148 A 
ATOM     90  C   UNL A   1      43.890  37.245  32.984  1.00  0.00     0.002 A 
ATOM     91  C   UNL A   1      43.828  38.042  30.693  1.00  0.00     0.091 A 
ATOM     92  F   UNL A   1      43.215  36.529  28.953  1.00  0.00    -0.205 F 
ATOM     93  C   UNL A   1      44.035  38.279  32.061  1.00  0.00     0.022 A 
BRANCH  91  94
ATOM     94  S   UNL A   1      44.140  39.407  29.568  1.00  0.00     0.127 S 
ATOM     95  O   UNL A   1      44.512  40.476  30.494  1.00  0.00    -0.237 OA
ATOM     96  O   UNL A   1      45.243  38.892  28.757  1.00  0.00    -0.237 OA
ATOM     97  O   UNL A   1      42.899  39.624  28.838  1.00  0.00    -0.744 OA
ENDBRANCH  91  94
ENDBRANCH  64  87
ENDBRANCH  38  39
ENDBRANCH  30  33
ENDBRANCH  28  29
ENDBRANCH  27  28
ENDBRANCH   1  27
TORSDOF 19
ENDMDL
