MODEL 1
REMARK VINA RESULT:     -11.2      0.000      0.000
REMARK SMILES Cc1ncc(CNC(=O)N(CC(=O)NCCCNC(=O)c2ccc(-c3c4nc(c(-c5cccc(S(=O)(=O)[O-])c5F)c5ccc([nH]5)c(-c5cccc(S(=O)(=O)[O-])c5F)c5nc(c(-c6cccc(S(=O)(=O)[O-])c6F)c6ccc3[nH]6)C=C5)C=C4)cc2)C(C)(C)C)s1
REMARK SMILES IDX 15 1 14 2 12 3 13 4 11 6 10 7 8 8 7 9 9 11 6 12 5 13 1 14
REMARK SMILES IDX 2 15 3 16 88 17 4 18 84 19 85 20 86 21 87 22 16 23 17 24
REMARK SMILES IDX 18 25 19 26 20 28 21 29 22 30 83 31 23 32 82 33 24 34 25 35
REMARK SMILES IDX 26 36 76 37 27 38 81 39 75 40 77 41 28 42 80 43 74 44 73 45
REMARK SMILES IDX 29 47 61 48 41 49 60 50 42 51 45 52 59 53 78 54 43 55 44 56
REMARK SMILES IDX 58 58 79 59 46 60 30 61 31 62 39 63 32 64 34 65 40 66 33 67
REMARK SMILES IDX 35 68 36 69 37 70 38 71 62 72 63 73 71 74 64 75 66 76 72 77
REMARK SMILES IDX 65 78 67 79 68 80 69 81 70 82 47 83 48 84 56 85 49 86 51 87
REMARK SMILES IDX 57 88 50 89 52 90 53 91 54 92 55 93
REMARK H PARENT 14 5 7 10 18 27 77 46 45 57
REMARK Flexibility Score: inf
ROOT
ATOM      1  C   UNL A   1      36.237  20.245  25.001  1.00  0.00     0.117 C 
ENDROOT
BRANCH   1   2
ATOM      2  N   UNL A   1      36.226  21.436  25.824  1.00  0.00    -0.354 N 
ATOM      3  C   UNL A   1      35.554  22.611  25.684  1.00  0.00     0.239 C 
ATOM      4  O   UNL A   1      35.453  23.308  26.703  1.00  0.00    -0.273 OA
ATOM      5  H   UNL A   1      36.803  21.388  26.619  1.00  0.00     0.163 HD
BRANCH   3   6
ATOM      6  C   UNL A   1      34.804  23.023  24.405  1.00  0.00     0.221 C 
BRANCH   6   7
ATOM      7  N   UNL A   1      33.348  22.867  24.388  1.00  0.00    -0.311 N 
BRANCH   7   8
ATOM      8  C   UNL A   1      32.654  21.900  25.075  1.00  0.00     0.318 C 
ATOM      9  N   UNL A   1      32.437  20.646  24.651  1.00  0.00    -0.333 N 
ATOM     10  H   UNL A   1      32.094  20.101  25.396  1.00  0.00     0.165 HD
ATOM     11  O   UNL A   1      32.158  22.106  26.188  1.00  0.00    -0.249 OA
BRANCH   9  12
ATOM     12  C   UNL A   1      32.543  19.826  23.458  1.00  0.00     0.166 C 
BRANCH  12  13
ATOM     13  C   UNL A   1      32.822  18.398  23.766  1.00  0.00     0.044 A 
ATOM     14  C   UNL A   1      33.095  14.976  25.563  1.00  0.00     0.079 C 
ATOM     15  C   UNL A   1      33.110  16.180  24.692  1.00  0.00     0.090 A 
ATOM     16  N   UNL A   1      33.537  16.192  23.447  1.00  0.00    -0.250 NA
ATOM     17  S   UNL A   1      32.546  17.683  25.298  1.00  0.00    -0.122 S 
ATOM     18  C   UNL A   1      33.373  17.455  22.920  1.00  0.00     0.128 A 
ENDBRANCH  12  13
ENDBRANCH   9  12
ENDBRANCH   7   8
BRANCH   7  19
ATOM     19  C   UNL A   1      32.544  23.935  23.634  1.00  0.00     0.037 C 
ATOM     20  C   UNL A   1      31.056  23.549  23.518  1.00  0.00     0.034 C 
ATOM     21  C   UNL A   1      32.666  25.314  24.331  1.00  0.00     0.034 C 
ATOM     22  C   UNL A   1      33.016  24.184  22.172  1.00  0.00     0.034 C 
ENDBRANCH   7  19
ENDBRANCH   6   7
ENDBRANCH   3   6
ENDBRANCH   1   2
BRANCH   1  23
ATOM     23  C   UNL A   1      37.606  19.652  24.742  1.00  0.00     0.042 C 
BRANCH  23  24
ATOM     24  C   UNL A   1      38.696  20.236  25.619  1.00  0.00     0.118 C 
BRANCH  24  25
ATOM     25  N   UNL A   1      39.771  19.280  25.854  1.00  0.00    -0.352 N 
ATOM     26  C   UNL A   1      41.092  19.523  26.149  1.00  0.00     0.251 C 
ATOM     27  H   UNL A   1      39.517  18.330  25.794  1.00  0.00     0.163 HD
ATOM     28  O   UNL A   1      41.912  18.616  26.080  1.00  0.00    -0.269 OA
BRANCH  26  29
ATOM     29  C   UNL A   1      41.509  20.888  26.537  1.00  0.00     0.039 A 
ATOM     30  C   UNL A   1      42.079  21.102  27.795  1.00  0.00     0.014 A 
ATOM     31  C   UNL A   1      41.343  21.953  25.648  1.00  0.00     0.014 A 
ATOM     32  C   UNL A   1      42.536  22.378  28.136  1.00  0.00     0.010 A 
ATOM     33  C   UNL A   1      41.883  23.195  25.953  1.00  0.00     0.010 A 
ATOM     34  C   UNL A   1      42.468  23.427  27.207  1.00  0.00    -0.014 A 
BRANCH  34  35
ATOM     35  C   UNL A   1      42.964  24.792  27.517  1.00  0.00     0.031 A 
ATOM     36  C   UNL A   1      42.033  25.791  28.153  1.00  0.00     0.074 A 
ATOM     37  C   UNL A   1      44.199  25.166  27.130  1.00  0.00     0.049 A 
ATOM     38  N   UNL A   1      42.215  27.066  28.374  1.00  0.00    -0.248 NA
ATOM     39  C   UNL A   1      40.706  25.296  28.560  1.00  0.00     0.031 C 
ATOM     40  C   UNL A   1      45.173  24.311  26.451  1.00  0.00     0.029 A 
ATOM     41  N   UNL A   1      44.832  26.383  27.220  1.00  0.00    -0.354 N 
ATOM     42  C   UNL A   1      41.015  27.534  28.897  1.00  0.00     0.074 A 
ATOM     43  C   UNL A   1      40.100  26.414  28.928  1.00  0.00     0.031 C 
ATOM     44  C   UNL A   1      46.276  25.026  26.182  1.00  0.00     0.029 A 
ATOM     45  C   UNL A   1      46.074  26.400  26.630  1.00  0.00     0.049 A 
ATOM     46  H   UNL A   1      44.435  27.165  27.663  1.00  0.00     0.167 HD
ATOM     47  C   UNL A   1      40.707  28.777  29.336  1.00  0.00     0.034 A 
ATOM     48  C   UNL A   1      46.944  27.415  26.451  1.00  0.00     0.034 A 
ATOM     49  C   UNL A   1      41.635  29.875  29.343  1.00  0.00     0.049 A 
ATOM     50  C   UNL A   1      46.590  28.783  26.971  1.00  0.00     0.074 A 
ATOM     51  C   UNL A   1      41.451  31.151  29.843  1.00  0.00     0.029 A 
ATOM     52  N   UNL A   1      42.918  29.829  28.820  1.00  0.00    -0.354 N 
ATOM     53  N   UNL A   1      45.499  29.175  27.585  1.00  0.00    -0.248 NA
ATOM     54  C   UNL A   1      47.596  29.841  26.805  1.00  0.00     0.031 C 
ATOM     55  C   UNL A   1      42.612  31.887  29.593  1.00  0.00     0.029 A 
ATOM     56  C   UNL A   1      43.535  31.056  28.977  1.00  0.00     0.049 A 
ATOM     57  H   UNL A   1      43.328  29.039  28.398  1.00  0.00     0.167 HD
ATOM     58  C   UNL A   1      45.709  30.507  27.922  1.00  0.00     0.074 A 
ATOM     59  C   UNL A   1      47.033  30.854  27.450  1.00  0.00     0.031 C 
ATOM     60  C   UNL A   1      44.878  31.368  28.560  1.00  0.00     0.034 A 
BRANCH  47  61
ATOM     61  C   UNL A   1      39.322  29.006  29.880  1.00  0.00     0.023 A 
ATOM     62  C   UNL A   1      39.007  28.591  31.191  1.00  0.00     0.012 A 
ATOM     63  C   UNL A   1      38.347  29.677  29.115  1.00  0.00     0.148 A 
ATOM     64  C   UNL A   1      37.731  28.801  31.716  1.00  0.00     0.002 A 
ATOM     65  C   UNL A   1      37.096  29.928  29.664  1.00  0.00     0.091 A 
ATOM     66  F   UNL A   1      38.658  30.046  27.865  1.00  0.00    -0.205 F 
ATOM     67  C   UNL A   1      36.781  29.479  30.957  1.00  0.00     0.022 A 
BRANCH  65  68
ATOM     68  S   UNL A   1      35.830  30.867  28.802  1.00  0.00     0.127 S 
ATOM     69  O   UNL A   1      35.202  29.832  27.982  1.00  0.00    -0.237 OA
ATOM     70  O   UNL A   1      35.004  31.354  29.907  1.00  0.00    -0.237 OA
ATOM     71  O   UNL A   1      36.533  31.908  28.063  1.00  0.00    -0.744 OA
ENDBRANCH  65  68
ENDBRANCH  47  61
BRANCH  48  72
ATOM     72  C   UNL A   1      48.259  27.166  25.794  1.00  0.00     0.023 A 
ATOM     73  C   UNL A   1      49.339  26.695  26.567  1.00  0.00     0.012 A 
ATOM     74  C   UNL A   1      48.442  27.376  24.414  1.00  0.00     0.148 A 
ATOM     75  C   UNL A   1      50.587  26.472  25.985  1.00  0.00     0.002 A 
ATOM     76  C   UNL A   1      49.673  27.100  23.830  1.00  0.00     0.091 A 
ATOM     77  F   UNL A   1      47.404  27.830  23.699  1.00  0.00    -0.205 F 
ATOM     78  C   UNL A   1      50.752  26.666  24.617  1.00  0.00     0.022 A 
BRANCH  76  79
ATOM     79  S   UNL A   1      49.947  27.202  22.058  1.00  0.00     0.127 S 
ATOM     80  O   UNL A   1      49.772  28.631  21.812  1.00  0.00    -0.237 OA
ATOM     81  O   UNL A   1      51.323  26.720  21.940  1.00  0.00    -0.237 OA
ATOM     82  O   UNL A   1      48.948  26.331  21.454  1.00  0.00    -0.744 OA
ENDBRANCH  76  79
ENDBRANCH  48  72
BRANCH  60  83
ATOM     83  C   UNL A   1      45.387  32.753  28.859  1.00  0.00     0.023 A 
ATOM     84  C   UNL A   1      46.185  32.988  29.995  1.00  0.00     0.012 A 
ATOM     85  C   UNL A   1      45.151  33.802  27.947  1.00  0.00     0.148 A 
ATOM     86  C   UNL A   1      46.720  34.253  30.232  1.00  0.00     0.002 A 
ATOM     87  C   UNL A   1      45.732  35.045  28.161  1.00  0.00     0.091 A 
ATOM     88  F   UNL A   1      44.375  33.560  26.881  1.00  0.00    -0.205 F 
ATOM     89  C   UNL A   1      46.507  35.276  29.309  1.00  0.00     0.022 A 
BRANCH  87  90
ATOM     90  S   UNL A   1      45.600  36.389  26.977  1.00  0.00     0.127 S 
ATOM     91  O   UNL A   1      46.426  37.420  27.603  1.00  0.00    -0.237 OA
ATOM     92  O   UNL A   1      46.178  35.794  25.771  1.00  0.00    -0.237 OA
ATOM     93  O   UNL A   1      44.181  36.703  26.878  1.00  0.00    -0.744 OA
ENDBRANCH  87  90
ENDBRANCH  60  83
ENDBRANCH  34  35
ENDBRANCH  26  29
ENDBRANCH  24  25
ENDBRANCH  23  24
ENDBRANCH   1  23
TORSDOF 18
ENDMDL
MODEL 2
REMARK VINA RESULT:     -11.1      7.029     12.324
REMARK SMILES Cc1ncc(CNC(=O)N(CC(=O)NCCCNC(=O)c2ccc(-c3c4nc(c(-c5cccc(S(=O)(=O)[O-])c5F)c5ccc([nH]5)c(-c5cccc(S(=O)(=O)[O-])c5F)c5nc(c(-c6cccc(S(=O)(=O)[O-])c6F)c6ccc3[nH]6)C=C5)C=C4)cc2)C(C)(C)C)s1
REMARK SMILES IDX 15 1 14 2 12 3 13 4 11 6 10 7 8 8 7 9 9 11 6 12 5 13 1 14
REMARK SMILES IDX 2 15 3 16 88 17 4 18 84 19 85 20 86 21 87 22 16 23 17 24
REMARK SMILES IDX 18 25 19 26 20 28 21 29 22 30 83 31 23 32 82 33 24 34 25 35
REMARK SMILES IDX 26 36 76 37 27 38 81 39 75 40 77 41 28 42 80 43 74 44 73 45
REMARK SMILES IDX 29 47 61 48 41 49 60 50 42 51 45 52 59 53 78 54 43 55 44 56
REMARK SMILES IDX 58 58 79 59 46 60 30 61 31 62 39 63 32 64 34 65 40 66 33 67
REMARK SMILES IDX 35 68 36 69 37 70 38 71 62 72 63 73 71 74 64 75 66 76 72 77
REMARK SMILES IDX 65 78 67 79 68 80 69 81 70 82 47 83 48 84 56 85 49 86 51 87
REMARK SMILES IDX 57 88 50 89 52 90 53 91 54 92 55 93
REMARK H PARENT 14 5 7 10 18 27 77 46 45 57
REMARK Flexibility Score: inf
ROOT
ATOM      1  C   UNL A   1      31.435  30.899  26.146  1.00  0.00     0.117 C 
ENDROOT
BRANCH   1   2
ATOM      2  N   UNL A   1      32.232  30.070  27.025  1.00  0.00    -0.354 N 
ATOM      3  C   UNL A   1      33.328  29.303  26.777  1.00  0.00     0.239 C 
ATOM      4  O   UNL A   1      34.011  28.990  27.761  1.00  0.00    -0.273 OA
ATOM      5  H   UNL A   1      31.930  30.060  27.962  1.00  0.00     0.163 HD
BRANCH   3   6
ATOM      6  C   UNL A   1      33.828  28.952  25.364  1.00  0.00     0.221 C 
BRANCH   6   7
ATOM      7  N   UNL A   1      32.927  28.196  24.491  1.00  0.00    -0.311 N 
BRANCH   7   8
ATOM      8  C   UNL A   1      32.510  28.607  23.248  1.00  0.00     0.318 C 
ATOM      9  N   UNL A   1      31.299  29.108  22.958  1.00  0.00    -0.333 N 
ATOM     10  H   UNL A   1      31.314  29.504  22.057  1.00  0.00     0.165 HD
ATOM     11  O   UNL A   1      33.241  28.558  22.254  1.00  0.00    -0.249 OA
BRANCH   9  12
ATOM     12  C   UNL A   1      29.975  29.259  23.534  1.00  0.00     0.166 C 
BRANCH  12  13
ATOM     13  C   UNL A   1      29.239  30.426  22.980  1.00  0.00     0.044 A 
ATOM     14  C   UNL A   1      27.583  32.959  20.559  1.00  0.00     0.079 C 
ATOM     15  C   UNL A   1      28.154  32.144  21.663  1.00  0.00     0.090 A 
ATOM     16  N   UNL A   1      28.011  32.419  22.942  1.00  0.00    -0.250 NA
ATOM     17  S   UNL A   1      29.073  30.739  21.304  1.00  0.00    -0.122 S 
ATOM     18  C   UNL A   1      28.628  31.441  23.691  1.00  0.00     0.128 A 
ENDBRANCH  12  13
ENDBRANCH   9  12
ENDBRANCH   7   8
BRANCH   7  19
ATOM     19  C   UNL A   1      32.517  26.795  24.965  1.00  0.00     0.037 C 
ATOM     20  C   UNL A   1      31.300  26.848  25.911  1.00  0.00     0.034 C 
ATOM     21  C   UNL A   1      32.192  25.877  23.759  1.00  0.00     0.034 C 
ATOM     22  C   UNL A   1      33.618  26.035  25.760  1.00  0.00     0.034 C 
ENDBRANCH   7  19
ENDBRANCH   6   7
ENDBRANCH   3   6
ENDBRANCH   1   2
BRANCH   1  23
ATOM     23  C   UNL A   1      31.422  32.375  26.487  1.00  0.00     0.042 C 
BRANCH  23  24
ATOM     24  C   UNL A   1      32.598  32.811  27.338  1.00  0.00     0.118 C 
BRANCH  24  25
ATOM     25  N   UNL A   1      32.457  34.191  27.787  1.00  0.00    -0.352 N 
ATOM     26  C   UNL A   1      33.118  34.838  28.805  1.00  0.00     0.251 C 
ATOM     27  H   UNL A   1      31.800  34.734  27.294  1.00  0.00     0.163 HD
ATOM     28  O   UNL A   1      32.713  35.922  29.206  1.00  0.00    -0.269 OA
BRANCH  26  29
ATOM     29  C   UNL A   1      34.310  34.207  29.413  1.00  0.00     0.039 A 
ATOM     30  C   UNL A   1      35.578  34.494  28.900  1.00  0.00     0.014 A 
ATOM     31  C   UNL A   1      34.169  33.339  30.498  1.00  0.00     0.014 A 
ATOM     32  C   UNL A   1      36.709  33.952  29.516  1.00  0.00     0.010 A 
ATOM     33  C   UNL A   1      35.296  32.880  31.164  1.00  0.00     0.010 A 
ATOM     34  C   UNL A   1      36.579  33.164  30.670  1.00  0.00    -0.014 A 
BRANCH  34  35
ATOM     35  C   UNL A   1      37.754  32.589  31.373  1.00  0.00     0.031 A 
ATOM     36  C   UNL A   1      38.489  31.429  30.755  1.00  0.00     0.074 A 
ATOM     37  C   UNL A   1      38.088  33.028  32.601  1.00  0.00     0.049 A 
ATOM     38  N   UNL A   1      39.442  30.692  31.261  1.00  0.00    -0.248 NA
ATOM     39  C   UNL A   1      38.072  31.022  29.402  1.00  0.00     0.031 C 
ATOM     40  C   UNL A   1      37.416  34.103  33.332  1.00  0.00     0.029 A 
ATOM     41  N   UNL A   1      39.059  32.593  33.471  1.00  0.00    -0.354 N 
ATOM     42  C   UNL A   1      39.701  29.707  30.314  1.00  0.00     0.074 A 
ATOM     43  C   UNL A   1      38.782  29.921  29.218  1.00  0.00     0.031 C 
ATOM     44  C   UNL A   1      37.989  34.242  34.538  1.00  0.00     0.029 A 
ATOM     45  C   UNL A   1      39.040  33.240  34.685  1.00  0.00     0.049 A 
ATOM     46  H   UNL A   1      39.705  31.886  33.247  1.00  0.00     0.167 HD
ATOM     47  C   UNL A   1      40.636  28.729  30.340  1.00  0.00     0.034 A 
ATOM     48  C   UNL A   1      39.773  33.035  35.797  1.00  0.00     0.034 A 
ATOM     49  C   UNL A   1      41.576  28.549  31.413  1.00  0.00     0.049 A 
ATOM     50  C   UNL A   1      40.825  31.958  35.793  1.00  0.00     0.074 A 
ATOM     51  C   UNL A   1      42.616  27.643  31.500  1.00  0.00     0.029 A 
ATOM     52  N   UNL A   1      41.584  29.285  32.588  1.00  0.00    -0.354 N 
ATOM     53  N   UNL A   1      41.145  31.122  34.835  1.00  0.00    -0.248 NA
ATOM     54  C   UNL A   1      41.637  31.814  37.009  1.00  0.00     0.031 C 
ATOM     55  C   UNL A   1      43.235  27.808  32.742  1.00  0.00     0.029 A 
ATOM     56  C   UNL A   1      42.607  28.849  33.410  1.00  0.00     0.049 A 
ATOM     57  H   UNL A   1      40.955  30.011  32.804  1.00  0.00     0.167 HD
ATOM     58  C   UNL A   1      42.227  30.390  35.312  1.00  0.00     0.074 A 
ATOM     59  C   UNL A   1      42.511  30.885  36.642  1.00  0.00     0.031 C 
ATOM     60  C   UNL A   1      42.919  29.395  34.706  1.00  0.00     0.034 A 
BRANCH  47  61
ATOM     61  C   UNL A   1      40.714  27.800  29.157  1.00  0.00     0.023 A 
ATOM     62  C   UNL A   1      39.854  26.684  29.085  1.00  0.00     0.012 A 
ATOM     63  C   UNL A   1      41.603  28.056  28.095  1.00  0.00     0.148 A 
ATOM     64  C   UNL A   1      39.906  25.815  27.994  1.00  0.00     0.002 A 
ATOM     65  C   UNL A   1      41.612  27.216  26.988  1.00  0.00     0.091 A 
ATOM     66  F   UNL A   1      42.426  29.109  28.191  1.00  0.00    -0.205 F 
ATOM     67  C   UNL A   1      40.777  26.089  26.943  1.00  0.00     0.022 A 
BRANCH  65  68
ATOM     68  S   UNL A   1      42.635  27.527  25.544  1.00  0.00     0.127 S 
ATOM     69  O   UNL A   1      42.063  28.775  25.040  1.00  0.00    -0.237 OA
ATOM     70  O   UNL A   1      43.966  27.660  26.134  1.00  0.00    -0.237 OA
ATOM     71  O   UNL A   1      42.467  26.368  24.676  1.00  0.00    -0.744 OA
ENDBRANCH  65  68
ENDBRANCH  47  61
BRANCH  48  72
ATOM     72  C   UNL A   1      39.577  33.904  36.993  1.00  0.00     0.023 A 
ATOM     73  C   UNL A   1      39.997  35.248  36.947  1.00  0.00     0.012 A 
ATOM     74  C   UNL A   1      38.965  33.415  38.163  1.00  0.00     0.148 A 
ATOM     75  C   UNL A   1      39.846  36.080  38.056  1.00  0.00     0.002 A 
ATOM     76  C   UNL A   1      38.768  34.264  39.246  1.00  0.00     0.091 A 
ATOM     77  F   UNL A   1      38.579  32.133  38.188  1.00  0.00    -0.205 F 
ATOM     78  C   UNL A   1      39.224  35.591  39.202  1.00  0.00     0.022 A 
BRANCH  76  79
ATOM     79  S   UNL A   1      37.868  33.761  40.717  1.00  0.00     0.127 S 
ATOM     80  O   UNL A   1      37.685  35.037  41.404  1.00  0.00    -0.237 OA
ATOM     81  O   UNL A   1      36.650  33.191  40.141  1.00  0.00    -0.237 OA
ATOM     82  O   UNL A   1      38.725  32.798  41.394  1.00  0.00    -0.744 OA
ENDBRANCH  76  79
ENDBRANCH  48  72
BRANCH  60  83
ATOM     83  C   UNL A   1      44.101  28.810  35.432  1.00  0.00     0.023 A 
ATOM     84  C   UNL A   1      45.386  29.360  35.257  1.00  0.00     0.012 A 
ATOM     85  C   UNL A   1      43.912  27.774  36.368  1.00  0.00     0.148 A 
ATOM     86  C   UNL A   1      46.468  28.870  35.985  1.00  0.00     0.002 A 
ATOM     87  C   UNL A   1      44.984  27.329  37.129  1.00  0.00     0.091 A 
ATOM     88  F   UNL A   1      42.684  27.254  36.506  1.00  0.00    -0.205 F 
ATOM     89  C   UNL A   1      46.265  27.866  36.931  1.00  0.00     0.022 A 
BRANCH  87  90
ATOM     90  S   UNL A   1      44.797  26.117  38.442  1.00  0.00     0.127 S 
ATOM     91  O   UNL A   1      44.271  24.965  37.711  1.00  0.00    -0.237 OA
ATOM     92  O   UNL A   1      46.172  25.962  38.917  1.00  0.00    -0.237 OA
ATOM     93  O   UNL A   1      43.884  26.708  39.411  1.00  0.00    -0.744 OA
ENDBRANCH  87  90
ENDBRANCH  60  83
ENDBRANCH  34  35
ENDBRANCH  26  29
ENDBRANCH  24  25
ENDBRANCH  23  24
ENDBRANCH   1  23
TORSDOF 18
ENDMDL
MODEL 3
REMARK VINA RESULT:     -10.9      1.681      2.113
REMARK SMILES Cc1ncc(CNC(=O)N(CC(=O)NCCCNC(=O)c2ccc(-c3c4nc(c(-c5cccc(S(=O)(=O)[O-])c5F)c5ccc([nH]5)c(-c5cccc(S(=O)(=O)[O-])c5F)c5nc(c(-c6cccc(S(=O)(=O)[O-])c6F)c6ccc3[nH]6)C=C5)C=C4)cc2)C(C)(C)C)s1
REMARK SMILES IDX 15 1 14 2 12 3 13 4 11 6 10 7 8 8 7 9 9 11 6 12 5 13 1 14
REMARK SMILES IDX 2 15 3 16 88 17 4 18 84 19 85 20 86 21 87 22 16 23 17 24
REMARK SMILES IDX 18 25 19 26 20 28 21 29 22 30 83 31 23 32 82 33 24 34 25 35
REMARK SMILES IDX 26 36 76 37 27 38 81 39 75 40 77 41 28 42 80 43 74 44 73 45
REMARK SMILES IDX 29 47 61 48 41 49 60 50 42 51 45 52 59 53 78 54 43 55 44 56
REMARK SMILES IDX 58 58 79 59 46 60 30 61 31 62 39 63 32 64 34 65 40 66 33 67
REMARK SMILES IDX 35 68 36 69 37 70 38 71 62 72 63 73 71 74 64 75 66 76 72 77
REMARK SMILES IDX 65 78 67 79 68 80 69 81 70 82 47 83 48 84 56 85 49 86 51 87
REMARK SMILES IDX 57 88 50 89 52 90 53 91 54 92 55 93
REMARK H PARENT 14 5 7 10 18 27 77 46 45 57
REMARK Flexibility Score: inf
ROOT
ATOM      1  C   UNL A   1      37.451  21.198  24.381  1.00  0.00     0.117 C 
ENDROOT
BRANCH   1   2
ATOM      2  N   UNL A   1      37.477  22.409  25.173  1.00  0.00    -0.354 N 
ATOM      3  C   UNL A   1      36.502  23.317  25.447  1.00  0.00     0.239 C 
ATOM      4  O   UNL A   1      36.697  24.052  26.424  1.00  0.00    -0.273 OA
ATOM      5  H   UNL A   1      38.349  22.609  25.583  1.00  0.00     0.163 HD
BRANCH   3   6
ATOM      6  C   UNL A   1      35.146  23.365  24.720  1.00  0.00     0.221 C 
BRANCH   6   7
ATOM      7  N   UNL A   1      34.064  22.526  25.241  1.00  0.00    -0.311 N 
BRANCH   7   8
ATOM      8  C   UNL A   1      34.241  21.429  26.049  1.00  0.00     0.318 C 
ATOM      9  N   UNL A   1      34.403  20.166  25.625  1.00  0.00    -0.333 N 
ATOM     10  H   UNL A   1      34.704  19.603  26.374  1.00  0.00     0.165 HD
ATOM     11  O   UNL A   1      34.276  21.512  27.281  1.00  0.00    -0.249 OA
BRANCH   9  12
ATOM     12  C   UNL A   1      34.283  19.356  24.426  1.00  0.00     0.166 C 
BRANCH  12  13
ATOM     13  C   UNL A   1      33.977  17.932  24.725  1.00  0.00     0.044 A 
ATOM     14  C   UNL A   1      32.212  14.677  25.868  1.00  0.00     0.079 C 
ATOM     15  C   UNL A   1      33.081  15.782  25.385  1.00  0.00     0.090 A 
ATOM     16  N   UNL A   1      34.274  15.613  24.858  1.00  0.00    -0.250 NA
ATOM     17  S   UNL A   1      32.543  17.408  25.501  1.00  0.00    -0.122 S 
ATOM     18  C   UNL A   1      34.785  16.837  24.482  1.00  0.00     0.128 A 
ENDBRANCH  12  13
ENDBRANCH   9  12
ENDBRANCH   7   8
BRANCH   7  19
ATOM     19  C   UNL A   1      32.629  22.983  24.946  1.00  0.00     0.037 C 
ATOM     20  C   UNL A   1      32.482  24.513  25.074  1.00  0.00     0.034 C 
ATOM     21  C   UNL A   1      32.187  22.539  23.529  1.00  0.00     0.034 C 
ATOM     22  C   UNL A   1      31.555  22.389  25.903  1.00  0.00     0.034 C 
ENDBRANCH   7  19
ENDBRANCH   6   7
ENDBRANCH   3   6
ENDBRANCH   1   2
BRANCH   1  23
ATOM     23  C   UNL A   1      38.158  20.008  24.996  1.00  0.00     0.042 C 
BRANCH  23  24
ATOM     24  C   UNL A   1      39.330  20.390  25.879  1.00  0.00     0.118 C 
BRANCH  24  25
ATOM     25  N   UNL A   1      40.294  19.303  25.998  1.00  0.00    -0.352 N 
ATOM     26  C   UNL A   1      41.663  19.372  26.099  1.00  0.00     0.251 C 
ATOM     27  H   UNL A   1      39.913  18.395  26.008  1.00  0.00     0.163 HD
ATOM     28  O   UNL A   1      42.341  18.363  25.950  1.00  0.00    -0.269 OA
BRANCH  26  29
ATOM     29  C   UNL A   1      42.305  20.676  26.376  1.00  0.00     0.039 A 
ATOM     30  C   UNL A   1      42.690  21.494  25.310  1.00  0.00     0.014 A 
ATOM     31  C   UNL A   1      42.516  21.089  27.694  1.00  0.00     0.014 A 
ATOM     32  C   UNL A   1      43.234  22.755  25.572  1.00  0.00     0.010 A 
ATOM     33  C   UNL A   1      42.967  22.377  27.948  1.00  0.00     0.010 A 
ATOM     34  C   UNL A   1      43.350  23.217  26.891  1.00  0.00    -0.014 A 
BRANCH  34  35
ATOM     35  C   UNL A   1      43.898  24.559  27.214  1.00  0.00     0.031 A 
ATOM     36  C   UNL A   1      42.977  25.626  27.746  1.00  0.00     0.074 A 
ATOM     37  C   UNL A   1      45.182  24.852  26.928  1.00  0.00     0.049 A 
ATOM     38  N   UNL A   1      43.215  26.894  27.954  1.00  0.00    -0.248 NA
ATOM     39  C   UNL A   1      41.594  25.219  28.047  1.00  0.00     0.031 C 
ATOM     40  C   UNL A   1      46.157  23.924  26.354  1.00  0.00     0.029 A 
ATOM     41  N   UNL A   1      45.876  26.032  27.046  1.00  0.00    -0.354 N 
ATOM     42  C   UNL A   1      42.005  27.443  28.361  1.00  0.00     0.074 A 
ATOM     43  C   UNL A   1      41.026  26.379  28.338  1.00  0.00     0.031 C 
ATOM     44  C   UNL A   1      47.320  24.568  26.166  1.00  0.00     0.029 A 
ATOM     45  C   UNL A   1      47.163  25.963  26.565  1.00  0.00     0.049 A 
ATOM     46  H   UNL A   1      45.489  26.847  27.437  1.00  0.00     0.167 HD
ATOM     47  C   UNL A   1      41.735  28.713  28.746  1.00  0.00     0.034 A 
ATOM     48  C   UNL A   1      48.103  26.921  26.441  1.00  0.00     0.034 A 
ATOM     49  C   UNL A   1      42.722  29.756  28.810  1.00  0.00     0.049 A 
ATOM     50  C   UNL A   1      47.787  28.320  26.899  1.00  0.00     0.074 A 
ATOM     51  C   UNL A   1      42.573  31.053  29.265  1.00  0.00     0.029 A 
ATOM     52  N   UNL A   1      44.040  29.623  28.400  1.00  0.00    -0.354 N 
ATOM     53  N   UNL A   1      46.674  28.790  27.407  1.00  0.00    -0.248 NA
ATOM     54  C   UNL A   1      48.866  29.314  26.798  1.00  0.00     0.031 C 
ATOM     55  C   UNL A   1      43.792  31.715  29.100  1.00  0.00     0.029 A 
ATOM     56  C   UNL A   1      44.714  30.816  28.585  1.00  0.00     0.049 A 
ATOM     57  H   UNL A   1      44.437  28.800  28.033  1.00  0.00     0.167 HD
ATOM     58  C   UNL A   1      46.933  30.116  27.734  1.00  0.00     0.074 A 
ATOM     59  C   UNL A   1      48.310  30.374  27.370  1.00  0.00     0.031 C 
ATOM     60  C   UNL A   1      46.103  31.040  28.278  1.00  0.00     0.034 A 
BRANCH  47  61
ATOM     61  C   UNL A   1      40.325  29.036  29.163  1.00  0.00     0.023 A 
ATOM     62  C   UNL A   1      39.376  29.418  28.192  1.00  0.00     0.012 A 
ATOM     63  C   UNL A   1      39.924  28.915  30.509  1.00  0.00     0.148 A 
ATOM     64  C   UNL A   1      38.063  29.715  28.558  1.00  0.00     0.002 A 
ATOM     65  C   UNL A   1      38.602  29.161  30.858  1.00  0.00     0.091 A 
ATOM     66  F   UNL A   1      40.844  28.570  31.421  1.00  0.00    -0.205 F 
ATOM     67  C   UNL A   1      37.675  29.576  29.888  1.00  0.00     0.022 A 
BRANCH  65  68
ATOM     68  S   UNL A   1      37.980  28.929  32.527  1.00  0.00     0.127 S 
ATOM     69  O   UNL A   1      38.869  29.800  33.296  1.00  0.00    -0.237 OA
ATOM     70  O   UNL A   1      36.604  29.411  32.411  1.00  0.00    -0.237 OA
ATOM     71  O   UNL A   1      38.105  27.505  32.808  1.00  0.00    -0.744 OA
ENDBRANCH  65  68
ENDBRANCH  47  61
BRANCH  48  72
ATOM     72  C   UNL A   1      49.452  26.579  25.906  1.00  0.00     0.023 A 
ATOM     73  C   UNL A   1      50.324  25.792  26.682  1.00  0.00     0.012 A 
ATOM     74  C   UNL A   1      49.868  27.014  24.633  1.00  0.00     0.148 A 
ATOM     75  C   UNL A   1      51.600  25.474  26.218  1.00  0.00     0.002 A 
ATOM     76  C   UNL A   1      51.121  26.648  24.153  1.00  0.00     0.091 A 
ATOM     77  F   UNL A   1      49.026  27.767  23.913  1.00  0.00    -0.205 F 
ATOM     78  C   UNL A   1      51.996  25.894  24.951  1.00  0.00     0.022 A 
BRANCH  76  79
ATOM     79  S   UNL A   1      51.669  27.037  22.488  1.00  0.00     0.127 S 
ATOM     80  O   UNL A   1      50.507  26.646  21.693  1.00  0.00    -0.237 OA
ATOM     81  O   UNL A   1      51.898  28.479  22.578  1.00  0.00    -0.237 OA
ATOM     82  O   UNL A   1      52.874  26.247  22.274  1.00  0.00    -0.744 OA
ENDBRANCH  76  79
ENDBRANCH  48  72
BRANCH  60  83
ATOM     83  C   UNL A   1      46.666  32.401  28.590  1.00  0.00     0.023 A 
ATOM     84  C   UNL A   1      47.232  32.664  29.852  1.00  0.00     0.012 A 
ATOM     85  C   UNL A   1      46.721  33.388  27.586  1.00  0.00     0.148 A 
ATOM     86  C   UNL A   1      47.822  33.899  30.117  1.00  0.00     0.002 A 
ATOM     87  C   UNL A   1      47.358  34.595  27.839  1.00  0.00     0.091 A 
ATOM     88  F   UNL A   1      46.160  33.122  26.397  1.00  0.00    -0.205 F 
ATOM     89  C   UNL A   1      47.899  34.858  29.108  1.00  0.00     0.022 A 
BRANCH  87  90
ATOM     90  S   UNL A   1      47.597  35.845  26.572  1.00  0.00     0.127 S 
ATOM     91  O   UNL A   1      48.415  36.831  27.277  1.00  0.00    -0.237 OA
ATOM     92  O   UNL A   1      48.305  35.098  25.532  1.00  0.00    -0.237 OA
ATOM     93  O   UNL A   1      46.265  36.297  26.193  1.00  0.00    -0.744 OA
ENDBRANCH  87  90
ENDBRANCH  60  83
ENDBRANCH  34  35
ENDBRANCH  26  29
ENDBRANCH  24  25
ENDBRANCH  23  24
ENDBRANCH   1  23
TORSDOF 18
ENDMDL
