MODEL 1
REMARK VINA RESULT:     -13.0      0.000      0.000
REMARK SMILES Cn1c(=O)c2c(-c3ccc(Cl)cc3)n(CC(=O)NCCCNC(=O)c3ccc(-c4c5nc(c(-c6cccc(S(=O)(=O)[O-])c6F)c6ccc([nH]6)c(-c6cccc(S(=O)(=O)[O-])c6F)c6nc(c(-c7cccc(S(=O)(=O)[O-])c7F)c7ccc4[nH]7)C=C6)C=C5)cc3)cc2n(C)c1=O
REMARK SMILES IDX 20 1 19 2 18 3 16 4 17 5 15 7 14 8 1 9 2 10 3 11 92 12 4 13
REMARK SMILES IDX 5 14 90 15 93 16 6 17 89 18 91 19 88 20 7 21 8 22 13 23 9 24
REMARK SMILES IDX 12 25 10 26 11 27 21 28 22 29 23 30 24 32 25 33 26 34 87 35
REMARK SMILES IDX 27 36 86 37 28 38 29 39 30 40 80 41 31 42 85 43 79 44 81 45
REMARK SMILES IDX 32 46 84 47 78 48 77 49 33 51 65 52 45 53 64 54 46 55 49 56
REMARK SMILES IDX 63 57 82 58 47 59 48 60 62 62 83 63 50 64 34 65 35 66 43 67
REMARK SMILES IDX 36 68 38 69 44 70 37 71 39 72 40 73 41 74 42 75 66 76 67 77
REMARK SMILES IDX 75 78 68 79 70 80 76 81 69 82 71 83 72 84 73 85 74 86 51 87
REMARK SMILES IDX 52 88 60 89 53 90 55 91 61 92 54 93 56 94 57 95 58 96 59 97
REMARK H PARENT 18 6 22 31 81 50 49 61
REMARK Flexibility Score: inf
ROOT
ATOM      1  C   UNL A   1      37.628  19.762  25.027  1.00  0.00     0.042 C 
ENDROOT
BRANCH   1   2
ATOM      2  C   UNL A   1      36.513  20.808  25.086  1.00  0.00     0.117 C 
BRANCH   2   3
ATOM      3  N   UNL A   1      36.560  21.755  23.988  1.00  0.00    -0.354 N 
ATOM      4  C   UNL A   1      36.219  23.078  23.989  1.00  0.00     0.239 C 
ATOM      5  O   UNL A   1      36.429  23.742  22.973  1.00  0.00    -0.273 OA
ATOM      6  H   UNL A   1      36.880  21.397  23.129  1.00  0.00     0.163 HD
BRANCH   4   7
ATOM      7  C   UNL A   1      35.681  23.733  25.243  1.00  0.00     0.222 C 
BRANCH   7   8
ATOM      8  N   UNL A   1      34.455  24.496  25.035  1.00  0.00    -0.335 N 
ATOM      9  C   UNL A   1      29.136  26.762  23.764  1.00  0.00     0.158 C 
ATOM     10  N   UNL A   1      30.524  26.552  24.121  1.00  0.00    -0.263 N 
ATOM     11  C   UNL A   1      30.983  25.228  24.175  1.00  0.00     0.265 A 
ATOM     12  C   UNL A   1      31.265  27.713  24.419  1.00  0.00     0.330 A 
ATOM     13  O   UNL A   1      30.285  24.255  23.929  1.00  0.00    -0.268 OA
ATOM     14  C   UNL A   1      32.376  25.120  24.553  1.00  0.00     0.090 A 
ATOM     15  N   UNL A   1      32.616  27.547  24.739  1.00  0.00    -0.295 N 
ATOM     16  O   UNL A   1      30.724  28.822  24.406  1.00  0.00    -0.248 OA
ATOM     17  C   UNL A   1      33.185  24.000  24.733  1.00  0.00     0.064 A 
ATOM     18  C   UNL A   1      33.139  26.268  24.813  1.00  0.00     0.076 A 
ATOM     19  C   UNL A   1      33.440  28.722  24.998  1.00  0.00     0.155 C 
ATOM     20  C   UNL A   1      34.411  25.871  25.128  1.00  0.00     0.114 A 
BRANCH  17  21
ATOM     21  C   UNL A   1      32.877  22.573  24.558  1.00  0.00    -0.001 A 
ATOM     22  C   UNL A   1      32.839  21.704  25.655  1.00  0.00     0.012 A 
ATOM     23  C   UNL A   1      32.680  22.042  23.274  1.00  0.00     0.012 A 
ATOM     24  C   UNL A   1      32.683  20.327  25.466  1.00  0.00     0.021 A 
ATOM     25  C   UNL A   1      32.532  20.667  23.080  1.00  0.00     0.021 A 
ATOM     26  C   UNL A   1      32.545  19.813  24.178  1.00  0.00     0.041 A 
ATOM     27  Cl  UNL A   1      32.393  18.116  23.943  1.00  0.00    -0.084 Cl
ENDBRANCH  17  21
ENDBRANCH   7   8
ENDBRANCH   4   7
ENDBRANCH   2   3
ENDBRANCH   1   2
BRANCH   1  28
ATOM     28  C   UNL A   1      38.907  20.263  25.664  1.00  0.00     0.118 C 
BRANCH  28  29
ATOM     29  N   UNL A   1      39.927  19.212  25.760  1.00  0.00    -0.352 N 
ATOM     30  C   UNL A   1      41.279  19.363  26.004  1.00  0.00     0.251 C 
ATOM     31  H   UNL A   1      39.610  18.288  25.636  1.00  0.00     0.163 HD
ATOM     32  O   UNL A   1      42.069  18.460  25.755  1.00  0.00    -0.269 OA
BRANCH  30  33
ATOM     33  C   UNL A   1      41.739  20.636  26.578  1.00  0.00     0.039 A 
ATOM     34  C   UNL A   1      42.267  21.657  25.782  1.00  0.00     0.014 A 
ATOM     35  C   UNL A   1      41.566  20.811  27.947  1.00  0.00     0.014 A 
ATOM     36  C   UNL A   1      42.544  22.885  26.376  1.00  0.00     0.010 A 
ATOM     37  C   UNL A   1      41.643  22.066  28.479  1.00  0.00     0.010 A 
ATOM     38  C   UNL A   1      42.208  23.083  27.724  1.00  0.00    -0.014 A 
BRANCH  38  39
ATOM     39  C   UNL A   1      42.338  24.384  28.364  1.00  0.00     0.031 A 
ATOM     40  C   UNL A   1      41.166  25.282  28.171  1.00  0.00     0.074 A 
ATOM     41  C   UNL A   1      43.330  24.637  29.249  1.00  0.00     0.049 A 
ATOM     42  N   UNL A   1      41.147  26.411  27.547  1.00  0.00    -0.248 NA
ATOM     43  C   UNL A   1      39.833  24.809  28.582  1.00  0.00     0.031 C 
ATOM     44  C   UNL A   1      44.362  23.711  29.744  1.00  0.00     0.029 A 
ATOM     45  N   UNL A   1      43.527  25.732  30.028  1.00  0.00    -0.354 N 
ATOM     46  C   UNL A   1      39.852  26.903  27.690  1.00  0.00     0.074 A 
ATOM     47  C   UNL A   1      39.050  25.801  28.152  1.00  0.00     0.031 C 
ATOM     48  C   UNL A   1      44.867  24.177  30.907  1.00  0.00     0.029 A 
ATOM     49  C   UNL A   1      44.333  25.504  31.142  1.00  0.00     0.049 A 
ATOM     50  H   UNL A   1      43.135  26.612  29.823  1.00  0.00     0.167 HD
ATOM     51  C   UNL A   1      39.597  28.241  27.644  1.00  0.00     0.034 A 
ATOM     52  C   UNL A   1      44.501  26.330  32.206  1.00  0.00     0.034 A 
ATOM     53  C   UNL A   1      40.741  28.967  27.152  1.00  0.00     0.049 A 
ATOM     54  C   UNL A   1      44.092  27.682  31.761  1.00  0.00     0.074 A 
ATOM     55  C   UNL A   1      41.458  28.970  25.974  1.00  0.00     0.029 A 
ATOM     56  N   UNL A   1      41.548  29.556  28.096  1.00  0.00    -0.354 N 
ATOM     57  N   UNL A   1      44.735  28.358  30.850  1.00  0.00    -0.248 NA
ATOM     58  C   UNL A   1      42.712  28.078  31.984  1.00  0.00     0.031 C 
ATOM     59  C   UNL A   1      42.817  29.115  26.378  1.00  0.00     0.029 A 
ATOM     60  C   UNL A   1      42.847  29.276  27.765  1.00  0.00     0.049 A 
ATOM     61  H   UNL A   1      41.247  30.084  28.870  1.00  0.00     0.167 HD
ATOM     62  C   UNL A   1      43.730  28.912  30.068  1.00  0.00     0.074 A 
ATOM     63  C   UNL A   1      42.514  28.799  30.876  1.00  0.00     0.031 C 
ATOM     64  C   UNL A   1      43.913  29.125  28.731  1.00  0.00     0.034 A 
BRANCH  51  65
ATOM     65  C   UNL A   1      38.474  28.955  28.356  1.00  0.00     0.023 A 
ATOM     66  C   UNL A   1      37.617  29.755  27.567  1.00  0.00     0.012 A 
ATOM     67  C   UNL A   1      38.378  29.103  29.758  1.00  0.00     0.148 A 
ATOM     68  C   UNL A   1      36.746  30.688  28.139  1.00  0.00     0.002 A 
ATOM     69  C   UNL A   1      37.459  29.977  30.326  1.00  0.00     0.091 A 
ATOM     70  F   UNL A   1      39.263  28.495  30.554  1.00  0.00    -0.205 F 
ATOM     71  C   UNL A   1      36.662  30.794  29.520  1.00  0.00     0.022 A 
BRANCH  69  72
ATOM     72  S   UNL A   1      37.267  30.132  32.107  1.00  0.00     0.127 S 
ATOM     73  O   UNL A   1      38.521  30.780  32.482  1.00  0.00    -0.237 OA
ATOM     74  O   UNL A   1      36.078  30.978  32.205  1.00  0.00    -0.237 OA
ATOM     75  O   UNL A   1      37.079  28.775  32.602  1.00  0.00    -0.744 OA
ENDBRANCH  69  72
ENDBRANCH  51  65
BRANCH  52  76
ATOM     76  C   UNL A   1      44.717  26.017  33.640  1.00  0.00     0.023 A 
ATOM     77  C   UNL A   1      46.028  26.000  34.159  1.00  0.00     0.012 A 
ATOM     78  C   UNL A   1      43.641  26.046  34.555  1.00  0.00     0.148 A 
ATOM     79  C   UNL A   1      46.262  26.059  35.540  1.00  0.00     0.002 A 
ATOM     80  C   UNL A   1      43.878  26.112  35.926  1.00  0.00     0.091 A 
ATOM     81  F   UNL A   1      42.391  26.106  34.078  1.00  0.00    -0.205 F 
ATOM     82  C   UNL A   1      45.189  26.130  36.422  1.00  0.00     0.022 A 
BRANCH  80  83
ATOM     83  S   UNL A   1      42.546  26.272  37.124  1.00  0.00     0.127 S 
ATOM     84  O   UNL A   1      43.282  26.336  38.387  1.00  0.00    -0.237 OA
ATOM     85  O   UNL A   1      41.923  27.528  36.713  1.00  0.00    -0.237 OA
ATOM     86  O   UNL A   1      41.724  25.080  36.965  1.00  0.00    -0.744 OA
ENDBRANCH  80  83
ENDBRANCH  52  76
BRANCH  64  87
ATOM     87  C   UNL A   1      45.300  28.943  28.160  1.00  0.00     0.023 A 
ATOM     88  C   UNL A   1      46.315  29.916  28.302  1.00  0.00     0.012 A 
ATOM     89  C   UNL A   1      45.646  27.678  27.662  1.00  0.00     0.148 A 
ATOM     90  C   UNL A   1      47.636  29.635  27.946  1.00  0.00     0.002 A 
ATOM     91  C   UNL A   1      46.970  27.383  27.360  1.00  0.00     0.091 A 
ATOM     92  F   UNL A   1      44.674  26.763  27.534  1.00  0.00    -0.205 F 
ATOM     93  C   UNL A   1      47.969  28.362  27.490  1.00  0.00     0.022 A 
BRANCH  91  94
ATOM     94  S   UNL A   1      47.481  25.723  26.913  1.00  0.00     0.127 S 
ATOM     95  O   UNL A   1      48.914  25.897  26.683  1.00  0.00    -0.237 OA
ATOM     96  O   UNL A   1      47.142  24.957  28.113  1.00  0.00    -0.237 OA
ATOM     97  O   UNL A   1      46.698  25.363  25.737  1.00  0.00    -0.744 OA
ENDBRANCH  91  94
ENDBRANCH  64  87
ENDBRANCH  38  39
ENDBRANCH  30  33
ENDBRANCH  28  29
ENDBRANCH   1  28
TORSDOF 15
ENDMDL
MODEL 2
REMARK VINA RESULT:     -12.3      3.064      7.941
REMARK SMILES Cn1c(=O)c2c(-c3ccc(Cl)cc3)n(CC(=O)NCCCNC(=O)c3ccc(-c4c5nc(c(-c6cccc(S(=O)(=O)[O-])c6F)c6ccc([nH]6)c(-c6cccc(S(=O)(=O)[O-])c6F)c6nc(c(-c7cccc(S(=O)(=O)[O-])c7F)c7ccc4[nH]7)C=C6)C=C5)cc3)cc2n(C)c1=O
REMARK SMILES IDX 20 1 19 2 18 3 16 4 17 5 15 7 14 8 1 9 2 10 3 11 92 12 4 13
REMARK SMILES IDX 5 14 90 15 93 16 6 17 89 18 91 19 88 20 7 21 8 22 13 23 9 24
REMARK SMILES IDX 12 25 10 26 11 27 21 28 22 29 23 30 24 32 25 33 26 34 87 35
REMARK SMILES IDX 27 36 86 37 28 38 29 39 30 40 80 41 31 42 85 43 79 44 81 45
REMARK SMILES IDX 32 46 84 47 78 48 77 49 33 51 65 52 45 53 64 54 46 55 49 56
REMARK SMILES IDX 63 57 82 58 47 59 48 60 62 62 83 63 50 64 34 65 35 66 43 67
REMARK SMILES IDX 36 68 38 69 44 70 37 71 39 72 40 73 41 74 42 75 66 76 67 77
REMARK SMILES IDX 75 78 68 79 70 80 76 81 69 82 71 83 72 84 73 85 74 86 51 87
REMARK SMILES IDX 52 88 60 89 53 90 55 91 61 92 54 93 56 94 57 95 58 96 59 97
REMARK H PARENT 18 6 22 31 81 50 49 61
REMARK Flexibility Score: inf
ROOT
ATOM      1  C   UNL A   1      34.155  30.531  27.703  1.00  0.00     0.042 C 
ENDROOT
BRANCH   1   2
ATOM      2  C   UNL A   1      32.789  30.439  27.018  1.00  0.00     0.117 C 
BRANCH   2   3
ATOM      3  N   UNL A   1      32.053  29.241  27.374  1.00  0.00    -0.354 N 
ATOM      4  C   UNL A   1      32.230  27.965  26.916  1.00  0.00     0.239 C 
ATOM      5  O   UNL A   1      31.564  27.060  27.422  1.00  0.00    -0.273 OA
ATOM      6  H   UNL A   1      31.331  29.363  28.031  1.00  0.00     0.163 HD
BRANCH   4   7
ATOM      7  C   UNL A   1      33.287  27.660  25.877  1.00  0.00     0.222 C 
BRANCH   7   8
ATOM      8  N   UNL A   1      33.255  26.287  25.384  1.00  0.00    -0.335 N 
ATOM      9  C   UNL A   1      32.183  20.913  23.145  1.00  0.00     0.158 C 
ATOM     10  N   UNL A   1      32.730  22.064  23.836  1.00  0.00    -0.263 N 
ATOM     11  C   UNL A   1      32.047  23.280  23.703  1.00  0.00     0.265 A 
ATOM     12  C   UNL A   1      33.928  21.843  24.545  1.00  0.00     0.330 A 
ATOM     13  O   UNL A   1      31.021  23.418  23.052  1.00  0.00    -0.268 OA
ATOM     14  C   UNL A   1      32.676  24.371  24.416  1.00  0.00     0.090 A 
ATOM     15  N   UNL A   1      34.466  22.927  25.245  1.00  0.00    -0.295 N 
ATOM     16  O   UNL A   1      34.473  20.736  24.524  1.00  0.00    -0.248 OA
ATOM     17  C   UNL A   1      32.322  25.715  24.517  1.00  0.00     0.064 A 
ATOM     18  C   UNL A   1      33.846  24.161  25.160  1.00  0.00     0.076 A 
ATOM     19  C   UNL A   1      35.673  22.735  26.042  1.00  0.00     0.155 C 
ATOM     20  C   UNL A   1      34.205  25.350  25.735  1.00  0.00     0.114 A 
BRANCH  17  21
ATOM     21  C   UNL A   1      31.171  26.435  23.953  1.00  0.00    -0.001 A 
ATOM     22  C   UNL A   1      31.344  27.394  22.948  1.00  0.00     0.012 A 
ATOM     23  C   UNL A   1      29.881  26.221  24.460  1.00  0.00     0.012 A 
ATOM     24  C   UNL A   1      30.265  28.172  22.514  1.00  0.00     0.021 A 
ATOM     25  C   UNL A   1      28.803  27.000  24.037  1.00  0.00     0.021 A 
ATOM     26  C   UNL A   1      29.002  27.982  23.072  1.00  0.00     0.041 A 
ATOM     27  Cl  UNL A   1      27.684  28.966  22.567  1.00  0.00    -0.084 Cl
ENDBRANCH  17  21
ENDBRANCH   7   8
ENDBRANCH   4   7
ENDBRANCH   2   3
ENDBRANCH   1   2
BRANCH   1  28
ATOM     28  C   UNL A   1      34.558  31.966  27.966  1.00  0.00     0.118 C 
BRANCH  28  29
ATOM     29  N   UNL A   1      34.454  32.320  29.387  1.00  0.00    -0.352 N 
ATOM     30  C   UNL A   1      35.254  31.890  30.428  1.00  0.00     0.251 C 
ATOM     31  H   UNL A   1      33.725  32.938  29.627  1.00  0.00     0.163 HD
ATOM     32  O   UNL A   1      34.887  32.000  31.592  1.00  0.00    -0.269 OA
BRANCH  30  33
ATOM     33  C   UNL A   1      36.560  31.303  30.098  1.00  0.00     0.039 A 
ATOM     34  C   UNL A   1      37.669  32.094  29.788  1.00  0.00     0.014 A 
ATOM     35  C   UNL A   1      36.665  29.917  30.169  1.00  0.00     0.014 A 
ATOM     36  C   UNL A   1      38.905  31.474  29.630  1.00  0.00     0.010 A 
ATOM     37  C   UNL A   1      37.902  29.340  30.217  1.00  0.00     0.010 A 
ATOM     38  C   UNL A   1      39.012  30.094  29.867  1.00  0.00    -0.014 A 
BRANCH  38  39
ATOM     39  C   UNL A   1      40.297  29.412  29.861  1.00  0.00     0.031 A 
ATOM     40  C   UNL A   1      40.845  29.123  31.214  1.00  0.00     0.074 A 
ATOM     41  C   UNL A   1      40.807  28.882  28.724  1.00  0.00     0.049 A 
ATOM     42  N   UNL A   1      41.929  29.596  31.731  1.00  0.00    -0.248 NA
ATOM     43  C   UNL A   1      40.028  28.344  32.161  1.00  0.00     0.031 C 
ATOM     44  C   UNL A   1      40.193  28.844  27.387  1.00  0.00     0.029 A 
ATOM     45  N   UNL A   1      41.912  28.110  28.557  1.00  0.00    -0.354 N 
ATOM     46  C   UNL A   1      42.053  28.989  32.979  1.00  0.00     0.074 A 
ATOM     47  C   UNL A   1      40.773  28.397  33.268  1.00  0.00     0.031 C 
ATOM     48  C   UNL A   1      40.774  27.872  26.650  1.00  0.00     0.029 A 
ATOM     49  C   UNL A   1      41.906  27.350  27.388  1.00  0.00     0.049 A 
ATOM     50  H   UNL A   1      42.653  28.090  29.204  1.00  0.00     0.167 HD
ATOM     51  C   UNL A   1      43.271  28.822  33.563  1.00  0.00     0.034 A 
ATOM     52  C   UNL A   1      42.744  26.326  27.082  1.00  0.00     0.034 A 
ATOM     53  C   UNL A   1      44.282  29.591  32.881  1.00  0.00     0.049 A 
ATOM     54  C   UNL A   1      43.937  26.482  27.947  1.00  0.00     0.074 A 
ATOM     55  C   UNL A   1      44.481  30.933  32.635  1.00  0.00     0.029 A 
ATOM     56  N   UNL A   1      45.064  28.913  31.977  1.00  0.00    -0.354 N 
ATOM     57  N   UNL A   1      44.763  27.485  27.847  1.00  0.00    -0.248 NA
ATOM     58  C   UNL A   1      43.944  25.781  29.220  1.00  0.00     0.031 C 
ATOM     59  C   UNL A   1      44.988  30.986  31.304  1.00  0.00     0.029 A 
ATOM     60  C   UNL A   1      45.147  29.677  30.843  1.00  0.00     0.049 A 
ATOM     61  H   UNL A   1      45.488  28.036  32.118  1.00  0.00     0.167 HD
ATOM     62  C   UNL A   1      45.028  27.837  29.164  1.00  0.00     0.074 A 
ATOM     63  C   UNL A   1      44.587  26.689  29.960  1.00  0.00     0.031 C 
ATOM     64  C   UNL A   1      45.286  29.133  29.510  1.00  0.00     0.034 A 
BRANCH  51  65
ATOM     65  C   UNL A   1      43.653  27.716  34.517  1.00  0.00     0.023 A 
ATOM     66  C   UNL A   1      44.233  28.099  35.748  1.00  0.00     0.012 A 
ATOM     67  C   UNL A   1      43.728  26.348  34.171  1.00  0.00     0.148 A 
ATOM     68  C   UNL A   1      44.894  27.180  36.568  1.00  0.00     0.002 A 
ATOM     69  C   UNL A   1      44.321  25.424  35.024  1.00  0.00     0.091 A 
ATOM     70  F   UNL A   1      43.341  25.945  32.957  1.00  0.00    -0.205 F 
ATOM     71  C   UNL A   1      44.933  25.839  36.209  1.00  0.00     0.022 A 
BRANCH  69  72
ATOM     72  S   UNL A   1      44.366  23.668  34.641  1.00  0.00     0.127 S 
ATOM     73  O   UNL A   1      45.265  23.641  33.492  1.00  0.00    -0.237 OA
ATOM     74  O   UNL A   1      44.919  23.110  35.876  1.00  0.00    -0.237 OA
ATOM     75  O   UNL A   1      42.984  23.287  34.378  1.00  0.00    -0.744 OA
ENDBRANCH  69  72
ENDBRANCH  51  65
BRANCH  52  76
ATOM     76  C   UNL A   1      42.497  25.079  26.318  1.00  0.00     0.023 A 
ATOM     77  C   UNL A   1      43.418  24.673  25.331  1.00  0.00     0.012 A 
ATOM     78  C   UNL A   1      41.543  24.137  26.763  1.00  0.00     0.148 A 
ATOM     79  C   UNL A   1      43.423  23.361  24.838  1.00  0.00     0.002 A 
ATOM     80  C   UNL A   1      41.556  22.831  26.277  1.00  0.00     0.091 A 
ATOM     81  F   UNL A   1      40.689  24.492  27.731  1.00  0.00    -0.205 F 
ATOM     82  C   UNL A   1      42.502  22.437  25.322  1.00  0.00     0.022 A 
BRANCH  80  83
ATOM     83  S   UNL A   1      40.442  21.564  26.900  1.00  0.00     0.127 S 
ATOM     84  O   UNL A   1      40.750  21.569  28.331  1.00  0.00    -0.237 OA
ATOM     85  O   UNL A   1      39.136  22.116  26.551  1.00  0.00    -0.237 OA
ATOM     86  O   UNL A   1      40.813  20.336  26.209  1.00  0.00    -0.744 OA
ENDBRANCH  80  83
ENDBRANCH  52  76
BRANCH  64  87
ATOM     87  C   UNL A   1      45.488  30.142  28.403  1.00  0.00     0.023 A 
ATOM     88  C   UNL A   1      44.422  30.882  27.845  1.00  0.00     0.012 A 
ATOM     89  C   UNL A   1      46.803  30.504  28.073  1.00  0.00     0.148 A 
ATOM     90  C   UNL A   1      44.664  31.948  26.974  1.00  0.00     0.002 A 
ATOM     91  C   UNL A   1      47.042  31.598  27.251  1.00  0.00     0.091 A 
ATOM     92  F   UNL A   1      47.806  29.794  28.611  1.00  0.00    -0.205 F 
ATOM     93  C   UNL A   1      45.975  32.318  26.690  1.00  0.00     0.022 A 
BRANCH  91  94
ATOM     94  S   UNL A   1      48.704  32.212  26.969  1.00  0.00     0.127 S 
ATOM     95  O   UNL A   1      48.476  33.264  25.981  1.00  0.00    -0.237 OA
ATOM     96  O   UNL A   1      49.089  32.693  28.297  1.00  0.00    -0.237 OA
ATOM     97  O   UNL A   1      49.481  31.070  26.501  1.00  0.00    -0.744 OA
ENDBRANCH  91  94
ENDBRANCH  64  87
ENDBRANCH  38  39
ENDBRANCH  30  33
ENDBRANCH  28  29
ENDBRANCH   1  28
TORSDOF 15
ENDMDL
MODEL 3
REMARK VINA RESULT:     -12.0      3.158      8.061
REMARK SMILES Cn1c(=O)c2c(-c3ccc(Cl)cc3)n(CC(=O)NCCCNC(=O)c3ccc(-c4c5nc(c(-c6cccc(S(=O)(=O)[O-])c6F)c6ccc([nH]6)c(-c6cccc(S(=O)(=O)[O-])c6F)c6nc(c(-c7cccc(S(=O)(=O)[O-])c7F)c7ccc4[nH]7)C=C6)C=C5)cc3)cc2n(C)c1=O
REMARK SMILES IDX 20 1 19 2 18 3 16 4 17 5 15 7 14 8 1 9 2 10 3 11 92 12 4 13
REMARK SMILES IDX 5 14 90 15 93 16 6 17 89 18 91 19 88 20 7 21 8 22 13 23 9 24
REMARK SMILES IDX 12 25 10 26 11 27 21 28 22 29 23 30 24 32 25 33 26 34 87 35
REMARK SMILES IDX 27 36 86 37 28 38 29 39 30 40 80 41 31 42 85 43 79 44 81 45
REMARK SMILES IDX 32 46 84 47 78 48 77 49 33 51 65 52 45 53 64 54 46 55 49 56
REMARK SMILES IDX 63 57 82 58 47 59 48 60 62 62 83 63 50 64 34 65 35 66 43 67
REMARK SMILES IDX 36 68 38 69 44 70 37 71 39 72 40 73 41 74 42 75 66 76 67 77
REMARK SMILES IDX 75 78 68 79 70 80 76 81 69 82 71 83 72 84 73 85 74 86 51 87
REMARK SMILES IDX 52 88 60 89 53 90 55 91 61 92 54 93 56 94 57 95 58 96 59 97
REMARK H PARENT 18 6 22 31 81 50 49 61
REMARK Flexibility Score: inf
ROOT
ATOM      1  C   UNL A   1      35.114  30.870  27.767  1.00  0.00     0.042 C 
ENDROOT
BRANCH   1   2
ATOM      2  C   UNL A   1      33.672  30.974  27.264  1.00  0.00     0.117 C 
BRANCH   2   3
ATOM      3  N   UNL A   1      32.860  29.826  27.622  1.00  0.00    -0.354 N 
ATOM      4  C   UNL A   1      32.683  28.661  26.930  1.00  0.00     0.239 C 
ATOM      5  O   UNL A   1      32.029  27.758  27.455  1.00  0.00    -0.273 OA
ATOM      6  H   UNL A   1      32.372  29.896  28.473  1.00  0.00     0.163 HD
BRANCH   4   7
ATOM      7  C   UNL A   1      33.354  28.451  25.590  1.00  0.00     0.222 C 
BRANCH   7   8
ATOM      8  N   UNL A   1      33.325  27.070  25.122  1.00  0.00    -0.335 N 
ATOM      9  C   UNL A   1      32.275  21.662  22.955  1.00  0.00     0.158 C 
ATOM     10  N   UNL A   1      32.812  22.822  23.638  1.00  0.00    -0.263 N 
ATOM     11  C   UNL A   1      32.141  24.040  23.464  1.00  0.00     0.265 A 
ATOM     12  C   UNL A   1      33.988  22.606  24.383  1.00  0.00     0.330 A 
ATOM     13  O   UNL A   1      31.134  24.172  22.784  1.00  0.00    -0.268 OA
ATOM     14  C   UNL A   1      32.758  25.139  24.174  1.00  0.00     0.090 A 
ATOM     15  N   UNL A   1      34.515  23.699  25.078  1.00  0.00    -0.295 N 
ATOM     16  O   UNL A   1      34.526  21.495  24.399  1.00  0.00    -0.248 OA
ATOM     17  C   UNL A   1      32.412  26.488  24.241  1.00  0.00     0.064 A 
ATOM     18  C   UNL A   1      33.907  24.936  24.953  1.00  0.00     0.076 A 
ATOM     19  C   UNL A   1      35.698  23.514  25.911  1.00  0.00     0.155 C 
ATOM     20  C   UNL A   1      34.258  26.133  25.515  1.00  0.00     0.114 A 
BRANCH  17  21
ATOM     21  C   UNL A   1      31.282  27.205  23.632  1.00  0.00    -0.001 A 
ATOM     22  C   UNL A   1      31.495  28.208  22.678  1.00  0.00     0.012 A 
ATOM     23  C   UNL A   1      29.968  26.942  24.046  1.00  0.00     0.012 A 
ATOM     24  C   UNL A   1      30.427  28.979  22.207  1.00  0.00     0.021 A 
ATOM     25  C   UNL A   1      28.900  27.714  23.585  1.00  0.00     0.021 A 
ATOM     26  C   UNL A   1      29.136  28.738  22.674  1.00  0.00     0.041 A 
ATOM     27  Cl  UNL A   1      27.829  29.713  22.124  1.00  0.00    -0.084 Cl
ENDBRANCH  17  21
ENDBRANCH   7   8
ENDBRANCH   4   7
ENDBRANCH   2   3
ENDBRANCH   1   2
BRANCH   1  28
ATOM     28  C   UNL A   1      35.733  32.234  27.990  1.00  0.00     0.118 C 
BRANCH  28  29
ATOM     29  N   UNL A   1      35.626  32.669  29.388  1.00  0.00    -0.352 N 
ATOM     30  C   UNL A   1      36.372  32.240  30.469  1.00  0.00     0.251 C 
ATOM     31  H   UNL A   1      34.939  33.349  29.578  1.00  0.00     0.163 HD
ATOM     32  O   UNL A   1      35.991  32.438  31.616  1.00  0.00    -0.269 OA
BRANCH  30  33
ATOM     33  C   UNL A   1      37.640  31.546  30.200  1.00  0.00     0.039 A 
ATOM     34  C   UNL A   1      38.858  32.229  30.140  1.00  0.00     0.014 A 
ATOM     35  C   UNL A   1      37.587  30.162  30.071  1.00  0.00     0.014 A 
ATOM     36  C   UNL A   1      40.030  31.487  30.027  1.00  0.00     0.010 A 
ATOM     37  C   UNL A   1      38.737  29.434  30.167  1.00  0.00     0.010 A 
ATOM     38  C   UNL A   1      39.957  30.086  30.062  1.00  0.00    -0.014 A 
BRANCH  38  39
ATOM     39  C   UNL A   1      41.152  29.256  30.095  1.00  0.00     0.031 A 
ATOM     40  C   UNL A   1      41.591  28.865  31.462  1.00  0.00     0.074 A 
ATOM     41  C   UNL A   1      41.656  28.703  28.967  1.00  0.00     0.049 A 
ATOM     42  N   UNL A   1      42.694  29.191  32.048  1.00  0.00    -0.248 NA
ATOM     43  C   UNL A   1      40.640  28.162  32.340  1.00  0.00     0.031 C 
ATOM     44  C   UNL A   1      41.113  28.776  27.601  1.00  0.00     0.029 A 
ATOM     45  N   UNL A   1      42.670  27.810  28.827  1.00  0.00    -0.354 N 
ATOM     46  C   UNL A   1      42.680  28.538  33.278  1.00  0.00     0.074 A 
ATOM     47  C   UNL A   1      41.327  28.094  33.484  1.00  0.00     0.031 C 
ATOM     48  C   UNL A   1      41.614  27.763  26.860  1.00  0.00     0.029 A 
ATOM     49  C   UNL A   1      42.637  27.089  27.634  1.00  0.00     0.049 A 
ATOM     50  H   UNL A   1      43.369  27.684  29.509  1.00  0.00     0.167 HD
ATOM     51  C   UNL A   1      43.839  28.211  33.915  1.00  0.00     0.034 A 
ATOM     52  C   UNL A   1      43.365  25.983  27.333  1.00  0.00     0.034 A 
ATOM     53  C   UNL A   1      44.966  28.874  33.310  1.00  0.00     0.049 A 
ATOM     54  C   UNL A   1      44.520  25.971  28.260  1.00  0.00     0.074 A 
ATOM     55  C   UNL A   1      45.335  30.189  33.121  1.00  0.00     0.029 A 
ATOM     56  N   UNL A   1      45.710  28.134  32.422  1.00  0.00    -0.354 N 
ATOM     57  N   UNL A   1      45.462  26.871  28.236  1.00  0.00    -0.248 NA
ATOM     58  C   UNL A   1      44.378  25.238  29.507  1.00  0.00     0.031 C 
ATOM     59  C   UNL A   1      45.913  30.220  31.819  1.00  0.00     0.029 A 
ATOM     60  C   UNL A   1      45.941  28.915  31.322  1.00  0.00     0.049 A 
ATOM     61  H   UNL A   1      46.021  27.210  32.554  1.00  0.00     0.167 HD
ATOM     62  C   UNL A   1      45.696  27.151  29.576  1.00  0.00     0.074 A 
ATOM     63  C   UNL A   1      45.084  26.041  30.309  1.00  0.00     0.031 C 
ATOM     64  C   UNL A   1      46.086  28.397  29.978  1.00  0.00     0.034 A 
BRANCH  51  65
ATOM     65  C   UNL A   1      44.038  27.041  34.848  1.00  0.00     0.023 A 
ATOM     66  C   UNL A   1      44.471  27.330  36.162  1.00  0.00     0.012 A 
ATOM     67  C   UNL A   1      44.087  25.689  34.440  1.00  0.00     0.148 A 
ATOM     68  C   UNL A   1      44.973  26.337  37.007  1.00  0.00     0.002 A 
ATOM     69  C   UNL A   1      44.518  24.692  35.309  1.00  0.00     0.091 A 
ATOM     70  F   UNL A   1      43.842  25.368  33.166  1.00  0.00    -0.205 F 
ATOM     71  C   UNL A   1      44.991  25.015  36.583  1.00  0.00     0.022 A 
BRANCH  69  72
ATOM     72  S   UNL A   1      44.524  22.957  34.839  1.00  0.00     0.127 S 
ATOM     73  O   UNL A   1      44.922  22.316  36.088  1.00  0.00    -0.237 OA
ATOM     74  O   UNL A   1      43.128  22.751  34.452  1.00  0.00    -0.237 OA
ATOM     75  O   UNL A   1      45.472  22.851  33.738  1.00  0.00    -0.744 OA
ENDBRANCH  69  72
ENDBRANCH  51  65
BRANCH  52  76
ATOM     76  C   UNL A   1      43.013  24.797  26.515  1.00  0.00     0.023 A 
ATOM     77  C   UNL A   1      43.937  24.305  25.570  1.00  0.00     0.012 A 
ATOM     78  C   UNL A   1      41.926  23.969  26.873  1.00  0.00     0.148 A 
ATOM     79  C   UNL A   1      43.810  23.015  25.035  1.00  0.00     0.002 A 
ATOM     80  C   UNL A   1      41.809  22.685  26.345  1.00  0.00     0.091 A 
ATOM     81  F   UNL A   1      41.064  24.403  27.802  1.00  0.00    -0.205 F 
ATOM     82  C   UNL A   1      42.756  22.200  25.433  1.00  0.00     0.022 A 
BRANCH  80  83
ATOM     83  S   UNL A   1      40.512  21.550  26.861  1.00  0.00     0.127 S 
ATOM     84  O   UNL A   1      40.839  20.348  26.093  1.00  0.00    -0.237 OA
ATOM     85  O   UNL A   1      40.758  21.447  28.297  1.00  0.00    -0.237 OA
ATOM     86  O   UNL A   1      39.256  22.184  26.481  1.00  0.00    -0.744 OA
ENDBRANCH  80  83
ENDBRANCH  52  76
BRANCH  64  87
ATOM     87  C   UNL A   1      46.463  29.407  28.918  1.00  0.00     0.023 A 
ATOM     88  C   UNL A   1      47.711  29.386  28.257  1.00  0.00     0.012 A 
ATOM     89  C   UNL A   1      45.458  30.256  28.432  1.00  0.00     0.148 A 
ATOM     90  C   UNL A   1      47.950  30.198  27.146  1.00  0.00     0.002 A 
ATOM     91  C   UNL A   1      45.680  31.022  27.294  1.00  0.00     0.091 A 
ATOM     92  F   UNL A   1      44.277  30.265  29.068  1.00  0.00    -0.205 F 
ATOM     93  C   UNL A   1      46.928  31.005  26.653  1.00  0.00     0.022 A 
BRANCH  91  94
ATOM     94  S   UNL A   1      44.359  31.964  26.527  1.00  0.00     0.127 S 
ATOM     95  O   UNL A   1      45.027  32.524  25.354  1.00  0.00    -0.237 OA
ATOM     96  O   UNL A   1      43.367  30.929  26.231  1.00  0.00    -0.237 OA
ATOM     97  O   UNL A   1      43.926  32.935  27.524  1.00  0.00    -0.744 OA
ENDBRANCH  91  94
ENDBRANCH  64  87
ENDBRANCH  38  39
ENDBRANCH  30  33
ENDBRANCH  28  29
ENDBRANCH   1  28
TORSDOF 15
ENDMDL
