MODEL 1
REMARK VINA RESULT:     -11.6      0.000      0.000
REMARK SMILES C[C@@H](C(=O)NCCCNC(=O)c1ccc(-c2c3nc(c(-c4cccc(S(=O)(=O)[O-])c4F)c4ccc([nH]4)c(-c4cccc(S(=O)(=O)[O-])c4F)c4nc(c(-c5cccc(S(=O)(=O)[O-])c5F)c5ccc2[nH]5)C=C4)C=C3)cc1)c1ccc(Cc2ccoc2)cc1F
REMARK SMILES IDX 7 1 6 2 5 3 3 4 4 5 2 7 1 8 75 9 76 10 86 11 77 12 85 13
REMARK SMILES IDX 87 14 78 15 79 16 80 17 81 18 84 19 82 20 83 21 8 22 9 23
REMARK SMILES IDX 10 24 11 26 12 27 13 28 74 29 14 30 73 31 15 32 16 33 17 34
REMARK SMILES IDX 67 35 18 36 72 37 66 38 68 39 19 40 71 41 65 42 64 43 20 45
REMARK SMILES IDX 52 46 32 47 51 48 33 49 36 50 50 51 69 52 34 53 35 54 49 56
REMARK SMILES IDX 70 57 37 58 21 59 22 60 30 61 23 62 25 63 31 64 24 65 26 66
REMARK SMILES IDX 27 67 28 68 29 69 53 70 54 71 62 72 55 73 57 74 63 75 56 76
REMARK SMILES IDX 58 77 59 78 60 79 61 80 38 81 39 82 47 83 40 84 42 85 48 86
REMARK SMILES IDX 41 87 43 88 44 89 45 90 46 91
REMARK H PARENT 5 6 9 25 68 44 36 55
REMARK Flexibility Score: inf
ROOT
ATOM      1  C   UNL A   1      31.306  32.156  26.488  1.00  0.00     0.042 C 
ENDROOT
BRANCH   1   2
ATOM      2  C   UNL A   1      31.445  30.817  25.768  1.00  0.00     0.117 C 
BRANCH   2   3
ATOM      3  N   UNL A   1      32.769  30.246  25.922  1.00  0.00    -0.356 N 
ATOM      4  C   UNL A   1      33.194  28.951  25.917  1.00  0.00     0.227 C 
ATOM      5  O   UNL A   1      34.408  28.785  26.068  1.00  0.00    -0.274 OA
ATOM      6  H   UNL A   1      33.486  30.909  26.053  1.00  0.00     0.163 HD
BRANCH   4   7
ATOM      7  C   UNL A   1      32.197  27.798  25.692  1.00  0.00     0.108 C 
ATOM      8  C   UNL A   1      31.458  27.403  26.972  1.00  0.00     0.023 C 
BRANCH   7   9
ATOM      9  C   UNL A   1      32.839  26.543  25.109  1.00  0.00    -0.000 A 
ATOM     10  C   UNL A   1      32.990  25.373  25.867  1.00  0.00     0.008 A 
ATOM     11  C   UNL A   1      33.221  26.500  23.765  1.00  0.00     0.127 A 
ATOM     12  C   UNL A   1      33.520  24.212  25.301  1.00  0.00     0.004 A 
ATOM     13  C   UNL A   1      33.755  25.345  23.191  1.00  0.00     0.043 A 
ATOM     14  F   UNL A   1      33.046  27.578  22.985  1.00  0.00    -0.207 F 
ATOM     15  C   UNL A   1      33.915  24.181  23.955  1.00  0.00    -0.041 A 
BRANCH  15  16
ATOM     16  C   UNL A   1      34.447  22.910  23.342  1.00  0.00     0.074 C 
BRANCH  16  17
ATOM     17  C   UNL A   1      35.622  22.466  24.148  1.00  0.00    -0.005 A 
ATOM     18  C   UNL A   1      36.852  23.153  24.383  1.00  0.00     0.046 A 
ATOM     19  C   UNL A   1      35.714  21.310  24.901  1.00  0.00     0.198 A 
ATOM     20  C   UNL A   1      37.589  22.368  25.236  1.00  0.00     0.195 A 
ATOM     21  O   UNL A   1      36.899  21.247  25.560  1.00  0.00    -0.472 OA
ENDBRANCH  16  17
ENDBRANCH  15  16
ENDBRANCH   7   9
ENDBRANCH   4   7
ENDBRANCH   2   3
ENDBRANCH   1   2
BRANCH   1  22
ATOM     22  C   UNL A   1      32.540  32.583  27.278  1.00  0.00     0.118 C 
BRANCH  22  23
ATOM     23  N   UNL A   1      32.445  33.943  27.793  1.00  0.00    -0.352 N 
ATOM     24  C   UNL A   1      33.213  34.574  28.743  1.00  0.00     0.251 C 
ATOM     25  H   UNL A   1      31.726  34.490  27.403  1.00  0.00     0.163 HD
ATOM     26  O   UNL A   1      32.878  35.678  29.164  1.00  0.00    -0.269 OA
BRANCH  24  27
ATOM     27  C   UNL A   1      34.424  33.914  29.274  1.00  0.00     0.039 A 
ATOM     28  C   UNL A   1      35.682  34.356  28.851  1.00  0.00     0.014 A 
ATOM     29  C   UNL A   1      34.322  32.866  30.191  1.00  0.00     0.014 A 
ATOM     30  C   UNL A   1      36.837  33.797  29.404  1.00  0.00     0.010 A 
ATOM     31  C   UNL A   1      35.470  32.362  30.795  1.00  0.00     0.010 A 
ATOM     32  C   UNL A   1      36.739  32.822  30.408  1.00  0.00    -0.014 A 
BRANCH  32  33
ATOM     33  C   UNL A   1      37.939  32.271  31.090  1.00  0.00     0.031 A 
ATOM     34  C   UNL A   1      38.688  31.121  30.476  1.00  0.00     0.074 A 
ATOM     35  C   UNL A   1      38.267  32.709  32.321  1.00  0.00     0.049 A 
ATOM     36  N   UNL A   1      39.655  30.401  30.983  1.00  0.00    -0.248 NA
ATOM     37  C   UNL A   1      38.270  30.704  29.128  1.00  0.00     0.031 C 
ATOM     38  C   UNL A   1      37.567  33.763  33.057  1.00  0.00     0.029 A 
ATOM     39  N   UNL A   1      39.241  32.286  33.193  1.00  0.00    -0.354 N 
ATOM     40  C   UNL A   1      39.925  29.416  30.041  1.00  0.00     0.074 A 
ATOM     41  C   UNL A   1      39.003  29.616  28.943  1.00  0.00     0.031 C 
ATOM     42  C   UNL A   1      38.116  33.887  34.276  1.00  0.00     0.029 A 
ATOM     43  C   UNL A   1      39.182  32.900  34.422  1.00  0.00     0.049 A 
ATOM     44  H   UNL A   1      39.916  31.608  32.959  1.00  0.00     0.167 HD
ATOM     45  C   UNL A   1      40.871  28.447  30.074  1.00  0.00     0.034 A 
ATOM     46  C   UNL A   1      39.885  32.678  35.550  1.00  0.00     0.034 A 
ATOM     47  C   UNL A   1      41.816  28.283  31.145  1.00  0.00     0.049 A 
ATOM     48  C   UNL A   1      40.966  31.632  35.549  1.00  0.00     0.074 A 
ATOM     49  C   UNL A   1      42.880  27.403  31.225  1.00  0.00     0.029 A 
ATOM     50  N   UNL A   1      41.805  29.008  32.326  1.00  0.00    -0.354 N 
ATOM     51  N   UNL A   1      41.319  30.817  34.584  1.00  0.00    -0.248 NA
ATOM     52  C   UNL A   1      41.769  31.495  36.772  1.00  0.00     0.031 C 
ATOM     53  C   UNL A   1      43.499  27.582  32.466  1.00  0.00     0.029 A 
ATOM     54  C   UNL A   1      42.836  28.590  33.148  1.00  0.00     0.049 A 
ATOM     55  H   UNL A   1      41.158  29.716  32.548  1.00  0.00     0.167 HD
ATOM     56  C   UNL A   1      42.404  30.096  35.068  1.00  0.00     0.074 A 
ATOM     57  C   UNL A   1      42.659  30.579  36.411  1.00  0.00     0.031 C 
ATOM     58  C   UNL A   1      43.116  29.117  34.460  1.00  0.00     0.034 A 
BRANCH  45  59
ATOM     59  C   UNL A   1      40.957  27.518  28.890  1.00  0.00     0.023 A 
ATOM     60  C   UNL A   1      40.082  26.415  28.806  1.00  0.00     0.012 A 
ATOM     61  C   UNL A   1      41.876  27.750  27.850  1.00  0.00     0.148 A 
ATOM     62  C   UNL A   1      40.151  25.533  27.729  1.00  0.00     0.002 A 
ATOM     63  C   UNL A   1      41.908  26.891  26.756  1.00  0.00     0.091 A 
ATOM     64  F   UNL A   1      42.718  28.788  27.955  1.00  0.00    -0.205 F 
ATOM     65  C   UNL A   1      41.057  25.775  26.701  1.00  0.00     0.022 A 
BRANCH  63  66
ATOM     66  S   UNL A   1      42.986  27.172  25.346  1.00  0.00     0.127 S 
ATOM     67  O   UNL A   1      42.906  25.887  24.653  1.00  0.00    -0.237 OA
ATOM     68  O   UNL A   1      42.317  28.278  24.658  1.00  0.00    -0.237 OA
ATOM     69  O   UNL A   1      44.287  27.510  25.904  1.00  0.00    -0.744 OA
ENDBRANCH  63  66
ENDBRANCH  45  59
BRANCH  46  70
ATOM     70  C   UNL A   1      39.609  33.506  36.758  1.00  0.00     0.023 A 
ATOM     71  C   UNL A   1      39.957  34.871  36.756  1.00  0.00     0.012 A 
ATOM     72  C   UNL A   1      38.941  32.967  37.875  1.00  0.00     0.148 A 
ATOM     73  C   UNL A   1      39.659  35.680  37.853  1.00  0.00     0.002 A 
ATOM     74  C   UNL A   1      38.599  33.792  38.941  1.00  0.00     0.091 A 
ATOM     75  F   UNL A   1      38.627  31.664  37.858  1.00  0.00    -0.205 F 
ATOM     76  C   UNL A   1      38.971  35.144  38.939  1.00  0.00     0.022 A 
BRANCH  74  77
ATOM     77  S   UNL A   1      37.590  33.225  40.315  1.00  0.00     0.127 S 
ATOM     78  O   UNL A   1      37.655  34.365  41.225  1.00  0.00    -0.237 OA
ATOM     79  O   UNL A   1      36.292  33.023  39.671  1.00  0.00    -0.237 OA
ATOM     80  O   UNL A   1      38.220  32.000  40.791  1.00  0.00    -0.744 OA
ENDBRANCH  74  77
ENDBRANCH  46  70
BRANCH  58  81
ATOM     81  C   UNL A   1      44.273  28.511  35.210  1.00  0.00     0.023 A 
ATOM     82  C   UNL A   1      45.569  29.036  35.042  1.00  0.00     0.012 A 
ATOM     83  C   UNL A   1      44.051  27.500  36.167  1.00  0.00     0.148 A 
ATOM     84  C   UNL A   1      46.631  28.554  35.808  1.00  0.00     0.002 A 
ATOM     85  C   UNL A   1      45.105  27.058  36.958  1.00  0.00     0.091 A 
ATOM     86  F   UNL A   1      42.813  27.003  36.296  1.00  0.00    -0.205 F 
ATOM     87  C   UNL A   1      46.397  27.578  36.773  1.00  0.00     0.022 A 
BRANCH  85  88
ATOM     88  S   UNL A   1      44.882  25.876  38.291  1.00  0.00     0.127 S 
ATOM     89  O   UNL A   1      44.306  24.734  37.584  1.00  0.00    -0.237 OA
ATOM     90  O   UNL A   1      46.254  25.675  38.758  1.00  0.00    -0.237 OA
ATOM     91  O   UNL A   1      44.001  26.518  39.258  1.00  0.00    -0.744 OA
ENDBRANCH  85  88
ENDBRANCH  58  81
ENDBRANCH  32  33
ENDBRANCH  24  27
ENDBRANCH  22  23
ENDBRANCH   1  22
TORSDOF 16
ENDMDL
MODEL 2
REMARK VINA RESULT:     -11.6      5.514      8.616
REMARK SMILES C[C@@H](C(=O)NCCCNC(=O)c1ccc(-c2c3nc(c(-c4cccc(S(=O)(=O)[O-])c4F)c4ccc([nH]4)c(-c4cccc(S(=O)(=O)[O-])c4F)c4nc(c(-c5cccc(S(=O)(=O)[O-])c5F)c5ccc2[nH]5)C=C4)C=C3)cc1)c1ccc(Cc2ccoc2)cc1F
REMARK SMILES IDX 7 1 6 2 5 3 3 4 4 5 2 7 1 8 75 9 76 10 86 11 77 12 85 13
REMARK SMILES IDX 87 14 78 15 79 16 80 17 81 18 84 19 82 20 83 21 8 22 9 23
REMARK SMILES IDX 10 24 11 26 12 27 13 28 74 29 14 30 73 31 15 32 16 33 17 34
REMARK SMILES IDX 67 35 18 36 72 37 66 38 68 39 19 40 71 41 65 42 64 43 20 45
REMARK SMILES IDX 52 46 32 47 51 48 33 49 36 50 50 51 69 52 34 53 35 54 49 56
REMARK SMILES IDX 70 57 37 58 21 59 22 60 30 61 23 62 25 63 31 64 24 65 26 66
REMARK SMILES IDX 27 67 28 68 29 69 53 70 54 71 62 72 55 73 57 74 63 75 56 76
REMARK SMILES IDX 58 77 59 78 60 79 61 80 38 81 39 82 47 83 40 84 42 85 48 86
REMARK SMILES IDX 41 87 43 88 44 89 45 90 46 91
REMARK H PARENT 5 6 9 25 68 44 36 55
REMARK Flexibility Score: inf
ROOT
ATOM      1  C   UNL A   1      36.140  22.543  24.502  1.00  0.00     0.042 C 
ENDROOT
BRANCH   1   2
ATOM      2  C   UNL A   1      35.059  21.612  25.045  1.00  0.00     0.117 C 
BRANCH   2   3
ATOM      3  N   UNL A   1      33.769  21.849  24.425  1.00  0.00    -0.356 N 
ATOM      4  C   UNL A   1      32.761  22.706  24.751  1.00  0.00     0.227 C 
ATOM      5  O   UNL A   1      31.774  22.678  24.011  1.00  0.00    -0.274 OA
ATOM      6  H   UNL A   1      33.591  21.294  23.632  1.00  0.00     0.163 HD
BRANCH   4   7
ATOM      7  C   UNL A   1      32.900  23.664  25.950  1.00  0.00     0.108 C 
ATOM      8  C   UNL A   1      32.076  23.215  27.159  1.00  0.00     0.023 C 
BRANCH   7   9
ATOM      9  C   UNL A   1      32.521  25.105  25.625  1.00  0.00    -0.000 A 
ATOM     10  C   UNL A   1      31.255  25.622  25.939  1.00  0.00     0.008 A 
ATOM     11  C   UNL A   1      33.463  25.981  25.079  1.00  0.00     0.127 A 
ATOM     12  C   UNL A   1      30.944  26.961  25.694  1.00  0.00     0.004 A 
ATOM     13  C   UNL A   1      33.160  27.321  24.828  1.00  0.00     0.043 A 
ATOM     14  F   UNL A   1      34.705  25.547  24.812  1.00  0.00    -0.207 F 
ATOM     15  C   UNL A   1      31.891  27.830  25.131  1.00  0.00    -0.041 A 
BRANCH  15  16
ATOM     16  C   UNL A   1      31.559  29.285  24.911  1.00  0.00     0.074 C 
BRANCH  16  17
ATOM     17  C   UNL A   1      30.641  29.375  23.738  1.00  0.00    -0.005 A 
ATOM     18  C   UNL A   1      29.407  30.087  23.625  1.00  0.00     0.046 A 
ATOM     19  C   UNL A   1      30.852  28.837  22.483  1.00  0.00     0.198 A 
ATOM     20  C   UNL A   1      28.966  29.917  22.335  1.00  0.00     0.195 A 
ATOM     21  O   UNL A   1      29.846  29.162  21.632  1.00  0.00    -0.472 OA
ENDBRANCH  16  17
ENDBRANCH  15  16
ENDBRANCH   7   9
ENDBRANCH   4   7
ENDBRANCH   2   3
ENDBRANCH   1   2
BRANCH   1  22
ATOM     22  C   UNL A   1      37.025  23.179  25.570  1.00  0.00     0.118 C 
BRANCH  22  23
ATOM     23  N   UNL A   1      38.145  22.333  25.960  1.00  0.00    -0.352 N 
ATOM     24  C   UNL A   1      39.355  22.683  26.510  1.00  0.00     0.251 C 
ATOM     25  H   UNL A   1      38.016  21.369  25.808  1.00  0.00     0.163 HD
ATOM     26  O   UNL A   1      40.242  21.841  26.623  1.00  0.00    -0.269 OA
BRANCH  24  27
ATOM     27  C   UNL A   1      39.598  24.076  26.942  1.00  0.00     0.039 A 
ATOM     28  C   UNL A   1      39.304  24.442  28.259  1.00  0.00     0.014 A 
ATOM     29  C   UNL A   1      40.118  25.018  26.051  1.00  0.00     0.014 A 
ATOM     30  C   UNL A   1      39.603  25.733  28.705  1.00  0.00     0.010 A 
ATOM     31  C   UNL A   1      40.483  26.279  26.516  1.00  0.00     0.010 A 
ATOM     32  C   UNL A   1      40.230  26.649  27.846  1.00  0.00    -0.014 A 
BRANCH  32  33
ATOM     33  C   UNL A   1      40.651  27.998  28.306  1.00  0.00     0.031 A 
ATOM     34  C   UNL A   1      42.110  28.300  28.507  1.00  0.00     0.074 A 
ATOM     35  C   UNL A   1      39.719  28.899  28.675  1.00  0.00     0.049 A 
ATOM     36  N   UNL A   1      42.669  29.351  29.047  1.00  0.00    -0.248 NA
ATOM     37  C   UNL A   1      43.064  27.266  28.076  1.00  0.00     0.031 C 
ATOM     38  C   UNL A   1      38.272  28.693  28.605  1.00  0.00     0.029 A 
ATOM     39  N   UNL A   1      39.851  30.147  29.233  1.00  0.00    -0.354 N 
ATOM     40  C   UNL A   1      44.033  29.085  29.068  1.00  0.00     0.074 A 
ATOM     41  C   UNL A   1      44.214  27.762  28.510  1.00  0.00     0.031 C 
ATOM     42  C   UNL A   1      37.651  29.764  29.123  1.00  0.00     0.029 A 
ATOM     43  C   UNL A   1      38.653  30.717  29.594  1.00  0.00     0.049 A 
ATOM     44  H   UNL A   1      40.721  30.591  29.362  1.00  0.00     0.167 HD
ATOM     45  C   UNL A   1      45.046  29.878  29.491  1.00  0.00     0.034 A 
ATOM     46  C   UNL A   1      38.386  31.862  30.253  1.00  0.00     0.034 A 
ATOM     47  C   UNL A   1      44.865  31.210  29.999  1.00  0.00     0.049 A 
ATOM     48  C   UNL A   1      39.526  32.753  30.668  1.00  0.00     0.074 A 
ATOM     49  C   UNL A   1      45.831  32.134  30.353  1.00  0.00     0.029 A 
ATOM     50  N   UNL A   1      43.635  31.805  30.236  1.00  0.00    -0.354 N 
ATOM     51  N   UNL A   1      40.814  32.557  30.528  1.00  0.00    -0.248 NA
ATOM     52  C   UNL A   1      39.179  34.035  31.297  1.00  0.00     0.031 C 
ATOM     53  C   UNL A   1      45.184  33.281  30.825  1.00  0.00     0.029 A 
ATOM     54  C   UNL A   1      43.815  33.080  30.742  1.00  0.00     0.049 A 
ATOM     55  H   UNL A   1      42.761  31.382  30.069  1.00  0.00     0.167 HD
ATOM     56  C   UNL A   1      41.432  33.701  31.018  1.00  0.00     0.074 A 
ATOM     57  C   UNL A   1      40.374  34.593  31.449  1.00  0.00     0.031 C 
ATOM     58  C   UNL A   1      42.754  33.982  31.114  1.00  0.00     0.034 A 
BRANCH  45  59
ATOM     59  C   UNL A   1      46.448  29.337  29.375  1.00  0.00     0.023 A 
ATOM     60  C   UNL A   1      46.991  28.579  30.433  1.00  0.00     0.012 A 
ATOM     61  C   UNL A   1      47.215  29.548  28.214  1.00  0.00     0.148 A 
ATOM     62  C   UNL A   1      48.291  28.080  30.357  1.00  0.00     0.002 A 
ATOM     63  C   UNL A   1      48.494  29.009  28.126  1.00  0.00     0.091 A 
ATOM     64  F   UNL A   1      46.694  30.290  27.226  1.00  0.00    -0.205 F 
ATOM     65  C   UNL A   1      49.038  28.287  29.201  1.00  0.00     0.022 A 
BRANCH  63  66
ATOM     66  S   UNL A   1      49.498  29.154  26.643  1.00  0.00     0.127 S 
ATOM     67  O   UNL A   1      48.656  28.489  25.651  1.00  0.00    -0.237 OA
ATOM     68  O   UNL A   1      49.603  30.605  26.479  1.00  0.00    -0.237 OA
ATOM     69  O   UNL A   1      50.757  28.491  26.952  1.00  0.00    -0.744 OA
ENDBRANCH  63  66
ENDBRANCH  45  59
BRANCH  46  70
ATOM     70  C   UNL A   1      36.969  32.243  30.514  1.00  0.00     0.023 A 
ATOM     71  C   UNL A   1      36.418  32.026  31.792  1.00  0.00     0.012 A 
ATOM     72  C   UNL A   1      36.192  32.882  29.528  1.00  0.00     0.148 A 
ATOM     73  C   UNL A   1      35.111  32.424  32.077  1.00  0.00     0.002 A 
ATOM     74  C   UNL A   1      34.911  33.325  29.836  1.00  0.00     0.091 A 
ATOM     75  F   UNL A   1      36.735  33.070  28.317  1.00  0.00    -0.205 F 
ATOM     76  C   UNL A   1      34.363  33.083  31.105  1.00  0.00     0.022 A 
BRANCH  74  77
ATOM     77  S   UNL A   1      33.929  34.306  28.697  1.00  0.00     0.127 S 
ATOM     78  O   UNL A   1      33.607  33.329  27.660  1.00  0.00    -0.237 OA
ATOM     79  O   UNL A   1      32.802  34.706  29.539  1.00  0.00    -0.237 OA
ATOM     80  O   UNL A   1      34.787  35.408  28.281  1.00  0.00    -0.744 OA
ENDBRANCH  74  77
ENDBRANCH  46  70
BRANCH  58  81
ATOM     81  C   UNL A   1      43.156  35.323  31.668  1.00  0.00     0.023 A 
ATOM     82  C   UNL A   1      43.352  35.478  33.054  1.00  0.00     0.012 A 
ATOM     83  C   UNL A   1      43.453  36.394  30.800  1.00  0.00     0.148 A 
ATOM     84  C   UNL A   1      43.824  36.684  33.570  1.00  0.00     0.002 A 
ATOM     85  C   UNL A   1      43.967  37.576  31.317  1.00  0.00     0.091 A 
ATOM     86  F   UNL A   1      43.242  36.228  29.487  1.00  0.00    -0.205 F 
ATOM     87  C   UNL A   1      44.145  37.726  32.702  1.00  0.00     0.022 A 
BRANCH  85  88
ATOM     88  S   UNL A   1      44.501  38.936  30.272  1.00  0.00     0.127 S 
ATOM     89  O   UNL A   1      44.953  39.912  31.262  1.00  0.00    -0.237 OA
ATOM     90  O   UNL A   1      45.572  38.321  29.489  1.00  0.00    -0.237 OA
ATOM     91  O   UNL A   1      43.333  39.332  29.497  1.00  0.00    -0.744 OA
ENDBRANCH  85  88
ENDBRANCH  58  81
ENDBRANCH  32  33
ENDBRANCH  24  27
ENDBRANCH  22  23
ENDBRANCH   1  22
TORSDOF 16
ENDMDL
MODEL 3
REMARK VINA RESULT:     -11.4      2.029      2.788
REMARK SMILES C[C@@H](C(=O)NCCCNC(=O)c1ccc(-c2c3nc(c(-c4cccc(S(=O)(=O)[O-])c4F)c4ccc([nH]4)c(-c4cccc(S(=O)(=O)[O-])c4F)c4nc(c(-c5cccc(S(=O)(=O)[O-])c5F)c5ccc2[nH]5)C=C4)C=C3)cc1)c1ccc(Cc2ccoc2)cc1F
REMARK SMILES IDX 7 1 6 2 5 3 3 4 4 5 2 7 1 8 75 9 76 10 86 11 77 12 85 13
REMARK SMILES IDX 87 14 78 15 79 16 80 17 81 18 84 19 82 20 83 21 8 22 9 23
REMARK SMILES IDX 10 24 11 26 12 27 13 28 74 29 14 30 73 31 15 32 16 33 17 34
REMARK SMILES IDX 67 35 18 36 72 37 66 38 68 39 19 40 71 41 65 42 64 43 20 45
REMARK SMILES IDX 52 46 32 47 51 48 33 49 36 50 50 51 69 52 34 53 35 54 49 56
REMARK SMILES IDX 70 57 37 58 21 59 22 60 30 61 23 62 25 63 31 64 24 65 26 66
REMARK SMILES IDX 27 67 28 68 29 69 53 70 54 71 62 72 55 73 57 74 63 75 56 76
REMARK SMILES IDX 58 77 59 78 60 79 61 80 38 81 39 82 47 83 40 84 42 85 48 86
REMARK SMILES IDX 41 87 43 88 44 89 45 90 46 91
REMARK H PARENT 5 6 9 25 68 44 36 55
REMARK Flexibility Score: inf
ROOT
ATOM      1  C   UNL A   1      32.733  29.307  25.537  1.00  0.00     0.042 C 
ENDROOT
BRANCH   1   2
ATOM      2  C   UNL A   1      31.762  29.285  24.360  1.00  0.00     0.117 C 
BRANCH   2   3
ATOM      3  N   UNL A   1      31.073  28.015  24.241  1.00  0.00    -0.356 N 
ATOM      4  C   UNL A   1      31.520  26.784  23.861  1.00  0.00     0.227 C 
ATOM      5  O   UNL A   1      30.677  25.882  23.869  1.00  0.00    -0.274 OA
ATOM      6  H   UNL A   1      30.117  28.046  24.474  1.00  0.00     0.163 HD
BRANCH   4   7
ATOM      7  C   UNL A   1      33.000  26.564  23.494  1.00  0.00     0.108 C 
ATOM      8  C   UNL A   1      33.274  26.779  22.003  1.00  0.00     0.023 C 
BRANCH   7   9
ATOM      9  C   UNL A   1      33.525  25.184  23.878  1.00  0.00    -0.000 A 
ATOM     10  C   UNL A   1      33.765  24.193  22.915  1.00  0.00     0.008 A 
ATOM     11  C   UNL A   1      33.862  24.897  25.204  1.00  0.00     0.127 A 
ATOM     12  C   UNL A   1      34.305  22.957  23.274  1.00  0.00     0.004 A 
ATOM     13  C   UNL A   1      34.400  23.663  25.573  1.00  0.00     0.043 A 
ATOM     14  F   UNL A   1      33.702  25.832  26.153  1.00  0.00    -0.207 F 
ATOM     15  C   UNL A   1      34.628  22.671  24.610  1.00  0.00    -0.041 A 
BRANCH  15  16
ATOM     16  C   UNL A   1      35.251  21.349  24.981  1.00  0.00     0.074 C 
BRANCH  16  17
ATOM     17  C   UNL A   1      34.181  20.310  24.947  1.00  0.00    -0.005 A 
ATOM     18  C   UNL A   1      34.259  18.966  24.469  1.00  0.00     0.046 A 
ATOM     19  C   UNL A   1      32.901  20.429  25.455  1.00  0.00     0.198 A 
ATOM     20  C   UNL A   1      33.036  18.387  24.708  1.00  0.00     0.195 A 
ATOM     21  O   UNL A   1      32.207  19.271  25.314  1.00  0.00    -0.472 OA
ENDBRANCH  16  17
ENDBRANCH  15  16
ENDBRANCH   7   9
ENDBRANCH   4   7
ENDBRANCH   2   3
ENDBRANCH   1   2
BRANCH   1  22
ATOM     22  C   UNL A   1      32.151  29.868  26.831  1.00  0.00     0.118 C 
BRANCH  22  23
ATOM     23  N   UNL A   1      32.020  31.319  26.815  1.00  0.00    -0.352 N 
ATOM     24  C   UNL A   1      32.859  32.278  27.330  1.00  0.00     0.251 C 
ATOM     25  H   UNL A   1      31.213  31.663  26.369  1.00  0.00     0.163 HD
ATOM     26  O   UNL A   1      32.499  33.452  27.361  1.00  0.00    -0.269 OA
BRANCH  24  27
ATOM     27  C   UNL A   1      34.181  31.895  27.869  1.00  0.00     0.039 A 
ATOM     28  C   UNL A   1      35.196  32.854  27.931  1.00  0.00     0.014 A 
ATOM     29  C   UNL A   1      34.418  30.593  28.317  1.00  0.00     0.014 A 
ATOM     30  C   UNL A   1      36.426  32.529  28.511  1.00  0.00     0.010 A 
ATOM     31  C   UNL A   1      35.615  30.293  28.961  1.00  0.00     0.010 A 
ATOM     32  C   UNL A   1      36.631  31.257  29.065  1.00  0.00    -0.014 A 
BRANCH  32  33
ATOM     33  C   UNL A   1      37.886  30.900  29.776  1.00  0.00     0.031 A 
ATOM     34  C   UNL A   1      38.832  29.900  29.170  1.00  0.00     0.074 A 
ATOM     35  C   UNL A   1      38.104  31.366  31.021  1.00  0.00     0.049 A 
ATOM     36  N   UNL A   1      39.891  29.341  29.697  1.00  0.00    -0.248 NA
ATOM     37  C   UNL A   1      38.525  29.442  27.806  1.00  0.00     0.031 C 
ATOM     38  C   UNL A   1      37.219  32.278  31.748  1.00  0.00     0.029 A 
ATOM     39  N   UNL A   1      39.110  31.095  31.915  1.00  0.00    -0.354 N 
ATOM     40  C   UNL A   1      40.346  28.430  28.752  1.00  0.00     0.074 A 
ATOM     41  C   UNL A   1      39.433  28.493  27.630  1.00  0.00     0.031 C 
ATOM     42  C   UNL A   1      37.707  32.470  32.984  1.00  0.00     0.029 A 
ATOM     43  C   UNL A   1      38.917  31.671  33.150  1.00  0.00     0.049 A 
ATOM     44  H   UNL A   1      39.895  30.542  31.694  1.00  0.00     0.167 HD
ATOM     45  C   UNL A   1      41.438  27.630  28.801  1.00  0.00     0.034 A 
ATOM     46  C   UNL A   1      39.617  31.550  34.296  1.00  0.00     0.034 A 
ATOM     47  C   UNL A   1      42.367  27.607  29.897  1.00  0.00     0.049 A 
ATOM     48  C   UNL A   1      40.856  30.696  34.313  1.00  0.00     0.074 A 
ATOM     49  C   UNL A   1      43.560  26.914  29.999  1.00  0.00     0.029 A 
ATOM     50  N   UNL A   1      42.205  28.301  31.086  1.00  0.00    -0.354 N 
ATOM     51  N   UNL A   1      41.365  29.968  33.350  1.00  0.00    -0.248 NA
ATOM     52  C   UNL A   1      41.636  30.675  35.558  1.00  0.00     0.031 C 
ATOM     53  C   UNL A   1      44.107  27.172  31.260  1.00  0.00     0.029 A 
ATOM     54  C   UNL A   1      43.268  28.045  31.933  1.00  0.00     0.049 A 
ATOM     55  H   UNL A   1      41.443  28.889  31.297  1.00  0.00     0.167 HD
ATOM     56  C   UNL A   1      42.541  29.428  33.857  1.00  0.00     0.074 A 
ATOM     57  C   UNL A   1      42.675  29.924  35.212  1.00  0.00     0.031 C 
ATOM     58  C   UNL A   1      43.422  28.590  33.259  1.00  0.00     0.034 A 
BRANCH  45  59
ATOM     59  C   UNL A   1      41.708  26.748  27.610  1.00  0.00     0.023 A 
ATOM     60  C   UNL A   1      42.307  27.299  26.458  1.00  0.00     0.012 A 
ATOM     61  C   UNL A   1      41.403  25.374  27.638  1.00  0.00     0.148 A 
ATOM     62  C   UNL A   1      42.555  26.507  25.337  1.00  0.00     0.002 A 
ATOM     63  C   UNL A   1      41.695  24.581  26.533  1.00  0.00     0.091 A 
ATOM     64  F   UNL A   1      40.813  24.870  28.731  1.00  0.00    -0.205 F 
ATOM     65  C   UNL A   1      42.257  25.148  25.378  1.00  0.00     0.022 A 
BRANCH  63  66
ATOM     66  S   UNL A   1      41.422  22.806  26.527  1.00  0.00     0.127 S 
ATOM     67  O   UNL A   1      39.971  22.731  26.365  1.00  0.00    -0.237 OA
ATOM     68  O   UNL A   1      42.189  22.376  25.356  1.00  0.00    -0.237 OA
ATOM     69  O   UNL A   1      41.943  22.321  27.797  1.00  0.00    -0.744 OA
ENDBRANCH  63  66
ENDBRANCH  45  59
BRANCH  46  70
ATOM     70  C   UNL A   1      39.175  32.301  35.505  1.00  0.00     0.023 A 
ATOM     71  C   UNL A   1      39.341  33.698  35.550  1.00  0.00     0.012 A 
ATOM     72  C   UNL A   1      38.527  31.649  36.572  1.00  0.00     0.148 A 
ATOM     73  C   UNL A   1      38.886  34.432  36.647  1.00  0.00     0.002 A 
ATOM     74  C   UNL A   1      38.028  32.392  37.636  1.00  0.00     0.091 A 
ATOM     75  F   UNL A   1      38.387  30.317  36.510  1.00  0.00    -0.205 F 
ATOM     76  C   UNL A   1      38.220  33.781  37.683  1.00  0.00     0.022 A 
BRANCH  74  77
ATOM     77  S   UNL A   1      37.034  31.661  38.941  1.00  0.00     0.127 S 
ATOM     78  O   UNL A   1      36.821  30.307  38.433  1.00  0.00    -0.237 OA
ATOM     79  O   UNL A   1      37.932  31.754  40.091  1.00  0.00    -0.237 OA
ATOM     80  O   UNL A   1      35.841  32.491  39.043  1.00  0.00    -0.744 OA
ENDBRANCH  74  77
ENDBRANCH  46  70
BRANCH  58  81
ATOM     81  C   UNL A   1      44.642  28.171  34.035  1.00  0.00     0.023 A 
ATOM     82  C   UNL A   1      45.778  29.003  34.057  1.00  0.00     0.012 A 
ATOM     83  C   UNL A   1      44.615  27.011  34.836  1.00  0.00     0.148 A 
ATOM     84  C   UNL A   1      46.875  28.679  34.855  1.00  0.00     0.002 A 
ATOM     85  C   UNL A   1      45.692  26.720  35.663  1.00  0.00     0.091 A 
ATOM     86  F   UNL A   1      43.530  26.225  34.784  1.00  0.00    -0.205 F 
ATOM     87  C   UNL A   1      46.827  27.548  35.666  1.00  0.00     0.022 A 
BRANCH  85  88
ATOM     88  S   UNL A   1      45.683  25.341  36.814  1.00  0.00     0.127 S 
ATOM     89  O   UNL A   1      44.498  25.634  37.619  1.00  0.00    -0.237 OA
ATOM     90  O   UNL A   1      45.543  24.193  35.918  1.00  0.00    -0.237 OA
ATOM     91  O   UNL A   1      46.951  25.402  37.528  1.00  0.00    -0.744 OA
ENDBRANCH  85  88
ENDBRANCH  58  81
ENDBRANCH  32  33
ENDBRANCH  24  27
ENDBRANCH  22  23
ENDBRANCH   1  22
TORSDOF 16
ENDMDL
