MODEL 1
REMARK VINA RESULT:     -12.5      0.000      0.000
REMARK SMILES C[C@@H](C(=O)NCCCNC(=O)c1ccc(-c2c3nc(c(-c4cccc(S(=O)(=O)[O-])c4F)c4ccc([nH]4)c(-c4cccc(S(=O)(=O)[O-])c4F)c4nc(c(-c5cccc(S(=O)(=O)[O-])c5F)c5ccc2[nH]5)C=C4)C=C3)cc1)[C@H]1CCOC2(CCCCC2)C1
REMARK SMILES IDX 8 1 7 2 6 3 5 4 3 5 4 6 2 8 1 9 75 10 76 11 85 12 77 13
REMARK SMILES IDX 79 14 78 15 80 16 84 17 81 18 83 19 82 20 9 21 10 22 11 24
REMARK SMILES IDX 12 25 13 26 74 27 14 28 73 29 15 30 16 31 17 32 67 33 18 34
REMARK SMILES IDX 72 35 66 36 68 37 19 38 71 39 65 40 64 41 20 43 52 44 32 45
REMARK SMILES IDX 51 46 33 47 36 48 50 49 69 50 34 51 35 52 49 54 70 55 37 56
REMARK SMILES IDX 21 57 22 58 30 59 23 60 25 61 31 62 24 63 26 64 27 65 28 66
REMARK SMILES IDX 29 67 53 68 54 69 62 70 55 71 57 72 63 73 56 74 58 75 59 76
REMARK SMILES IDX 60 77 61 78 38 79 39 80 47 81 40 82 42 83 48 84 41 85 43 86
REMARK SMILES IDX 44 87 45 88 46 89
REMARK H PARENT 5 7 9 23 68 42 36 53
REMARK Flexibility Score: inf
ROOT
ATOM      1  C   UNL A   1      32.007  30.592  26.844  1.00  0.00     0.118 C 
ENDROOT
BRANCH   1   2
ATOM      2  C   UNL A   1      32.281  30.063  25.438  1.00  0.00     0.042 C 
BRANCH   2   3
ATOM      3  C   UNL A   1      33.281  28.906  25.391  1.00  0.00     0.117 C 
BRANCH   3   4
ATOM      4  N   UNL A   1      32.836  27.811  26.231  1.00  0.00    -0.356 N 
ATOM      5  C   UNL A   1      32.013  26.767  25.932  1.00  0.00     0.223 C 
ATOM      6  O   UNL A   1      31.442  26.223  26.876  1.00  0.00    -0.275 OA
ATOM      7  H   UNL A   1      33.180  27.823  27.154  1.00  0.00     0.163 HD
BRANCH   5   8
ATOM      8  C   UNL A   1      31.849  26.323  24.475  1.00  0.00     0.078 C 
ATOM      9  C   UNL A   1      30.354  26.099  24.187  1.00  0.00     0.018 C 
BRANCH   8  10
ATOM     10  C   UNL A   1      32.617  25.016  24.110  1.00  0.00     0.006 C 
ATOM     11  C   UNL A   1      32.578  24.764  22.587  1.00  0.00     0.033 C 
ATOM     12  C   UNL A   1      34.099  24.931  24.526  1.00  0.00     0.040 C 
ATOM     13  C   UNL A   1      33.277  23.464  22.207  1.00  0.00     0.161 C 
ATOM     14  C   UNL A   1      34.701  23.556  24.153  1.00  0.00     0.069 C 
ATOM     15  O   UNL A   1      34.600  23.378  22.730  1.00  0.00    -0.375 OA
ATOM     16  C   UNL A   1      34.018  22.400  24.927  1.00  0.00     0.035 C 
ATOM     17  C   UNL A   1      36.208  23.556  24.499  1.00  0.00     0.035 C 
ATOM     18  C   UNL A   1      34.669  21.047  24.658  1.00  0.00     0.003 C 
ATOM     19  C   UNL A   1      36.872  22.195  24.267  1.00  0.00     0.003 C 
ATOM     20  C   UNL A   1      36.150  21.074  25.005  1.00  0.00     0.000 C 
ENDBRANCH   8  10
ENDBRANCH   5   8
ENDBRANCH   3   4
ENDBRANCH   2   3
ENDBRANCH   1   2
BRANCH   1  21
ATOM     21  N   UNL A   1      32.031  32.048  26.906  1.00  0.00    -0.352 N 
ATOM     22  C   UNL A   1      32.951  32.882  27.487  1.00  0.00     0.251 C 
ATOM     23  H   UNL A   1      31.274  32.499  26.467  1.00  0.00     0.163 HD
ATOM     24  O   UNL A   1      32.695  34.079  27.612  1.00  0.00    -0.269 OA
BRANCH  22  25
ATOM     25  C   UNL A   1      34.237  32.344  27.980  1.00  0.00     0.039 A 
ATOM     26  C   UNL A   1      35.356  33.180  28.003  1.00  0.00     0.014 A 
ATOM     27  C   UNL A   1      34.340  31.021  28.419  1.00  0.00     0.014 A 
ATOM     28  C   UNL A   1      36.558  32.714  28.539  1.00  0.00     0.010 A 
ATOM     29  C   UNL A   1      35.519  30.580  29.015  1.00  0.00     0.010 A 
ATOM     30  C   UNL A   1      36.637  31.424  29.090  1.00  0.00    -0.014 A 
BRANCH  30  31
ATOM     31  C   UNL A   1      37.859  30.958  29.800  1.00  0.00     0.031 A 
ATOM     32  C   UNL A   1      38.766  29.938  29.168  1.00  0.00     0.074 A 
ATOM     33  C   UNL A   1      38.084  31.370  31.064  1.00  0.00     0.049 A 
ATOM     34  N   UNL A   1      39.817  29.347  29.675  1.00  0.00    -0.248 NA
ATOM     35  C   UNL A   1      38.441  29.509  27.797  1.00  0.00     0.031 C 
ATOM     36  C   UNL A   1      37.236  32.301  31.813  1.00  0.00     0.029 A 
ATOM     37  N   UNL A   1      39.069  31.030  31.959  1.00  0.00    -0.354 N 
ATOM     38  C   UNL A   1      40.249  28.444  28.710  1.00  0.00     0.074 A 
ATOM     39  C   UNL A   1      39.342  28.558  27.589  1.00  0.00     0.031 C 
ATOM     40  C   UNL A   1      37.728  32.447  33.054  1.00  0.00     0.029 A 
ATOM     41  C   UNL A   1      38.900  31.590  33.205  1.00  0.00     0.049 A 
ATOM     42  H   UNL A   1      39.825  30.442  31.731  1.00  0.00     0.167 HD
ATOM     43  C   UNL A   1      41.312  27.607  28.752  1.00  0.00     0.034 A 
ATOM     44  C   UNL A   1      39.590  31.414  34.350  1.00  0.00     0.034 A 
ATOM     45  C   UNL A   1      42.236  27.530  29.851  1.00  0.00     0.049 A 
ATOM     46  C   UNL A   1      40.777  30.489  34.355  1.00  0.00     0.074 A 
ATOM     47  C   UNL A   1      43.413  26.805  29.931  1.00  0.00     0.029 A 
ATOM     48  N   UNL A   1      42.078  28.174  31.068  1.00  0.00    -0.354 N 
ATOM     49  N   UNL A   1      41.285  29.794  33.366  1.00  0.00    -0.248 NA
ATOM     50  C   UNL A   1      41.506  30.345  35.623  1.00  0.00     0.031 C 
ATOM     51  C   UNL A   1      43.942  26.973  31.213  1.00  0.00     0.029 A 
ATOM     52  C   UNL A   1      43.117  27.834  31.918  1.00  0.00     0.049 A 
ATOM     53  H   UNL A   1      41.338  28.782  31.294  1.00  0.00     0.167 HD
ATOM     54  C   UNL A   1      42.405  29.156  33.885  1.00  0.00     0.074 A 
ATOM     55  C   UNL A   1      42.519  29.568  35.268  1.00  0.00     0.031 C 
ATOM     56  C   UNL A   1      43.252  28.290  33.276  1.00  0.00     0.034 A 
BRANCH  43  57
ATOM     57  C   UNL A   1      41.567  26.716  27.566  1.00  0.00     0.023 A 
ATOM     58  C   UNL A   1      42.257  27.220  26.445  1.00  0.00     0.012 A 
ATOM     59  C   UNL A   1      41.218  25.351  27.610  1.00  0.00     0.148 A 
ATOM     60  C   UNL A   1      42.578  26.383  25.377  1.00  0.00     0.002 A 
ATOM     61  C   UNL A   1      41.581  24.515  26.562  1.00  0.00     0.091 A 
ATOM     62  F   UNL A   1      40.547  24.899  28.678  1.00  0.00    -0.205 F 
ATOM     63  C   UNL A   1      42.252  25.030  25.442  1.00  0.00     0.022 A 
BRANCH  61  64
ATOM     64  S   UNL A   1      41.283  22.743  26.587  1.00  0.00     0.127 S 
ATOM     65  O   UNL A   1      39.825  22.689  26.502  1.00  0.00    -0.237 OA
ATOM     66  O   UNL A   1      41.980  22.301  25.379  1.00  0.00    -0.237 OA
ATOM     67  O   UNL A   1      41.852  22.255  27.834  1.00  0.00    -0.744 OA
ENDBRANCH  61  64
ENDBRANCH  43  57
BRANCH  44  68
ATOM     68  C   UNL A   1      39.188  32.138  35.590  1.00  0.00     0.023 A 
ATOM     69  C   UNL A   1      39.555  33.487  35.758  1.00  0.00     0.012 A 
ATOM     70  C   UNL A   1      38.452  31.498  36.607  1.00  0.00     0.148 A 
ATOM     71  C   UNL A   1      39.236  34.172  36.931  1.00  0.00     0.002 A 
ATOM     72  C   UNL A   1      38.084  32.203  37.746  1.00  0.00     0.091 A 
ATOM     73  F   UNL A   1      38.123  30.209  36.438  1.00  0.00    -0.205 F 
ATOM     74  C   UNL A   1      38.494  33.534  37.921  1.00  0.00     0.022 A 
BRANCH  72  75
ATOM     75  S   UNL A   1      37.014  31.499  39.005  1.00  0.00     0.127 S 
ATOM     76  O   UNL A   1      35.841  32.364  38.918  1.00  0.00    -0.237 OA
ATOM     77  O   UNL A   1      36.815  30.138  38.507  1.00  0.00    -0.237 OA
ATOM     78  O   UNL A   1      37.770  31.574  40.249  1.00  0.00    -0.744 OA
ENDBRANCH  72  75
ENDBRANCH  44  68
BRANCH  56  79
ATOM     79  C   UNL A   1      44.403  27.746  34.081  1.00  0.00     0.023 A 
ATOM     80  C   UNL A   1      45.615  28.461  34.141  1.00  0.00     0.012 A 
ATOM     81  C   UNL A   1      44.249  26.577  34.852  1.00  0.00     0.148 A 
ATOM     82  C   UNL A   1      46.666  28.007  34.937  1.00  0.00     0.002 A 
ATOM     83  C   UNL A   1      45.281  26.159  35.683  1.00  0.00     0.091 A 
ATOM     84  F   UNL A   1      43.092  25.905  34.770  1.00  0.00    -0.205 F 
ATOM     85  C   UNL A   1      46.495  26.866  35.717  1.00  0.00     0.022 A 
BRANCH  83  86
ATOM     86  S   UNL A   1      45.121  24.759  36.797  1.00  0.00     0.127 S 
ATOM     87  O   UNL A   1      44.904  23.657  35.862  1.00  0.00    -0.237 OA
ATOM     88  O   UNL A   1      46.424  24.746  37.463  1.00  0.00    -0.237 OA
ATOM     89  O   UNL A   1      43.995  25.063  37.669  1.00  0.00    -0.744 OA
ENDBRANCH  83  86
ENDBRANCH  56  79
ENDBRANCH  30  31
ENDBRANCH  22  25
ENDBRANCH   1  21
TORSDOF 14
ENDMDL
MODEL 2
REMARK VINA RESULT:     -12.5      5.610     10.892
REMARK SMILES C[C@@H](C(=O)NCCCNC(=O)c1ccc(-c2c3nc(c(-c4cccc(S(=O)(=O)[O-])c4F)c4ccc([nH]4)c(-c4cccc(S(=O)(=O)[O-])c4F)c4nc(c(-c5cccc(S(=O)(=O)[O-])c5F)c5ccc2[nH]5)C=C4)C=C3)cc1)[C@H]1CCOC2(CCCCC2)C1
REMARK SMILES IDX 8 1 7 2 6 3 5 4 3 5 4 6 2 8 1 9 75 10 76 11 85 12 77 13
REMARK SMILES IDX 79 14 78 15 80 16 84 17 81 18 83 19 82 20 9 21 10 22 11 24
REMARK SMILES IDX 12 25 13 26 74 27 14 28 73 29 15 30 16 31 17 32 67 33 18 34
REMARK SMILES IDX 72 35 66 36 68 37 19 38 71 39 65 40 64 41 20 43 52 44 32 45
REMARK SMILES IDX 51 46 33 47 36 48 50 49 69 50 34 51 35 52 49 54 70 55 37 56
REMARK SMILES IDX 21 57 22 58 30 59 23 60 25 61 31 62 24 63 26 64 27 65 28 66
REMARK SMILES IDX 29 67 53 68 54 69 62 70 55 71 57 72 63 73 56 74 58 75 59 76
REMARK SMILES IDX 60 77 61 78 38 79 39 80 47 81 40 82 42 83 48 84 41 85 43 86
REMARK SMILES IDX 44 87 45 88 46 89
REMARK H PARENT 5 7 9 23 68 42 36 53
REMARK Flexibility Score: inf
ROOT
ATOM      1  C   UNL A   1      38.532  20.031  25.641  1.00  0.00     0.118 C 
ENDROOT
BRANCH   1   2
ATOM      2  C   UNL A   1      37.420  19.311  24.882  1.00  0.00     0.042 C 
BRANCH   2   3
ATOM      3  C   UNL A   1      36.060  20.009  24.957  1.00  0.00     0.117 C 
BRANCH   3   4
ATOM      4  N   UNL A   1      36.124  21.160  25.837  1.00  0.00    -0.356 N 
ATOM      5  C   UNL A   1      36.098  22.488  25.532  1.00  0.00     0.223 C 
ATOM      6  O   UNL A   1      36.588  23.257  26.358  1.00  0.00    -0.275 OA
ATOM      7  H   UNL A   1      36.197  20.952  26.797  1.00  0.00     0.163 HD
BRANCH   5   8
ATOM      8  C   UNL A   1      35.468  22.952  24.215  1.00  0.00     0.078 C 
ATOM      9  C   UNL A   1      36.578  23.123  23.163  1.00  0.00     0.018 C 
BRANCH   8  10
ATOM     10  C   UNL A   1      34.681  24.295  24.315  1.00  0.00     0.006 C 
ATOM     11  C   UNL A   1      34.019  24.644  22.965  1.00  0.00     0.033 C 
ATOM     12  C   UNL A   1      33.570  24.381  25.380  1.00  0.00     0.040 C 
ATOM     13  C   UNL A   1      33.285  25.980  23.020  1.00  0.00     0.161 C 
ATOM     14  C   UNL A   1      32.929  25.789  25.399  1.00  0.00     0.069 C 
ATOM     15  O   UNL A   1      32.364  26.056  24.105  1.00  0.00    -0.375 OA
ATOM     16  C   UNL A   1      33.949  26.879  25.819  1.00  0.00     0.035 C 
ATOM     17  C   UNL A   1      31.759  25.796  26.411  1.00  0.00     0.035 C 
ATOM     18  C   UNL A   1      33.312  28.259  25.951  1.00  0.00     0.003 C 
ATOM     19  C   UNL A   1      31.130  27.181  26.582  1.00  0.00     0.003 C 
ATOM     20  C   UNL A   1      32.164  28.238  26.950  1.00  0.00     0.000 C 
ENDBRANCH   8  10
ENDBRANCH   5   8
ENDBRANCH   3   4
ENDBRANCH   2   3
ENDBRANCH   1   2
BRANCH   1  21
ATOM     21  N   UNL A   1      39.727  19.210  25.790  1.00  0.00    -0.352 N 
ATOM     22  C   UNL A   1      41.012  19.584  26.091  1.00  0.00     0.251 C 
ATOM     23  H   UNL A   1      39.591  18.244  25.656  1.00  0.00     0.163 HD
ATOM     24  O   UNL A   1      41.926  18.770  25.973  1.00  0.00    -0.269 OA
BRANCH  22  25
ATOM     25  C   UNL A   1      41.301  20.965  26.533  1.00  0.00     0.039 A 
ATOM     26  C   UNL A   1      41.865  21.167  27.795  1.00  0.00     0.014 A 
ATOM     27  C   UNL A   1      41.019  22.057  25.707  1.00  0.00     0.014 A 
ATOM     28  C   UNL A   1      42.219  22.457  28.197  1.00  0.00     0.010 A 
ATOM     29  C   UNL A   1      41.435  23.332  26.081  1.00  0.00     0.010 A 
ATOM     30  C   UNL A   1      42.048  23.545  27.325  1.00  0.00    -0.014 A 
BRANCH  30  31
ATOM     31  C   UNL A   1      42.551  24.901  27.670  1.00  0.00     0.031 A 
ATOM     32  C   UNL A   1      41.638  25.918  28.298  1.00  0.00     0.074 A 
ATOM     33  C   UNL A   1      43.803  25.250  27.308  1.00  0.00     0.049 A 
ATOM     34  N   UNL A   1      41.876  27.173  28.577  1.00  0.00    -0.248 NA
ATOM     35  C   UNL A   1      40.275  25.476  28.637  1.00  0.00     0.031 C 
ATOM     36  C   UNL A   1      44.761  24.376  26.626  1.00  0.00     0.029 A 
ATOM     37  N   UNL A   1      44.473  26.444  27.424  1.00  0.00    -0.354 N 
ATOM     38  C   UNL A   1      40.684  27.684  29.078  1.00  0.00     0.074 A 
ATOM     39  C   UNL A   1      39.720  26.605  29.056  1.00  0.00     0.031 C 
ATOM     40  C   UNL A   1      45.886  25.063  26.373  1.00  0.00     0.029 A 
ATOM     41  C   UNL A   1      45.717  26.438  26.835  1.00  0.00     0.049 A 
ATOM     42  H   UNL A   1      44.099  27.230  27.885  1.00  0.00     0.167 HD
ATOM     43  C   UNL A   1      40.421  28.935  29.525  1.00  0.00     0.034 A 
ATOM     44  C   UNL A   1      46.611  27.431  26.658  1.00  0.00     0.034 A 
ATOM     45  C   UNL A   1      41.396  29.991  29.586  1.00  0.00     0.049 A 
ATOM     46  C   UNL A   1      46.294  28.805  27.185  1.00  0.00     0.074 A 
ATOM     47  C   UNL A   1      41.258  31.252  30.140  1.00  0.00     0.029 A 
ATOM     48  N   UNL A   1      42.673  29.925  29.053  1.00  0.00    -0.354 N 
ATOM     49  N   UNL A   1      45.231  29.214  27.833  1.00  0.00    -0.248 NA
ATOM     50  C   UNL A   1      47.309  29.849  26.981  1.00  0.00     0.031 C 
ATOM     51  C   UNL A   1      42.436  31.965  29.901  1.00  0.00     0.029 A 
ATOM     52  C   UNL A   1      43.322  31.134  29.233  1.00  0.00     0.049 A 
ATOM     53  H   UNL A   1      43.061  29.135  28.613  1.00  0.00     0.167 HD
ATOM     54  C   UNL A   1      45.463  30.550  28.140  1.00  0.00     0.074 A 
ATOM     55  C   UNL A   1      46.778  30.875  27.631  1.00  0.00     0.031 C 
ATOM     56  C   UNL A   1      44.651  31.434  28.770  1.00  0.00     0.034 A 
BRANCH  43  57
ATOM     57  C   UNL A   1      39.033  29.241  30.018  1.00  0.00     0.023 A 
ATOM     58  C   UNL A   1      38.660  28.887  31.330  1.00  0.00     0.012 A 
ATOM     59  C   UNL A   1      38.136  29.976  29.217  1.00  0.00     0.148 A 
ATOM     60  C   UNL A   1      37.408  29.244  31.831  1.00  0.00     0.002 A 
ATOM     61  C   UNL A   1      36.910  30.366  29.739  1.00  0.00     0.091 A 
ATOM     62  F   UNL A   1      38.506  30.286  27.967  1.00  0.00    -0.205 F 
ATOM     63  C   UNL A   1      36.540  29.993  31.040  1.00  0.00     0.022 A 
BRANCH  61  64
ATOM     64  S   UNL A   1      35.756  31.404  28.833  1.00  0.00     0.127 S 
ATOM     65  O   UNL A   1      34.851  31.836  29.897  1.00  0.00    -0.237 OA
ATOM     66  O   UNL A   1      36.633  32.455  28.315  1.00  0.00    -0.237 OA
ATOM     67  O   UNL A   1      35.157  30.552  27.816  1.00  0.00    -0.744 OA
ENDBRANCH  61  64
ENDBRANCH  43  57
BRANCH  44  68
ATOM     68  C   UNL A   1      47.903  27.166  25.962  1.00  0.00     0.023 A 
ATOM     69  C   UNL A   1      49.011  26.710  26.702  1.00  0.00     0.012 A 
ATOM     70  C   UNL A   1      48.043  27.369  24.575  1.00  0.00     0.148 A 
ATOM     71  C   UNL A   1      50.245  26.504  26.083  1.00  0.00     0.002 A 
ATOM     72  C   UNL A   1      49.258  27.103  23.953  1.00  0.00     0.091 A 
ATOM     73  F   UNL A   1      46.983  27.817  23.887  1.00  0.00    -0.205 F 
ATOM     74  C   UNL A   1      50.366  26.692  24.709  1.00  0.00     0.022 A 
BRANCH  72  75
ATOM     75  S   UNL A   1      49.461  27.187  22.171  1.00  0.00     0.127 S 
ATOM     76  O   UNL A   1      49.017  28.547  21.882  1.00  0.00    -0.237 OA
ATOM     77  O   UNL A   1      50.899  26.962  22.019  1.00  0.00    -0.237 OA
ATOM     78  O   UNL A   1      48.631  26.117  21.632  1.00  0.00    -0.744 OA
ENDBRANCH  72  75
ENDBRANCH  44  68
BRANCH  56  79
ATOM     79  C   UNL A   1      45.162  32.835  28.980  1.00  0.00     0.023 A 
ATOM     80  C   UNL A   1      45.953  33.130  30.108  1.00  0.00     0.012 A 
ATOM     81  C   UNL A   1      44.936  33.833  28.012  1.00  0.00     0.148 A 
ATOM     82  C   UNL A   1      46.492  34.404  30.281  1.00  0.00     0.002 A 
ATOM     83  C   UNL A   1      45.519  35.085  28.165  1.00  0.00     0.091 A 
ATOM     84  F   UNL A   1      44.169  33.534  26.954  1.00  0.00    -0.205 F 
ATOM     85  C   UNL A   1      46.286  35.376  29.304  1.00  0.00     0.022 A 
BRANCH  83  86
ATOM     86  S   UNL A   1      45.393  36.370  26.916  1.00  0.00     0.127 S 
ATOM     87  O   UNL A   1      43.952  36.409  26.672  1.00  0.00    -0.237 OA
ATOM     88  O   UNL A   1      45.923  37.537  27.621  1.00  0.00    -0.237 OA
ATOM     89  O   UNL A   1      46.200  35.921  25.790  1.00  0.00    -0.744 OA
ENDBRANCH  83  86
ENDBRANCH  56  79
ENDBRANCH  30  31
ENDBRANCH  22  25
ENDBRANCH   1  21
TORSDOF 14
ENDMDL
MODEL 3
REMARK VINA RESULT:     -12.4      1.304      1.495
REMARK SMILES C[C@@H](C(=O)NCCCNC(=O)c1ccc(-c2c3nc(c(-c4cccc(S(=O)(=O)[O-])c4F)c4ccc([nH]4)c(-c4cccc(S(=O)(=O)[O-])c4F)c4nc(c(-c5cccc(S(=O)(=O)[O-])c5F)c5ccc2[nH]5)C=C4)C=C3)cc1)[C@H]1CCOC2(CCCCC2)C1
REMARK SMILES IDX 8 1 7 2 6 3 5 4 3 5 4 6 2 8 1 9 75 10 76 11 85 12 77 13
REMARK SMILES IDX 79 14 78 15 80 16 84 17 81 18 83 19 82 20 9 21 10 22 11 24
REMARK SMILES IDX 12 25 13 26 74 27 14 28 73 29 15 30 16 31 17 32 67 33 18 34
REMARK SMILES IDX 72 35 66 36 68 37 19 38 71 39 65 40 64 41 20 43 52 44 32 45
REMARK SMILES IDX 51 46 33 47 36 48 50 49 69 50 34 51 35 52 49 54 70 55 37 56
REMARK SMILES IDX 21 57 22 58 30 59 23 60 25 61 31 62 24 63 26 64 27 65 28 66
REMARK SMILES IDX 29 67 53 68 54 69 62 70 55 71 57 72 63 73 56 74 58 75 59 76
REMARK SMILES IDX 60 77 61 78 38 79 39 80 47 81 40 82 42 83 48 84 41 85 43 86
REMARK SMILES IDX 44 87 45 88 46 89
REMARK H PARENT 5 7 9 23 68 42 36 53
REMARK Flexibility Score: inf
ROOT
ATOM      1  C   UNL A   1      31.978  30.510  26.807  1.00  0.00     0.118 C 
ENDROOT
BRANCH   1   2
ATOM      2  C   UNL A   1      32.262  29.995  25.398  1.00  0.00     0.042 C 
BRANCH   2   3
ATOM      3  C   UNL A   1      33.249  28.826  25.349  1.00  0.00     0.117 C 
BRANCH   3   4
ATOM      4  N   UNL A   1      32.802  27.743  26.203  1.00  0.00    -0.356 N 
ATOM      5  C   UNL A   1      31.974  26.699  25.918  1.00  0.00     0.223 C 
ATOM      6  O   UNL A   1      31.403  26.168  26.869  1.00  0.00    -0.275 OA
ATOM      7  H   UNL A   1      33.148  27.764  27.124  1.00  0.00     0.163 HD
BRANCH   5   8
ATOM      8  C   UNL A   1      31.804  26.239  24.466  1.00  0.00     0.078 C 
ATOM      9  C   UNL A   1      30.312  25.982  24.195  1.00  0.00     0.018 C 
BRANCH   8  10
ATOM     10  C   UNL A   1      32.595  24.944  24.105  1.00  0.00     0.006 C 
ATOM     11  C   UNL A   1      32.548  24.679  22.585  1.00  0.00     0.033 C 
ATOM     12  C   UNL A   1      34.082  24.891  24.508  1.00  0.00     0.040 C 
ATOM     13  C   UNL A   1      33.269  23.390  22.209  1.00  0.00     0.161 C 
ATOM     14  C   UNL A   1      34.708  23.525  24.141  1.00  0.00     0.069 C 
ATOM     15  O   UNL A   1      34.598  23.334  22.721  1.00  0.00    -0.375 OA
ATOM     16  C   UNL A   1      34.053  22.362  24.931  1.00  0.00     0.035 C 
ATOM     17  C   UNL A   1      36.217  23.557  24.475  1.00  0.00     0.035 C 
ATOM     18  C   UNL A   1      34.729  21.020  24.666  1.00  0.00     0.003 C 
ATOM     19  C   UNL A   1      36.905  22.208  24.247  1.00  0.00     0.003 C 
ATOM     20  C   UNL A   1      36.212  21.079  25.001  1.00  0.00     0.000 C 
ENDBRANCH   8  10
ENDBRANCH   5   8
ENDBRANCH   3   4
ENDBRANCH   2   3
ENDBRANCH   1   2
BRANCH   1  21
ATOM     21  N   UNL A   1      31.974  31.966  26.878  1.00  0.00    -0.352 N 
ATOM     22  C   UNL A   1      32.877  32.814  27.467  1.00  0.00     0.251 C 
ATOM     23  H   UNL A   1      31.211  32.406  26.438  1.00  0.00     0.163 HD
ATOM     24  O   UNL A   1      32.599  34.004  27.598  1.00  0.00    -0.269 OA
BRANCH  22  25
ATOM     25  C   UNL A   1      34.171  32.296  27.962  1.00  0.00     0.039 A 
ATOM     26  C   UNL A   1      35.242  33.181  28.109  1.00  0.00     0.014 A 
ATOM     27  C   UNL A   1      34.328  30.944  28.281  1.00  0.00     0.014 A 
ATOM     28  C   UNL A   1      36.446  32.727  28.650  1.00  0.00     0.010 A 
ATOM     29  C   UNL A   1      35.506  30.509  28.883  1.00  0.00     0.010 A 
ATOM     30  C   UNL A   1      36.574  31.397  29.083  1.00  0.00    -0.014 A 
BRANCH  30  31
ATOM     31  C   UNL A   1      37.791  30.928  29.797  1.00  0.00     0.031 A 
ATOM     32  C   UNL A   1      38.697  29.903  29.170  1.00  0.00     0.074 A 
ATOM     33  C   UNL A   1      38.014  31.341  31.062  1.00  0.00     0.049 A 
ATOM     34  N   UNL A   1      39.744  29.310  29.682  1.00  0.00    -0.248 NA
ATOM     35  C   UNL A   1      38.375  29.473  27.799  1.00  0.00     0.031 C 
ATOM     36  C   UNL A   1      37.167  32.277  31.807  1.00  0.00     0.029 A 
ATOM     37  N   UNL A   1      38.995  30.999  31.960  1.00  0.00    -0.354 N 
ATOM     38  C   UNL A   1      40.176  28.404  28.720  1.00  0.00     0.074 A 
ATOM     39  C   UNL A   1      39.273  28.519  27.596  1.00  0.00     0.031 C 
ATOM     40  C   UNL A   1      37.655  32.424  33.048  1.00  0.00     0.029 A 
ATOM     41  C   UNL A   1      38.824  31.563  33.205  1.00  0.00     0.049 A 
ATOM     42  H   UNL A   1      39.749  30.408  31.736  1.00  0.00     0.167 HD
ATOM     43  C   UNL A   1      41.236  27.563  28.767  1.00  0.00     0.034 A 
ATOM     44  C   UNL A   1      39.509  31.385  34.352  1.00  0.00     0.034 A 
ATOM     45  C   UNL A   1      42.156  27.485  29.869  1.00  0.00     0.049 A 
ATOM     46  C   UNL A   1      40.693  30.457  34.363  1.00  0.00     0.074 A 
ATOM     47  C   UNL A   1      43.330  26.756  29.954  1.00  0.00     0.029 A 
ATOM     48  N   UNL A   1      41.997  28.131  31.084  1.00  0.00    -0.354 N 
ATOM     49  N   UNL A   1      41.201  29.758  33.377  1.00  0.00    -0.248 NA
ATOM     50  C   UNL A   1      41.417  30.312  35.634  1.00  0.00     0.031 C 
ATOM     51  C   UNL A   1      43.856  26.924  31.238  1.00  0.00     0.029 A 
ATOM     52  C   UNL A   1      43.031  27.789  31.939  1.00  0.00     0.049 A 
ATOM     53  H   UNL A   1      41.258  28.742  31.306  1.00  0.00     0.167 HD
ATOM     54  C   UNL A   1      42.318  29.117  33.901  1.00  0.00     0.074 A 
ATOM     55  C   UNL A   1      42.429  29.531  35.283  1.00  0.00     0.031 C 
ATOM     56  C   UNL A   1      43.163  28.247  33.296  1.00  0.00     0.034 A 
BRANCH  43  57
ATOM     57  C   UNL A   1      41.491  26.669  27.583  1.00  0.00     0.023 A 
ATOM     58  C   UNL A   1      42.191  27.167  26.466  1.00  0.00     0.012 A 
ATOM     59  C   UNL A   1      41.133  25.307  27.626  1.00  0.00     0.148 A 
ATOM     60  C   UNL A   1      42.513  26.326  25.400  1.00  0.00     0.002 A 
ATOM     61  C   UNL A   1      41.497  24.467  26.582  1.00  0.00     0.091 A 
ATOM     62  F   UNL A   1      40.453  24.860  28.691  1.00  0.00    -0.205 F 
ATOM     63  C   UNL A   1      42.178  24.976  25.465  1.00  0.00     0.022 A 
BRANCH  61  64
ATOM     64  S   UNL A   1      41.187  22.697  26.607  1.00  0.00     0.127 S 
ATOM     65  O   UNL A   1      39.731  22.652  26.491  1.00  0.00    -0.237 OA
ATOM     66  O   UNL A   1      41.908  22.245  25.416  1.00  0.00    -0.237 OA
ATOM     67  O   UNL A   1      41.725  22.210  27.868  1.00  0.00    -0.744 OA
ENDBRANCH  61  64
ENDBRANCH  43  57
BRANCH  44  68
ATOM     68  C   UNL A   1      39.106  32.113  35.590  1.00  0.00     0.023 A 
ATOM     69  C   UNL A   1      38.214  31.506  36.495  1.00  0.00     0.012 A 
ATOM     70  C   UNL A   1      39.595  33.403  35.873  1.00  0.00     0.148 A 
ATOM     71  C   UNL A   1      37.782  32.186  37.634  1.00  0.00     0.002 A 
ATOM     72  C   UNL A   1      39.209  34.051  37.041  1.00  0.00     0.091 A 
ATOM     73  F   UNL A   1      40.432  33.973  34.995  1.00  0.00    -0.205 F 
ATOM     74  C   UNL A   1      38.285  33.454  37.912  1.00  0.00     0.022 A 
BRANCH  72  75
ATOM     75  S   UNL A   1      39.914  35.625  37.542  1.00  0.00     0.127 S 
ATOM     76  O   UNL A   1      41.316  35.273  37.748  1.00  0.00    -0.237 OA
ATOM     77  O   UNL A   1      39.654  36.461  36.370  1.00  0.00    -0.237 OA
ATOM     78  O   UNL A   1      39.176  36.023  38.734  1.00  0.00    -0.744 OA
ENDBRANCH  72  75
ENDBRANCH  44  68
BRANCH  56  79
ATOM     79  C   UNL A   1      44.310  27.700  34.106  1.00  0.00     0.023 A 
ATOM     80  C   UNL A   1      45.536  28.393  34.140  1.00  0.00     0.012 A 
ATOM     81  C   UNL A   1      44.140  26.553  34.906  1.00  0.00     0.148 A 
ATOM     82  C   UNL A   1      46.584  27.938  34.939  1.00  0.00     0.002 A 
ATOM     83  C   UNL A   1      45.170  26.136  35.740  1.00  0.00     0.091 A 
ATOM     84  F   UNL A   1      42.969  25.902  34.848  1.00  0.00    -0.205 F 
ATOM     85  C   UNL A   1      46.397  26.819  35.748  1.00  0.00     0.022 A 
BRANCH  83  86
ATOM     86  S   UNL A   1      44.991  24.767  36.889  1.00  0.00     0.127 S 
ATOM     87  O   UNL A   1      44.744  23.647  35.982  1.00  0.00    -0.237 OA
ATOM     88  O   UNL A   1      46.299  24.743  37.544  1.00  0.00    -0.237 OA
ATOM     89  O   UNL A   1      43.879  25.114  37.762  1.00  0.00    -0.744 OA
ENDBRANCH  83  86
ENDBRANCH  56  79
ENDBRANCH  30  31
ENDBRANCH  22  25
ENDBRANCH   1  21
TORSDOF 14
ENDMDL
