MODEL 1
REMARK VINA RESULT:     -11.6      0.000      0.000
REMARK SMILES COc1cc([N+](=O)[O-])cc([C@H]2[NH2+][C@H](C(=O)NCCCNC(=O)c3ccc(-c4c5nc(c(-c6cccc(S(=O)(=O)[O-])c6F)c6ccc([nH]6)c(-c6cccc(S(=O)(=O)[O-])c6F)c6nc(c(-c7cccc(S(=O)(=O)[O-])c7F)c7ccc4[nH]7)C=C6)C=C5)cc3)CS2)c1O
REMARK SMILES IDX 18 1 17 2 16 3 14 4 15 5 13 7 11 8 12 9 87 10 86 13 10 14
REMARK SMILES IDX 3 15 4 16 88 17 5 18 9 19 2 20 1 21 89 22 6 24 7 25 8 26
REMARK SMILES IDX 19 27 20 28 21 29 22 31 23 32 24 33 85 34 25 35 84 36 26 37
REMARK SMILES IDX 27 38 28 39 78 40 29 41 83 42 77 43 79 44 30 45 82 46 76 47
REMARK SMILES IDX 75 48 31 50 63 51 43 52 62 53 44 54 47 55 61 56 80 57 45 58
REMARK SMILES IDX 46 59 60 61 81 62 48 63 32 64 33 65 41 66 34 67 36 68 42 69
REMARK SMILES IDX 35 70 37 71 38 72 39 73 40 74 64 75 65 76 73 77 66 78 68 79
REMARK SMILES IDX 74 80 67 81 69 82 70 83 71 84 72 85 49 86 50 87 58 88 51 89
REMARK SMILES IDX 53 90 59 91 52 92 54 93 55 94 56 95 57 96
REMARK H PARENT 16 6 12 11 12 12 89 23 20 30 79 49 47 60
REMARK Flexibility Score: inf
ROOT
ATOM      1  C   UNL A   1      31.747  28.621  25.624  1.00  0.00     0.042 C 
ENDROOT
BRANCH   1   2
ATOM      2  C   UNL A   1      31.908  27.684  26.815  1.00  0.00     0.118 C 
BRANCH   2   3
ATOM      3  N   UNL A   1      30.798  26.766  26.962  1.00  0.00    -0.351 N 
ATOM      4  C   UNL A   1      30.486  25.623  26.290  1.00  0.00     0.279 C 
ATOM      5  O   UNL A   1      29.482  25.009  26.667  1.00  0.00    -0.268 OA
ATOM      6  H   UNL A   1      30.158  27.011  27.670  1.00  0.00     0.163 HD
BRANCH   4   7
ATOM      7  C   UNL A   1      31.338  25.068  25.137  1.00  0.00     0.283 C 
ATOM      8  C   UNL A   1      31.755  22.701  24.765  1.00  0.00     0.278 C 
ATOM      9  N   UNL A   1      32.121  23.877  25.557  1.00  0.00    -0.320 N 
ATOM     10  S   UNL A   1      31.195  23.323  23.163  1.00  0.00    -0.087 SA
ATOM     11  H   UNL A   1      33.114  24.070  25.428  1.00  0.00     0.348 HD
ATOM     12  H   UNL A   1      31.916  23.685  26.537  1.00  0.00     0.348 HD
ATOM     13  C   UNL A   1      30.567  24.871  23.842  1.00  0.00     0.151 C 
BRANCH   8  14
ATOM     14  C   UNL A   1      32.846  21.629  24.788  1.00  0.00     0.073 A 
ATOM     15  C   UNL A   1      35.152  20.765  24.706  1.00  0.00     0.167 A 
ATOM     16  C   UNL A   1      34.672  19.451  24.716  1.00  0.00     0.136 A 
ATOM     17  C   UNL A   1      34.243  21.845  24.733  1.00  0.00     0.168 A 
ATOM     18  C   UNL A   1      33.301  19.212  24.741  1.00  0.00     0.273 A 
ATOM     19  C   UNL A   1      32.399  20.283  24.766  1.00  0.00     0.100 A 
BRANCH  15  20
ATOM     20  O   UNL A   1      36.522  20.808  24.680  1.00  0.00    -0.493 OA
ATOM     21  C   UNL A   1      37.257  19.632  24.985  1.00  0.00     0.278 C 
ENDBRANCH  15  20
BRANCH  17  22
ATOM     22  O   UNL A   1      34.760  23.110  24.695  1.00  0.00    -0.504 OA
ATOM     23  H   UNL A   1      35.300  23.375  23.976  1.00  0.00     0.293 HD
ENDBRANCH  17  22
BRANCH  18  24
ATOM     24  N   UNL A   1      32.799  17.833  24.778  1.00  0.00     0.062 N 
ATOM     25  O   UNL A   1      32.148  17.487  25.772  1.00  0.00    -0.258 OA
ATOM     26  O   UNL A   1      33.009  17.127  23.781  1.00  0.00    -0.258 OA
ENDBRANCH  18  24
ENDBRANCH   8  14
ENDBRANCH   4   7
ENDBRANCH   2   3
ENDBRANCH   1   2
BRANCH   1  27
ATOM     27  C   UNL A   1      32.908  29.593  25.450  1.00  0.00     0.118 C 
BRANCH  27  28
ATOM     28  N   UNL A   1      32.573  30.931  25.921  1.00  0.00    -0.352 N 
ATOM     29  C   UNL A   1      33.057  31.652  26.982  1.00  0.00     0.251 C 
ATOM     30  H   UNL A   1      31.887  31.396  25.388  1.00  0.00     0.163 HD
ATOM     31  O   UNL A   1      32.462  32.673  27.321  1.00  0.00    -0.269 OA
BRANCH  29  32
ATOM     32  C   UNL A   1      34.271  31.225  27.713  1.00  0.00     0.039 A 
ATOM     33  C   UNL A   1      35.265  32.175  27.970  1.00  0.00     0.014 A 
ATOM     34  C   UNL A   1      34.471  29.893  28.084  1.00  0.00     0.014 A 
ATOM     35  C   UNL A   1      36.438  31.794  28.623  1.00  0.00     0.010 A 
ATOM     36  C   UNL A   1      35.604  29.533  28.809  1.00  0.00     0.010 A 
ATOM     37  C   UNL A   1      36.610  30.473  29.063  1.00  0.00    -0.014 A 
BRANCH  37  38
ATOM     38  C   UNL A   1      37.843  30.062  29.782  1.00  0.00     0.031 A 
ATOM     39  C   UNL A   1      38.123  30.570  31.170  1.00  0.00     0.074 A 
ATOM     40  C   UNL A   1      38.744  29.281  29.153  1.00  0.00     0.049 A 
ATOM     41  N   UNL A   1      39.146  30.323  31.947  1.00  0.00    -0.248 NA
ATOM     42  C   UNL A   1      37.143  31.501  31.754  1.00  0.00     0.031 C 
ATOM     43  C   UNL A   1      38.630  28.805  27.772  1.00  0.00     0.029 A 
ATOM     44  N   UNL A   1      39.941  28.771  29.582  1.00  0.00    -0.354 N 
ATOM     45  C   UNL A   1      38.954  31.092  33.089  1.00  0.00     0.074 A 
ATOM     46  C   UNL A   1      37.733  31.844  32.890  1.00  0.00     0.031 C 
ATOM     47  C   UNL A   1      39.709  28.065  27.473  1.00  0.00     0.029 A 
ATOM     48  C   UNL A   1      40.599  28.031  28.628  1.00  0.00     0.049 A 
ATOM     49  H   UNL A   1      40.297  28.920  30.488  1.00  0.00     0.167 HD
ATOM     50  C   UNL A   1      39.705  31.147  34.214  1.00  0.00     0.034 A 
ATOM     51  C   UNL A   1      41.785  27.394  28.679  1.00  0.00     0.034 A 
ATOM     52  C   UNL A   1      40.890  30.358  34.425  1.00  0.00     0.049 A 
ATOM     53  C   UNL A   1      42.562  27.408  29.966  1.00  0.00     0.074 A 
ATOM     54  C   UNL A   1      41.668  30.261  35.565  1.00  0.00     0.029 A 
ATOM     55  N   UNL A   1      41.473  29.536  33.472  1.00  0.00    -0.354 N 
ATOM     56  N   UNL A   1      42.271  27.999  31.101  1.00  0.00    -0.248 NA
ATOM     57  C   UNL A   1      43.809  26.630  29.998  1.00  0.00     0.031 C 
ATOM     58  C   UNL A   1      42.733  29.393  35.295  1.00  0.00     0.029 A 
ATOM     59  C   UNL A   1      42.603  28.932  33.994  1.00  0.00     0.049 A 
ATOM     60  H   UNL A   1      41.132  29.402  32.558  1.00  0.00     0.167 HD
ATOM     61  C   UNL A   1      43.276  27.638  31.989  1.00  0.00     0.074 A 
ATOM     62  C   UNL A   1      44.172  26.755  31.268  1.00  0.00     0.031 C 
ATOM     63  C   UNL A   1      43.454  28.016  33.279  1.00  0.00     0.034 A 
BRANCH  50  64
ATOM     64  C   UNL A   1      39.236  32.046  35.330  1.00  0.00     0.023 A 
ATOM     65  C   UNL A   1      38.301  31.559  36.268  1.00  0.00     0.012 A 
ATOM     66  C   UNL A   1      39.754  33.346  35.485  1.00  0.00     0.148 A 
ATOM     67  C   UNL A   1      37.862  32.363  37.319  1.00  0.00     0.002 A 
ATOM     68  C   UNL A   1      39.345  34.127  36.561  1.00  0.00     0.091 A 
ATOM     69  F   UNL A   1      40.625  33.802  34.573  1.00  0.00    -0.205 F 
ATOM     70  C   UNL A   1      38.391  33.642  37.471  1.00  0.00     0.022 A 
BRANCH  68  71
ATOM     71  S   UNL A   1      40.027  35.756  36.891  1.00  0.00     0.127 S 
ATOM     72  O   UNL A   1      41.458  35.466  36.964  1.00  0.00    -0.237 OA
ATOM     73  O   UNL A   1      39.618  36.508  35.704  1.00  0.00    -0.237 OA
ATOM     74  O   UNL A   1      39.414  36.202  38.133  1.00  0.00    -0.744 OA
ENDBRANCH  68  71
ENDBRANCH  50  64
BRANCH  51  75
ATOM     75  C   UNL A   1      42.262  26.621  27.499  1.00  0.00     0.023 A 
ATOM     76  C   UNL A   1      43.028  27.272  26.510  1.00  0.00     0.012 A 
ATOM     77  C   UNL A   1      42.001  25.245  27.368  1.00  0.00     0.148 A 
ATOM     78  C   UNL A   1      43.497  26.572  25.399  1.00  0.00     0.002 A 
ATOM     79  C   UNL A   1      42.520  24.541  26.287  1.00  0.00     0.091 A 
ATOM     80  F   UNL A   1      41.262  24.646  28.313  1.00  0.00    -0.205 F 
ATOM     81  C   UNL A   1      43.253  25.206  25.292  1.00  0.00     0.022 A 
BRANCH  79  82
ATOM     82  S   UNL A   1      42.375  22.757  26.144  1.00  0.00     0.127 S 
ATOM     83  O   UNL A   1      43.062  22.305  27.355  1.00  0.00    -0.237 OA
ATOM     84  O   UNL A   1      40.922  22.570  26.157  1.00  0.00    -0.237 OA
ATOM     85  O   UNL A   1      43.013  22.412  24.886  1.00  0.00    -0.744 OA
ENDBRANCH  79  82
ENDBRANCH  51  75
BRANCH  63  86
ATOM     86  C   UNL A   1      44.645  27.451  34.010  1.00  0.00     0.023 A 
ATOM     87  C   UNL A   1      45.880  28.127  33.964  1.00  0.00     0.012 A 
ATOM     88  C   UNL A   1      44.523  26.283  34.787  1.00  0.00     0.148 A 
ATOM     89  C   UNL A   1      46.987  27.628  34.651  1.00  0.00     0.002 A 
ATOM     90  C   UNL A   1      45.618  25.819  35.507  1.00  0.00     0.091 A 
ATOM     91  F   UNL A   1      43.346  25.641  34.801  1.00  0.00    -0.205 F 
ATOM     92  C   UNL A   1      46.852  26.482  35.430  1.00  0.00     0.022 A 
BRANCH  90  93
ATOM     93  S   UNL A   1      45.504  24.407  36.613  1.00  0.00     0.127 S 
ATOM     94  O   UNL A   1      46.878  24.301  37.104  1.00  0.00    -0.237 OA
ATOM     95  O   UNL A   1      44.535  24.865  37.609  1.00  0.00    -0.237 OA
ATOM     96  O   UNL A   1      45.041  23.296  35.792  1.00  0.00    -0.744 OA
ENDBRANCH  90  93
ENDBRANCH  63  86
ENDBRANCH  37  38
ENDBRANCH  29  32
ENDBRANCH  27  28
ENDBRANCH   1  27
TORSDOF 17
ENDMDL
MODEL 2
REMARK VINA RESULT:     -11.5      1.951      2.585
REMARK SMILES COc1cc([N+](=O)[O-])cc([C@H]2[NH2+][C@H](C(=O)NCCCNC(=O)c3ccc(-c4c5nc(c(-c6cccc(S(=O)(=O)[O-])c6F)c6ccc([nH]6)c(-c6cccc(S(=O)(=O)[O-])c6F)c6nc(c(-c7cccc(S(=O)(=O)[O-])c7F)c7ccc4[nH]7)C=C6)C=C5)cc3)CS2)c1O
REMARK SMILES IDX 18 1 17 2 16 3 14 4 15 5 13 7 11 8 12 9 87 10 86 13 10 14
REMARK SMILES IDX 3 15 4 16 88 17 5 18 9 19 2 20 1 21 89 22 6 24 7 25 8 26
REMARK SMILES IDX 19 27 20 28 21 29 22 31 23 32 24 33 85 34 25 35 84 36 26 37
REMARK SMILES IDX 27 38 28 39 78 40 29 41 83 42 77 43 79 44 30 45 82 46 76 47
REMARK SMILES IDX 75 48 31 50 63 51 43 52 62 53 44 54 47 55 61 56 80 57 45 58
REMARK SMILES IDX 46 59 60 61 81 62 48 63 32 64 33 65 41 66 34 67 36 68 42 69
REMARK SMILES IDX 35 70 37 71 38 72 39 73 40 74 64 75 65 76 73 77 66 78 68 79
REMARK SMILES IDX 74 80 67 81 69 82 70 83 71 84 72 85 49 86 50 87 58 88 51 89
REMARK SMILES IDX 53 90 59 91 52 92 54 93 55 94 56 95 57 96
REMARK H PARENT 16 6 12 11 12 12 89 23 20 30 79 49 47 60
REMARK Flexibility Score: inf
ROOT
ATOM      1  C   UNL A   1      33.369  28.804  24.654  1.00  0.00     0.042 C 
ENDROOT
BRANCH   1   2
ATOM      2  C   UNL A   1      31.844  28.850  24.641  1.00  0.00     0.118 C 
BRANCH   2   3
ATOM      3  N   UNL A   1      31.248  28.005  25.653  1.00  0.00    -0.351 N 
ATOM      4  C   UNL A   1      31.106  26.652  25.719  1.00  0.00     0.279 C 
ATOM      5  O   UNL A   1      30.587  26.194  26.743  1.00  0.00    -0.268 OA
ATOM      6  H   UNL A   1      30.882  28.492  26.427  1.00  0.00     0.163 HD
BRANCH   4   7
ATOM      7  C   UNL A   1      31.591  25.701  24.612  1.00  0.00     0.283 C 
ATOM      8  C   UNL A   1      31.818  23.294  24.883  1.00  0.00     0.278 C 
ATOM      9  N   UNL A   1      32.423  24.600  25.160  1.00  0.00    -0.320 N 
ATOM     10  S   UNL A   1      30.857  23.495  23.365  1.00  0.00    -0.087 SA
ATOM     11  H   UNL A   1      33.348  24.636  24.731  1.00  0.00     0.348 HD
ATOM     12  H   UNL A   1      32.491  24.718  26.171  1.00  0.00     0.348 HD
ATOM     13  C   UNL A   1      30.486  25.231  23.679  1.00  0.00     0.151 C 
BRANCH   8  14
ATOM     14  C   UNL A   1      32.842  22.160  24.952  1.00  0.00     0.073 A 
ATOM     15  C   UNL A   1      35.075  21.158  25.239  1.00  0.00     0.167 A 
ATOM     16  C   UNL A   1      34.570  19.902  24.887  1.00  0.00     0.136 A 
ATOM     17  C   UNL A   1      34.217  22.280  25.262  1.00  0.00     0.168 A 
ATOM     18  C   UNL A   1      33.226  19.763  24.550  1.00  0.00     0.273 A 
ATOM     19  C   UNL A   1      32.375  20.875  24.570  1.00  0.00     0.100 A 
BRANCH  15  20
ATOM     20  O   UNL A   1      36.412  21.106  25.537  1.00  0.00    -0.493 OA
ATOM     21  C   UNL A   1      37.358  21.429  24.530  1.00  0.00     0.278 C 
ENDBRANCH  15  20
BRANCH  17  22
ATOM     22  O   UNL A   1      34.764  23.490  25.586  1.00  0.00    -0.504 OA
ATOM     23  H   UNL A   1      35.571  23.528  26.061  1.00  0.00     0.293 HD
ENDBRANCH  17  22
BRANCH  18  24
ATOM     24  N   UNL A   1      32.691  18.441  24.205  1.00  0.00     0.062 N 
ATOM     25  O   UNL A   1      31.870  17.936  24.982  1.00  0.00    -0.258 OA
ATOM     26  O   UNL A   1      33.054  17.945  23.128  1.00  0.00    -0.258 OA
ENDBRANCH  18  24
ENDBRANCH   8  14
ENDBRANCH   4   7
ENDBRANCH   2   3
ENDBRANCH   1   2
BRANCH   1  27
ATOM     27  C   UNL A   1      33.971  28.902  26.050  1.00  0.00     0.118 C 
BRANCH  27  28
ATOM     28  N   UNL A   1      33.827  30.238  26.614  1.00  0.00    -0.352 N 
ATOM     29  C   UNL A   1      34.530  30.869  27.608  1.00  0.00     0.251 C 
ATOM     30  H   UNL A   1      33.105  30.777  26.216  1.00  0.00     0.163 HD
ATOM     31  O   UNL A   1      34.083  31.915  28.072  1.00  0.00    -0.269 OA
BRANCH  29  32
ATOM     32  C   UNL A   1      35.805  30.317  28.118  1.00  0.00     0.039 A 
ATOM     33  C   UNL A   1      35.799  29.652  29.349  1.00  0.00     0.014 A 
ATOM     34  C   UNL A   1      37.009  30.505  27.435  1.00  0.00     0.014 A 
ATOM     35  C   UNL A   1      36.992  29.153  29.875  1.00  0.00     0.010 A 
ATOM     36  C   UNL A   1      38.183  29.934  27.921  1.00  0.00     0.010 A 
ATOM     37  C   UNL A   1      38.192  29.275  29.157  1.00  0.00    -0.014 A 
BRANCH  37  38
ATOM     38  C   UNL A   1      39.463  28.726  29.694  1.00  0.00     0.031 A 
ATOM     39  C   UNL A   1      40.109  29.342  30.906  1.00  0.00     0.074 A 
ATOM     40  C   UNL A   1      40.069  27.712  29.047  1.00  0.00     0.049 A 
ATOM     41  N   UNL A   1      41.216  29.000  31.512  1.00  0.00    -0.248 NA
ATOM     42  C   UNL A   1      39.441  30.513  31.499  1.00  0.00     0.031 C 
ATOM     43  C   UNL A   1      39.589  27.096  27.806  1.00  0.00     0.029 A 
ATOM     44  N   UNL A   1      41.228  27.035  29.326  1.00  0.00    -0.354 N 
ATOM     45  C   UNL A   1      41.399  29.931  32.528  1.00  0.00     0.074 A 
ATOM     46  C   UNL A   1      40.305  30.874  32.437  1.00  0.00     0.031 C 
ATOM     47  C   UNL A   1      40.443  26.127  27.439  1.00  0.00     0.029 A 
ATOM     48  C   UNL A   1      41.539  26.067  28.401  1.00  0.00     0.049 A 
ATOM     49  H   UNL A   1      41.786  27.226  30.115  1.00  0.00     0.167 HD
ATOM     50  C   UNL A   1      42.368  29.980  33.472  1.00  0.00     0.034 A 
ATOM     51  C   UNL A   1      42.586  25.223  28.337  1.00  0.00     0.034 A 
ATOM     52  C   UNL A   1      43.424  29.008  33.588  1.00  0.00     0.049 A 
ATOM     53  C   UNL A   1      43.608  25.248  29.440  1.00  0.00     0.074 A 
ATOM     54  C   UNL A   1      44.397  28.906  34.566  1.00  0.00     0.029 A 
ATOM     55  N   UNL A   1      43.648  27.974  32.691  1.00  0.00    -0.354 N 
ATOM     56  N   UNL A   1      43.663  26.023  30.497  1.00  0.00    -0.248 NA
ATOM     57  C   UNL A   1      44.686  24.252  29.369  1.00  0.00     0.031 C 
ATOM     58  C   UNL A   1      45.222  27.821  34.250  1.00  0.00     0.029 A 
ATOM     59  C   UNL A   1      44.747  27.232  33.089  1.00  0.00     0.049 A 
ATOM     60  H   UNL A   1      43.106  27.795  31.890  1.00  0.00     0.167 HD
ATOM     61  C   UNL A   1      44.759  25.589  31.232  1.00  0.00     0.074 A 
ATOM     62  C   UNL A   1      45.324  24.464  30.513  1.00  0.00     0.031 C 
ATOM     63  C   UNL A   1      45.264  26.085  32.388  1.00  0.00     0.034 A 
BRANCH  50  64
ATOM     64  C   UNL A   1      42.300  31.087  34.493  1.00  0.00     0.023 A 
ATOM     65  C   UNL A   1      41.578  30.886  35.688  1.00  0.00     0.012 A 
ATOM     66  C   UNL A   1      42.989  32.300  34.300  1.00  0.00     0.148 A 
ATOM     67  C   UNL A   1      41.511  31.887  36.657  1.00  0.00     0.002 A 
ATOM     68  C   UNL A   1      42.954  33.277  35.290  1.00  0.00     0.091 A 
ATOM     69  F   UNL A   1      43.652  32.484  33.150  1.00  0.00    -0.205 F 
ATOM     70  C   UNL A   1      42.207  33.077  36.462  1.00  0.00     0.022 A 
BRANCH  68  71
ATOM     71  S   UNL A   1      43.883  34.810  35.170  1.00  0.00     0.127 S 
ATOM     72  O   UNL A   1      45.227  34.318  34.875  1.00  0.00    -0.237 OA
ATOM     73  O   UNL A   1      43.222  35.484  34.051  1.00  0.00    -0.237 OA
ATOM     74  O   UNL A   1      43.726  35.474  36.456  1.00  0.00    -0.744 OA
ENDBRANCH  68  71
ENDBRANCH  50  64
BRANCH  51  75
ATOM     75  C   UNL A   1      42.669  24.228  27.231  1.00  0.00     0.023 A 
ATOM     76  C   UNL A   1      43.421  24.537  26.079  1.00  0.00     0.012 A 
ATOM     77  C   UNL A   1      42.048  22.969  27.328  1.00  0.00     0.148 A 
ATOM     78  C   UNL A   1      43.526  23.622  25.032  1.00  0.00     0.002 A 
ATOM     79  C   UNL A   1      42.204  22.041  26.305  1.00  0.00     0.091 A 
ATOM     80  F   UNL A   1      41.329  22.699  28.426  1.00  0.00    -0.205 F 
ATOM     81  C   UNL A   1      42.927  22.371  25.149  1.00  0.00     0.022 A 
BRANCH  79  82
ATOM     82  S   UNL A   1      41.588  20.359  26.434  1.00  0.00     0.127 S 
ATOM     83  O   UNL A   1      42.094  19.956  27.747  1.00  0.00    -0.237 OA
ATOM     84  O   UNL A   1      40.139  20.563  26.372  1.00  0.00    -0.237 OA
ATOM     85  O   UNL A   1      42.143  19.650  25.294  1.00  0.00    -0.744 OA
ENDBRANCH  79  82
ENDBRANCH  51  75
BRANCH  63  86
ATOM     86  C   UNL A   1      46.472  25.396  32.971  1.00  0.00     0.023 A 
ATOM     87  C   UNL A   1      47.764  25.856  32.649  1.00  0.00     0.012 A 
ATOM     88  C   UNL A   1      46.322  24.331  33.880  1.00  0.00     0.148 A 
ATOM     89  C   UNL A   1      48.891  25.242  33.194  1.00  0.00     0.002 A 
ATOM     90  C   UNL A   1      47.449  23.756  34.457  1.00  0.00     0.091 A 
ATOM     91  F   UNL A   1      45.087  23.892  34.158  1.00  0.00    -0.205 F 
ATOM     92  C   UNL A   1      48.733  24.201  34.105  1.00  0.00     0.022 A 
BRANCH  90  93
ATOM     93  S   UNL A   1      47.331  22.477  35.713  1.00  0.00     0.127 S 
ATOM     94  O   UNL A   1      46.669  23.190  36.804  1.00  0.00    -0.237 OA
ATOM     95  O   UNL A   1      46.502  21.466  35.054  1.00  0.00    -0.237 OA
ATOM     96  O   UNL A   1      48.699  22.051  35.976  1.00  0.00    -0.744 OA
ENDBRANCH  90  93
ENDBRANCH  63  86
ENDBRANCH  37  38
ENDBRANCH  29  32
ENDBRANCH  27  28
ENDBRANCH   1  27
TORSDOF 17
ENDMDL
MODEL 3
REMARK VINA RESULT:     -11.5      5.371      8.861
REMARK SMILES COc1cc([N+](=O)[O-])cc([C@H]2[NH2+][C@H](C(=O)NCCCNC(=O)c3ccc(-c4c5nc(c(-c6cccc(S(=O)(=O)[O-])c6F)c6ccc([nH]6)c(-c6cccc(S(=O)(=O)[O-])c6F)c6nc(c(-c7cccc(S(=O)(=O)[O-])c7F)c7ccc4[nH]7)C=C6)C=C5)cc3)CS2)c1O
REMARK SMILES IDX 18 1 17 2 16 3 14 4 15 5 13 7 11 8 12 9 87 10 86 13 10 14
REMARK SMILES IDX 3 15 4 16 88 17 5 18 9 19 2 20 1 21 89 22 6 24 7 25 8 26
REMARK SMILES IDX 19 27 20 28 21 29 22 31 23 32 24 33 85 34 25 35 84 36 26 37
REMARK SMILES IDX 27 38 28 39 78 40 29 41 83 42 77 43 79 44 30 45 82 46 76 47
REMARK SMILES IDX 75 48 31 50 63 51 43 52 62 53 44 54 47 55 61 56 80 57 45 58
REMARK SMILES IDX 46 59 60 61 81 62 48 63 32 64 33 65 41 66 34 67 36 68 42 69
REMARK SMILES IDX 35 70 37 71 38 72 39 73 40 74 64 75 65 76 73 77 66 78 68 79
REMARK SMILES IDX 74 80 67 81 69 82 70 83 71 84 72 85 49 86 50 87 58 88 51 89
REMARK SMILES IDX 53 90 59 91 52 92 54 93 55 94 56 95 57 96
REMARK H PARENT 16 6 12 11 12 12 89 23 20 30 79 49 47 60
REMARK Flexibility Score: inf
ROOT
ATOM      1  C   UNL A   1      37.790  19.367  24.999  1.00  0.00     0.042 C 
ENDROOT
BRANCH   1   2
ATOM      2  C   UNL A   1      36.616  20.268  24.630  1.00  0.00     0.118 C 
BRANCH   2   3
ATOM      3  N   UNL A   1      35.333  19.666  24.924  1.00  0.00    -0.351 N 
ATOM      4  C   UNL A   1      34.188  20.202  25.432  1.00  0.00     0.279 C 
ATOM      5  O   UNL A   1      33.215  19.447  25.535  1.00  0.00    -0.268 OA
ATOM      6  H   UNL A   1      35.278  18.705  24.720  1.00  0.00     0.163 HD
BRANCH   4   7
ATOM      7  C   UNL A   1      34.060  21.680  25.834  1.00  0.00     0.283 C 
ATOM      8  C   UNL A   1      32.143  23.079  25.297  1.00  0.00     0.278 C 
ATOM      9  N   UNL A   1      33.376  22.478  24.784  1.00  0.00    -0.320 N 
ATOM     10  S   UNL A   1      32.395  23.311  27.072  1.00  0.00    -0.087 SA
ATOM     11  H   UNL A   1      34.002  23.219  24.468  1.00  0.00     0.348 HD
ATOM     12  H   UNL A   1      33.137  21.856  24.011  1.00  0.00     0.348 HD
ATOM     13  C   UNL A   1      33.494  21.891  27.230  1.00  0.00     0.151 C 
BRANCH   8  14
ATOM     14  C   UNL A   1      31.698  24.281  24.462  1.00  0.00     0.073 A 
ATOM     15  C   UNL A   1      30.187  26.097  23.759  1.00  0.00     0.167 A 
ATOM     16  C   UNL A   1      31.033  26.401  22.687  1.00  0.00     0.136 A 
ATOM     17  C   UNL A   1      30.515  25.037  24.634  1.00  0.00     0.168 A 
ATOM     18  C   UNL A   1      32.189  25.653  22.480  1.00  0.00     0.273 A 
ATOM     19  C   UNL A   1      32.513  24.601  23.346  1.00  0.00     0.100 A 
BRANCH  15  20
ATOM     20  O   UNL A   1      29.103  26.933  23.807  1.00  0.00    -0.493 OA
ATOM     21  C   UNL A   1      29.131  28.145  23.069  1.00  0.00     0.278 C 
ENDBRANCH  15  20
BRANCH  17  22
ATOM     22  O   UNL A   1      29.643  24.762  25.651  1.00  0.00    -0.504 OA
ATOM     23  H   UNL A   1      28.911  25.326  25.806  1.00  0.00     0.293 HD
ENDBRANCH  17  22
BRANCH  18  24
ATOM     24  N   UNL A   1      33.089  25.989  21.371  1.00  0.00     0.062 N 
ATOM     25  O   UNL A   1      33.991  26.807  21.593  1.00  0.00    -0.258 OA
ATOM     26  O   UNL A   1      32.921  25.385  20.301  1.00  0.00    -0.258 OA
ENDBRANCH  18  24
ENDBRANCH   8  14
ENDBRANCH   4   7
ENDBRANCH   2   3
ENDBRANCH   1   2
BRANCH   1  27
ATOM     27  C   UNL A   1      38.861  20.067  25.827  1.00  0.00     0.118 C 
BRANCH  27  28
ATOM     28  N   UNL A   1      40.017  19.211  26.058  1.00  0.00    -0.352 N 
ATOM     29  C   UNL A   1      41.342  19.524  26.229  1.00  0.00     0.251 C 
ATOM     30  H   UNL A   1      39.816  18.248  26.098  1.00  0.00     0.163 HD
ATOM     31  O   UNL A   1      42.172  18.620  26.182  1.00  0.00    -0.269 OA
BRANCH  29  32
ATOM     32  C   UNL A   1      41.777  20.918  26.469  1.00  0.00     0.039 A 
ATOM     33  C   UNL A   1      42.015  21.326  27.786  1.00  0.00     0.014 A 
ATOM     34  C   UNL A   1      41.885  21.842  25.426  1.00  0.00     0.014 A 
ATOM     35  C   UNL A   1      42.389  22.644  28.049  1.00  0.00     0.010 A 
ATOM     36  C   UNL A   1      42.339  23.133  25.682  1.00  0.00     0.010 A 
ATOM     37  C   UNL A   1      42.571  23.555  26.996  1.00  0.00    -0.014 A 
BRANCH  37  38
ATOM     38  C   UNL A   1      42.994  24.954  27.261  1.00  0.00     0.031 A 
ATOM     39  C   UNL A   1      42.051  25.926  27.918  1.00  0.00     0.074 A 
ATOM     40  C   UNL A   1      44.209  25.365  26.848  1.00  0.00     0.049 A 
ATOM     41  N   UNL A   1      42.245  27.182  28.223  1.00  0.00    -0.248 NA
ATOM     42  C   UNL A   1      40.704  25.432  28.249  1.00  0.00     0.031 C 
ATOM     43  C   UNL A   1      45.174  24.542  26.114  1.00  0.00     0.029 A 
ATOM     44  N   UNL A   1      44.831  26.581  26.964  1.00  0.00    -0.354 N 
ATOM     45  C   UNL A   1      41.040  27.639  28.744  1.00  0.00     0.074 A 
ATOM     46  C   UNL A   1      40.108  26.534  28.682  1.00  0.00     0.031 C 
ATOM     47  C   UNL A   1      46.268  25.275  25.854  1.00  0.00     0.029 A 
ATOM     48  C   UNL A   1      46.076  26.622  26.381  1.00  0.00     0.049 A 
ATOM     49  H   UNL A   1      44.424  27.353  27.420  1.00  0.00     0.167 HD
ATOM     50  C   UNL A   1      40.742  28.857  29.257  1.00  0.00     0.034 A 
ATOM     51  C   UNL A   1      46.964  27.630  26.287  1.00  0.00     0.034 A 
ATOM     52  C   UNL A   1      41.689  29.935  29.362  1.00  0.00     0.049 A 
ATOM     53  C   UNL A   1      46.639  28.948  26.932  1.00  0.00     0.074 A 
ATOM     54  C   UNL A   1      41.522  31.173  29.956  1.00  0.00     0.029 A 
ATOM     55  N   UNL A   1      42.980  29.906  28.855  1.00  0.00    -0.354 N 
ATOM     56  N   UNL A   1      45.556  29.305  27.582  1.00  0.00    -0.248 NA
ATOM     57  C   UNL A   1      47.674  29.990  26.873  1.00  0.00     0.031 C 
ATOM     58  C   UNL A   1      42.706  31.901  29.792  1.00  0.00     0.029 A 
ATOM     59  C   UNL A   1      43.619  31.106  29.117  1.00  0.00     0.049 A 
ATOM     60  H   UNL A   1      43.381  29.144  28.379  1.00  0.00     0.167 HD
ATOM     61  C   UNL A   1      45.792  30.596  28.038  1.00  0.00     0.074 A 
ATOM     62  C   UNL A   1      47.132  30.949  27.611  1.00  0.00     0.031 C 
ATOM     63  C   UNL A   1      44.970  31.422  28.730  1.00  0.00     0.034 A 
BRANCH  50  64
ATOM     64  C   UNL A   1      39.352  29.070  29.800  1.00  0.00     0.023 A 
ATOM     65  C   UNL A   1      39.052  28.669  31.118  1.00  0.00     0.012 A 
ATOM     66  C   UNL A   1      38.360  29.711  29.032  1.00  0.00     0.148 A 
ATOM     67  C   UNL A   1      37.779  28.868  31.652  1.00  0.00     0.002 A 
ATOM     68  C   UNL A   1      37.106  29.947  29.586  1.00  0.00     0.091 A 
ATOM     69  F   UNL A   1      38.654  30.066  27.774  1.00  0.00    -0.205 F 
ATOM     70  C   UNL A   1      36.811  29.516  30.890  1.00  0.00     0.022 A 
BRANCH  68  71
ATOM     71  S   UNL A   1      35.816  30.845  28.716  1.00  0.00     0.127 S 
ATOM     72  O   UNL A   1      35.198  29.781  27.926  1.00  0.00    -0.237 OA
ATOM     73  O   UNL A   1      34.990  31.342  29.818  1.00  0.00    -0.237 OA
ATOM     74  O   UNL A   1      36.495  31.880  27.952  1.00  0.00    -0.744 OA
ENDBRANCH  68  71
ENDBRANCH  50  64
BRANCH  51  75
ATOM     75  C   UNL A   1      48.279  27.399  25.625  1.00  0.00     0.023 A 
ATOM     76  C   UNL A   1      49.373  26.959  26.396  1.00  0.00     0.012 A 
ATOM     77  C   UNL A   1      48.442  27.570  24.238  1.00  0.00     0.148 A 
ATOM     78  C   UNL A   1      50.613  26.724  25.803  1.00  0.00     0.002 A 
ATOM     79  C   UNL A   1      49.665  27.278  23.644  1.00  0.00     0.091 A 
ATOM     80  F   UNL A   1      47.392  27.999  23.523  1.00  0.00    -0.205 F 
ATOM     81  C   UNL A   1      50.756  26.873  24.426  1.00  0.00     0.022 A 
BRANCH  79  82
ATOM     82  S   UNL A   1      49.898  27.306  21.863  1.00  0.00     0.127 S 
ATOM     83  O   UNL A   1      49.737  28.729  21.564  1.00  0.00    -0.237 OA
ATOM     84  O   UNL A   1      51.267  26.801  21.730  1.00  0.00    -0.237 OA
ATOM     85  O   UNL A   1      48.879  26.424  21.322  1.00  0.00    -0.744 OA
ENDBRANCH  79  82
ENDBRANCH  51  75
BRANCH  63  86
ATOM     86  C   UNL A   1      45.504  32.781  29.103  1.00  0.00     0.023 A 
ATOM     87  C   UNL A   1      46.191  32.954  30.321  1.00  0.00     0.012 A 
ATOM     88  C   UNL A   1      45.375  33.870  28.220  1.00  0.00     0.148 A 
ATOM     89  C   UNL A   1      46.708  34.200  30.672  1.00  0.00     0.002 A 
ATOM     90  C   UNL A   1      45.936  35.097  28.556  1.00  0.00     0.091 A 
ATOM     91  F   UNL A   1      44.700  33.693  27.076  1.00  0.00    -0.205 F 
ATOM     92  C   UNL A   1      46.591  35.267  29.785  1.00  0.00     0.022 A 
BRANCH  90  93
ATOM     93  S   UNL A   1      45.916  36.497  27.428  1.00  0.00     0.127 S 
ATOM     94  O   UNL A   1      46.644  37.508  28.194  1.00  0.00    -0.237 OA
ATOM     95  O   UNL A   1      46.637  35.975  26.267  1.00  0.00    -0.237 OA
ATOM     96  O   UNL A   1      44.510  36.787  27.180  1.00  0.00    -0.744 OA
ENDBRANCH  90  93
ENDBRANCH  63  86
ENDBRANCH  37  38
ENDBRANCH  29  32
ENDBRANCH  27  28
ENDBRANCH   1  27
TORSDOF 17
ENDMDL
