MODEL 1
REMARK VINA RESULT:     -12.5      0.000      0.000
REMARK SMILES COc1ccc2[nH]c(C(=O)c3cc(C)ccn3)c(CC(=O)NCCCNC(=O)c3ccc(-c4c5nc(c(-c6cccc(S(=O)(=O)[O-])c6F)c6ccc([nH]6)c(-c6cccc(S(=O)(=O)[O-])c6F)c6nc(c(-c7cccc(S(=O)(=O)[O-])c7F)c7ccc4[nH]7)C=C6)C=C5)cc3)c2c1
REMARK SMILES IDX 24 1 23 2 22 3 20 4 21 5 19 7 18 8 3 9 4 10 93 11 5 12 92 13
REMARK SMILES IDX 6 14 7 15 8 16 2 18 1 19 9 20 10 21 11 22 12 23 17 24 13 25
REMARK SMILES IDX 16 26 14 27 15 28 25 29 26 30 27 31 28 33 29 34 30 35 91 36
REMARK SMILES IDX 31 37 90 38 32 39 33 40 34 41 84 42 35 43 89 44 83 45 85 46
REMARK SMILES IDX 36 47 88 48 82 49 81 50 37 52 69 53 49 54 68 55 50 56 53 57
REMARK SMILES IDX 67 58 86 59 51 60 52 61 66 63 87 64 54 65 38 66 39 67 47 68
REMARK SMILES IDX 40 69 42 70 48 71 41 72 43 73 44 74 45 75 46 76 70 77 71 78
REMARK SMILES IDX 79 79 72 80 74 81 80 82 73 83 75 84 76 85 77 86 78 87 55 88
REMARK SMILES IDX 56 89 64 90 57 91 59 92 65 93 58 94 60 95 61 96 62 97 63 98
REMARK H PARENT 22 6 7 17 26 32 85 51 53 62
REMARK Flexibility Score: inf
ROOT
ATOM      1  C   UNL A   1      31.603  31.616  26.635  1.00  0.00     0.042 C 
ENDROOT
BRANCH   1   2
ATOM      2  C   UNL A   1      31.880  30.384  25.779  1.00  0.00     0.117 C 
BRANCH   2   3
ATOM      3  N   UNL A   1      31.409  29.152  26.377  1.00  0.00    -0.356 N 
ATOM      4  C   UNL A   1      32.054  27.959  26.544  1.00  0.00     0.224 C 
ATOM      5  O   UNL A   1      31.525  27.145  27.307  1.00  0.00    -0.275 OA
ATOM      6  H   UNL A   1      30.485  29.177  26.714  1.00  0.00     0.163 HD
BRANCH   4   7
ATOM      7  C   UNL A   1      33.428  27.703  25.934  1.00  0.00     0.138 C 
BRANCH   7   8
ATOM      8  C   UNL A   1      33.439  26.767  24.754  1.00  0.00    -0.002 A 
ATOM      9  C   UNL A   1      34.675  23.216  25.500  1.00  0.00     0.119 A 
ATOM     10  C   UNL A   1      34.614  22.760  24.185  1.00  0.00     0.048 A 
ATOM     11  C   UNL A   1      34.257  24.513  25.818  1.00  0.00     0.057 A 
ATOM     12  C   UNL A   1      34.171  23.598  23.155  1.00  0.00     0.030 A 
ATOM     13  C   UNL A   1      33.835  25.388  24.794  1.00  0.00     0.008 A 
ATOM     14  C   UNL A   1      33.796  24.904  23.492  1.00  0.00     0.046 A 
ATOM     15  N   UNL A   1      33.354  25.930  22.693  1.00  0.00    -0.352 N 
ATOM     16  C   UNL A   1      33.037  27.044  23.444  1.00  0.00     0.093 A 
ATOM     17  H   UNL A   1      33.275  25.878  21.712  1.00  0.00     0.167 HD
BRANCH   9  18
ATOM     18  O   UNL A   1      35.099  22.459  26.561  1.00  0.00    -0.497 OA
ATOM     19  C   UNL A   1      34.104  22.262  27.564  1.00  0.00     0.278 C 
ENDBRANCH   9  18
BRANCH  16  20
ATOM     20  C   UNL A   1      32.423  28.260  22.923  1.00  0.00     0.227 C 
ATOM     21  O   UNL A   1      33.074  29.239  22.553  1.00  0.00    -0.285 OA
BRANCH  20  22
ATOM     22  C   UNL A   1      30.941  28.374  22.903  1.00  0.00     0.113 A 
ATOM     23  C   UNL A   1      30.341  29.418  22.204  1.00  0.00     0.036 A 
ATOM     24  N   UNL A   1      30.255  27.414  23.571  1.00  0.00    -0.253 NA
ATOM     25  C   UNL A   1      28.948  29.494  22.196  1.00  0.00    -0.047 A 
ATOM     26  C   UNL A   1      28.911  27.502  23.533  1.00  0.00     0.112 A 
ATOM     27  C   UNL A   1      28.232  30.595  21.474  1.00  0.00     0.044 C 
ATOM     28  C   UNL A   1      28.222  28.509  22.871  1.00  0.00     0.023 A 
ENDBRANCH  20  22
ENDBRANCH  16  20
ENDBRANCH   7   8
ENDBRANCH   4   7
ENDBRANCH   2   3
ENDBRANCH   1   2
BRANCH   1  29
ATOM     29  C   UNL A   1      32.851  32.360  27.102  1.00  0.00     0.118 C 
BRANCH  29  30
ATOM     30  N   UNL A   1      32.571  33.721  27.544  1.00  0.00    -0.352 N 
ATOM     31  C   UNL A   1      33.118  34.465  28.560  1.00  0.00     0.251 C 
ATOM     32  H   UNL A   1      31.871  34.183  27.029  1.00  0.00     0.163 HD
ATOM     33  O   UNL A   1      32.599  35.539  28.860  1.00  0.00    -0.269 OA
BRANCH  31  34
ATOM     34  C   UNL A   1      34.306  33.994  29.308  1.00  0.00     0.039 A 
ATOM     35  C   UNL A   1      34.111  33.179  30.429  1.00  0.00     0.014 A 
ATOM     36  C   UNL A   1      35.599  34.382  28.950  1.00  0.00     0.014 A 
ATOM     37  C   UNL A   1      35.213  32.701  31.148  1.00  0.00     0.010 A 
ATOM     38  C   UNL A   1      36.699  33.855  29.629  1.00  0.00     0.010 A 
ATOM     39  C   UNL A   1      36.518  33.008  30.732  1.00  0.00    -0.014 A 
BRANCH  39  40
ATOM     40  C   UNL A   1      37.703  32.420  31.412  1.00  0.00     0.031 A 
ATOM     41  C   UNL A   1      38.461  31.281  30.786  1.00  0.00     0.074 A 
ATOM     42  C   UNL A   1      38.028  32.842  32.651  1.00  0.00     0.049 A 
ATOM     43  N   UNL A   1      39.466  30.598  31.270  1.00  0.00    -0.248 NA
ATOM     44  C   UNL A   1      38.017  30.832  29.457  1.00  0.00     0.031 C 
ATOM     45  C   UNL A   1      37.316  33.876  33.405  1.00  0.00     0.029 A 
ATOM     46  N   UNL A   1      39.014  32.426  33.511  1.00  0.00    -0.354 N 
ATOM     47  C   UNL A   1      39.747  29.614  30.329  1.00  0.00     0.074 A 
ATOM     48  C   UNL A   1      38.795  29.778  29.252  1.00  0.00     0.031 C 
ATOM     49  C   UNL A   1      37.878  34.003  34.617  1.00  0.00     0.029 A 
ATOM     50  C   UNL A   1      38.973  33.047  34.738  1.00  0.00     0.049 A 
ATOM     51  H   UNL A   1      39.687  31.747  33.272  1.00  0.00     0.167 HD
ATOM     52  C   UNL A   1      40.724  28.676  30.350  1.00  0.00     0.034 A 
ATOM     53  C   UNL A   1      39.723  32.860  35.843  1.00  0.00     0.034 A 
ATOM     54  C   UNL A   1      41.708  28.554  31.391  1.00  0.00     0.049 A 
ATOM     55  C   UNL A   1      40.845  31.859  35.808  1.00  0.00     0.074 A 
ATOM     56  C   UNL A   1      42.810  27.719  31.438  1.00  0.00     0.029 A 
ATOM     57  N   UNL A   1      41.707  29.280  32.571  1.00  0.00    -0.354 N 
ATOM     58  N   UNL A   1      41.216  31.070  34.829  1.00  0.00    -0.248 NA
ATOM     59  C   UNL A   1      41.678  31.749  37.015  1.00  0.00     0.031 C 
ATOM     60  C   UNL A   1      43.468  27.928  32.655  1.00  0.00     0.029 A 
ATOM     61  C   UNL A   1      42.781  28.903  33.360  1.00  0.00     0.049 A 
ATOM     62  H   UNL A   1      41.041  29.963  32.813  1.00  0.00     0.167 HD
ATOM     63  C   UNL A   1      42.337  30.391  35.289  1.00  0.00     0.074 A 
ATOM     64  C   UNL A   1      42.603  30.881  36.626  1.00  0.00     0.031 C 
ATOM     65  C   UNL A   1      43.069  29.435  34.667  1.00  0.00     0.034 A 
BRANCH  52  66
ATOM     66  C   UNL A   1      40.823  27.735  29.178  1.00  0.00     0.023 A 
ATOM     67  C   UNL A   1      40.003  26.589  29.139  1.00  0.00     0.012 A 
ATOM     68  C   UNL A   1      41.659  28.025  28.082  1.00  0.00     0.148 A 
ATOM     69  C   UNL A   1      40.032  25.732  28.040  1.00  0.00     0.002 A 
ATOM     70  C   UNL A   1      41.653  27.187  26.973  1.00  0.00     0.091 A 
ATOM     71  F   UNL A   1      42.447  29.108  28.148  1.00  0.00    -0.205 F 
ATOM     72  C   UNL A   1      40.847  26.037  26.953  1.00  0.00     0.022 A 
BRANCH  70  73
ATOM     73  S   UNL A   1      42.613  27.536  25.494  1.00  0.00     0.127 S 
ATOM     74  O   UNL A   1      43.978  27.537  26.023  1.00  0.00    -0.237 OA
ATOM     75  O   UNL A   1      42.293  26.389  24.641  1.00  0.00    -0.237 OA
ATOM     76  O   UNL A   1      42.133  28.814  24.996  1.00  0.00    -0.744 OA
ENDBRANCH  70  73
ENDBRANCH  52  66
BRANCH  53  77
ATOM     77  C   UNL A   1      39.471  33.690  37.055  1.00  0.00     0.023 A 
ATOM     78  C   UNL A   1      39.909  35.028  37.078  1.00  0.00     0.012 A 
ATOM     79  C   UNL A   1      38.765  33.179  38.161  1.00  0.00     0.148 A 
ATOM     80  C   UNL A   1      39.674  35.833  38.193  1.00  0.00     0.002 A 
ATOM     81  C   UNL A   1      38.484  34.003  39.245  1.00  0.00     0.091 A 
ATOM     82  F   UNL A   1      38.370  31.898  38.129  1.00  0.00    -0.205 F 
ATOM     83  C   UNL A   1      38.952  35.326  39.271  1.00  0.00     0.022 A 
BRANCH  81  84
ATOM     84  S   UNL A   1      37.436  33.465  40.602  1.00  0.00     0.127 S 
ATOM     85  O   UNL A   1      38.282  32.476  41.263  1.00  0.00    -0.237 OA
ATOM     86  O   UNL A   1      37.237  34.706  41.351  1.00  0.00    -0.237 OA
ATOM     87  O   UNL A   1      36.224  32.952  39.975  1.00  0.00    -0.744 OA
ENDBRANCH  81  84
ENDBRANCH  53  77
BRANCH  65  88
ATOM     88  C   UNL A   1      44.242  28.856  35.411  1.00  0.00     0.023 A 
ATOM     89  C   UNL A   1      45.522  29.422  35.238  1.00  0.00     0.012 A 
ATOM     90  C   UNL A   1      44.069  27.810  36.339  1.00  0.00     0.148 A 
ATOM     91  C   UNL A   1      46.614  28.939  35.956  1.00  0.00     0.002 A 
ATOM     92  C   UNL A   1      45.154  27.362  37.083  1.00  0.00     0.091 A 
ATOM     93  F   UNL A   1      42.850  27.270  36.474  1.00  0.00    -0.205 F 
ATOM     94  C   UNL A   1      46.428  27.919  36.887  1.00  0.00     0.022 A 
BRANCH  92  95
ATOM     95  S   UNL A   1      44.988  26.116  38.367  1.00  0.00     0.127 S 
ATOM     96  O   UNL A   1      44.197  26.825  39.371  1.00  0.00    -0.237 OA
ATOM     97  O   UNL A   1      44.273  25.044  37.673  1.00  0.00    -0.237 OA
ATOM     98  O   UNL A   1      46.347  25.772  38.764  1.00  0.00    -0.744 OA
ENDBRANCH  92  95
ENDBRANCH  65  88
ENDBRANCH  39  40
ENDBRANCH  31  34
ENDBRANCH  29  30
ENDBRANCH   1  29
TORSDOF 17
ENDMDL
MODEL 2
REMARK VINA RESULT:     -12.4      6.285     11.537
REMARK SMILES COc1ccc2[nH]c(C(=O)c3cc(C)ccn3)c(CC(=O)NCCCNC(=O)c3ccc(-c4c5nc(c(-c6cccc(S(=O)(=O)[O-])c6F)c6ccc([nH]6)c(-c6cccc(S(=O)(=O)[O-])c6F)c6nc(c(-c7cccc(S(=O)(=O)[O-])c7F)c7ccc4[nH]7)C=C6)C=C5)cc3)c2c1
REMARK SMILES IDX 24 1 23 2 22 3 20 4 21 5 19 7 18 8 3 9 4 10 93 11 5 12 92 13
REMARK SMILES IDX 6 14 7 15 8 16 2 18 1 19 9 20 10 21 11 22 12 23 17 24 13 25
REMARK SMILES IDX 16 26 14 27 15 28 25 29 26 30 27 31 28 33 29 34 30 35 91 36
REMARK SMILES IDX 31 37 90 38 32 39 33 40 34 41 84 42 35 43 89 44 83 45 85 46
REMARK SMILES IDX 36 47 88 48 82 49 81 50 37 52 69 53 49 54 68 55 50 56 53 57
REMARK SMILES IDX 67 58 86 59 51 60 52 61 66 63 87 64 54 65 38 66 39 67 47 68
REMARK SMILES IDX 40 69 42 70 48 71 41 72 43 73 44 74 45 75 46 76 70 77 71 78
REMARK SMILES IDX 79 79 72 80 74 81 80 82 73 83 75 84 76 85 77 86 78 87 55 88
REMARK SMILES IDX 56 89 64 90 57 91 59 92 65 93 58 94 60 95 61 96 62 97 63 98
REMARK H PARENT 22 6 7 17 26 32 85 51 53 62
REMARK Flexibility Score: inf
ROOT
ATOM      1  C   UNL A   1      38.304  20.270  24.901  1.00  0.00     0.042 C 
ENDROOT
BRANCH   1   2
ATOM      2  C   UNL A   1      37.805  21.709  24.990  1.00  0.00     0.117 C 
BRANCH   2   3
ATOM      3  N   UNL A   1      36.895  22.069  23.922  1.00  0.00    -0.356 N 
ATOM      4  C   UNL A   1      36.041  23.130  23.822  1.00  0.00     0.224 C 
ATOM      5  O   UNL A   1      35.559  23.350  22.707  1.00  0.00    -0.275 OA
ATOM      6  H   UNL A   1      36.891  21.455  23.152  1.00  0.00     0.163 HD
BRANCH   4   7
ATOM      7  C   UNL A   1      35.806  24.079  24.993  1.00  0.00     0.138 C 
BRANCH   7   8
ATOM      8  C   UNL A   1      34.379  24.174  25.463  1.00  0.00    -0.002 A 
ATOM      9  C   UNL A   1      32.821  27.670  25.246  1.00  0.00     0.119 A 
ATOM     10  C   UNL A   1      31.608  27.327  25.840  1.00  0.00     0.048 A 
ATOM     11  C   UNL A   1      33.796  26.693  25.019  1.00  0.00     0.057 A 
ATOM     12  C   UNL A   1      31.357  26.013  26.253  1.00  0.00     0.030 A 
ATOM     13  C   UNL A   1      33.581  25.368  25.453  1.00  0.00     0.008 A 
ATOM     14  C   UNL A   1      32.365  25.063  26.051  1.00  0.00     0.046 A 
ATOM     15  N   UNL A   1      32.398  23.728  26.376  1.00  0.00    -0.352 N 
ATOM     16  C   UNL A   1      33.570  23.141  25.943  1.00  0.00     0.093 A 
ATOM     17  H   UNL A   1      31.679  23.253  26.855  1.00  0.00     0.167 HD
BRANCH   9  18
ATOM     18  O   UNL A   1      33.142  28.932  24.818  1.00  0.00    -0.497 OA
ATOM     19  C   UNL A   1      32.484  29.971  25.539  1.00  0.00     0.278 C 
ENDBRANCH   9  18
BRANCH  16  20
ATOM     20  C   UNL A   1      33.869  21.714  26.015  1.00  0.00     0.227 C 
ATOM     21  O   UNL A   1      34.573  21.217  26.896  1.00  0.00    -0.285 OA
BRANCH  20  22
ATOM     22  C   UNL A   1      33.376  20.814  24.941  1.00  0.00     0.113 A 
ATOM     23  C   UNL A   1      33.739  19.470  24.949  1.00  0.00     0.036 A 
ATOM     24  N   UNL A   1      32.568  21.376  24.008  1.00  0.00    -0.253 NA
ATOM     25  C   UNL A   1      33.254  18.647  23.932  1.00  0.00    -0.047 A 
ATOM     26  C   UNL A   1      32.100  20.555  23.047  1.00  0.00     0.112 A 
ATOM     27  C   UNL A   1      33.609  17.192  23.871  1.00  0.00     0.044 C 
ATOM     28  C   UNL A   1      32.411  19.205  22.967  1.00  0.00     0.023 A 
ENDBRANCH  20  22
ENDBRANCH  16  20
ENDBRANCH   7   8
ENDBRANCH   4   7
ENDBRANCH   2   3
ENDBRANCH   1   2
BRANCH   1  29
ATOM     29  C   UNL A   1      38.819  19.693  26.217  1.00  0.00     0.118 C 
BRANCH  29  30
ATOM     30  N   UNL A   1      40.082  18.981  26.070  1.00  0.00    -0.352 N 
ATOM     31  C   UNL A   1      41.376  19.440  26.065  1.00  0.00     0.251 C 
ATOM     32  H   UNL A   1      39.993  18.008  25.954  1.00  0.00     0.163 HD
ATOM     33  O   UNL A   1      42.282  18.671  25.750  1.00  0.00    -0.269 OA
BRANCH  31  34
ATOM     34  C   UNL A   1      41.697  20.844  26.414  1.00  0.00     0.039 A 
ATOM     35  C   UNL A   1      42.133  21.127  27.713  1.00  0.00     0.014 A 
ATOM     36  C   UNL A   1      41.528  21.885  25.498  1.00  0.00     0.014 A 
ATOM     37  C   UNL A   1      42.462  22.439  28.072  1.00  0.00     0.010 A 
ATOM     38  C   UNL A   1      41.916  23.182  25.836  1.00  0.00     0.010 A 
ATOM     39  C   UNL A   1      42.388  23.473  27.124  1.00  0.00    -0.014 A 
BRANCH  39  40
ATOM     40  C   UNL A   1      42.840  24.852  27.450  1.00  0.00     0.031 A 
ATOM     41  C   UNL A   1      41.892  25.845  28.065  1.00  0.00     0.074 A 
ATOM     42  C   UNL A   1      44.078  25.242  27.087  1.00  0.00     0.049 A 
ATOM     43  N   UNL A   1      42.091  27.108  28.343  1.00  0.00    -0.248 NA
ATOM     44  C   UNL A   1      40.537  25.368  28.384  1.00  0.00     0.031 C 
ATOM     45  C   UNL A   1      45.062  24.400  26.402  1.00  0.00     0.029 A 
ATOM     46  N   UNL A   1      44.708  26.456  27.206  1.00  0.00    -0.354 N 
ATOM     47  C   UNL A   1      40.880  27.587  28.827  1.00  0.00     0.074 A 
ATOM     48  C   UNL A   1      39.945  26.483  28.790  1.00  0.00     0.031 C 
ATOM     49  C   UNL A   1      46.162  25.126  26.149  1.00  0.00     0.029 A 
ATOM     50  C   UNL A   1      45.957  26.488  26.630  1.00  0.00     0.049 A 
ATOM     51  H   UNL A   1      44.304  27.231  27.661  1.00  0.00     0.167 HD
ATOM     52  C   UNL A   1      40.580  28.827  29.284  1.00  0.00     0.034 A 
ATOM     53  C   UNL A   1      46.836  27.501  26.492  1.00  0.00     0.034 A 
ATOM     54  C   UNL A   1      41.527  29.906  29.379  1.00  0.00     0.049 A 
ATOM     55  C   UNL A   1      46.501  28.848  27.073  1.00  0.00     0.074 A 
ATOM     56  C   UNL A   1      41.350  31.156  29.945  1.00  0.00     0.029 A 
ATOM     57  N   UNL A   1      42.823  29.868  28.891  1.00  0.00    -0.354 N 
ATOM     58  N   UNL A   1      45.415  29.226  27.704  1.00  0.00    -0.248 NA
ATOM     59  C   UNL A   1      47.525  29.897  26.960  1.00  0.00     0.031 C 
ATOM     60  C   UNL A   1      42.536  31.881  29.784  1.00  0.00     0.029 A 
ATOM     61  C   UNL A   1      43.454  31.076  29.130  1.00  0.00     0.049 A 
ATOM     62  H   UNL A   1      43.234  29.094  28.442  1.00  0.00     0.167 HD
ATOM     63  C   UNL A   1      45.636  30.544  28.085  1.00  0.00     0.074 A 
ATOM     64  C   UNL A   1      46.968  30.892  27.639  1.00  0.00     0.031 C 
ATOM     65  C   UNL A   1      44.800  31.395  28.730  1.00  0.00     0.034 A 
BRANCH  52  66
ATOM     66  C   UNL A   1      39.180  29.077  29.779  1.00  0.00     0.023 A 
ATOM     67  C   UNL A   1      38.832  28.696  31.091  1.00  0.00     0.012 A 
ATOM     68  C   UNL A   1      38.238  29.759  28.984  1.00  0.00     0.148 A 
ATOM     69  C   UNL A   1      37.561  28.968  31.596  1.00  0.00     0.002 A 
ATOM     70  C   UNL A   1      36.987  30.061  29.508  1.00  0.00     0.091 A 
ATOM     71  F   UNL A   1      38.582  30.092  27.732  1.00  0.00    -0.205 F 
ATOM     72  C   UNL A   1      36.643  29.659  30.809  1.00  0.00     0.022 A 
BRANCH  70  73
ATOM     73  S   UNL A   1      35.764  31.013  28.599  1.00  0.00     0.127 S 
ATOM     74  O   UNL A   1      36.589  32.074  28.019  1.00  0.00    -0.237 OA
ATOM     75  O   UNL A   1      35.266  30.033  27.631  1.00  0.00    -0.237 OA
ATOM     76  O   UNL A   1      34.783  31.448  29.580  1.00  0.00    -0.744 OA
ENDBRANCH  70  73
ENDBRANCH  52  66
BRANCH  53  77
ATOM     77  C   UNL A   1      48.146  27.257  25.826  1.00  0.00     0.023 A 
ATOM     78  C   UNL A   1      49.225  26.766  26.586  1.00  0.00     0.012 A 
ATOM     79  C   UNL A   1      48.317  27.463  24.444  1.00  0.00     0.148 A 
ATOM     80  C   UNL A   1      50.459  26.514  25.987  1.00  0.00     0.002 A 
ATOM     81  C   UNL A   1      49.532  27.155  23.842  1.00  0.00     0.091 A 
ATOM     82  F   UNL A   1      47.284  27.946  23.739  1.00  0.00    -0.205 F 
ATOM     83  C   UNL A   1      50.610  26.696  24.614  1.00  0.00     0.022 A 
BRANCH  81  84
ATOM     84  S   UNL A   1      49.755  27.225  22.060  1.00  0.00     0.127 S 
ATOM     85  O   UNL A   1      48.752  26.273  21.593  1.00  0.00    -0.237 OA
ATOM     86  O   UNL A   1      49.457  28.628  21.765  1.00  0.00    -0.237 OA
ATOM     87  O   UNL A   1      51.145  26.855  21.828  1.00  0.00    -0.744 OA
ENDBRANCH  81  84
ENDBRANCH  53  77
BRANCH  65  88
ATOM     88  C   UNL A   1      45.300  32.787  29.012  1.00  0.00     0.023 A 
ATOM     89  C   UNL A   1      46.001  33.044  30.207  1.00  0.00     0.012 A 
ATOM     90  C   UNL A   1      45.148  33.818  28.064  1.00  0.00     0.148 A 
ATOM     91  C   UNL A   1      46.520  34.311  30.466  1.00  0.00     0.002 A 
ATOM     92  C   UNL A   1      45.705  35.067  28.310  1.00  0.00     0.091 A 
ATOM     93  F   UNL A   1      44.459  33.561  26.943  1.00  0.00    -0.205 F 
ATOM     94  C   UNL A   1      46.384  35.318  29.514  1.00  0.00     0.022 A 
BRANCH  92  95
ATOM     95  S   UNL A   1      45.655  36.395  27.100  1.00  0.00     0.127 S 
ATOM     96  O   UNL A   1      44.222  36.664  27.011  1.00  0.00    -0.237 OA
ATOM     97  O   UNL A   1      46.433  37.447  27.756  1.00  0.00    -0.237 OA
ATOM     98  O   UNL A   1      46.271  35.857  25.894  1.00  0.00    -0.744 OA
ENDBRANCH  92  95
ENDBRANCH  65  88
ENDBRANCH  39  40
ENDBRANCH  31  34
ENDBRANCH  29  30
ENDBRANCH   1  29
TORSDOF 17
ENDMDL
MODEL 3
REMARK VINA RESULT:     -12.4      2.937      3.652
REMARK SMILES COc1ccc2[nH]c(C(=O)c3cc(C)ccn3)c(CC(=O)NCCCNC(=O)c3ccc(-c4c5nc(c(-c6cccc(S(=O)(=O)[O-])c6F)c6ccc([nH]6)c(-c6cccc(S(=O)(=O)[O-])c6F)c6nc(c(-c7cccc(S(=O)(=O)[O-])c7F)c7ccc4[nH]7)C=C6)C=C5)cc3)c2c1
REMARK SMILES IDX 24 1 23 2 22 3 20 4 21 5 19 7 18 8 3 9 4 10 93 11 5 12 92 13
REMARK SMILES IDX 6 14 7 15 8 16 2 18 1 19 9 20 10 21 11 22 12 23 17 24 13 25
REMARK SMILES IDX 16 26 14 27 15 28 25 29 26 30 27 31 28 33 29 34 30 35 91 36
REMARK SMILES IDX 31 37 90 38 32 39 33 40 34 41 84 42 35 43 89 44 83 45 85 46
REMARK SMILES IDX 36 47 88 48 82 49 81 50 37 52 69 53 49 54 68 55 50 56 53 57
REMARK SMILES IDX 67 58 86 59 51 60 52 61 66 63 87 64 54 65 38 66 39 67 47 68
REMARK SMILES IDX 40 69 42 70 48 71 41 72 43 73 44 74 45 75 46 76 70 77 71 78
REMARK SMILES IDX 79 79 72 80 74 81 80 82 73 83 75 84 76 85 77 86 78 87 55 88
REMARK SMILES IDX 56 89 64 90 57 91 59 92 65 93 58 94 60 95 61 96 62 97 63 98
REMARK H PARENT 22 6 7 17 26 32 85 51 53 62
REMARK Flexibility Score: inf
ROOT
ATOM      1  C   UNL A   1      31.872  28.420  25.931  1.00  0.00     0.042 C 
ENDROOT
BRANCH   1   2
ATOM      2  C   UNL A   1      32.578  27.218  26.552  1.00  0.00     0.117 C 
BRANCH   2   3
ATOM      3  N   UNL A   1      31.698  26.091  26.783  1.00  0.00    -0.356 N 
ATOM      4  C   UNL A   1      31.883  24.766  26.505  1.00  0.00     0.224 C 
ATOM      5  O   UNL A   1      31.092  23.975  27.027  1.00  0.00    -0.275 OA
ATOM      6  H   UNL A   1      30.835  26.313  27.202  1.00  0.00     0.163 HD
BRANCH   4   7
ATOM      7  C   UNL A   1      33.090  24.279  25.709  1.00  0.00     0.138 C 
BRANCH   7   8
ATOM      8  C   UNL A   1      32.761  23.541  24.438  1.00  0.00    -0.002 A 
ATOM      9  C   UNL A   1      32.468  19.736  24.792  1.00  0.00     0.119 A 
ATOM     10  C   UNL A   1      32.267  19.477  23.438  1.00  0.00     0.048 A 
ATOM     11  C   UNL A   1      32.589  21.051  25.249  1.00  0.00     0.057 A 
ATOM     12  C   UNL A   1      32.222  20.522  22.507  1.00  0.00     0.030 A 
ATOM     13  C   UNL A   1      32.577  22.121  24.328  1.00  0.00     0.008 A 
ATOM     14  C   UNL A   1      32.386  21.828  22.984  1.00  0.00     0.046 A 
ATOM     15  N   UNL A   1      32.409  23.021  22.303  1.00  0.00    -0.352 N 
ATOM     16  C   UNL A   1      32.538  24.086  23.171  1.00  0.00     0.093 A 
ATOM     17  H   UNL A   1      32.343  23.104  21.323  1.00  0.00     0.167 HD
BRANCH   9  18
ATOM     18  O   UNL A   1      32.527  18.769  25.762  1.00  0.00    -0.497 OA
ATOM     19  C   UNL A   1      32.490  17.437  25.254  1.00  0.00     0.278 C 
ENDBRANCH   9  18
BRANCH  16  20
ATOM     20  C   UNL A   1      32.471  25.492  22.789  1.00  0.00     0.227 C 
ATOM     21  O   UNL A   1      33.429  26.110  22.319  1.00  0.00    -0.285 OA
BRANCH  20  22
ATOM     22  C   UNL A   1      31.221  26.255  23.042  1.00  0.00     0.113 A 
ATOM     23  C   UNL A   1      31.058  27.517  22.478  1.00  0.00     0.036 A 
ATOM     24  N   UNL A   1      30.290  25.643  23.816  1.00  0.00    -0.253 NA
ATOM     25  C   UNL A   1      29.871  28.205  22.727  1.00  0.00    -0.047 A 
ATOM     26  C   UNL A   1      29.146  26.323  24.027  1.00  0.00     0.112 A 
ATOM     27  C   UNL A   1      29.628  29.571  22.160  1.00  0.00     0.044 C 
ATOM     28  C   UNL A   1      28.894  27.588  23.513  1.00  0.00     0.023 A 
ENDBRANCH  20  22
ENDBRANCH  16  20
ENDBRANCH   7   8
ENDBRANCH   4   7
ENDBRANCH   2   3
ENDBRANCH   1   2
BRANCH   1  29
ATOM     29  C   UNL A   1      32.805  29.538  25.473  1.00  0.00     0.118 C 
BRANCH  29  30
ATOM     30  N   UNL A   1      32.425  30.845  25.997  1.00  0.00    -0.352 N 
ATOM     31  C   UNL A   1      32.979  31.605  26.997  1.00  0.00     0.251 C 
ATOM     32  H   UNL A   1      31.641  31.249  25.562  1.00  0.00     0.163 HD
ATOM     33  O   UNL A   1      32.381  32.607  27.386  1.00  0.00    -0.269 OA
BRANCH  31  34
ATOM     34  C   UNL A   1      34.269  31.235  27.624  1.00  0.00     0.039 A 
ATOM     35  C   UNL A   1      35.251  32.222  27.767  1.00  0.00     0.014 A 
ATOM     36  C   UNL A   1      34.540  29.925  28.025  1.00  0.00     0.014 A 
ATOM     37  C   UNL A   1      36.474  31.910  28.371  1.00  0.00     0.010 A 
ATOM     38  C   UNL A   1      35.734  29.629  28.683  1.00  0.00     0.010 A 
ATOM     39  C   UNL A   1      36.712  30.618  28.865  1.00  0.00    -0.014 A 
BRANCH  39  40
ATOM     40  C   UNL A   1      37.958  30.294  29.611  1.00  0.00     0.031 A 
ATOM     41  C   UNL A   1      38.953  29.314  29.053  1.00  0.00     0.074 A 
ATOM     42  C   UNL A   1      38.137  30.803  30.846  1.00  0.00     0.049 A 
ATOM     43  N   UNL A   1      40.052  28.856  29.599  1.00  0.00    -0.248 NA
ATOM     44  C   UNL A   1      38.668  28.753  27.723  1.00  0.00     0.031 C 
ATOM     45  C   UNL A   1      37.201  31.693  31.537  1.00  0.00     0.029 A 
ATOM     46  N   UNL A   1      39.146  30.613  31.758  1.00  0.00    -0.354 N 
ATOM     47  C   UNL A   1      40.563  27.925  28.703  1.00  0.00     0.074 A 
ATOM     48  C   UNL A   1      39.647  27.870  27.584  1.00  0.00     0.031 C 
ATOM     49  C   UNL A   1      37.672  31.960  32.765  1.00  0.00     0.029 A 
ATOM     50  C   UNL A   1      38.928  31.243  32.961  1.00  0.00     0.049 A 
ATOM     51  H   UNL A   1      39.950  30.076  31.569  1.00  0.00     0.167 HD
ATOM     52  C   UNL A   1      41.704  27.200  28.793  1.00  0.00     0.034 A 
ATOM     53  C   UNL A   1      39.649  31.237  34.101  1.00  0.00     0.034 A 
ATOM     54  C   UNL A   1      42.645  27.302  29.876  1.00  0.00     0.049 A 
ATOM     55  C   UNL A   1      40.947  30.478  34.143  1.00  0.00     0.074 A 
ATOM     56  C   UNL A   1      43.887  26.705  29.994  1.00  0.00     0.029 A 
ATOM     57  N   UNL A   1      42.447  28.043  31.030  1.00  0.00    -0.354 N 
ATOM     58  N   UNL A   1      41.510  29.755  33.206  1.00  0.00    -0.248 NA
ATOM     59  C   UNL A   1      41.730  30.566  35.384  1.00  0.00     0.031 C 
ATOM     60  C   UNL A   1      44.435  27.070  31.228  1.00  0.00     0.029 A 
ATOM     61  C   UNL A   1      43.538  27.907  31.872  1.00  0.00     0.049 A 
ATOM     62  H   UNL A   1      41.649  28.586  31.222  1.00  0.00     0.167 HD
ATOM     63  C   UNL A   1      42.722  29.325  33.732  1.00  0.00     0.074 A 
ATOM     64  C   UNL A   1      42.825  29.890  35.061  1.00  0.00     0.031 C 
ATOM     65  C   UNL A   1      43.655  28.517  33.172  1.00  0.00     0.034 A 
BRANCH  52  66
ATOM     66  C   UNL A   1      42.040  26.270  27.657  1.00  0.00     0.023 A 
ATOM     67  C   UNL A   1      42.791  26.752  26.567  1.00  0.00     0.012 A 
ATOM     68  C   UNL A   1      41.688  24.906  27.707  1.00  0.00     0.148 A 
ATOM     69  C   UNL A   1      43.165  25.898  25.530  1.00  0.00     0.002 A 
ATOM     70  C   UNL A   1      42.099  24.054  26.689  1.00  0.00     0.091 A 
ATOM     71  F   UNL A   1      40.955  24.473  28.742  1.00  0.00    -0.205 F 
ATOM     72  C   UNL A   1      42.830  24.548  25.597  1.00  0.00     0.022 A 
BRANCH  70  73
ATOM     73  S   UNL A   1      41.781  22.285  26.723  1.00  0.00     0.127 S 
ATOM     74  O   UNL A   1      42.098  21.903  25.346  1.00  0.00    -0.237 OA
ATOM     75  O   UNL A   1      42.746  21.818  27.721  1.00  0.00    -0.237 OA
ATOM     76  O   UNL A   1      40.388  22.136  27.110  1.00  0.00    -0.744 OA
ENDBRANCH  70  73
ENDBRANCH  52  66
BRANCH  53  77
ATOM     77  C   UNL A   1      39.184  32.030  35.273  1.00  0.00     0.023 A 
ATOM     78  C   UNL A   1      38.302  31.440  36.199  1.00  0.00     0.012 A 
ATOM     79  C   UNL A   1      39.642  33.341  35.501  1.00  0.00     0.148 A 
ATOM     80  C   UNL A   1      37.862  32.153  37.315  1.00  0.00     0.002 A 
ATOM     81  C   UNL A   1      39.245  34.026  36.644  1.00  0.00     0.091 A 
ATOM     82  F   UNL A   1      40.468  33.894  34.601  1.00  0.00    -0.205 F 
ATOM     83  C   UNL A   1      38.342  33.440  37.545  1.00  0.00     0.022 A 
BRANCH  81  84
ATOM     84  S   UNL A   1      39.935  35.627  37.081  1.00  0.00     0.127 S 
ATOM     85  O   UNL A   1      39.241  35.923  38.331  1.00  0.00    -0.237 OA
ATOM     86  O   UNL A   1      41.360  35.323  37.224  1.00  0.00    -0.237 OA
ATOM     87  O   UNL A   1      39.628  36.502  35.957  1.00  0.00    -0.744 OA
ENDBRANCH  81  84
ENDBRANCH  53  77
BRANCH  65  88
ATOM     88  C   UNL A   1      44.885  28.202  33.980  1.00  0.00     0.023 A 
ATOM     89  C   UNL A   1      44.875  27.098  34.857  1.00  0.00     0.012 A 
ATOM     90  C   UNL A   1      46.072  28.942  33.815  1.00  0.00     0.148 A 
ATOM     91  C   UNL A   1      46.018  26.753  35.576  1.00  0.00     0.002 A 
ATOM     92  C   UNL A   1      47.220  28.566  34.502  1.00  0.00     0.091 A 
ATOM     93  F   UNL A   1      46.057  30.001  32.993  1.00  0.00    -0.205 F 
ATOM     94  C   UNL A   1      47.192  27.477  35.390  1.00  0.00     0.022 A 
BRANCH  92  95
ATOM     95  S   UNL A   1      48.799  29.387  34.254  1.00  0.00     0.127 S 
ATOM     96  O   UNL A   1      48.581  30.664  34.930  1.00  0.00    -0.237 OA
ATOM     97  O   UNL A   1      49.731  28.488  34.937  1.00  0.00    -0.237 OA
ATOM     98  O   UNL A   1      48.985  29.461  32.811  1.00  0.00    -0.744 OA
ENDBRANCH  92  95
ENDBRANCH  65  88
ENDBRANCH  39  40
ENDBRANCH  31  34
ENDBRANCH  29  30
ENDBRANCH   1  29
TORSDOF 17
ENDMDL
