MODEL 1
REMARK VINA RESULT:     -11.9      0.000      0.000
REMARK SMILES O=C(CCc1ccc(S(=O)(=O)Nc2cccc(I)c2)cc1)NCCCNC(=O)c1ccc(-c2c3nc(c(-c4cccc(S(=O)(=O)[O-])c4F)c4ccc([nH]4)c(-c4cccc(S(=O)(=O)[O-])c4F)c4nc(c(-c5cccc(S(=O)(=O)[O-])c5F)c5ccc2[nH]5)C=C4)C=C3)cc1
REMARK SMILES IDX 23 1 22 2 1 3 2 4 3 6 4 7 5 8 6 9 21 10 7 11 20 12 8 13 9 14
REMARK SMILES IDX 10 15 11 16 12 17 13 19 14 20 19 21 15 22 17 23 16 24 18 25
REMARK SMILES IDX 24 26 25 27 26 28 27 29 28 31 29 32 30 33 91 34 31 35 90 36
REMARK SMILES IDX 32 37 33 38 34 39 84 40 35 41 89 42 83 43 85 44 36 45 88 46
REMARK SMILES IDX 82 47 81 48 37 50 69 51 49 52 68 53 50 54 53 55 67 56 86 57
REMARK SMILES IDX 51 58 52 59 66 61 87 62 54 63 38 64 39 65 47 66 40 67 42 68
REMARK SMILES IDX 48 69 41 70 43 71 44 72 45 73 46 74 70 75 71 76 79 77 72 78
REMARK SMILES IDX 74 79 80 80 73 81 75 82 76 83 77 84 78 85 55 86 56 87 64 88
REMARK SMILES IDX 57 89 59 90 65 91 58 92 60 93 61 94 62 95 63 96
REMARK H PARENT 22 5 12 18 26 30 85 49 53 60
REMARK Flexibility Score: inf
ROOT
ATOM      1  C   UNL A   1      32.656  30.031  26.032  1.00  0.00     0.117 C 
ENDROOT
BRANCH   1   2
ATOM      2  N   UNL A   1      31.437  29.757  25.302  1.00  0.00    -0.356 N 
ATOM      3  O   UNL A   1      32.478  28.976  23.403  1.00  0.00    -0.275 OA
ATOM      4  C   UNL A   1      31.453  29.215  24.034  1.00  0.00     0.220 C 
ATOM      5  H   UNL A   1      30.572  29.963  25.723  1.00  0.00     0.163 HD
BRANCH   4   6
ATOM      6  C   UNL A   1      30.081  28.900  23.472  1.00  0.00     0.105 C 
BRANCH   6   7
ATOM      7  C   UNL A   1      30.072  27.570  22.712  1.00  0.00     0.045 C 
BRANCH   7   8
ATOM      8  C   UNL A   1      30.157  26.351  23.602  1.00  0.00    -0.047 A 
ATOM      9  C   UNL A   1      29.641  26.363  24.905  1.00  0.00     0.005 A 
ATOM     10  C   UNL A   1      30.778  25.185  23.137  1.00  0.00     0.005 A 
ATOM     11  C   UNL A   1      29.888  25.298  25.775  1.00  0.00     0.022 A 
ATOM     12  C   UNL A   1      30.947  24.085  23.979  1.00  0.00     0.022 A 
ATOM     13  C   UNL A   1      30.590  24.174  25.323  1.00  0.00     0.087 A 
BRANCH  13  14
ATOM     14  S   UNL A   1      30.938  22.848  26.466  1.00  0.00     0.261 S 
ATOM     15  O   UNL A   1      29.971  22.980  27.536  1.00  0.00    -0.201 OA
ATOM     16  O   UNL A   1      31.015  21.637  25.674  1.00  0.00    -0.201 OA
BRANCH  14  17
ATOM     17  N   UNL A   1      32.418  23.115  27.212  1.00  0.00    -0.280 N 
ATOM     18  H   UNL A   1      32.445  23.061  28.194  1.00  0.00     0.180 HD
BRANCH  17  19
ATOM     19  C   UNL A   1      33.629  23.411  26.542  1.00  0.00     0.050 A 
ATOM     20  C   UNL A   1      33.902  24.687  26.064  1.00  0.00     0.027 A 
ATOM     21  C   UNL A   1      34.500  22.357  26.256  1.00  0.00     0.041 A 
ATOM     22  C   UNL A   1      35.043  24.898  25.281  1.00  0.00     0.003 A 
ATOM     23  C   UNL A   1      35.630  22.567  25.474  1.00  0.00     0.015 A 
ATOM     24  C   UNL A   1      35.905  23.838  24.982  1.00  0.00     0.015 A 
ATOM     25  I   UNL A   1      36.887  20.982  25.017  1.00  0.00    -0.044 I 
ENDBRANCH  17  19
ENDBRANCH  14  17
ENDBRANCH  13  14
ENDBRANCH   7   8
ENDBRANCH   6   7
ENDBRANCH   4   6
ENDBRANCH   1   2
BRANCH   1  26
ATOM     26  C   UNL A   1      32.469  31.017  27.181  1.00  0.00     0.042 C 
BRANCH  26  27
ATOM     27  C   UNL A   1      33.369  32.248  27.128  1.00  0.00     0.118 C 
BRANCH  27  28
ATOM     28  N   UNL A   1      32.733  33.461  27.620  1.00  0.00    -0.352 N 
ATOM     29  C   UNL A   1      33.206  34.408  28.494  1.00  0.00     0.251 C 
ATOM     30  H   UNL A   1      31.826  33.627  27.273  1.00  0.00     0.163 HD
ATOM     31  O   UNL A   1      32.613  35.478  28.618  1.00  0.00    -0.269 OA
BRANCH  29  32
ATOM     32  C   UNL A   1      34.358  34.114  29.362  1.00  0.00     0.039 A 
ATOM     33  C   UNL A   1      34.108  33.379  30.526  1.00  0.00     0.014 A 
ATOM     34  C   UNL A   1      35.660  34.460  29.008  1.00  0.00     0.014 A 
ATOM     35  C   UNL A   1      35.174  32.903  31.283  1.00  0.00     0.010 A 
ATOM     36  C   UNL A   1      36.725  33.911  29.717  1.00  0.00     0.010 A 
ATOM     37  C   UNL A   1      36.492  33.114  30.850  1.00  0.00    -0.014 A 
BRANCH  37  38
ATOM     38  C   UNL A   1      37.626  32.468  31.553  1.00  0.00     0.031 A 
ATOM     39  C   UNL A   1      38.367  31.331  30.910  1.00  0.00     0.074 A 
ATOM     40  C   UNL A   1      37.941  32.868  32.802  1.00  0.00     0.049 A 
ATOM     41  N   UNL A   1      39.367  30.634  31.379  1.00  0.00    -0.248 NA
ATOM     42  C   UNL A   1      37.909  30.904  29.578  1.00  0.00     0.031 C 
ATOM     43  C   UNL A   1      37.242  33.912  33.557  1.00  0.00     0.029 A 
ATOM     44  N   UNL A   1      38.917  32.437  33.664  1.00  0.00    -0.354 N 
ATOM     45  C   UNL A   1      39.640  29.670  30.418  1.00  0.00     0.074 A 
ATOM     46  C   UNL A   1      38.674  29.846  29.355  1.00  0.00     0.031 C 
ATOM     47  C   UNL A   1      37.818  34.046  34.762  1.00  0.00     0.029 A 
ATOM     48  C   UNL A   1      38.904  33.079  34.880  1.00  0.00     0.049 A 
ATOM     49  H   UNL A   1      39.566  31.733  33.433  1.00  0.00     0.167 HD
ATOM     50  C   UNL A   1      40.622  28.738  30.409  1.00  0.00     0.034 A 
ATOM     51  C   UNL A   1      39.675  32.903  35.972  1.00  0.00     0.034 A 
ATOM     52  C   UNL A   1      41.594  28.587  31.458  1.00  0.00     0.049 A 
ATOM     53  C   UNL A   1      40.776  31.880  35.922  1.00  0.00     0.074 A 
ATOM     54  C   UNL A   1      42.677  27.728  31.509  1.00  0.00     0.029 A 
ATOM     55  N   UNL A   1      41.593  29.302  32.646  1.00  0.00    -0.354 N 
ATOM     56  N   UNL A   1      41.117  31.081  34.940  1.00  0.00    -0.248 NA
ATOM     57  C   UNL A   1      41.625  31.758  37.117  1.00  0.00     0.031 C 
ATOM     58  C   UNL A   1      43.310  27.898  32.745  1.00  0.00     0.029 A 
ATOM     59  C   UNL A   1      42.648  28.895  33.444  1.00  0.00     0.049 A 
ATOM     60  H   UNL A   1      40.940  29.999  32.886  1.00  0.00     0.167 HD
ATOM     61  C   UNL A   1      42.238  30.389  35.381  1.00  0.00     0.074 A 
ATOM     62  C   UNL A   1      42.532  30.880  36.712  1.00  0.00     0.031 C 
ATOM     63  C   UNL A   1      42.954  29.427  34.747  1.00  0.00     0.034 A 
BRANCH  50  64
ATOM     64  C   UNL A   1      40.714  27.833  29.208  1.00  0.00     0.023 A 
ATOM     65  C   UNL A   1      39.869  26.707  29.113  1.00  0.00     0.012 A 
ATOM     66  C   UNL A   1      41.600  28.121  28.152  1.00  0.00     0.148 A 
ATOM     67  C   UNL A   1      39.932  25.863  28.006  1.00  0.00     0.002 A 
ATOM     68  C   UNL A   1      41.622  27.302  27.029  1.00  0.00     0.091 A 
ATOM     69  F   UNL A   1      42.410  29.184  28.268  1.00  0.00    -0.205 F 
ATOM     70  C   UNL A   1      40.800  26.166  26.960  1.00  0.00     0.022 A 
BRANCH  68  71
ATOM     71  S   UNL A   1      42.642  27.651  25.593  1.00  0.00     0.127 S 
ATOM     72  O   UNL A   1      41.990  28.842  25.050  1.00  0.00    -0.237 OA
ATOM     73  O   UNL A   1      43.951  27.895  26.198  1.00  0.00    -0.237 OA
ATOM     74  O   UNL A   1      42.573  26.465  24.750  1.00  0.00    -0.744 OA
ENDBRANCH  68  71
ENDBRANCH  50  64
BRANCH  51  75
ATOM     75  C   UNL A   1      39.468  33.751  37.180  1.00  0.00     0.023 A 
ATOM     76  C   UNL A   1      39.969  35.068  37.200  1.00  0.00     0.012 A 
ATOM     77  C   UNL A   1      38.766  33.268  38.301  1.00  0.00     0.148 A 
ATOM     78  C   UNL A   1      39.806  35.875  38.327  1.00  0.00     0.002 A 
ATOM     79  C   UNL A   1      38.558  34.096  39.398  1.00  0.00     0.091 A 
ATOM     80  F   UNL A   1      38.304  32.009  38.267  1.00  0.00    -0.205 F 
ATOM     81  C   UNL A   1      39.093  35.393  39.422  1.00  0.00     0.022 A 
BRANCH  79  82
ATOM     82  S   UNL A   1      37.543  33.606  40.796  1.00  0.00     0.127 S 
ATOM     83  O   UNL A   1      38.379  32.593  41.434  1.00  0.00    -0.237 OA
ATOM     84  O   UNL A   1      37.424  34.863  41.536  1.00  0.00    -0.237 OA
ATOM     85  O   UNL A   1      36.292  33.126  40.226  1.00  0.00    -0.744 OA
ENDBRANCH  79  82
ENDBRANCH  51  75
BRANCH  63  86
ATOM     86  C   UNL A   1      44.155  28.867  35.464  1.00  0.00     0.023 A 
ATOM     87  C   UNL A   1      45.422  29.457  35.287  1.00  0.00     0.012 A 
ATOM     88  C   UNL A   1      44.009  27.798  36.370  1.00  0.00     0.148 A 
ATOM     89  C   UNL A   1      46.533  28.965  35.973  1.00  0.00     0.002 A 
ATOM     90  C   UNL A   1      45.110  27.351  37.090  1.00  0.00     0.091 A 
ATOM     91  F   UNL A   1      42.799  27.240  36.511  1.00  0.00    -0.205 F 
ATOM     92  C   UNL A   1      46.375  27.923  36.882  1.00  0.00     0.022 A 
BRANCH  90  93
ATOM     93  S   UNL A   1      44.982  26.082  38.355  1.00  0.00     0.127 S 
ATOM     94  O   UNL A   1      44.478  24.944  37.587  1.00  0.00    -0.237 OA
ATOM     95  O   UNL A   1      46.368  25.951  38.803  1.00  0.00    -0.237 OA
ATOM     96  O   UNL A   1      44.068  26.608  39.362  1.00  0.00    -0.744 OA
ENDBRANCH  90  93
ENDBRANCH  63  86
ENDBRANCH  37  38
ENDBRANCH  29  32
ENDBRANCH  27  28
ENDBRANCH  26  27
ENDBRANCH   1  26
TORSDOF 18
ENDMDL
MODEL 2
REMARK VINA RESULT:     -11.7      2.508      7.974
REMARK SMILES O=C(CCc1ccc(S(=O)(=O)Nc2cccc(I)c2)cc1)NCCCNC(=O)c1ccc(-c2c3nc(c(-c4cccc(S(=O)(=O)[O-])c4F)c4ccc([nH]4)c(-c4cccc(S(=O)(=O)[O-])c4F)c4nc(c(-c5cccc(S(=O)(=O)[O-])c5F)c5ccc2[nH]5)C=C4)C=C3)cc1
REMARK SMILES IDX 23 1 22 2 1 3 2 4 3 6 4 7 5 8 6 9 21 10 7 11 20 12 8 13 9 14
REMARK SMILES IDX 10 15 11 16 12 17 13 19 14 20 19 21 15 22 17 23 16 24 18 25
REMARK SMILES IDX 24 26 25 27 26 28 27 29 28 31 29 32 30 33 91 34 31 35 90 36
REMARK SMILES IDX 32 37 33 38 34 39 84 40 35 41 89 42 83 43 85 44 36 45 88 46
REMARK SMILES IDX 82 47 81 48 37 50 69 51 49 52 68 53 50 54 53 55 67 56 86 57
REMARK SMILES IDX 51 58 52 59 66 61 87 62 54 63 38 64 39 65 47 66 40 67 42 68
REMARK SMILES IDX 48 69 41 70 43 71 44 72 45 73 46 74 70 75 71 76 79 77 72 78
REMARK SMILES IDX 74 79 80 80 73 81 75 82 76 83 77 84 78 85 55 86 56 87 64 88
REMARK SMILES IDX 57 89 59 90 65 91 58 92 60 93 61 94 62 95 63 96
REMARK H PARENT 22 5 12 18 26 30 85 49 53 60
REMARK Flexibility Score: inf
ROOT
ATOM      1  C   UNL A   1      31.797  28.995  24.073  1.00  0.00     0.117 C 
ENDROOT
BRANCH   1   2
ATOM      2  N   UNL A   1      31.492  27.631  24.445  1.00  0.00    -0.356 N 
ATOM      3  O   UNL A   1      29.450  27.556  23.384  1.00  0.00    -0.275 OA
ATOM      4  C   UNL A   1      30.332  27.006  24.037  1.00  0.00     0.220 C 
ATOM      5  H   UNL A   1      32.130  27.134  25.006  1.00  0.00     0.163 HD
BRANCH   4   6
ATOM      6  C   UNL A   1      30.235  25.546  24.434  1.00  0.00     0.105 C 
BRANCH   6   7
ATOM      7  C   UNL A   1      30.581  24.617  23.266  1.00  0.00     0.045 C 
BRANCH   7   8
ATOM      8  C   UNL A   1      31.120  23.270  23.690  1.00  0.00    -0.047 A 
ATOM      9  C   UNL A   1      31.039  22.839  25.021  1.00  0.00     0.005 A 
ATOM     10  C   UNL A   1      31.730  22.432  22.749  1.00  0.00     0.005 A 
ATOM     11  C   UNL A   1      31.700  21.678  25.432  1.00  0.00     0.022 A 
ATOM     12  C   UNL A   1      32.315  21.228  23.143  1.00  0.00     0.022 A 
ATOM     13  C   UNL A   1      32.386  20.896  24.495  1.00  0.00     0.087 A 
BRANCH  13  14
ATOM     14  S   UNL A   1      33.266  19.446  25.051  1.00  0.00     0.261 S 
ATOM     15  O   UNL A   1      33.112  19.412  26.490  1.00  0.00    -0.201 OA
ATOM     16  O   UNL A   1      32.804  18.347  24.224  1.00  0.00    -0.201 OA
BRANCH  14  17
ATOM     17  N   UNL A   1      34.914  19.657  24.816  1.00  0.00    -0.280 N 
ATOM     18  H   UNL A   1      35.441  18.863  24.570  1.00  0.00     0.180 HD
BRANCH  17  19
ATOM     19  C   UNL A   1      35.607  20.885  24.944  1.00  0.00     0.050 A 
ATOM     20  C   UNL A   1      36.980  20.925  25.156  1.00  0.00     0.027 A 
ATOM     21  C   UNL A   1      34.861  22.064  24.980  1.00  0.00     0.041 A 
ATOM     22  C   UNL A   1      37.599  22.152  25.422  1.00  0.00     0.003 A 
ATOM     23  C   UNL A   1      35.475  23.281  25.250  1.00  0.00     0.015 A 
ATOM     24  C   UNL A   1      36.846  23.330  25.475  1.00  0.00     0.015 A 
ATOM     25  I   UNL A   1      34.344  25.017  25.348  1.00  0.00    -0.044 I 
ENDBRANCH  17  19
ENDBRANCH  14  17
ENDBRANCH  13  14
ENDBRANCH   7   8
ENDBRANCH   6   7
ENDBRANCH   4   6
ENDBRANCH   1   2
BRANCH   1  26
ATOM     26  C   UNL A   1      31.307  30.026  25.085  1.00  0.00     0.042 C 
BRANCH  26  27
ATOM     27  C   UNL A   1      32.206  30.212  26.304  1.00  0.00     0.118 C 
BRANCH  27  28
ATOM     28  N   UNL A   1      32.158  31.551  26.869  1.00  0.00    -0.352 N 
ATOM     29  C   UNL A   1      33.165  32.313  27.409  1.00  0.00     0.251 C 
ATOM     30  H   UNL A   1      31.269  31.976  26.864  1.00  0.00     0.163 HD
ATOM     31  O   UNL A   1      32.977  33.507  27.632  1.00  0.00    -0.269 OA
BRANCH  29  32
ATOM     32  C   UNL A   1      34.435  31.690  27.818  1.00  0.00     0.039 A 
ATOM     33  C   UNL A   1      35.532  32.539  27.999  1.00  0.00     0.014 A 
ATOM     34  C   UNL A   1      34.534  30.332  28.110  1.00  0.00     0.014 A 
ATOM     35  C   UNL A   1      36.700  32.044  28.571  1.00  0.00     0.010 A 
ATOM     36  C   UNL A   1      35.670  29.858  28.760  1.00  0.00     0.010 A 
ATOM     37  C   UNL A   1      36.756  30.713  29.011  1.00  0.00    -0.014 A 
BRANCH  37  38
ATOM     38  C   UNL A   1      37.929  30.223  29.773  1.00  0.00     0.031 A 
ATOM     39  C   UNL A   1      38.170  30.694  31.178  1.00  0.00     0.074 A 
ATOM     40  C   UNL A   1      38.812  29.402  29.168  1.00  0.00     0.049 A 
ATOM     41  N   UNL A   1      39.148  30.390  31.989  1.00  0.00    -0.248 NA
ATOM     42  C   UNL A   1      37.201  31.650  31.737  1.00  0.00     0.031 C 
ATOM     43  C   UNL A   1      38.722  28.939  27.780  1.00  0.00     0.029 A 
ATOM     44  N   UNL A   1      39.967  28.825  29.632  1.00  0.00    -0.354 N 
ATOM     45  C   UNL A   1      38.932  31.137  33.140  1.00  0.00     0.074 A 
ATOM     46  C   UNL A   1      37.750  31.938  32.908  1.00  0.00     0.031 C 
ATOM     47  C   UNL A   1      39.768  28.142  27.512  1.00  0.00     0.029 A 
ATOM     48  C   UNL A   1      40.621  28.063  28.692  1.00  0.00     0.049 A 
ATOM     49  H   UNL A   1      40.296  28.946  30.553  1.00  0.00     0.167 HD
ATOM     50  C   UNL A   1      39.638  31.136  34.295  1.00  0.00     0.034 A 
ATOM     51  C   UNL A   1      41.783  27.384  28.771  1.00  0.00     0.034 A 
ATOM     52  C   UNL A   1      40.797  30.316  34.525  1.00  0.00     0.049 A 
ATOM     53  C   UNL A   1      42.531  27.378  30.075  1.00  0.00     0.074 A 
ATOM     54  C   UNL A   1      41.538  30.182  35.686  1.00  0.00     0.029 A 
ATOM     55  N   UNL A   1      41.392  29.502  33.573  1.00  0.00    -0.354 N 
ATOM     56  N   UNL A   1      42.225  27.969  31.205  1.00  0.00    -0.248 NA
ATOM     57  C   UNL A   1      43.766  26.582  30.130  1.00  0.00     0.031 C 
ATOM     58  C   UNL A   1      42.603  29.314  35.424  1.00  0.00     0.029 A 
ATOM     59  C   UNL A   1      42.500  28.873  34.115  1.00  0.00     0.049 A 
ATOM     60  H   UNL A   1      41.074  29.388  32.649  1.00  0.00     0.167 HD
ATOM     61  C   UNL A   1      43.205  27.589  32.113  1.00  0.00     0.074 A 
ATOM     62  C   UNL A   1      44.103  26.697  31.407  1.00  0.00     0.031 C 
ATOM     63  C   UNL A   1      43.356  27.952  33.411  1.00  0.00     0.034 A 
BRANCH  50  64
ATOM     64  C   UNL A   1      39.153  32.025  35.410  1.00  0.00     0.023 A 
ATOM     65  C   UNL A   1      38.181  31.547  36.314  1.00  0.00     0.012 A 
ATOM     66  C   UNL A   1      39.692  33.313  35.594  1.00  0.00     0.148 A 
ATOM     67  C   UNL A   1      37.725  32.350  37.358  1.00  0.00     0.002 A 
ATOM     68  C   UNL A   1      39.269  34.089  36.666  1.00  0.00     0.091 A 
ATOM     69  F   UNL A   1      40.600  33.759  34.714  1.00  0.00    -0.205 F 
ATOM     70  C   UNL A   1      38.276  33.616  37.540  1.00  0.00     0.022 A 
BRANCH  68  71
ATOM     71  S   UNL A   1      39.974  35.698  37.038  1.00  0.00     0.127 S 
ATOM     72  O   UNL A   1      41.388  35.368  37.211  1.00  0.00    -0.237 OA
ATOM     73  O   UNL A   1      39.669  36.455  35.824  1.00  0.00    -0.237 OA
ATOM     74  O   UNL A   1      39.294  36.170  38.236  1.00  0.00    -0.744 OA
ENDBRANCH  68  71
ENDBRANCH  50  64
BRANCH  51  75
ATOM     75  C   UNL A   1      42.278  26.608  27.597  1.00  0.00     0.023 A 
ATOM     76  C   UNL A   1      43.058  27.252  26.617  1.00  0.00     0.012 A 
ATOM     77  C   UNL A   1      41.995  25.235  27.456  1.00  0.00     0.148 A 
ATOM     78  C   UNL A   1      43.517  26.553  25.499  1.00  0.00     0.002 A 
ATOM     79  C   UNL A   1      42.501  24.532  26.370  1.00  0.00     0.091 A 
ATOM     80  F   UNL A   1      41.243  24.643  28.395  1.00  0.00    -0.205 F 
ATOM     81  C   UNL A   1      43.247  25.191  25.381  1.00  0.00     0.022 A 
BRANCH  79  82
ATOM     82  S   UNL A   1      42.314  22.754  26.202  1.00  0.00     0.127 S 
ATOM     83  O   UNL A   1      43.026  22.265  27.379  1.00  0.00    -0.237 OA
ATOM     84  O   UNL A   1      40.860  22.598  26.250  1.00  0.00    -0.237 OA
ATOM     85  O   UNL A   1      42.911  22.415  24.917  1.00  0.00    -0.744 OA
ENDBRANCH  79  82
ENDBRANCH  51  75
BRANCH  63  86
ATOM     86  C   UNL A   1      44.510  27.353  34.172  1.00  0.00     0.023 A 
ATOM     87  C   UNL A   1      45.768  27.988  34.162  1.00  0.00     0.012 A 
ATOM     88  C   UNL A   1      44.324  26.197  34.955  1.00  0.00     0.148 A 
ATOM     89  C   UNL A   1      46.834  27.458  34.890  1.00  0.00     0.002 A 
ATOM     90  C   UNL A   1      45.375  25.708  35.721  1.00  0.00     0.091 A 
ATOM     91  F   UNL A   1      43.125  25.599  34.937  1.00  0.00    -0.205 F 
ATOM     92  C   UNL A   1      46.633  26.328  35.678  1.00  0.00     0.022 A 
BRANCH  90  93
ATOM     93  S   UNL A   1      45.182  24.318  36.843  1.00  0.00     0.127 S 
ATOM     94  O   UNL A   1      44.042  24.746  37.653  1.00  0.00    -0.237 OA
ATOM     95  O   UNL A   1      44.899  23.215  35.925  1.00  0.00    -0.237 OA
ATOM     96  O   UNL A   1      46.446  24.200  37.559  1.00  0.00    -0.744 OA
ENDBRANCH  90  93
ENDBRANCH  63  86
ENDBRANCH  37  38
ENDBRANCH  29  32
ENDBRANCH  27  28
ENDBRANCH  26  27
ENDBRANCH   1  26
TORSDOF 18
ENDMDL
MODEL 3
REMARK VINA RESULT:     -11.6      2.500      8.192
REMARK SMILES O=C(CCc1ccc(S(=O)(=O)Nc2cccc(I)c2)cc1)NCCCNC(=O)c1ccc(-c2c3nc(c(-c4cccc(S(=O)(=O)[O-])c4F)c4ccc([nH]4)c(-c4cccc(S(=O)(=O)[O-])c4F)c4nc(c(-c5cccc(S(=O)(=O)[O-])c5F)c5ccc2[nH]5)C=C4)C=C3)cc1
REMARK SMILES IDX 23 1 22 2 1 3 2 4 3 6 4 7 5 8 6 9 21 10 7 11 20 12 8 13 9 14
REMARK SMILES IDX 10 15 11 16 12 17 13 19 14 20 19 21 15 22 17 23 16 24 18 25
REMARK SMILES IDX 24 26 25 27 26 28 27 29 28 31 29 32 30 33 91 34 31 35 90 36
REMARK SMILES IDX 32 37 33 38 34 39 84 40 35 41 89 42 83 43 85 44 36 45 88 46
REMARK SMILES IDX 82 47 81 48 37 50 69 51 49 52 68 53 50 54 53 55 67 56 86 57
REMARK SMILES IDX 51 58 52 59 66 61 87 62 54 63 38 64 39 65 47 66 40 67 42 68
REMARK SMILES IDX 48 69 41 70 43 71 44 72 45 73 46 74 70 75 71 76 79 77 72 78
REMARK SMILES IDX 74 79 80 80 73 81 75 82 76 83 77 84 78 85 55 86 56 87 64 88
REMARK SMILES IDX 57 89 59 90 65 91 58 92 60 93 61 94 62 95 63 96
REMARK H PARENT 22 5 12 18 26 30 85 49 53 60
REMARK Flexibility Score: inf
ROOT
ATOM      1  C   UNL A   1      32.019  29.058  24.141  1.00  0.00     0.117 C 
ENDROOT
BRANCH   1   2
ATOM      2  N   UNL A   1      31.411  27.776  24.423  1.00  0.00    -0.356 N 
ATOM      3  O   UNL A   1      29.902  27.850  22.686  1.00  0.00    -0.275 OA
ATOM      4  C   UNL A   1      30.402  27.259  23.638  1.00  0.00     0.220 C 
ATOM      5  H   UNL A   1      31.727  27.258  25.198  1.00  0.00     0.163 HD
BRANCH   4   6
ATOM      6  C   UNL A   1      29.964  25.859  24.025  1.00  0.00     0.105 C 
BRANCH   6   7
ATOM      7  C   UNL A   1      30.670  24.792  23.182  1.00  0.00     0.045 C 
BRANCH   7   8
ATOM      8  C   UNL A   1      32.092  24.509  23.613  1.00  0.00    -0.047 A 
ATOM      9  C   UNL A   1      33.107  24.286  22.672  1.00  0.00     0.005 A 
ATOM     10  C   UNL A   1      32.413  24.449  24.974  1.00  0.00     0.005 A 
ATOM     11  C   UNL A   1      34.369  23.847  23.082  1.00  0.00     0.022 A 
ATOM     12  C   UNL A   1      33.699  24.096  25.386  1.00  0.00     0.022 A 
ATOM     13  C   UNL A   1      34.649  23.702  24.446  1.00  0.00     0.087 A 
BRANCH  13  14
ATOM     14  S   UNL A   1      36.251  23.092  24.944  1.00  0.00     0.261 S 
ATOM     15  O   UNL A   1      37.034  22.987  23.731  1.00  0.00    -0.201 OA
ATOM     16  O   UNL A   1      36.685  23.934  26.042  1.00  0.00    -0.201 OA
BRANCH  14  17
ATOM     17  N   UNL A   1      36.113  21.510  25.485  1.00  0.00    -0.280 N 
ATOM     18  H   UNL A   1      36.909  21.100  25.894  1.00  0.00     0.180 HD
BRANCH  17  19
ATOM     19  C   UNL A   1      34.944  20.716  25.400  1.00  0.00     0.050 A 
ATOM     20  C   UNL A   1      33.817  20.998  26.163  1.00  0.00     0.027 A 
ATOM     21  C   UNL A   1      34.987  19.557  24.622  1.00  0.00     0.041 A 
ATOM     22  C   UNL A   1      32.740  20.104  26.156  1.00  0.00     0.003 A 
ATOM     23  C   UNL A   1      33.920  18.666  24.621  1.00  0.00     0.015 A 
ATOM     24  C   UNL A   1      32.793  18.935  25.389  1.00  0.00     0.015 A 
ATOM     25  I   UNL A   1      34.021  16.925  23.498  1.00  0.00    -0.044 I 
ENDBRANCH  17  19
ENDBRANCH  14  17
ENDBRANCH  13  14
ENDBRANCH   7   8
ENDBRANCH   6   7
ENDBRANCH   4   6
ENDBRANCH   1   2
BRANCH   1  26
ATOM     26  C   UNL A   1      31.486  30.190  25.015  1.00  0.00     0.042 C 
BRANCH  26  27
ATOM     27  C   UNL A   1      32.131  30.297  26.394  1.00  0.00     0.118 C 
BRANCH  27  28
ATOM     28  N   UNL A   1      32.132  31.648  26.936  1.00  0.00    -0.352 N 
ATOM     29  C   UNL A   1      33.172  32.390  27.441  1.00  0.00     0.251 C 
ATOM     30  H   UNL A   1      31.256  32.097  26.942  1.00  0.00     0.163 HD
ATOM     31  O   UNL A   1      33.022  33.592  27.647  1.00  0.00    -0.269 OA
BRANCH  29  32
ATOM     32  C   UNL A   1      34.432  31.738  27.835  1.00  0.00     0.039 A 
ATOM     33  C   UNL A   1      35.550  32.562  28.001  1.00  0.00     0.014 A 
ATOM     34  C   UNL A   1      34.504  30.378  28.127  1.00  0.00     0.014 A 
ATOM     35  C   UNL A   1      36.714  32.040  28.558  1.00  0.00     0.010 A 
ATOM     36  C   UNL A   1      35.637  29.879  28.763  1.00  0.00     0.010 A 
ATOM     37  C   UNL A   1      36.745  30.708  28.999  1.00  0.00    -0.014 A 
BRANCH  37  38
ATOM     38  C   UNL A   1      37.917  30.192  29.747  1.00  0.00     0.031 A 
ATOM     39  C   UNL A   1      38.183  30.655  31.150  1.00  0.00     0.074 A 
ATOM     40  C   UNL A   1      38.775  29.355  29.129  1.00  0.00     0.049 A 
ATOM     41  N   UNL A   1      39.164  30.329  31.949  1.00  0.00    -0.248 NA
ATOM     42  C   UNL A   1      37.241  31.629  31.722  1.00  0.00     0.031 C 
ATOM     43  C   UNL A   1      38.660  28.897  27.742  1.00  0.00     0.029 A 
ATOM     44  N   UNL A   1      39.923  28.753  29.580  1.00  0.00    -0.354 N 
ATOM     45  C   UNL A   1      38.977  31.077  33.103  1.00  0.00     0.074 A 
ATOM     46  C   UNL A   1      37.809  31.903  32.887  1.00  0.00     0.031 C 
ATOM     47  C   UNL A   1      39.686  28.079  27.460  1.00  0.00     0.029 A 
ATOM     48  C   UNL A   1      40.550  27.979  28.631  1.00  0.00     0.049 A 
ATOM     49  H   UNL A   1      40.265  28.865  30.496  1.00  0.00     0.167 HD
ATOM     50  C   UNL A   1      39.696  31.059  34.251  1.00  0.00     0.034 A 
ATOM     51  C   UNL A   1      41.698  27.275  28.694  1.00  0.00     0.034 A 
ATOM     52  C   UNL A   1      40.840  30.215  34.466  1.00  0.00     0.049 A 
ATOM     53  C   UNL A   1      42.461  27.251  29.990  1.00  0.00     0.074 A 
ATOM     54  C   UNL A   1      41.591  30.062  35.617  1.00  0.00     0.029 A 
ATOM     55  N   UNL A   1      41.407  29.390  33.505  1.00  0.00    -0.354 N 
ATOM     56  N   UNL A   1      42.181  27.846  31.124  1.00  0.00    -0.248 NA
ATOM     57  C   UNL A   1      43.679  26.429  30.029  1.00  0.00     0.031 C 
ATOM     58  C   UNL A   1      42.635  29.172  35.342  1.00  0.00     0.029 A 
ATOM     59  C   UNL A   1      42.508  28.737  34.033  1.00  0.00     0.049 A 
ATOM     60  H   UNL A   1      41.076  29.285  32.584  1.00  0.00     0.167 HD
ATOM     61  C   UNL A   1      43.163  27.443  32.021  1.00  0.00     0.074 A 
ATOM     62  C   UNL A   1      44.033  26.535  31.302  1.00  0.00     0.031 C 
ATOM     63  C   UNL A   1      43.336  27.800  33.317  1.00  0.00     0.034 A 
BRANCH  50  64
ATOM     64  C   UNL A   1      39.242  31.955  35.373  1.00  0.00     0.023 A 
ATOM     65  C   UNL A   1      39.510  33.339  35.316  1.00  0.00     0.012 A 
ATOM     66  C   UNL A   1      38.509  31.438  36.459  1.00  0.00     0.148 A 
ATOM     67  C   UNL A   1      39.092  34.187  36.340  1.00  0.00     0.002 A 
ATOM     68  C   UNL A   1      38.052  32.298  37.451  1.00  0.00     0.091 A 
ATOM     69  F   UNL A   1      38.281  30.118  36.507  1.00  0.00    -0.205 F 
ATOM     70  C   UNL A   1      38.354  33.669  37.401  1.00  0.00     0.022 A 
BRANCH  68  71
ATOM     71  S   UNL A   1      37.024  31.745  38.815  1.00  0.00     0.127 S 
ATOM     72  O   UNL A   1      37.919  31.936  39.956  1.00  0.00    -0.237 OA
ATOM     73  O   UNL A   1      35.903  32.683  38.756  1.00  0.00    -0.237 OA
ATOM     74  O   UNL A   1      36.675  30.361  38.523  1.00  0.00    -0.744 OA
ENDBRANCH  68  71
ENDBRANCH  50  64
BRANCH  51  75
ATOM     75  C   UNL A   1      42.164  26.492  27.514  1.00  0.00     0.023 A 
ATOM     76  C   UNL A   1      42.879  27.140  26.487  1.00  0.00     0.012 A 
ATOM     77  C   UNL A   1      41.916  25.109  27.410  1.00  0.00     0.148 A 
ATOM     78  C   UNL A   1      43.308  26.433  25.363  1.00  0.00     0.002 A 
ATOM     79  C   UNL A   1      42.395  24.400  26.315  1.00  0.00     0.091 A 
ATOM     80  F   UNL A   1      41.226  24.513  28.393  1.00  0.00    -0.205 F 
ATOM     81  C   UNL A   1      43.075  25.063  25.281  1.00  0.00     0.022 A 
BRANCH  79  82
ATOM     82  S   UNL A   1      42.255  22.615  26.187  1.00  0.00     0.127 S 
ATOM     83  O   UNL A   1      42.881  22.175  27.431  1.00  0.00    -0.237 OA
ATOM     84  O   UNL A   1      40.805  22.430  26.127  1.00  0.00    -0.237 OA
ATOM     85  O   UNL A   1      42.958  22.251  24.964  1.00  0.00    -0.744 OA
ENDBRANCH  79  82
ENDBRANCH  51  75
BRANCH  63  86
ATOM     86  C   UNL A   1      44.486  27.176  34.064  1.00  0.00     0.023 A 
ATOM     87  C   UNL A   1      45.759  27.779  34.033  1.00  0.00     0.012 A 
ATOM     88  C   UNL A   1      44.283  26.027  34.854  1.00  0.00     0.148 A 
ATOM     89  C   UNL A   1      46.822  27.225  34.748  1.00  0.00     0.002 A 
ATOM     90  C   UNL A   1      45.332  25.515  35.606  1.00  0.00     0.091 A 
ATOM     91  F   UNL A   1      43.069  25.459  34.856  1.00  0.00    -0.205 F 
ATOM     92  C   UNL A   1      46.605  26.103  35.543  1.00  0.00     0.022 A 
BRANCH  90  93
ATOM     93  S   UNL A   1      45.122  24.135  36.737  1.00  0.00     0.127 S 
ATOM     94  O   UNL A   1      44.166  24.682  37.700  1.00  0.00    -0.237 OA
ATOM     95  O   UNL A   1      44.579  23.096  35.861  1.00  0.00    -0.237 OA
ATOM     96  O   UNL A   1      46.446  23.845  37.270  1.00  0.00    -0.744 OA
ENDBRANCH  90  93
ENDBRANCH  63  86
ENDBRANCH  37  38
ENDBRANCH  29  32
ENDBRANCH  27  28
ENDBRANCH  26  27
ENDBRANCH   1  26
TORSDOF 18
ENDMDL
