MODEL 1
REMARK VINA RESULT:     -11.7      0.000      0.000
REMARK SMILES C[C@H]1C[C@H](C)CN(S(=O)(=O)N[C@@H](CCC(N)=O)C(=O)NCCCNC(=O)c2ccc(-c3c4nc(c(-c5cccc(S(=O)(=O)[O-])c5F)c5ccc([nH]5)c(-c5cccc(S(=O)(=O)[O-])c5F)c5nc(c(-c6cccc(S(=O)(=O)[O-])c6F)c6ccc3[nH]6)C=C5)C=C4)cc2)C1
REMARK SMILES IDX 22 1 21 2 20 3 18 4 19 5 12 7 11 8 8 10 9 11 10 12 7 13 1 14
REMARK SMILES IDX 2 15 3 16 90 17 4 18 5 19 6 20 13 21 14 22 15 23 16 24 17 25
REMARK SMILES IDX 23 28 24 29 25 30 26 32 27 33 28 34 89 35 29 36 88 37 30 38
REMARK SMILES IDX 31 39 32 40 82 41 33 42 87 43 81 44 83 45 34 46 86 47 80 48
REMARK SMILES IDX 79 49 35 51 67 52 47 53 66 54 48 55 51 56 65 57 84 58 49 59
REMARK SMILES IDX 50 60 64 62 85 63 52 64 36 65 37 66 45 67 38 68 40 69 46 70
REMARK SMILES IDX 39 71 41 72 42 73 43 74 44 75 68 76 69 77 77 78 70 79 72 80
REMARK SMILES IDX 78 81 71 82 73 83 74 84 75 85 76 86 53 87 54 88 62 89 55 90
REMARK SMILES IDX 57 91 63 92 56 93 58 94 59 95 60 96 61 97
REMARK H PARENT 20 6 11 9 16 26 16 27 24 31 83 50 51 61
REMARK Flexibility Score: inf
ROOT
ATOM      1  C   UNL A   1      33.942  28.689  25.890  1.00  0.00     0.042 C 
ENDROOT
BRANCH   1   2
ATOM      2  C   UNL A   1      32.943  28.996  24.798  1.00  0.00     0.117 C 
BRANCH   2   3
ATOM      3  N   UNL A   1      31.737  28.199  24.904  1.00  0.00    -0.355 N 
ATOM      4  C   UNL A   1      30.853  27.813  23.951  1.00  0.00     0.238 C 
ATOM      5  O   UNL A   1      29.918  27.085  24.301  1.00  0.00    -0.273 OA
ATOM      6  H   UNL A   1      31.526  27.888  25.814  1.00  0.00     0.163 HD
BRANCH   4   7
ATOM      7  C   UNL A   1      30.957  28.306  22.508  1.00  0.00     0.160 C 
BRANCH   7   8
ATOM      8  N   UNL A   1      31.401  27.202  21.634  1.00  0.00    -0.190 NA
ATOM      9  H   UNL A   1      30.726  26.456  21.800  1.00  0.00     0.143 HD
BRANCH   8  10
ATOM     10  S   UNL A   1      32.861  26.443  21.610  1.00  0.00     0.280 S 
ATOM     11  O   UNL A   1      33.915  27.417  21.779  1.00  0.00    -0.195 OA
ATOM     12  O   UNL A   1      32.831  25.589  20.451  1.00  0.00    -0.195 OA
BRANCH  10  13
ATOM     13  N   UNL A   1      32.858  25.410  22.973  1.00  0.00    -0.188 NA
ATOM     14  C   UNL A   1      32.465  21.566  23.197  1.00  0.00     0.009 C 
ATOM     15  C   UNL A   1      32.540  23.010  23.695  1.00  0.00     0.001 C 
ATOM     16  C   UNL A   1      33.724  23.156  24.654  1.00  0.00     0.009 C 
ATOM     17  C   UNL A   1      32.658  23.987  22.518  1.00  0.00     0.106 C 
ATOM     18  C   UNL A   1      33.903  24.598  25.105  1.00  0.00     0.001 C 
ATOM     19  C   UNL A   1      32.801  25.055  26.068  1.00  0.00     0.009 C 
ATOM     20  C   UNL A   1      34.016  25.517  23.889  1.00  0.00     0.106 C 
ENDBRANCH  10  13
ENDBRANCH   8  10
ENDBRANCH   7   8
BRANCH   7  21
ATOM     21  C   UNL A   1      29.813  29.202  22.012  1.00  0.00     0.040 C 
BRANCH  21  22
ATOM     22  C   UNL A   1      29.250  30.285  22.930  1.00  0.00     0.102 C 
BRANCH  22  23
ATOM     23  C   UNL A   1      27.758  30.132  23.169  1.00  0.00     0.217 C 
ATOM     24  N   UNL A   1      27.223  28.947  22.765  1.00  0.00    -0.370 N 
ATOM     25  O   UNL A   1      27.047  30.994  23.670  1.00  0.00    -0.275 OA
ATOM     26  H   UNL A   1      27.799  28.258  22.363  1.00  0.00     0.159 HD
ATOM     27  H   UNL A   1      26.259  28.779  22.876  1.00  0.00     0.159 HD
ENDBRANCH  22  23
ENDBRANCH  21  22
ENDBRANCH   7  21
ENDBRANCH   4   7
ENDBRANCH   2   3
ENDBRANCH   1   2
BRANCH   1  28
ATOM     28  C   UNL A   1      33.435  29.041  27.278  1.00  0.00     0.118 C 
BRANCH  28  29
ATOM     29  N   UNL A   1      33.631  30.447  27.633  1.00  0.00    -0.352 N 
ATOM     30  C   UNL A   1      34.720  31.043  28.231  1.00  0.00     0.251 C 
ATOM     31  H   UNL A   1      32.885  31.050  27.413  1.00  0.00     0.163 HD
ATOM     32  O   UNL A   1      34.669  32.209  28.606  1.00  0.00    -0.269 OA
BRANCH  30  33
ATOM     33  C   UNL A   1      35.931  30.227  28.443  1.00  0.00     0.039 A 
ATOM     34  C   UNL A   1      36.982  30.296  27.529  1.00  0.00     0.014 A 
ATOM     35  C   UNL A   1      36.065  29.502  29.629  1.00  0.00     0.014 A 
ATOM     36  C   UNL A   1      38.212  29.723  27.861  1.00  0.00     0.010 A 
ATOM     37  C   UNL A   1      37.321  29.062  30.013  1.00  0.00     0.010 A 
ATOM     38  C   UNL A   1      38.410  29.157  29.132  1.00  0.00    -0.014 A 
BRANCH  38  39
ATOM     39  C   UNL A   1      39.731  28.641  29.575  1.00  0.00     0.031 A 
ATOM     40  C   UNL A   1      40.473  29.358  30.674  1.00  0.00     0.074 A 
ATOM     41  C   UNL A   1      40.312  27.612  28.925  1.00  0.00     0.049 A 
ATOM     42  N   UNL A   1      41.687  29.158  31.116  1.00  0.00    -0.248 NA
ATOM     43  C   UNL A   1      39.777  30.478  31.332  1.00  0.00     0.031 C 
ATOM     44  C   UNL A   1      39.736  26.884  27.790  1.00  0.00     0.029 A 
ATOM     45  N   UNL A   1      41.536  27.015  29.107  1.00  0.00    -0.354 N 
ATOM     46  C   UNL A   1      41.911  30.151  32.063  1.00  0.00     0.074 A 
ATOM     47  C   UNL A   1      40.732  30.985  32.094  1.00  0.00     0.031 C 
ATOM     48  C   UNL A   1      40.597  25.932  27.390  1.00  0.00     0.029 A 
ATOM     49  C   UNL A   1      41.803  26.008  28.206  1.00  0.00     0.049 A 
ATOM     50  H   UNL A   1      42.164  27.283  29.816  1.00  0.00     0.167 HD
ATOM     51  C   UNL A   1      42.983  30.332  32.868  1.00  0.00     0.034 A 
ATOM     52  C   UNL A   1      42.902  25.243  28.048  1.00  0.00     0.034 A 
ATOM     53  C   UNL A   1      44.128  29.466  32.877  1.00  0.00     0.049 A 
ATOM     54  C   UNL A   1      44.069  25.444  28.979  1.00  0.00     0.074 A 
ATOM     55  C   UNL A   1      45.230  29.509  33.713  1.00  0.00     0.029 A 
ATOM     56  N   UNL A   1      44.320  28.400  32.013  1.00  0.00    -0.354 N 
ATOM     57  N   UNL A   1      44.201  26.298  29.965  1.00  0.00    -0.248 NA
ATOM     58  C   UNL A   1      45.226  24.554  28.798  1.00  0.00     0.031 C 
ATOM     59  C   UNL A   1      46.101  28.484  33.333  1.00  0.00     0.029 A 
ATOM     60  C   UNL A   1      45.523  27.780  32.290  1.00  0.00     0.049 A 
ATOM     61  H   UNL A   1      43.691  28.126  31.306  1.00  0.00     0.167 HD
ATOM     62  C   UNL A   1      45.431  26.017  30.550  1.00  0.00     0.074 A 
ATOM     63  C   UNL A   1      45.998  24.905  29.817  1.00  0.00     0.031 C 
ATOM     64  C   UNL A   1      46.041  26.632  31.593  1.00  0.00     0.034 A 
BRANCH  51  65
ATOM     65  C   UNL A   1      42.942  31.476  33.846  1.00  0.00     0.023 A 
ATOM     66  C   UNL A   1      43.547  32.704  33.508  1.00  0.00     0.012 A 
ATOM     67  C   UNL A   1      42.259  31.356  35.072  1.00  0.00     0.148 A 
ATOM     68  C   UNL A   1      43.506  33.784  34.389  1.00  0.00     0.002 A 
ATOM     69  C   UNL A   1      42.178  32.452  35.923  1.00  0.00     0.091 A 
ATOM     70  F   UNL A   1      41.709  30.174  35.384  1.00  0.00    -0.205 F 
ATOM     71  C   UNL A   1      42.812  33.661  35.590  1.00  0.00     0.022 A 
BRANCH  69  72
ATOM     72  S   UNL A   1      41.237  32.427  37.452  1.00  0.00     0.127 S 
ATOM     73  O   UNL A   1      42.068  31.566  38.294  1.00  0.00    -0.237 OA
ATOM     74  O   UNL A   1      41.239  33.839  37.833  1.00  0.00    -0.237 OA
ATOM     75  O   UNL A   1      39.928  31.886  37.112  1.00  0.00    -0.744 OA
ENDBRANCH  69  72
ENDBRANCH  51  65
BRANCH  52  76
ATOM     76  C   UNL A   1      42.938  24.176  27.006  1.00  0.00     0.023 A 
ATOM     77  C   UNL A   1      43.623  24.413  25.797  1.00  0.00     0.012 A 
ATOM     78  C   UNL A   1      42.296  22.937  27.197  1.00  0.00     0.148 A 
ATOM     79  C   UNL A   1      43.631  23.456  24.782  1.00  0.00     0.002 A 
ATOM     80  C   UNL A   1      42.356  21.966  26.203  1.00  0.00     0.091 A 
ATOM     81  F   UNL A   1      41.643  22.733  28.348  1.00  0.00    -0.205 F 
ATOM     82  C   UNL A   1      43.005  22.231  24.987  1.00  0.00     0.022 A 
BRANCH  80  83
ATOM     83  S   UNL A   1      41.685  20.315  26.428  1.00  0.00     0.127 S 
ATOM     84  O   UNL A   1      42.312  19.586  25.329  1.00  0.00    -0.237 OA
ATOM     85  O   UNL A   1      42.181  19.969  27.760  1.00  0.00    -0.237 OA
ATOM     86  O   UNL A   1      40.239  20.466  26.344  1.00  0.00    -0.744 OA
ENDBRANCH  80  83
ENDBRANCH  52  76
BRANCH  64  87
ATOM     87  C   UNL A   1      47.362  26.081  32.060  1.00  0.00     0.023 A 
ATOM     88  C   UNL A   1      48.563  26.542  31.487  1.00  0.00     0.012 A 
ATOM     89  C   UNL A   1      47.410  25.178  33.140  1.00  0.00     0.148 A 
ATOM     90  C   UNL A   1      49.792  26.089  31.964  1.00  0.00     0.002 A 
ATOM     91  C   UNL A   1      48.638  24.772  33.644  1.00  0.00     0.091 A 
ATOM     92  F   UNL A   1      46.253  24.741  33.659  1.00  0.00    -0.205 F 
ATOM     93  C   UNL A   1      49.830  25.217  33.050  1.00  0.00     0.022 A 
BRANCH  91  94
ATOM     94  S   UNL A   1      48.786  23.735  35.104  1.00  0.00     0.127 S 
ATOM     95  O   UNL A   1      47.880  22.635  34.779  1.00  0.00    -0.237 OA
ATOM     96  O   UNL A   1      50.205  23.383  35.088  1.00  0.00    -0.237 OA
ATOM     97  O   UNL A   1      48.379  24.563  36.231  1.00  0.00    -0.744 OA
ENDBRANCH  91  94
ENDBRANCH  64  87
ENDBRANCH  38  39
ENDBRANCH  30  33
ENDBRANCH  28  29
ENDBRANCH   1  28
TORSDOF 19
ENDMDL
MODEL 2
REMARK VINA RESULT:     -11.5      2.478      8.022
REMARK SMILES C[C@H]1C[C@H](C)CN(S(=O)(=O)N[C@@H](CCC(N)=O)C(=O)NCCCNC(=O)c2ccc(-c3c4nc(c(-c5cccc(S(=O)(=O)[O-])c5F)c5ccc([nH]5)c(-c5cccc(S(=O)(=O)[O-])c5F)c5nc(c(-c6cccc(S(=O)(=O)[O-])c6F)c6ccc3[nH]6)C=C5)C=C4)cc2)C1
REMARK SMILES IDX 22 1 21 2 20 3 18 4 19 5 12 7 11 8 8 10 9 11 10 12 7 13 1 14
REMARK SMILES IDX 2 15 3 16 90 17 4 18 5 19 6 20 13 21 14 22 15 23 16 24 17 25
REMARK SMILES IDX 23 28 24 29 25 30 26 32 27 33 28 34 89 35 29 36 88 37 30 38
REMARK SMILES IDX 31 39 32 40 82 41 33 42 87 43 81 44 83 45 34 46 86 47 80 48
REMARK SMILES IDX 79 49 35 51 67 52 47 53 66 54 48 55 51 56 65 57 84 58 49 59
REMARK SMILES IDX 50 60 64 62 85 63 52 64 36 65 37 66 45 67 38 68 40 69 46 70
REMARK SMILES IDX 39 71 41 72 42 73 43 74 44 75 68 76 69 77 77 78 70 79 72 80
REMARK SMILES IDX 78 81 71 82 73 83 74 84 75 85 76 86 53 87 54 88 62 89 55 90
REMARK SMILES IDX 57 91 63 92 56 93 58 94 59 95 60 96 61 97
REMARK H PARENT 20 6 11 9 16 26 16 27 24 31 83 50 51 61
REMARK Flexibility Score: inf
ROOT
ATOM      1  C   UNL A   1      32.165  30.231  25.402  1.00  0.00     0.042 C 
ENDROOT
BRANCH   1   2
ATOM      2  C   UNL A   1      32.732  28.841  25.223  1.00  0.00     0.117 C 
BRANCH   2   3
ATOM      3  N   UNL A   1      31.741  27.803  25.425  1.00  0.00    -0.355 N 
ATOM      4  C   UNL A   1      30.928  27.179  24.537  1.00  0.00     0.238 C 
ATOM      5  O   UNL A   1      30.195  26.283  24.966  1.00  0.00    -0.273 OA
ATOM      6  H   UNL A   1      31.643  27.503  26.358  1.00  0.00     0.163 HD
BRANCH   4   7
ATOM      7  C   UNL A   1      30.859  27.605  23.071  1.00  0.00     0.160 C 
BRANCH   7   8
ATOM      8  N   UNL A   1      31.443  26.551  22.217  1.00  0.00    -0.190 NA
ATOM      9  H   UNL A   1      30.959  25.698  22.496  1.00  0.00     0.143 HD
BRANCH   8  10
ATOM     10  S   UNL A   1      33.022  26.106  22.080  1.00  0.00     0.280 S 
ATOM     11  O   UNL A   1      33.869  27.191  22.521  1.00  0.00    -0.195 OA
ATOM     12  O   UNL A   1      33.154  25.567  20.751  1.00  0.00    -0.195 OA
BRANCH  10  13
ATOM     13  N   UNL A   1      33.219  24.794  23.158  1.00  0.00    -0.188 NA
ATOM     14  C   UNL A   1      32.161  21.088  22.808  1.00  0.00     0.009 C 
ATOM     15  C   UNL A   1      32.664  22.354  23.503  1.00  0.00     0.001 C 
ATOM     16  C   UNL A   1      34.083  22.118  24.025  1.00  0.00     0.009 C 
ATOM     17  C   UNL A   1      32.618  23.554  22.549  1.00  0.00     0.106 C 
ATOM     18  C   UNL A   1      34.668  23.380  24.641  1.00  0.00     0.001 C 
ATOM     19  C   UNL A   1      34.014  23.739  25.980  1.00  0.00     0.009 C 
ATOM     20  C   UNL A   1      34.594  24.535  23.642  1.00  0.00     0.106 C 
ENDBRANCH  10  13
ENDBRANCH   8  10
ENDBRANCH   7   8
BRANCH   7  21
ATOM     21  C   UNL A   1      29.547  28.258  22.613  1.00  0.00     0.040 C 
BRANCH  21  22
ATOM     22  C   UNL A   1      29.158  29.632  23.155  1.00  0.00     0.102 C 
BRANCH  22  23
ATOM     23  C   UNL A   1      27.654  29.843  23.189  1.00  0.00     0.217 C 
ATOM     24  N   UNL A   1      26.910  28.794  22.743  1.00  0.00    -0.370 N 
ATOM     25  O   UNL A   1      27.111  30.874  23.564  1.00  0.00    -0.275 OA
ATOM     26  H   UNL A   1      27.353  27.968  22.443  1.00  0.00     0.159 HD
ATOM     27  H   UNL A   1      25.928  28.861  22.723  1.00  0.00     0.159 HD
ENDBRANCH  22  23
ENDBRANCH  21  22
ENDBRANCH   7  21
ENDBRANCH   4   7
ENDBRANCH   2   3
ENDBRANCH   1   2
BRANCH   1  28
ATOM     28  C   UNL A   1      32.091  30.660  26.858  1.00  0.00     0.118 C 
BRANCH  28  29
ATOM     29  N   UNL A   1      31.967  32.108  27.034  1.00  0.00    -0.352 N 
ATOM     30  C   UNL A   1      32.858  32.987  27.609  1.00  0.00     0.251 C 
ATOM     31  H   UNL A   1      31.135  32.508  26.695  1.00  0.00     0.163 HD
ATOM     32  O   UNL A   1      32.540  34.152  27.823  1.00  0.00    -0.269 OA
BRANCH  30  33
ATOM     33  C   UNL A   1      34.188  32.478  27.995  1.00  0.00     0.039 A 
ATOM     34  C   UNL A   1      35.282  33.343  28.017  1.00  0.00     0.014 A 
ATOM     35  C   UNL A   1      34.307  31.169  28.466  1.00  0.00     0.014 A 
ATOM     36  C   UNL A   1      36.472  32.923  28.617  1.00  0.00     0.010 A 
ATOM     37  C   UNL A   1      35.436  30.809  29.183  1.00  0.00     0.010 A 
ATOM     38  C   UNL A   1      36.537  31.676  29.261  1.00  0.00    -0.014 A 
BRANCH  38  39
ATOM     39  C   UNL A   1      37.739  31.232  30.014  1.00  0.00     0.031 A 
ATOM     40  C   UNL A   1      38.655  30.202  29.405  1.00  0.00     0.074 A 
ATOM     41  C   UNL A   1      37.947  31.661  31.276  1.00  0.00     0.049 A 
ATOM     42  N   UNL A   1      39.674  29.583  29.941  1.00  0.00    -0.248 NA
ATOM     43  C   UNL A   1      38.358  29.776  28.025  1.00  0.00     0.031 C 
ATOM     44  C   UNL A   1      37.090  32.595  32.013  1.00  0.00     0.029 A 
ATOM     45  N   UNL A   1      38.933  31.344  32.178  1.00  0.00    -0.354 N 
ATOM     46  C   UNL A   1      40.104  28.669  28.986  1.00  0.00     0.074 A 
ATOM     47  C   UNL A   1      39.206  28.773  27.859  1.00  0.00     0.031 C 
ATOM     48  C   UNL A   1      37.596  32.785  33.243  1.00  0.00     0.029 A 
ATOM     49  C   UNL A   1      38.786  31.956  33.403  1.00  0.00     0.049 A 
ATOM     50  H   UNL A   1      39.678  30.734  31.968  1.00  0.00     0.167 HD
ATOM     51  C   UNL A   1      41.176  27.844  29.021  1.00  0.00     0.034 A 
ATOM     52  C   UNL A   1      39.518  31.850  34.530  1.00  0.00     0.034 A 
ATOM     53  C   UNL A   1      42.102  27.786  30.117  1.00  0.00     0.049 A 
ATOM     54  C   UNL A   1      40.725  30.949  34.531  1.00  0.00     0.074 A 
ATOM     55  C   UNL A   1      43.268  27.048  30.217  1.00  0.00     0.029 A 
ATOM     56  N   UNL A   1      41.968  28.491  31.302  1.00  0.00    -0.354 N 
ATOM     57  N   UNL A   1      41.198  30.200  33.563  1.00  0.00    -0.248 NA
ATOM     58  C   UNL A   1      41.520  30.901  35.767  1.00  0.00     0.031 C 
ATOM     59  C   UNL A   1      43.825  27.288  31.476  1.00  0.00     0.029 A 
ATOM     60  C   UNL A   1      43.027  28.204  32.142  1.00  0.00     0.049 A 
ATOM     61  H   UNL A   1      41.228  29.106  31.514  1.00  0.00     0.167 HD
ATOM     62  C   UNL A   1      42.368  29.633  34.057  1.00  0.00     0.074 A 
ATOM     63  C   UNL A   1      42.539  30.135  35.404  1.00  0.00     0.031 C 
ATOM     64  C   UNL A   1      43.217  28.766  33.454  1.00  0.00     0.034 A 
BRANCH  51  65
ATOM     65  C   UNL A   1      41.439  26.982  27.815  1.00  0.00     0.023 A 
ATOM     66  C   UNL A   1      42.064  27.541  26.681  1.00  0.00     0.012 A 
ATOM     67  C   UNL A   1      41.120  25.611  27.822  1.00  0.00     0.148 A 
ATOM     68  C   UNL A   1      42.334  26.760  25.559  1.00  0.00     0.002 A 
ATOM     69  C   UNL A   1      41.438  24.826  26.720  1.00  0.00     0.091 A 
ATOM     70  F   UNL A   1      40.506  25.102  28.899  1.00  0.00    -0.205 F 
ATOM     71  C   UNL A   1      42.032  25.401  25.584  1.00  0.00     0.022 A 
BRANCH  69  72
ATOM     72  S   UNL A   1      41.171  23.051  26.682  1.00  0.00     0.127 S 
ATOM     73  O   UNL A   1      39.725  22.976  26.468  1.00  0.00    -0.237 OA
ATOM     74  O   UNL A   1      41.979  22.646  25.532  1.00  0.00    -0.237 OA
ATOM     75  O   UNL A   1      41.635  22.545  27.965  1.00  0.00    -0.744 OA
ENDBRANCH  69  72
ENDBRANCH  51  65
BRANCH  52  76
ATOM     76  C   UNL A   1      39.172  32.656  35.736  1.00  0.00     0.023 A 
ATOM     77  C   UNL A   1      39.661  33.972  35.852  1.00  0.00     0.012 A 
ATOM     78  C   UNL A   1      38.374  32.129  36.770  1.00  0.00     0.148 A 
ATOM     79  C   UNL A   1      39.399  34.734  36.991  1.00  0.00     0.002 A 
ATOM     80  C   UNL A   1      38.069  32.914  37.877  1.00  0.00     0.091 A 
ATOM     81  F   UNL A   1      37.925  30.873  36.648  1.00  0.00    -0.205 F 
ATOM     82  C   UNL A   1      38.598  34.208  38.000  1.00  0.00     0.022 A 
BRANCH  80  83
ATOM     83  S   UNL A   1      36.945  32.366  39.167  1.00  0.00     0.127 S 
ATOM     84  O   UNL A   1      37.323  30.963  39.316  1.00  0.00    -0.237 OA
ATOM     85  O   UNL A   1      37.326  33.230  40.284  1.00  0.00    -0.237 OA
ATOM     86  O   UNL A   1      35.606  32.609  38.648  1.00  0.00    -0.744 OA
ENDBRANCH  80  83
ENDBRANCH  52  76
BRANCH  64  87
ATOM     87  C   UNL A   1      44.451  28.349  34.208  1.00  0.00     0.023 A 
ATOM     88  C   UNL A   1      45.633  29.108  34.105  1.00  0.00     0.012 A 
ATOM     89  C   UNL A   1      44.403  27.257  35.097  1.00  0.00     0.148 A 
ATOM     90  C   UNL A   1      46.758  28.768  34.855  1.00  0.00     0.002 A 
ATOM     91  C   UNL A   1      45.509  26.958  35.880  1.00  0.00     0.091 A 
ATOM     92  F   UNL A   1      43.272  26.540  35.167  1.00  0.00    -0.205 F 
ATOM     93  C   UNL A   1      46.692  27.704  35.752  1.00  0.00     0.022 A 
BRANCH  91  94
ATOM     94  S   UNL A   1      45.482  25.673  37.136  1.00  0.00     0.127 S 
ATOM     95  O   UNL A   1      46.838  25.758  37.677  1.00  0.00    -0.237 OA
ATOM     96  O   UNL A   1      44.434  26.147  38.039  1.00  0.00    -0.237 OA
ATOM     97  O   UNL A   1      45.168  24.433  36.440  1.00  0.00    -0.744 OA
ENDBRANCH  91  94
ENDBRANCH  64  87
ENDBRANCH  38  39
ENDBRANCH  30  33
ENDBRANCH  28  29
ENDBRANCH   1  28
TORSDOF 19
ENDMDL
MODEL 3
REMARK VINA RESULT:     -11.3      4.800      9.750
REMARK SMILES C[C@H]1C[C@H](C)CN(S(=O)(=O)N[C@@H](CCC(N)=O)C(=O)NCCCNC(=O)c2ccc(-c3c4nc(c(-c5cccc(S(=O)(=O)[O-])c5F)c5ccc([nH]5)c(-c5cccc(S(=O)(=O)[O-])c5F)c5nc(c(-c6cccc(S(=O)(=O)[O-])c6F)c6ccc3[nH]6)C=C5)C=C4)cc2)C1
REMARK SMILES IDX 22 1 21 2 20 3 18 4 19 5 12 7 11 8 8 10 9 11 10 12 7 13 1 14
REMARK SMILES IDX 2 15 3 16 90 17 4 18 5 19 6 20 13 21 14 22 15 23 16 24 17 25
REMARK SMILES IDX 23 28 24 29 25 30 26 32 27 33 28 34 89 35 29 36 88 37 30 38
REMARK SMILES IDX 31 39 32 40 82 41 33 42 87 43 81 44 83 45 34 46 86 47 80 48
REMARK SMILES IDX 79 49 35 51 67 52 47 53 66 54 48 55 51 56 65 57 84 58 49 59
REMARK SMILES IDX 50 60 64 62 85 63 52 64 36 65 37 66 45 67 38 68 40 69 46 70
REMARK SMILES IDX 39 71 41 72 42 73 43 74 44 75 68 76 69 77 77 78 70 79 72 80
REMARK SMILES IDX 78 81 71 82 73 83 74 84 75 85 76 86 53 87 54 88 62 89 55 90
REMARK SMILES IDX 57 91 63 92 56 93 58 94 59 95 60 96 61 97
REMARK H PARENT 20 6 11 9 16 26 16 27 24 31 83 50 51 61
REMARK Flexibility Score: inf
ROOT
ATOM      1  C   UNL A   1      36.447  21.922  24.219  1.00  0.00     0.042 C 
ENDROOT
BRANCH   1   2
ATOM      2  C   UNL A   1      35.519  23.116  24.183  1.00  0.00     0.117 C 
BRANCH   2   3
ATOM      3  N   UNL A   1      34.540  23.030  23.118  1.00  0.00    -0.355 N 
ATOM      4  C   UNL A   1      33.306  22.468  23.103  1.00  0.00     0.238 C 
ATOM      5  O   UNL A   1      32.644  22.573  22.065  1.00  0.00    -0.273 OA
ATOM      6  H   UNL A   1      34.816  23.447  22.270  1.00  0.00     0.163 HD
BRANCH   4   7
ATOM      7  C   UNL A   1      32.768  21.671  24.291  1.00  0.00     0.160 C 
BRANCH   7   8
ATOM      8  N   UNL A   1      31.885  22.527  25.107  1.00  0.00    -0.190 NA
ATOM      9  H   UNL A   1      31.521  23.219  24.451  1.00  0.00     0.143 HD
BRANCH   8  10
ATOM     10  S   UNL A   1      32.262  23.393  26.455  1.00  0.00     0.280 S 
ATOM     11  O   UNL A   1      33.488  22.884  27.028  1.00  0.00    -0.195 OA
ATOM     12  O   UNL A   1      31.052  23.437  27.234  1.00  0.00    -0.195 OA
BRANCH  10  13
ATOM     13  N   UNL A   1      32.545  24.988  25.907  1.00  0.00    -0.188 NA
ATOM     14  C   UNL A   1      31.474  28.382  27.427  1.00  0.00     0.009 C 
ATOM     15  C   UNL A   1      32.024  27.415  26.378  1.00  0.00     0.001 C 
ATOM     16  C   UNL A   1      33.479  27.773  26.069  1.00  0.00     0.009 C 
ATOM     17  C   UNL A   1      31.902  25.963  26.859  1.00  0.00     0.106 C 
ATOM     18  C   UNL A   1      34.106  26.780  25.102  1.00  0.00     0.001 C 
ATOM     19  C   UNL A   1      33.554  26.917  23.678  1.00  0.00     0.009 C 
ATOM     20  C   UNL A   1      33.953  25.357  25.639  1.00  0.00     0.106 C 
ENDBRANCH  10  13
ENDBRANCH   8  10
ENDBRANCH   7   8
BRANCH   7  21
ATOM     21  C   UNL A   1      32.308  20.237  23.995  1.00  0.00     0.040 C 
BRANCH  21  22
ATOM     22  C   UNL A   1      33.232  19.065  24.324  1.00  0.00     0.102 C 
BRANCH  22  23
ATOM     23  C   UNL A   1      32.850  17.794  23.584  1.00  0.00     0.217 C 
ATOM     24  N   UNL A   1      32.783  16.672  24.352  1.00  0.00    -0.370 N 
ATOM     25  O   UNL A   1      32.629  17.737  22.382  1.00  0.00    -0.275 OA
ATOM     26  H   UNL A   1      32.962  16.725  25.318  1.00  0.00     0.159 HD
ATOM     27  H   UNL A   1      32.554  15.807  23.940  1.00  0.00     0.159 HD
ENDBRANCH  22  23
ENDBRANCH  21  22
ENDBRANCH   7  21
ENDBRANCH   4   7
ENDBRANCH   2   3
ENDBRANCH   1   2
BRANCH   1  28
ATOM     28  C   UNL A   1      36.888  21.554  25.626  1.00  0.00     0.118 C 
BRANCH  28  29
ATOM     29  N   UNL A   1      38.000  20.603  25.659  1.00  0.00    -0.352 N 
ATOM     30  C   UNL A   1      39.304  20.813  26.048  1.00  0.00     0.251 C 
ATOM     31  H   UNL A   1      37.787  19.689  25.364  1.00  0.00     0.163 HD
ATOM     32  O   UNL A   1      40.158  19.952  25.870  1.00  0.00    -0.269 OA
BRANCH  30  33
ATOM     33  C   UNL A   1      39.651  22.117  26.648  1.00  0.00     0.039 A 
ATOM     34  C   UNL A   1      40.653  22.190  27.616  1.00  0.00     0.014 A 
ATOM     35  C   UNL A   1      39.067  23.278  26.138  1.00  0.00     0.014 A 
ATOM     36  C   UNL A   1      41.145  23.442  27.993  1.00  0.00     0.010 A 
ATOM     37  C   UNL A   1      39.654  24.503  26.408  1.00  0.00     0.010 A 
ATOM     38  C   UNL A   1      40.693  24.605  27.345  1.00  0.00    -0.014 A 
BRANCH  38  39
ATOM     39  C   UNL A   1      41.270  25.946  27.626  1.00  0.00     0.031 A 
ATOM     40  C   UNL A   1      42.692  26.238  27.221  1.00  0.00     0.074 A 
ATOM     41  C   UNL A   1      40.568  26.852  28.338  1.00  0.00     0.049 A 
ATOM     42  N   UNL A   1      43.427  27.286  27.488  1.00  0.00    -0.248 NA
ATOM     43  C   UNL A   1      43.397  25.196  26.453  1.00  0.00     0.031 C 
ATOM     44  C   UNL A   1      39.212  26.661  28.862  1.00  0.00     0.029 A 
ATOM     45  N   UNL A   1      40.911  28.109  28.771  1.00  0.00    -0.354 N 
ATOM     46  C   UNL A   1      44.685  27.007  26.965  1.00  0.00     0.074 A 
ATOM     47  C   UNL A   1      44.631  25.673  26.413  1.00  0.00     0.031 C 
ATOM     48  C   UNL A   1      38.836  27.765  29.529  1.00  0.00     0.029 A 
ATOM     49  C   UNL A   1      39.934  28.725  29.522  1.00  0.00     0.049 A 
ATOM     50  H   UNL A   1      41.776  28.532  28.564  1.00  0.00     0.167 HD
ATOM     51  C   UNL A   1      45.777  27.803  26.908  1.00  0.00     0.034 A 
ATOM     52  C   UNL A   1      39.931  29.920  30.145  1.00  0.00     0.034 A 
ATOM     53  C   UNL A   1      45.809  29.150  27.404  1.00  0.00     0.049 A 
ATOM     54  C   UNL A   1      41.149  30.800  30.038  1.00  0.00     0.074 A 
ATOM     55  C   UNL A   1      46.837  30.071  27.318  1.00  0.00     0.029 A 
ATOM     56  N   UNL A   1      44.768  29.769  28.075  1.00  0.00    -0.354 N 
ATOM     57  N   UNL A   1      42.279  30.572  29.413  1.00  0.00    -0.248 NA
ATOM     58  C   UNL A   1      41.081  32.114  30.694  1.00  0.00     0.031 C 
ATOM     59  C   UNL A   1      46.426  31.239  27.964  1.00  0.00     0.029 A 
ATOM     60  C   UNL A   1      45.128  31.059  28.415  1.00  0.00     0.049 A 
ATOM     61  H   UNL A   1      43.899  29.352  28.279  1.00  0.00     0.167 HD
ATOM     62  C   UNL A   1      43.035  31.731  29.559  1.00  0.00     0.074 A 
ATOM     63  C   UNL A   1      42.229  32.662  30.320  1.00  0.00     0.031 C 
ATOM     64  C   UNL A   1      44.288  31.995  29.114  1.00  0.00     0.034 A 
BRANCH  51  65
ATOM     65  C   UNL A   1      47.008  27.257  26.235  1.00  0.00     0.023 A 
ATOM     66  C   UNL A   1      47.212  27.488  24.858  1.00  0.00     0.012 A 
ATOM     67  C   UNL A   1      47.990  26.566  26.972  1.00  0.00     0.148 A 
ATOM     68  C   UNL A   1      48.352  27.009  24.217  1.00  0.00     0.002 A 
ATOM     69  C   UNL A   1      49.149  26.136  26.336  1.00  0.00     0.091 A 
ATOM     70  F   UNL A   1      47.769  26.337  28.274  1.00  0.00    -0.205 F 
ATOM     71  C   UNL A   1      49.325  26.344  24.958  1.00  0.00     0.022 A 
BRANCH  69  72
ATOM     72  S   UNL A   1      50.502  25.346  27.214  1.00  0.00     0.127 S 
ATOM     73  O   UNL A   1      50.907  26.404  28.140  1.00  0.00    -0.237 OA
ATOM     74  O   UNL A   1      49.833  24.207  27.843  1.00  0.00    -0.237 OA
ATOM     75  O   UNL A   1      51.489  24.994  26.203  1.00  0.00    -0.744 OA
ENDBRANCH  69  72
ENDBRANCH  51  65
BRANCH  52  76
ATOM     76  C   UNL A   1      38.720  30.389  30.879  1.00  0.00     0.023 A 
ATOM     77  C   UNL A   1      38.601  30.123  32.258  1.00  0.00     0.012 A 
ATOM     78  C   UNL A   1      37.685  31.085  30.225  1.00  0.00     0.148 A 
ATOM     79  C   UNL A   1      37.456  30.501  32.961  1.00  0.00     0.002 A 
ATOM     80  C   UNL A   1      36.573  31.509  30.944  1.00  0.00     0.091 A 
ATOM     81  F   UNL A   1      37.811  31.321  28.912  1.00  0.00    -0.205 F 
ATOM     82  C   UNL A   1      36.447  31.200  32.307  1.00  0.00     0.022 A 
BRANCH  80  83
ATOM     83  S   UNL A   1      35.282  32.522  30.214  1.00  0.00     0.127 S 
ATOM     84  O   UNL A   1      34.801  31.661  29.136  1.00  0.00    -0.237 OA
ATOM     85  O   UNL A   1      34.356  32.681  31.335  1.00  0.00    -0.237 OA
ATOM     86  O   UNL A   1      35.939  33.752  29.795  1.00  0.00    -0.744 OA
ENDBRANCH  80  83
ENDBRANCH  52  76
BRANCH  64  87
ATOM     87  C   UNL A   1      44.852  33.367  29.370  1.00  0.00     0.023 A 
ATOM     88  C   UNL A   1      45.550  33.634  30.564  1.00  0.00     0.012 A 
ATOM     89  C   UNL A   1      44.770  34.363  28.377  1.00  0.00     0.148 A 
ATOM     90  C   UNL A   1      46.136  34.881  30.776  1.00  0.00     0.002 A 
ATOM     91  C   UNL A   1      45.400  35.584  28.573  1.00  0.00     0.091 A 
ATOM     92  F   UNL A   1      44.086  34.092  27.256  1.00  0.00    -0.205 F 
ATOM     93  C   UNL A   1      46.073  35.850  29.776  1.00  0.00     0.022 A 
BRANCH  91  94
ATOM     94  S   UNL A   1      45.463  36.852  27.301  1.00  0.00     0.127 S 
ATOM     95  O   UNL A   1      46.021  36.111  26.171  1.00  0.00    -0.237 OA
ATOM     96  O   UNL A   1      44.053  37.214  27.158  1.00  0.00    -0.237 OA
ATOM     97  O   UNL A   1      46.311  37.912  27.828  1.00  0.00    -0.744 OA
ENDBRANCH  91  94
ENDBRANCH  64  87
ENDBRANCH  38  39
ENDBRANCH  30  33
ENDBRANCH  28  29
ENDBRANCH   1  28
TORSDOF 19
ENDMDL
