MODEL 1
REMARK VINA RESULT:     -12.0      0.000      0.000
REMARK SMILES CSc1ccc(-c2cc(C[C@H]3CCCC3=O)ccc2[C@@H](C)C(=O)NCCCNC(=O)c2ccc(-c3c4nc(c(-c5cccc(S(=O)(=O)[O-])c5F)c5ccc([nH]5)c(-c5cccc(S(=O)(=O)[O-])c5F)c5nc(c(-c6cccc(S(=O)(=O)[O-])c6F)c6ccc3[nH]6)C=C5)C=C4)cc2)cc1
REMARK SMILES IDX 26 1 25 2 24 3 22 4 23 5 20 7 21 8 19 9 7 10 8 11 9 12 18 13
REMARK SMILES IDX 17 14 6 15 3 16 4 17 95 18 5 19 94 20 2 21 1 22 10 23 11 24
REMARK SMILES IDX 12 25 15 26 13 27 14 28 16 29 27 30 28 31 29 32 30 34 31 35
REMARK SMILES IDX 32 36 93 37 33 38 92 39 34 40 35 41 36 42 86 43 37 44 91 45
REMARK SMILES IDX 85 46 87 47 38 48 90 49 84 50 83 51 39 53 71 54 51 55 70 56
REMARK SMILES IDX 52 57 55 58 69 59 88 60 53 61 54 62 68 64 89 65 56 66 40 67
REMARK SMILES IDX 41 68 49 69 42 70 44 71 50 72 43 73 45 74 46 75 47 76 48 77
REMARK SMILES IDX 72 78 73 79 81 80 74 81 76 82 82 83 75 84 77 85 78 86 79 87
REMARK SMILES IDX 80 88 57 89 58 90 66 91 59 92 61 93 67 94 60 95 62 96 63 97
REMARK SMILES IDX 64 98 65 99
REMARK H PARENT 24 6 28 33 87 52 55 63
REMARK Flexibility Score: inf
ROOT
ATOM      1  C   UNL A   1      33.059  28.008  26.461  1.00  0.00     0.042 C 
ENDROOT
BRANCH   1   2
ATOM      2  C   UNL A   1      33.302  26.592  25.941  1.00  0.00     0.117 C 
BRANCH   2   3
ATOM      3  N   UNL A   1      32.110  26.003  25.365  1.00  0.00    -0.356 N 
ATOM      4  C   UNL A   1      31.922  25.138  24.332  1.00  0.00     0.227 C 
ATOM      5  O   UNL A   1      30.742  24.871  24.066  1.00  0.00    -0.274 OA
ATOM      6  H   UNL A   1      31.276  26.282  25.808  1.00  0.00     0.163 HD
BRANCH   4   7
ATOM      7  C   UNL A   1      33.058  24.494  23.516  1.00  0.00     0.106 C 
ATOM      8  C   UNL A   1      33.373  25.180  22.188  1.00  0.00     0.023 C 
BRANCH   7   9
ATOM      9  C   UNL A   1      32.970  22.970  23.469  1.00  0.00    -0.028 A 
ATOM     10  C   UNL A   1      33.772  22.145  24.296  1.00  0.00    -0.014 A 
ATOM     11  C   UNL A   1      33.525  20.756  24.331  1.00  0.00     0.012 A 
ATOM     12  C   UNL A   1      32.587  20.152  23.486  1.00  0.00    -0.047 A 
ATOM     13  C   UNL A   1      32.063  22.340  22.600  1.00  0.00     0.005 A 
ATOM     14  C   UNL A   1      31.863  20.960  22.613  1.00  0.00     0.004 A 
BRANCH  10  15
ATOM     15  C   UNL A   1      35.013  22.626  24.923  1.00  0.00    -0.018 A 
ATOM     16  C   UNL A   1      37.501  23.511  25.951  1.00  0.00     0.007 A 
ATOM     17  C   UNL A   1      37.455  22.518  24.973  1.00  0.00     0.015 A 
ATOM     18  C   UNL A   1      36.293  24.061  26.406  1.00  0.00     0.015 A 
ATOM     19  C   UNL A   1      36.229  22.084  24.470  1.00  0.00     0.010 A 
ATOM     20  C   UNL A   1      35.059  23.617  25.906  1.00  0.00     0.010 A 
BRANCH  16  21
ATOM     21  S   UNL A   1      39.036  24.156  26.601  1.00  0.00    -0.130 SA
ATOM     22  C   UNL A   1      40.056  22.660  26.717  1.00  0.00     0.091 C 
ENDBRANCH  16  21
ENDBRANCH  10  15
BRANCH  12  23
ATOM     23  C   UNL A   1      32.433  18.650  23.432  1.00  0.00     0.047 C 
BRANCH  23  24
ATOM     24  C   UNL A   1      33.336  17.863  24.391  1.00  0.00     0.060 C 
ATOM     25  C   UNL A   1      32.782  17.595  25.797  1.00  0.00     0.012 C 
ATOM     26  C   UNL A   1      33.618  16.463  23.892  1.00  0.00     0.136 C 
ATOM     27  C   UNL A   1      32.217  16.178  25.773  1.00  0.00     0.009 C 
ATOM     28  C   UNL A   1      33.135  15.400  24.844  1.00  0.00     0.076 C 
ATOM     29  O   UNL A   1      34.189  16.200  22.840  1.00  0.00    -0.299 OA
ENDBRANCH  23  24
ENDBRANCH  12  23
ENDBRANCH   7   9
ENDBRANCH   4   7
ENDBRANCH   2   3
ENDBRANCH   1   2
BRANCH   1  30
ATOM     30  C   UNL A   1      33.992  29.054  25.869  1.00  0.00     0.118 C 
BRANCH  30  31
ATOM     31  N   UNL A   1      33.608  30.407  26.251  1.00  0.00    -0.352 N 
ATOM     32  C   UNL A   1      34.009  31.184  27.309  1.00  0.00     0.251 C 
ATOM     33  H   UNL A   1      32.954  30.833  25.652  1.00  0.00     0.163 HD
ATOM     34  O   UNL A   1      33.375  32.205  27.567  1.00  0.00    -0.269 OA
BRANCH  32  35
ATOM     35  C   UNL A   1      35.182  30.816  28.137  1.00  0.00     0.039 A 
ATOM     36  C   UNL A   1      36.323  31.624  28.088  1.00  0.00     0.014 A 
ATOM     37  C   UNL A   1      35.194  29.651  28.908  1.00  0.00     0.014 A 
ATOM     38  C   UNL A   1      37.451  31.291  28.844  1.00  0.00     0.010 A 
ATOM     39  C   UNL A   1      36.285  29.366  29.727  1.00  0.00     0.010 A 
ATOM     40  C   UNL A   1      37.432  30.170  29.689  1.00  0.00    -0.014 A 
BRANCH  40  41
ATOM     41  C   UNL A   1      38.604  29.813  30.532  1.00  0.00     0.031 A 
ATOM     42  C   UNL A   1      38.786  30.451  31.884  1.00  0.00     0.074 A 
ATOM     43  C   UNL A   1      39.548  28.984  30.044  1.00  0.00     0.049 A 
ATOM     44  N   UNL A   1      39.773  30.318  32.732  1.00  0.00    -0.248 NA
ATOM     45  C   UNL A   1      37.738  31.385  32.330  1.00  0.00     0.031 C 
ATOM     46  C   UNL A   1      39.525  28.365  28.717  1.00  0.00     0.029 A 
ATOM     47  N   UNL A   1      40.725  28.543  30.595  1.00  0.00    -0.354 N 
ATOM     48  C   UNL A   1      39.490  31.181  33.785  1.00  0.00     0.074 A 
ATOM     49  C   UNL A   1      38.252  31.855  33.457  1.00  0.00     0.031 C 
ATOM     50  C   UNL A   1      40.631  27.621  28.560  1.00  0.00     0.029 A 
ATOM     51  C   UNL A   1      41.456  27.733  29.758  1.00  0.00     0.049 A 
ATOM     52  H   UNL A   1      41.017  28.782  31.503  1.00  0.00     0.167 HD
ATOM     53  C   UNL A   1      40.179  31.374  34.935  1.00  0.00     0.034 A 
ATOM     54  C   UNL A   1      42.658  27.150  29.933  1.00  0.00     0.034 A 
ATOM     55  C   UNL A   1      41.376  30.658  35.283  1.00  0.00     0.049 A 
ATOM     56  C   UNL A   1      43.374  27.335  31.243  1.00  0.00     0.074 A 
ATOM     57  C   UNL A   1      42.092  30.701  36.465  1.00  0.00     0.029 A 
ATOM     58  N   UNL A   1      42.037  29.771  34.447  1.00  0.00    -0.354 N 
ATOM     59  N   UNL A   1      43.006  28.026  32.295  1.00  0.00    -0.248 NA
ATOM     60  C   UNL A   1      44.656  26.632  31.406  1.00  0.00     0.031 C 
ATOM     61  C   UNL A   1      43.199  29.856  36.337  1.00  0.00     0.029 A 
ATOM     62  C   UNL A   1      43.159  29.267  35.084  1.00  0.00     0.049 A 
ATOM     63  H   UNL A   1      41.752  29.533  33.535  1.00  0.00     0.167 HD
ATOM     64  C   UNL A   1      43.986  27.812  33.256  1.00  0.00     0.074 A 
ATOM     65  C   UNL A   1      44.956  26.910  32.668  1.00  0.00     0.031 C 
ATOM     66  C   UNL A   1      44.084  28.326  34.507  1.00  0.00     0.034 A 
BRANCH  53  67
ATOM     67  C   UNL A   1      39.624  32.359  35.931  1.00  0.00     0.023 A 
ATOM     68  C   UNL A   1      38.697  31.924  36.900  1.00  0.00     0.012 A 
ATOM     69  C   UNL A   1      40.065  33.698  35.951  1.00  0.00     0.148 A 
ATOM     70  C   UNL A   1      38.189  32.811  37.848  1.00  0.00     0.002 A 
ATOM     71  C   UNL A   1      39.588  34.565  36.928  1.00  0.00     0.091 A 
ATOM     72  F   UNL A   1      40.931  34.100  35.010  1.00  0.00    -0.205 F 
ATOM     73  C   UNL A   1      38.643  34.127  37.869  1.00  0.00     0.022 A 
BRANCH  71  74
ATOM     74  S   UNL A   1      40.169  36.257  37.090  1.00  0.00     0.127 S 
ATOM     75  O   UNL A   1      39.351  36.744  38.200  1.00  0.00    -0.237 OA
ATOM     76  O   UNL A   1      41.583  36.068  37.411  1.00  0.00    -0.237 OA
ATOM     77  O   UNL A   1      39.919  36.892  35.803  1.00  0.00    -0.744 OA
ENDBRANCH  71  74
ENDBRANCH  53  67
BRANCH  54  78
ATOM     78  C   UNL A   1      43.220  26.272  28.867  1.00  0.00     0.023 A 
ATOM     79  C   UNL A   1      42.810  24.925  28.797  1.00  0.00     0.012 A 
ATOM     80  C   UNL A   1      44.120  26.764  27.903  1.00  0.00     0.148 A 
ATOM     81  C   UNL A   1      43.309  24.079  27.808  1.00  0.00     0.002 A 
ATOM     82  C   UNL A   1      44.570  25.931  26.885  1.00  0.00     0.091 A 
ATOM     83  F   UNL A   1      44.509  28.045  27.991  1.00  0.00    -0.205 F 
ATOM     84  C   UNL A   1      44.181  24.583  26.846  1.00  0.00     0.022 A 
BRANCH  82  85
ATOM     85  S   UNL A   1      45.577  26.531  25.524  1.00  0.00     0.127 S 
ATOM     86  O   UNL A   1      45.668  25.349  24.673  1.00  0.00    -0.237 OA
ATOM     87  O   UNL A   1      44.752  27.615  24.989  1.00  0.00    -0.237 OA
ATOM     88  O   UNL A   1      46.826  26.979  26.128  1.00  0.00    -0.744 OA
ENDBRANCH  82  85
ENDBRANCH  54  78
BRANCH  66  89
ATOM     89  C   UNL A   1      45.261  27.905  35.347  1.00  0.00     0.023 A 
ATOM     90  C   UNL A   1      46.439  28.677  35.340  1.00  0.00     0.012 A 
ATOM     91  C   UNL A   1      45.169  26.788  36.202  1.00  0.00     0.148 A 
ATOM     92  C   UNL A   1      47.519  28.327  36.149  1.00  0.00     0.002 A 
ATOM     93  C   UNL A   1      46.232  26.475  37.041  1.00  0.00     0.091 A 
ATOM     94  F   UNL A   1      44.047  26.054  36.179  1.00  0.00    -0.205 F 
ATOM     95  C   UNL A   1      47.410  27.236  37.008  1.00  0.00     0.022 A 
BRANCH  93  96
ATOM     96  S   UNL A   1      46.143  25.147  38.247  1.00  0.00     0.127 S 
ATOM     97  O   UNL A   1      46.026  23.970  37.387  1.00  0.00    -0.237 OA
ATOM     98  O   UNL A   1      47.425  25.270  38.941  1.00  0.00    -0.237 OA
ATOM     99  O   UNL A   1      44.979  25.435  39.076  1.00  0.00    -0.744 OA
ENDBRANCH  93  96
ENDBRANCH  66  89
ENDBRANCH  40  41
ENDBRANCH  32  35
ENDBRANCH  30  31
ENDBRANCH   1  30
TORSDOF 18
ENDMDL
MODEL 2
REMARK VINA RESULT:     -11.9      5.221      8.928
REMARK SMILES CSc1ccc(-c2cc(C[C@H]3CCCC3=O)ccc2[C@@H](C)C(=O)NCCCNC(=O)c2ccc(-c3c4nc(c(-c5cccc(S(=O)(=O)[O-])c5F)c5ccc([nH]5)c(-c5cccc(S(=O)(=O)[O-])c5F)c5nc(c(-c6cccc(S(=O)(=O)[O-])c6F)c6ccc3[nH]6)C=C5)C=C4)cc2)cc1
REMARK SMILES IDX 26 1 25 2 24 3 22 4 23 5 20 7 21 8 19 9 7 10 8 11 9 12 18 13
REMARK SMILES IDX 17 14 6 15 3 16 4 17 95 18 5 19 94 20 2 21 1 22 10 23 11 24
REMARK SMILES IDX 12 25 15 26 13 27 14 28 16 29 27 30 28 31 29 32 30 34 31 35
REMARK SMILES IDX 32 36 93 37 33 38 92 39 34 40 35 41 36 42 86 43 37 44 91 45
REMARK SMILES IDX 85 46 87 47 38 48 90 49 84 50 83 51 39 53 71 54 51 55 70 56
REMARK SMILES IDX 52 57 55 58 69 59 88 60 53 61 54 62 68 64 89 65 56 66 40 67
REMARK SMILES IDX 41 68 49 69 42 70 44 71 50 72 43 73 45 74 46 75 47 76 48 77
REMARK SMILES IDX 72 78 73 79 81 80 74 81 76 82 82 83 75 84 77 85 78 86 79 87
REMARK SMILES IDX 80 88 57 89 58 90 66 91 59 92 61 93 67 94 60 95 62 96 63 97
REMARK SMILES IDX 64 98 65 99
REMARK H PARENT 24 6 28 33 87 52 55 63
REMARK Flexibility Score: inf
ROOT
ATOM      1  C   UNL A   1      38.379  19.023  25.419  1.00  0.00     0.042 C 
ENDROOT
BRANCH   1   2
ATOM      2  C   UNL A   1      37.348  19.829  24.631  1.00  0.00     0.117 C 
BRANCH   2   3
ATOM      3  N   UNL A   1      36.755  20.889  25.419  1.00  0.00    -0.356 N 
ATOM      4  C   UNL A   1      36.018  21.982  25.081  1.00  0.00     0.227 C 
ATOM      5  O   UNL A   1      35.704  22.728  26.018  1.00  0.00    -0.274 OA
ATOM      6  H   UNL A   1      36.915  20.802  26.387  1.00  0.00     0.163 HD
BRANCH   4   7
ATOM      7  C   UNL A   1      35.564  22.318  23.647  1.00  0.00     0.106 C 
ATOM      8  C   UNL A   1      36.633  22.955  22.761  1.00  0.00     0.023 C 
BRANCH   7   9
ATOM      9  C   UNL A   1      34.185  22.972  23.595  1.00  0.00    -0.028 A 
ATOM     10  C   UNL A   1      33.019  22.303  24.040  1.00  0.00    -0.014 A 
ATOM     11  C   UNL A   1      31.805  23.017  24.127  1.00  0.00     0.012 A 
ATOM     12  C   UNL A   1      31.692  24.337  23.675  1.00  0.00    -0.047 A 
ATOM     13  C   UNL A   1      34.042  24.282  23.108  1.00  0.00     0.005 A 
ATOM     14  C   UNL A   1      32.824  24.960  23.157  1.00  0.00     0.004 A 
BRANCH  10  15
ATOM     15  C   UNL A   1      32.952  20.839  24.173  1.00  0.00    -0.018 A 
ATOM     16  C   UNL A   1      32.776  18.048  24.630  1.00  0.00     0.007 A 
ATOM     17  C   UNL A   1      33.160  18.908  25.658  1.00  0.00     0.015 A 
ATOM     18  C   UNL A   1      32.475  18.596  23.374  1.00  0.00     0.015 A 
ATOM     19  C   UNL A   1      33.247  20.280  25.430  1.00  0.00     0.010 A 
ATOM     20  C   UNL A   1      32.572  19.977  23.142  1.00  0.00     0.010 A 
BRANCH  16  21
ATOM     21  S   UNL A   1      32.588  16.286  24.864  1.00  0.00    -0.130 SA
ATOM     22  C   UNL A   1      34.255  15.795  25.389  1.00  0.00     0.091 C 
ENDBRANCH  16  21
ENDBRANCH  10  15
BRANCH  12  23
ATOM     23  C   UNL A   1      30.356  25.042  23.641  1.00  0.00     0.047 C 
BRANCH  23  24
ATOM     24  C   UNL A   1      30.068  25.959  24.836  1.00  0.00     0.060 C 
ATOM     25  C   UNL A   1      30.653  25.534  26.191  1.00  0.00     0.012 C 
ATOM     26  C   UNL A   1      30.665  27.338  24.656  1.00  0.00     0.136 C 
ATOM     27  C   UNL A   1      31.939  26.335  26.373  1.00  0.00     0.009 C 
ATOM     28  C   UNL A   1      31.662  27.683  25.730  1.00  0.00     0.076 C 
ATOM     29  O   UNL A   1      30.370  28.112  23.752  1.00  0.00    -0.299 OA
ENDBRANCH  23  24
ENDBRANCH  12  23
ENDBRANCH   7   9
ENDBRANCH   4   7
ENDBRANCH   2   3
ENDBRANCH   1   2
BRANCH   1  30
ATOM     30  C   UNL A   1      39.645  19.797  25.756  1.00  0.00     0.118 C 
BRANCH  30  31
ATOM     31  N   UNL A   1      40.784  18.915  25.971  1.00  0.00    -0.352 N 
ATOM     32  C   UNL A   1      42.118  19.199  26.123  1.00  0.00     0.251 C 
ATOM     33  H   UNL A   1      40.559  17.958  26.014  1.00  0.00     0.163 HD
ATOM     34  O   UNL A   1      42.931  18.279  26.054  1.00  0.00    -0.269 OA
BRANCH  32  35
ATOM     35  C   UNL A   1      42.590  20.583  26.365  1.00  0.00     0.039 A 
ATOM     36  C   UNL A   1      42.543  21.093  27.667  1.00  0.00     0.014 A 
ATOM     37  C   UNL A   1      43.015  21.402  25.318  1.00  0.00     0.014 A 
ATOM     38  C   UNL A   1      42.963  22.402  27.922  1.00  0.00     0.010 A 
ATOM     39  C   UNL A   1      43.514  22.676  25.584  1.00  0.00     0.010 A 
ATOM     40  C   UNL A   1      43.475  23.197  26.885  1.00  0.00    -0.014 A 
BRANCH  40  41
ATOM     41  C   UNL A   1      43.965  24.578  27.134  1.00  0.00     0.031 A 
ATOM     42  C   UNL A   1      43.026  25.631  27.665  1.00  0.00     0.074 A 
ATOM     43  C   UNL A   1      45.228  24.908  26.800  1.00  0.00     0.049 A 
ATOM     44  N   UNL A   1      43.250  26.901  27.883  1.00  0.00    -0.248 NA
ATOM     45  C   UNL A   1      41.647  25.208  27.960  1.00  0.00     0.031 C 
ATOM     46  C   UNL A   1      46.209  23.999  26.204  1.00  0.00     0.029 A 
ATOM     47  N   UNL A   1      45.895  26.104  26.887  1.00  0.00    -0.354 N 
ATOM     48  C   UNL A   1      42.035  27.437  28.295  1.00  0.00     0.074 A 
ATOM     49  C   UNL A   1      41.069  26.360  28.270  1.00  0.00     0.031 C 
ATOM     50  C   UNL A   1      47.352  24.667  25.984  1.00  0.00     0.029 A 
ATOM     51  C   UNL A   1      47.178  26.057  26.393  1.00  0.00     0.049 A 
ATOM     52  H   UNL A   1      45.494  26.919  27.266  1.00  0.00     0.167 HD
ATOM     53  C   UNL A   1      41.754  28.702  28.689  1.00  0.00     0.034 A 
ATOM     54  C   UNL A   1      48.109  27.025  26.277  1.00  0.00     0.034 A 
ATOM     55  C   UNL A   1      42.731  29.753  28.769  1.00  0.00     0.049 A 
ATOM     56  C   UNL A   1      47.788  28.408  26.776  1.00  0.00     0.074 A 
ATOM     57  C   UNL A   1      42.574  31.039  29.254  1.00  0.00     0.029 A 
ATOM     58  N   UNL A   1      44.048  29.642  28.350  1.00  0.00    -0.354 N 
ATOM     59  N   UNL A   1      46.681  28.853  27.319  1.00  0.00    -0.248 NA
ATOM     60  C   UNL A   1      48.855  29.415  26.680  1.00  0.00     0.031 C 
ATOM     61  C   UNL A   1      43.791  31.713  29.108  1.00  0.00     0.029 A 
ATOM     62  C   UNL A   1      44.713  30.839  28.556  1.00  0.00     0.049 A 
ATOM     63  H   UNL A   1      44.452  28.831  27.963  1.00  0.00     0.167 HD
ATOM     64  C   UNL A   1      46.928  30.176  27.663  1.00  0.00     0.074 A 
ATOM     65  C   UNL A   1      48.299  30.455  27.285  1.00  0.00     0.031 C 
ATOM     66  C   UNL A   1      46.093  31.084  28.227  1.00  0.00     0.034 A 
BRANCH  53  67
ATOM     67  C   UNL A   1      40.343  29.007  29.119  1.00  0.00     0.023 A 
ATOM     68  C   UNL A   1      39.375  29.343  28.150  1.00  0.00     0.012 A 
ATOM     69  C   UNL A   1      39.956  28.901  30.471  1.00  0.00     0.148 A 
ATOM     70  C   UNL A   1      38.057  29.604  28.520  1.00  0.00     0.002 A 
ATOM     71  C   UNL A   1      38.630  29.119  30.826  1.00  0.00     0.091 A 
ATOM     72  F   UNL A   1      40.893  28.601  31.382  1.00  0.00    -0.205 F 
ATOM     73  C   UNL A   1      37.682  29.481  29.855  1.00  0.00     0.022 A 
BRANCH  71  74
ATOM     74  S   UNL A   1      38.029  28.908  32.506  1.00  0.00     0.127 S 
ATOM     75  O   UNL A   1      38.208  27.471  32.705  1.00  0.00    -0.237 OA
ATOM     76  O   UNL A   1      38.950  29.749  33.271  1.00  0.00    -0.237 OA
ATOM     77  O   UNL A   1      36.648  29.372  32.500  1.00  0.00    -0.744 OA
ENDBRANCH  71  74
ENDBRANCH  53  67
BRANCH  54  78
ATOM     78  C   UNL A   1      49.459  26.697  25.736  1.00  0.00     0.023 A 
ATOM     79  C   UNL A   1      50.341  25.920  26.513  1.00  0.00     0.012 A 
ATOM     80  C   UNL A   1      49.860  27.109  24.451  1.00  0.00     0.148 A 
ATOM     81  C   UNL A   1      51.608  25.588  26.034  1.00  0.00     0.002 A 
ATOM     82  C   UNL A   1      51.101  26.727  23.956  1.00  0.00     0.091 A 
ATOM     83  F   UNL A   1      49.012  27.858  23.730  1.00  0.00    -0.205 F 
ATOM     84  C   UNL A   1      51.985  25.982  24.752  1.00  0.00     0.022 A 
BRANCH  82  85
ATOM     85  S   UNL A   1      51.609  27.065  22.267  1.00  0.00     0.127 S 
ATOM     86  O   UNL A   1      51.935  28.486  22.329  1.00  0.00    -0.237 OA
ATOM     87  O   UNL A   1      52.761  26.174  22.111  1.00  0.00    -0.237 OA
ATOM     88  O   UNL A   1      50.467  26.709  21.434  1.00  0.00    -0.744 OA
ENDBRANCH  82  85
ENDBRANCH  54  78
BRANCH  66  89
ATOM     89  C   UNL A   1      46.640  32.459  28.507  1.00  0.00     0.023 A 
ATOM     90  C   UNL A   1      47.183  32.752  29.773  1.00  0.00     0.012 A 
ATOM     91  C   UNL A   1      46.689  33.433  27.490  1.00  0.00     0.148 A 
ATOM     92  C   UNL A   1      47.738  34.004  30.033  1.00  0.00     0.002 A 
ATOM     93  C   UNL A   1      47.287  34.662  27.742  1.00  0.00     0.091 A 
ATOM     94  F   UNL A   1      46.149  33.142  26.297  1.00  0.00    -0.205 F 
ATOM     95  C   UNL A   1      47.802  34.953  29.015  1.00  0.00     0.022 A 
BRANCH  93  96
ATOM     96  S   UNL A   1      47.500  35.906  26.464  1.00  0.00     0.127 S 
ATOM     97  O   UNL A   1      46.114  36.253  26.152  1.00  0.00    -0.237 OA
ATOM     98  O   UNL A   1      48.246  36.950  27.166  1.00  0.00    -0.237 OA
ATOM     99  O   UNL A   1      48.240  35.255  25.390  1.00  0.00    -0.744 OA
ENDBRANCH  93  96
ENDBRANCH  66  89
ENDBRANCH  40  41
ENDBRANCH  32  35
ENDBRANCH  30  31
ENDBRANCH   1  30
TORSDOF 18
ENDMDL
MODEL 3
REMARK VINA RESULT:     -11.7      1.861      2.318
REMARK SMILES CSc1ccc(-c2cc(C[C@H]3CCCC3=O)ccc2[C@@H](C)C(=O)NCCCNC(=O)c2ccc(-c3c4nc(c(-c5cccc(S(=O)(=O)[O-])c5F)c5ccc([nH]5)c(-c5cccc(S(=O)(=O)[O-])c5F)c5nc(c(-c6cccc(S(=O)(=O)[O-])c6F)c6ccc3[nH]6)C=C5)C=C4)cc2)cc1
REMARK SMILES IDX 26 1 25 2 24 3 22 4 23 5 20 7 21 8 19 9 7 10 8 11 9 12 18 13
REMARK SMILES IDX 17 14 6 15 3 16 4 17 95 18 5 19 94 20 2 21 1 22 10 23 11 24
REMARK SMILES IDX 12 25 15 26 13 27 14 28 16 29 27 30 28 31 29 32 30 34 31 35
REMARK SMILES IDX 32 36 93 37 33 38 92 39 34 40 35 41 36 42 86 43 37 44 91 45
REMARK SMILES IDX 85 46 87 47 38 48 90 49 84 50 83 51 39 53 71 54 51 55 70 56
REMARK SMILES IDX 52 57 55 58 69 59 88 60 53 61 54 62 68 64 89 65 56 66 40 67
REMARK SMILES IDX 41 68 49 69 42 70 44 71 50 72 43 73 45 74 46 75 47 76 48 77
REMARK SMILES IDX 72 78 73 79 81 80 74 81 76 82 82 83 75 84 77 85 78 86 79 87
REMARK SMILES IDX 80 88 57 89 58 90 66 91 59 92 61 93 67 94 60 95 62 96 63 97
REMARK SMILES IDX 64 98 65 99
REMARK H PARENT 24 6 28 33 87 52 55 63
REMARK Flexibility Score: inf
ROOT
ATOM      1  C   UNL A   1      33.213  29.065  24.451  1.00  0.00     0.042 C 
ENDROOT
BRANCH   1   2
ATOM      2  C   UNL A   1      33.524  27.670  23.911  1.00  0.00     0.117 C 
BRANCH   2   3
ATOM      3  N   UNL A   1      32.634  26.659  24.446  1.00  0.00    -0.356 N 
ATOM      4  C   UNL A   1      32.375  25.376  24.075  1.00  0.00     0.227 C 
ATOM      5  O   UNL A   1      31.502  24.795  24.732  1.00  0.00    -0.274 OA
ATOM      6  H   UNL A   1      32.118  26.959  25.228  1.00  0.00     0.163 HD
BRANCH   4   7
ATOM      7  C   UNL A   1      33.094  24.637  22.930  1.00  0.00     0.106 C 
ATOM      8  C   UNL A   1      32.880  25.231  21.539  1.00  0.00     0.023 C 
BRANCH   7   9
ATOM      9  C   UNL A   1      32.969  23.118  23.028  1.00  0.00    -0.028 A 
ATOM     10  C   UNL A   1      33.757  22.355  23.925  1.00  0.00    -0.014 A 
ATOM     11  C   UNL A   1      33.476  20.982  24.092  1.00  0.00     0.012 A 
ATOM     12  C   UNL A   1      32.518  20.325  23.312  1.00  0.00    -0.047 A 
ATOM     13  C   UNL A   1      32.041  22.432  22.227  1.00  0.00     0.005 A 
ATOM     14  C   UNL A   1      31.807  21.065  22.371  1.00  0.00     0.004 A 
BRANCH  10  15
ATOM     15  C   UNL A   1      35.014  22.863  24.497  1.00  0.00    -0.018 A 
ATOM     16  C   UNL A   1      37.360  23.789  25.787  1.00  0.00     0.007 A 
ATOM     17  C   UNL A   1      36.131  23.832  26.443  1.00  0.00     0.015 A 
ATOM     18  C   UNL A   1      37.407  23.274  24.483  1.00  0.00     0.015 A 
ATOM     19  C   UNL A   1      34.978  23.376  25.806  1.00  0.00     0.010 A 
ATOM     20  C   UNL A   1      36.244  22.824  23.837  1.00  0.00     0.010 A 
BRANCH  16  21
ATOM     21  S   UNL A   1      38.887  24.302  26.562  1.00  0.00    -0.130 SA
ATOM     22  C   UNL A   1      39.630  22.711  27.023  1.00  0.00     0.091 C 
ENDBRANCH  16  21
ENDBRANCH  10  15
BRANCH  12  23
ATOM     23  C   UNL A   1      32.328  18.829  23.401  1.00  0.00     0.047 C 
BRANCH  23  24
ATOM     24  C   UNL A   1      33.351  18.088  24.271  1.00  0.00     0.060 C 
ATOM     25  C   UNL A   1      32.919  17.745  25.704  1.00  0.00     0.012 C 
ATOM     26  C   UNL A   1      33.696  16.724  23.713  1.00  0.00     0.136 C 
ATOM     27  C   UNL A   1      32.458  16.291  25.677  1.00  0.00     0.009 C 
ATOM     28  C   UNL A   1      33.360  15.606  24.664  1.00  0.00     0.076 C 
ATOM     29  O   UNL A   1      34.208  16.530  22.616  1.00  0.00    -0.299 OA
ENDBRANCH  23  24
ENDBRANCH  12  23
ENDBRANCH   7   9
ENDBRANCH   4   7
ENDBRANCH   2   3
ENDBRANCH   1   2
BRANCH   1  30
ATOM     30  C   UNL A   1      33.701  29.302  25.872  1.00  0.00     0.118 C 
BRANCH  30  31
ATOM     31  N   UNL A   1      33.380  30.643  26.344  1.00  0.00    -0.352 N 
ATOM     32  C   UNL A   1      33.911  31.380  27.372  1.00  0.00     0.251 C 
ATOM     33  H   UNL A   1      32.663  31.093  25.841  1.00  0.00     0.163 HD
ATOM     34  O   UNL A   1      33.323  32.395  27.739  1.00  0.00    -0.269 OA
BRANCH  32  35
ATOM     35  C   UNL A   1      35.170  30.976  28.042  1.00  0.00     0.039 A 
ATOM     36  C   UNL A   1      35.185  29.796  28.792  1.00  0.00     0.014 A 
ATOM     37  C   UNL A   1      36.313  31.777  27.993  1.00  0.00     0.014 A 
ATOM     38  C   UNL A   1      36.353  29.399  29.451  1.00  0.00     0.010 A 
ATOM     39  C   UNL A   1      37.500  31.340  28.578  1.00  0.00     0.010 A 
ATOM     40  C   UNL A   1      37.528  30.157  29.330  1.00  0.00    -0.014 A 
BRANCH  40  41
ATOM     41  C   UNL A   1      38.793  29.739  29.989  1.00  0.00     0.031 A 
ATOM     42  C   UNL A   1      39.155  30.280  31.347  1.00  0.00     0.074 A 
ATOM     43  C   UNL A   1      39.657  28.943  29.327  1.00  0.00     0.049 A 
ATOM     44  N   UNL A   1      40.241  30.084  32.050  1.00  0.00    -0.248 NA
ATOM     45  C   UNL A   1      38.185  31.184  31.987  1.00  0.00     0.031 C 
ATOM     46  C   UNL A   1      39.456  28.418  27.975  1.00  0.00     0.029 A 
ATOM     47  N   UNL A   1      40.889  28.460  29.691  1.00  0.00    -0.354 N 
ATOM     48  C   UNL A   1      40.106  30.873  33.187  1.00  0.00     0.074 A 
ATOM     49  C   UNL A   1      38.845  31.572  33.069  1.00  0.00     0.031 C 
ATOM     50  C   UNL A   1      40.524  27.683  27.625  1.00  0.00     0.029 A 
ATOM     51  C   UNL A   1      41.497  27.708  28.712  1.00  0.00     0.049 A 
ATOM     52  H   UNL A   1      41.299  28.634  30.568  1.00  0.00     0.167 HD
ATOM     53  C   UNL A   1      40.940  30.982  34.250  1.00  0.00     0.034 A 
ATOM     54  C   UNL A   1      42.704  27.110  28.690  1.00  0.00     0.034 A 
ATOM     55  C   UNL A   1      42.162  30.240  34.390  1.00  0.00     0.049 A 
ATOM     56  C   UNL A   1      43.585  27.201  29.907  1.00  0.00     0.074 A 
ATOM     57  C   UNL A   1      43.025  30.198  35.470  1.00  0.00     0.029 A 
ATOM     58  N   UNL A   1      42.700  29.411  33.417  1.00  0.00    -0.354 N 
ATOM     59  N   UNL A   1      43.363  27.818  31.042  1.00  0.00    -0.248 NA
ATOM     60  C   UNL A   1      44.868  26.484  29.855  1.00  0.00     0.031 C 
ATOM     61  C   UNL A   1      44.096  29.360  35.143  1.00  0.00     0.029 A 
ATOM     62  C   UNL A   1      43.888  28.861  33.867  1.00  0.00     0.049 A 
ATOM     63  H   UNL A   1      42.297  29.239  32.535  1.00  0.00     0.167 HD
ATOM     64  C   UNL A   1      44.456  27.534  31.852  1.00  0.00     0.074 A 
ATOM     65  C   UNL A   1      45.331  26.672  31.083  1.00  0.00     0.031 C 
ATOM     66  C   UNL A   1      44.720  27.959  33.113  1.00  0.00     0.034 A 
BRANCH  53  67
ATOM     67  C   UNL A   1      40.529  31.897  35.374  1.00  0.00     0.023 A 
ATOM     68  C   UNL A   1      41.238  33.097  35.591  1.00  0.00     0.012 A 
ATOM     69  C   UNL A   1      39.407  31.606  36.175  1.00  0.00     0.148 A 
ATOM     70  C   UNL A   1      40.862  33.973  36.608  1.00  0.00     0.002 A 
ATOM     71  C   UNL A   1      39.011  32.506  37.158  1.00  0.00     0.091 A 
ATOM     72  F   UNL A   1      38.757  30.452  35.969  1.00  0.00    -0.205 F 
ATOM     73  C   UNL A   1      39.743  33.683  37.383  1.00  0.00     0.022 A 
BRANCH  71  74
ATOM     74  S   UNL A   1      37.537  32.265  38.156  1.00  0.00     0.127 S 
ATOM     75  O   UNL A   1      37.431  30.806  38.177  1.00  0.00    -0.237 OA
ATOM     76  O   UNL A   1      37.927  32.866  39.431  1.00  0.00    -0.237 OA
ATOM     77  O   UNL A   1      36.462  32.961  37.461  1.00  0.00    -0.744 OA
ENDBRANCH  71  74
ENDBRANCH  53  67
BRANCH  54  78
ATOM     78  C   UNL A   1      43.114  26.307  27.503  1.00  0.00     0.023 A 
ATOM     79  C   UNL A   1      43.711  26.958  26.404  1.00  0.00     0.012 A 
ATOM     80  C   UNL A   1      42.958  24.908  27.467  1.00  0.00     0.148 A 
ATOM     81  C   UNL A   1      44.113  26.236  25.281  1.00  0.00     0.002 A 
ATOM     82  C   UNL A   1      43.413  24.187  26.370  1.00  0.00     0.091 A 
ATOM     83  F   UNL A   1      42.378  24.306  28.516  1.00  0.00    -0.205 F 
ATOM     84  C   UNL A   1      43.975  24.850  25.267  1.00  0.00     0.022 A 
BRANCH  82  85
ATOM     85  S   UNL A   1      43.408  22.391  26.328  1.00  0.00     0.127 S 
ATOM     86  O   UNL A   1      44.805  22.093  26.031  1.00  0.00    -0.237 OA
ATOM     87  O   UNL A   1      42.980  22.056  27.687  1.00  0.00    -0.237 OA
ATOM     88  O   UNL A   1      42.445  22.026  25.296  1.00  0.00    -0.744 OA
ENDBRANCH  82  85
ENDBRANCH  54  78
BRANCH  66  89
ATOM     89  C   UNL A   1      45.989  27.476  33.763  1.00  0.00     0.023 A 
ATOM     90  C   UNL A   1      47.163  28.249  33.668  1.00  0.00     0.012 A 
ATOM     91  C   UNL A   1      45.997  26.296  34.534  1.00  0.00     0.148 A 
ATOM     92  C   UNL A   1      48.333  27.840  34.306  1.00  0.00     0.002 A 
ATOM     93  C   UNL A   1      47.154  25.921  35.206  1.00  0.00     0.091 A 
ATOM     94  F   UNL A   1      44.875  25.564  34.595  1.00  0.00    -0.205 F 
ATOM     95  C   UNL A   1      48.325  26.685  35.084  1.00  0.00     0.022 A 
BRANCH  93  96
ATOM     96  S   UNL A   1      47.207  24.503  36.308  1.00  0.00     0.127 S 
ATOM     97  O   UNL A   1      48.592  24.540  36.774  1.00  0.00    -0.237 OA
ATOM     98  O   UNL A   1      46.213  24.859  37.321  1.00  0.00    -0.237 OA
ATOM     99  O   UNL A   1      46.850  23.349  35.493  1.00  0.00    -0.744 OA
ENDBRANCH  93  96
ENDBRANCH  66  89
ENDBRANCH  40  41
ENDBRANCH  32  35
ENDBRANCH  30  31
ENDBRANCH   1  30
TORSDOF 18
ENDMDL
