MODEL 1
REMARK VINA RESULT:     -11.3      0.000      0.000
REMARK SMILES CCc1cc(OC(F)(F)F)cc2c1O[C@@H](C(F)(F)F)C(C(=O)NCCCNC(=O)c1ccc(-c3c4nc(c(-c5cccc(S(=O)(=O)[O-])c5F)c5ccc([nH]5)c(-c5cccc(S(=O)(=O)[O-])c5F)c5nc(c(-c6cccc(S(=O)(=O)[O-])c6F)c6ccc3[nH]6)C=C5)C=C4)cc1)=C2
REMARK SMILES IDX 25 1 24 2 23 3 21 4 22 5 20 7 3 8 4 9 13 10 5 11 12 12 14 13
REMARK SMILES IDX 11 14 93 15 15 16 2 17 1 18 6 19 7 20 8 21 9 22 10 23 16 24
REMARK SMILES IDX 17 25 18 26 19 27 26 28 27 29 28 30 29 32 30 33 31 34 92 35
REMARK SMILES IDX 32 36 91 37 33 38 34 39 35 40 85 41 36 42 90 43 84 44 86 45
REMARK SMILES IDX 37 46 89 47 83 48 82 49 38 51 70 52 50 53 69 54 51 55 54 56
REMARK SMILES IDX 68 57 87 58 52 59 53 60 67 62 88 63 55 64 39 65 40 66 48 67
REMARK SMILES IDX 41 68 43 69 49 70 42 71 44 72 45 73 46 74 47 75 71 76 72 77
REMARK SMILES IDX 80 78 73 79 75 80 81 81 74 82 76 83 77 84 78 85 79 86 56 87
REMARK SMILES IDX 57 88 65 89 58 90 60 91 66 92 59 93 61 94 62 95 63 96 64 97
REMARK H PARENT 23 6 27 31 86 50 54 61
REMARK Flexibility Score: inf
ROOT
ATOM      1  C   UNL A   1      33.157  28.528  27.266  1.00  0.00     0.042 C 
ENDROOT
BRANCH   1   2
ATOM      2  C   UNL A   1      31.817  28.445  26.528  1.00  0.00     0.118 C 
BRANCH   2   3
ATOM      3  N   UNL A   1      31.989  28.746  25.115  1.00  0.00    -0.352 N 
ATOM      4  C   UNL A   1      32.486  28.030  24.075  1.00  0.00     0.251 C 
ATOM      5  O   UNL A   1      32.621  28.603  22.996  1.00  0.00    -0.270 OA
ATOM      6  H   UNL A   1      31.685  29.648  24.864  1.00  0.00     0.163 HD
BRANCH   4   7
ATOM      7  C   UNL A   1      32.786  26.580  24.165  1.00  0.00     0.067 C 
ATOM      8  C   UNL A   1      33.239  22.421  24.573  1.00  0.00    -0.002 A 
ATOM      9  C   UNL A   1      34.479  21.912  25.009  1.00  0.00     0.054 A 
ATOM     10  C   UNL A   1      33.088  23.809  24.447  1.00  0.00     0.131 A 
ATOM     11  C   UNL A   1      35.544  22.767  25.301  1.00  0.00     0.130 A 
ATOM     12  C   UNL A   1      34.158  24.667  24.693  1.00  0.00     0.021 A 
ATOM     13  O   UNL A   1      31.839  24.290  24.175  1.00  0.00    -0.475 OA
ATOM     14  C   UNL A   1      35.381  24.143  25.119  1.00  0.00     0.058 A 
ATOM     15  C   UNL A   1      33.966  26.106  24.594  1.00  0.00     0.025 C 
ATOM     16  C   UNL A   1      31.749  25.621  23.590  1.00  0.00     0.314 C 
BRANCH   8  17
ATOM     17  C   UNL A   1      32.103  21.467  24.279  1.00  0.00     0.036 C 
ATOM     18  C   UNL A   1      32.492  19.997  24.409  1.00  0.00     0.009 C 
ENDBRANCH   8  17
BRANCH  11  19
ATOM     19  O   UNL A   1      36.772  22.407  25.776  1.00  0.00    -0.406 OA
BRANCH  19  20
ATOM     20  C   UNL A   1      37.578  21.567  24.971  1.00  0.00     0.573 C 
ATOM     21  F   UNL A   1      37.333  20.262  25.225  1.00  0.00    -0.132 F 
ATOM     22  F   UNL A   1      37.374  21.811  23.659  1.00  0.00    -0.132 F 
ATOM     23  F   UNL A   1      38.878  21.806  25.250  1.00  0.00    -0.132 F 
ENDBRANCH  19  20
ENDBRANCH  11  19
BRANCH  16  24
ATOM     24  C   UNL A   1      30.264  26.038  23.676  1.00  0.00     0.429 C 
ATOM     25  F   UNL A   1      29.940  27.031  22.820  1.00  0.00    -0.167 F 
ATOM     26  F   UNL A   1      29.454  24.996  23.334  1.00  0.00    -0.167 F 
ATOM     27  F   UNL A   1      29.900  26.411  24.925  1.00  0.00    -0.167 F 
ENDBRANCH  16  24
ENDBRANCH   4   7
ENDBRANCH   2   3
ENDBRANCH   1   2
BRANCH   1  28
ATOM     28  C   UNL A   1      34.101  29.578  26.685  1.00  0.00     0.118 C 
BRANCH  28  29
ATOM     29  N   UNL A   1      33.941  30.867  27.342  1.00  0.00    -0.352 N 
ATOM     30  C   UNL A   1      34.644  31.413  28.385  1.00  0.00     0.251 C 
ATOM     31  H   UNL A   1      33.220  31.433  26.982  1.00  0.00     0.163 HD
ATOM     32  O   UNL A   1      34.197  32.403  28.956  1.00  0.00    -0.269 OA
BRANCH  30  33
ATOM     33  C   UNL A   1      35.928  30.821  28.823  1.00  0.00     0.039 A 
ATOM     34  C   UNL A   1      37.117  31.310  28.272  1.00  0.00     0.014 A 
ATOM     35  C   UNL A   1      35.963  29.754  29.725  1.00  0.00     0.014 A 
ATOM     36  C   UNL A   1      38.340  30.754  28.654  1.00  0.00     0.010 A 
ATOM     37  C   UNL A   1      37.187  29.248  30.156  1.00  0.00     0.010 A 
ATOM     38  C   UNL A   1      38.387  29.731  29.615  1.00  0.00    -0.014 A 
BRANCH  38  39
ATOM     39  C   UNL A   1      39.679  29.151  30.061  1.00  0.00     0.031 A 
ATOM     40  C   UNL A   1      40.455  29.797  31.177  1.00  0.00     0.074 A 
ATOM     41  C   UNL A   1      40.196  28.095  29.402  1.00  0.00     0.049 A 
ATOM     42  N   UNL A   1      41.628  29.475  31.660  1.00  0.00    -0.248 NA
ATOM     43  C   UNL A   1      39.848  30.976  31.818  1.00  0.00     0.031 C 
ATOM     44  C   UNL A   1      39.575  27.430  28.254  1.00  0.00     0.029 A 
ATOM     45  N   UNL A   1      41.373  27.413  29.583  1.00  0.00    -0.354 N 
ATOM     46  C   UNL A   1      41.916  30.431  32.628  1.00  0.00     0.074 A 
ATOM     47  C   UNL A   1      40.810  31.363  32.643  1.00  0.00     0.031 C 
ATOM     48  C   UNL A   1      40.377  26.439  27.833  1.00  0.00     0.029 A 
ATOM     49  C   UNL A   1      41.578  26.414  28.661  1.00  0.00     0.049 A 
ATOM     50  H   UNL A   1      42.009  27.621  30.305  1.00  0.00     0.167 HD
ATOM     51  C   UNL A   1      42.992  30.511  33.448  1.00  0.00     0.034 A 
ATOM     52  C   UNL A   1      42.621  25.575  28.497  1.00  0.00     0.034 A 
ATOM     53  C   UNL A   1      44.064  29.554  33.463  1.00  0.00     0.049 A 
ATOM     54  C   UNL A   1      43.776  25.651  29.457  1.00  0.00     0.074 A 
ATOM     55  C   UNL A   1      45.151  29.491  34.317  1.00  0.00     0.029 A 
ATOM     56  N   UNL A   1      44.189  28.493  32.579  1.00  0.00    -0.354 N 
ATOM     57  N   UNL A   1      43.954  26.463  30.471  1.00  0.00    -0.248 NA
ATOM     58  C   UNL A   1      44.856  24.670  29.277  1.00  0.00     0.031 C 
ATOM     59  C   UNL A   1      45.943  28.402  33.938  1.00  0.00     0.029 A 
ATOM     60  C   UNL A   1      45.337  27.773  32.862  1.00  0.00     0.049 A 
ATOM     61  H   UNL A   1      43.556  28.283  31.856  1.00  0.00     0.167 HD
ATOM     62  C   UNL A   1      45.144  26.069  31.072  1.00  0.00     0.074 A 
ATOM     63  C   UNL A   1      45.634  24.933  30.319  1.00  0.00     0.031 C 
ATOM     64  C   UNL A   1      45.782  26.609  32.140  1.00  0.00     0.034 A 
BRANCH  51  65
ATOM     65  C   UNL A   1      43.034  31.645  34.440  1.00  0.00     0.023 A 
ATOM     66  C   UNL A   1      43.659  32.858  34.084  1.00  0.00     0.012 A 
ATOM     67  C   UNL A   1      42.407  31.535  35.697  1.00  0.00     0.148 A 
ATOM     68  C   UNL A   1      43.691  33.930  34.974  1.00  0.00     0.002 A 
ATOM     69  C   UNL A   1      42.405  32.624  36.562  1.00  0.00     0.091 A 
ATOM     70  F   UNL A   1      41.834  30.369  36.028  1.00  0.00    -0.205 F 
ATOM     71  C   UNL A   1      43.055  33.817  36.207  1.00  0.00     0.022 A 
BRANCH  69  72
ATOM     72  S   UNL A   1      41.545  32.607  38.139  1.00  0.00     0.127 S 
ATOM     73  O   UNL A   1      42.286  31.578  38.868  1.00  0.00    -0.237 OA
ATOM     74  O   UNL A   1      41.761  33.970  38.624  1.00  0.00    -0.237 OA
ATOM     75  O   UNL A   1      40.157  32.283  37.836  1.00  0.00    -0.744 OA
ENDBRANCH  69  72
ENDBRANCH  51  65
BRANCH  52  76
ATOM     76  C   UNL A   1      42.581  24.545  27.422  1.00  0.00     0.023 A 
ATOM     77  C   UNL A   1      43.086  24.861  26.144  1.00  0.00     0.012 A 
ATOM     78  C   UNL A   1      42.084  23.250  27.662  1.00  0.00     0.148 A 
ATOM     79  C   UNL A   1      43.068  23.915  25.118  1.00  0.00     0.002 A 
ATOM     80  C   UNL A   1      42.120  22.296  26.652  1.00  0.00     0.091 A 
ATOM     81  F   UNL A   1      41.598  22.971  28.880  1.00  0.00    -0.205 F 
ATOM     82  C   UNL A   1      42.596  22.631  25.374  1.00  0.00     0.022 A 
BRANCH  80  83
ATOM     83  S   UNL A   1      41.661  20.582  26.931  1.00  0.00     0.127 S 
ATOM     84  O   UNL A   1      41.739  20.027  25.583  1.00  0.00    -0.237 OA
ATOM     85  O   UNL A   1      42.710  20.132  27.846  1.00  0.00    -0.237 OA
ATOM     86  O   UNL A   1      40.331  20.625  27.524  1.00  0.00    -0.744 OA
ENDBRANCH  80  83
ENDBRANCH  52  76
BRANCH  64  87
ATOM     87  C   UNL A   1      47.063  25.958  32.591  1.00  0.00     0.023 A 
ATOM     88  C   UNL A   1      48.296  26.408  32.079  1.00  0.00     0.012 A 
ATOM     89  C   UNL A   1      47.048  24.954  33.579  1.00  0.00     0.148 A 
ATOM     90  C   UNL A   1      49.493  25.846  32.521  1.00  0.00     0.002 A 
ATOM     91  C   UNL A   1      48.248  24.434  34.051  1.00  0.00     0.091 A 
ATOM     92  F   UNL A   1      45.864  24.526  34.039  1.00  0.00    -0.205 F 
ATOM     93  C   UNL A   1      49.469  24.870  33.515  1.00  0.00     0.022 A 
BRANCH  91  94
ATOM     94  S   UNL A   1      48.316  23.245  35.396  1.00  0.00     0.127 S 
ATOM     95  O   UNL A   1      47.871  22.020  34.733  1.00  0.00    -0.237 OA
ATOM     96  O   UNL A   1      49.734  23.263  35.756  1.00  0.00    -0.237 OA
ATOM     97  O   UNL A   1      47.426  23.757  36.429  1.00  0.00    -0.744 OA
ENDBRANCH  91  94
ENDBRANCH  64  87
ENDBRANCH  38  39
ENDBRANCH  30  33
ENDBRANCH  28  29
ENDBRANCH   1  28
TORSDOF 17
ENDMDL
MODEL 2
REMARK VINA RESULT:     -11.0      5.331      8.683
REMARK SMILES CCc1cc(OC(F)(F)F)cc2c1O[C@@H](C(F)(F)F)C(C(=O)NCCCNC(=O)c1ccc(-c3c4nc(c(-c5cccc(S(=O)(=O)[O-])c5F)c5ccc([nH]5)c(-c5cccc(S(=O)(=O)[O-])c5F)c5nc(c(-c6cccc(S(=O)(=O)[O-])c6F)c6ccc3[nH]6)C=C5)C=C4)cc1)=C2
REMARK SMILES IDX 25 1 24 2 23 3 21 4 22 5 20 7 3 8 4 9 13 10 5 11 12 12 14 13
REMARK SMILES IDX 11 14 93 15 15 16 2 17 1 18 6 19 7 20 8 21 9 22 10 23 16 24
REMARK SMILES IDX 17 25 18 26 19 27 26 28 27 29 28 30 29 32 30 33 31 34 92 35
REMARK SMILES IDX 32 36 91 37 33 38 34 39 35 40 85 41 36 42 90 43 84 44 86 45
REMARK SMILES IDX 37 46 89 47 83 48 82 49 38 51 70 52 50 53 69 54 51 55 54 56
REMARK SMILES IDX 68 57 87 58 52 59 53 60 67 62 88 63 55 64 39 65 40 66 48 67
REMARK SMILES IDX 41 68 43 69 49 70 42 71 44 72 45 73 46 74 47 75 71 76 72 77
REMARK SMILES IDX 80 78 73 79 75 80 81 81 74 82 76 83 77 84 78 85 79 86 56 87
REMARK SMILES IDX 57 88 65 89 58 90 60 91 66 92 59 93 61 94 62 95 63 96 64 97
REMARK H PARENT 23 6 27 31 86 50 54 61
REMARK Flexibility Score: inf
ROOT
ATOM      1  C   UNL A   1      38.200  21.734  26.091  1.00  0.00     0.042 C 
ENDROOT
BRANCH   1   2
ATOM      2  C   UNL A   1      36.885  22.439  25.745  1.00  0.00     0.118 C 
BRANCH   2   3
ATOM      3  N   UNL A   1      35.779  21.858  26.490  1.00  0.00    -0.352 N 
ATOM      4  C   UNL A   1      34.491  22.244  26.677  1.00  0.00     0.251 C 
ATOM      5  O   UNL A   1      33.810  21.604  27.475  1.00  0.00    -0.270 OA
ATOM      6  H   UNL A   1      36.010  21.018  26.949  1.00  0.00     0.163 HD
BRANCH   4   7
ATOM      7  C   UNL A   1      33.858  23.341  25.904  1.00  0.00     0.067 C 
ATOM      8  C   UNL A   1      32.188  26.240  23.360  1.00  0.00    -0.002 A 
ATOM      9  C   UNL A   1      32.274  27.598  23.728  1.00  0.00     0.054 A 
ATOM     10  C   UNL A   1      32.755  25.276  24.206  1.00  0.00     0.131 A 
ATOM     11  C   UNL A   1      32.900  27.982  24.916  1.00  0.00     0.130 A 
ATOM     12  C   UNL A   1      33.341  25.646  25.415  1.00  0.00     0.021 A 
ATOM     13  O   UNL A   1      32.799  23.986  23.759  1.00  0.00    -0.475 OA
ATOM     14  C   UNL A   1      33.412  26.997  25.765  1.00  0.00     0.058 A 
ATOM     15  C   UNL A   1      33.957  24.632  26.257  1.00  0.00     0.025 C 
ATOM     16  C   UNL A   1      32.933  22.938  24.761  1.00  0.00     0.314 C 
BRANCH   8  17
ATOM     17  C   UNL A   1      31.516  25.861  22.059  1.00  0.00     0.036 C 
ATOM     18  C   UNL A   1      32.468  25.826  20.868  1.00  0.00     0.009 C 
ENDBRANCH   8  17
BRANCH  11  19
ATOM     19  O   UNL A   1      33.093  29.258  25.361  1.00  0.00    -0.406 OA
BRANCH  19  20
ATOM     20  C   UNL A   1      31.996  29.930  25.953  1.00  0.00     0.573 C 
ATOM     21  F   UNL A   1      31.081  30.287  25.025  1.00  0.00    -0.132 F 
ATOM     22  F   UNL A   1      31.403  29.159  26.890  1.00  0.00    -0.132 F 
ATOM     23  F   UNL A   1      32.443  31.057  26.551  1.00  0.00    -0.132 F 
ENDBRANCH  19  20
ENDBRANCH  11  19
BRANCH  16  24
ATOM     24  C   UNL A   1      33.270  21.639  23.994  1.00  0.00     0.429 C 
ATOM     25  F   UNL A   1      32.893  20.521  24.650  1.00  0.00    -0.167 F 
ATOM     26  F   UNL A   1      32.598  21.597  22.807  1.00  0.00    -0.167 F 
ATOM     27  F   UNL A   1      34.585  21.539  23.691  1.00  0.00    -0.167 F 
ENDBRANCH  16  24
ENDBRANCH   4   7
ENDBRANCH   2   3
ENDBRANCH   1   2
BRANCH   1  28
ATOM     28  C   UNL A   1      38.544  20.596  25.132  1.00  0.00     0.118 C 
BRANCH  28  29
ATOM     29  N   UNL A   1      39.439  19.627  25.746  1.00  0.00    -0.352 N 
ATOM     30  C   UNL A   1      40.687  19.806  26.286  1.00  0.00     0.251 C 
ATOM     31  H   UNL A   1      39.096  18.704  25.780  1.00  0.00     0.163 HD
ATOM     32  O   UNL A   1      41.382  18.822  26.529  1.00  0.00    -0.269 OA
BRANCH  30  33
ATOM     33  C   UNL A   1      41.198  21.164  26.577  1.00  0.00     0.039 A 
ATOM     34  C   UNL A   1      41.720  21.925  25.526  1.00  0.00     0.014 A 
ATOM     35  C   UNL A   1      41.216  21.667  27.881  1.00  0.00     0.014 A 
ATOM     36  C   UNL A   1      42.227  23.203  25.779  1.00  0.00     0.010 A 
ATOM     37  C   UNL A   1      41.656  22.966  28.118  1.00  0.00     0.010 A 
ATOM     38  C   UNL A   1      42.180  23.742  27.074  1.00  0.00    -0.014 A 
BRANCH  38  39
ATOM     39  C   UNL A   1      42.680  25.112  27.358  1.00  0.00     0.031 A 
ATOM     40  C   UNL A   1      41.779  26.129  28.004  1.00  0.00     0.074 A 
ATOM     41  C   UNL A   1      43.916  25.465  26.953  1.00  0.00     0.049 A 
ATOM     42  N   UNL A   1      42.014  27.388  28.270  1.00  0.00    -0.248 NA
ATOM     43  C   UNL A   1      40.426  25.682  28.376  1.00  0.00     0.031 C 
ATOM     44  C   UNL A   1      44.854  24.590  26.246  1.00  0.00     0.029 A 
ATOM     45  N   UNL A   1      44.584  26.659  27.050  1.00  0.00    -0.354 N 
ATOM     46  C   UNL A   1      40.831  27.893  28.800  1.00  0.00     0.074 A 
ATOM     47  C   UNL A   1      39.870  26.812  28.790  1.00  0.00     0.031 C 
ATOM     48  C   UNL A   1      45.975  25.278  25.973  1.00  0.00     0.029 A 
ATOM     49  C   UNL A   1      45.826  26.646  26.459  1.00  0.00     0.049 A 
ATOM     50  H   UNL A   1      44.210  27.450  27.501  1.00  0.00     0.167 HD
ATOM     51  C   UNL A   1      40.576  29.135  29.276  1.00  0.00     0.034 A 
ATOM     52  C   UNL A   1      46.739  27.627  26.318  1.00  0.00     0.034 A 
ATOM     53  C   UNL A   1      41.550  30.191  29.330  1.00  0.00     0.049 A 
ATOM     54  C   UNL A   1      46.451  28.981  26.905  1.00  0.00     0.074 A 
ATOM     55  C   UNL A   1      41.421  31.454  29.879  1.00  0.00     0.029 A 
ATOM     56  N   UNL A   1      42.834  30.109  28.811  1.00  0.00    -0.354 N 
ATOM     57  N   UNL A   1      45.385  29.392  27.548  1.00  0.00    -0.248 NA
ATOM     58  C   UNL A   1      47.507  29.997  26.785  1.00  0.00     0.031 C 
ATOM     59  C   UNL A   1      42.622  32.144  29.676  1.00  0.00     0.029 A 
ATOM     60  C   UNL A   1      43.506  31.301  29.022  1.00  0.00     0.049 A 
ATOM     61  H   UNL A   1      43.211  29.321  28.360  1.00  0.00     0.167 HD
ATOM     62  C   UNL A   1      45.654  30.698  27.941  1.00  0.00     0.074 A 
ATOM     63  C   UNL A   1      46.993  31.003  27.480  1.00  0.00     0.031 C 
ATOM     64  C   UNL A   1      44.860  31.571  28.609  1.00  0.00     0.034 A 
BRANCH  51  65
ATOM     65  C   UNL A   1      39.201  29.405  29.832  1.00  0.00     0.023 A 
ATOM     66  C   UNL A   1      38.896  29.013  31.152  1.00  0.00     0.012 A 
ATOM     67  C   UNL A   1      38.234  30.097  29.076  1.00  0.00     0.148 A 
ATOM     68  C   UNL A   1      37.640  29.271  31.698  1.00  0.00     0.002 A 
ATOM     69  C   UNL A   1      36.999  30.390  29.644  1.00  0.00     0.091 A 
ATOM     70  F   UNL A   1      38.533  30.445  27.817  1.00  0.00    -0.205 F 
ATOM     71  C   UNL A   1      36.696  29.969  30.949  1.00  0.00     0.022 A 
BRANCH  69  72
ATOM     72  S   UNL A   1      35.744  31.354  28.792  1.00  0.00     0.127 S 
ATOM     73  O   UNL A   1      36.538  32.459  28.253  1.00  0.00    -0.237 OA
ATOM     74  O   UNL A   1      35.257  30.408  27.788  1.00  0.00    -0.237 OA
ATOM     75  O   UNL A   1      34.765  31.722  29.805  1.00  0.00    -0.744 OA
ENDBRANCH  69  72
ENDBRANCH  51  65
BRANCH  52  76
ATOM     76  C   UNL A   1      48.041  27.338  25.653  1.00  0.00     0.023 A 
ATOM     77  C   UNL A   1      49.113  26.842  26.421  1.00  0.00     0.012 A 
ATOM     78  C   UNL A   1      48.214  27.517  24.267  1.00  0.00     0.148 A 
ATOM     79  C   UNL A   1      50.342  26.557  25.826  1.00  0.00     0.002 A 
ATOM     80  C   UNL A   1      49.424  27.179  23.672  1.00  0.00     0.091 A 
ATOM     81  F   UNL A   1      47.187  28.001  23.555  1.00  0.00    -0.205 F 
ATOM     82  C   UNL A   1      50.495  26.714  24.451  1.00  0.00     0.022 A 
BRANCH  80  83
ATOM     83  S   UNL A   1      49.664  27.220  21.892  1.00  0.00     0.127 S 
ATOM     84  O   UNL A   1      51.046  26.767  21.766  1.00  0.00    -0.237 OA
ATOM     85  O   UNL A   1      48.656  26.266  21.427  1.00  0.00    -0.237 OA
ATOM     86  O   UNL A   1      49.409  28.599  21.495  1.00  0.00    -0.744 OA
ENDBRANCH  80  83
ENDBRANCH  52  76
BRANCH  64  87
ATOM     87  C   UNL A   1      45.424  32.931  28.920  1.00  0.00     0.023 A 
ATOM     88  C   UNL A   1      46.085  33.153  30.144  1.00  0.00     0.012 A 
ATOM     89  C   UNL A   1      45.367  33.966  27.966  1.00  0.00     0.148 A 
ATOM     90  C   UNL A   1      46.653  34.395  30.427  1.00  0.00     0.002 A 
ATOM     91  C   UNL A   1      45.979  35.185  28.235  1.00  0.00     0.091 A 
ATOM     92  F   UNL A   1      44.716  33.742  26.816  1.00  0.00    -0.205 F 
ATOM     93  C   UNL A   1      46.611  35.405  29.469  1.00  0.00     0.022 A 
BRANCH  91  94
ATOM     94  S   UNL A   1      46.057  36.509  27.023  1.00  0.00     0.127 S 
ATOM     95  O   UNL A   1      44.682  37.004  27.032  1.00  0.00    -0.237 OA
ATOM     96  O   UNL A   1      47.037  37.418  27.617  1.00  0.00    -0.237 OA
ATOM     97  O   UNL A   1      46.490  35.887  25.779  1.00  0.00    -0.744 OA
ENDBRANCH  91  94
ENDBRANCH  64  87
ENDBRANCH  38  39
ENDBRANCH  30  33
ENDBRANCH  28  29
ENDBRANCH   1  28
TORSDOF 17
ENDMDL
MODEL 3
REMARK VINA RESULT:     -10.9      4.854      9.876
REMARK SMILES CCc1cc(OC(F)(F)F)cc2c1O[C@@H](C(F)(F)F)C(C(=O)NCCCNC(=O)c1ccc(-c3c4nc(c(-c5cccc(S(=O)(=O)[O-])c5F)c5ccc([nH]5)c(-c5cccc(S(=O)(=O)[O-])c5F)c5nc(c(-c6cccc(S(=O)(=O)[O-])c6F)c6ccc3[nH]6)C=C5)C=C4)cc1)=C2
REMARK SMILES IDX 25 1 24 2 23 3 21 4 22 5 20 7 3 8 4 9 13 10 5 11 12 12 14 13
REMARK SMILES IDX 11 14 93 15 15 16 2 17 1 18 6 19 7 20 8 21 9 22 10 23 16 24
REMARK SMILES IDX 17 25 18 26 19 27 26 28 27 29 28 30 29 32 30 33 31 34 92 35
REMARK SMILES IDX 32 36 91 37 33 38 34 39 35 40 85 41 36 42 90 43 84 44 86 45
REMARK SMILES IDX 37 46 89 47 83 48 82 49 38 51 70 52 50 53 69 54 51 55 54 56
REMARK SMILES IDX 68 57 87 58 52 59 53 60 67 62 88 63 55 64 39 65 40 66 48 67
REMARK SMILES IDX 41 68 43 69 49 70 42 71 44 72 45 73 46 74 47 75 71 76 72 77
REMARK SMILES IDX 80 78 73 79 75 80 81 81 74 82 76 83 77 84 78 85 79 86 56 87
REMARK SMILES IDX 57 88 65 89 58 90 60 91 66 92 59 93 61 94 62 95 63 96 64 97
REMARK H PARENT 23 6 27 31 86 50 54 61
REMARK Flexibility Score: inf
ROOT
ATOM      1  C   UNL A   1      35.506  22.019  24.513  1.00  0.00     0.042 C 
ENDROOT
BRANCH   1   2
ATOM      2  C   UNL A   1      34.765  22.837  23.452  1.00  0.00     0.118 C 
BRANCH   2   3
ATOM      3  N   UNL A   1      33.404  22.350  23.285  1.00  0.00    -0.352 N 
ATOM      4  C   UNL A   1      32.190  22.918  23.497  1.00  0.00     0.251 C 
ATOM      5  O   UNL A   1      31.194  22.206  23.383  1.00  0.00    -0.270 OA
ATOM      6  H   UNL A   1      33.354  21.424  22.953  1.00  0.00     0.163 HD
BRANCH   4   7
ATOM      7  C   UNL A   1      32.014  24.366  23.772  1.00  0.00     0.067 C 
ATOM      8  C   UNL A   1      31.405  28.354  24.951  1.00  0.00    -0.002 A 
ATOM      9  C   UNL A   1      30.829  29.254  24.032  1.00  0.00     0.054 A 
ATOM     10  C   UNL A   1      31.598  27.022  24.559  1.00  0.00     0.131 A 
ATOM     11  C   UNL A   1      30.466  28.837  22.750  1.00  0.00     0.130 A 
ATOM     12  C   UNL A   1      31.280  26.608  23.266  1.00  0.00     0.021 A 
ATOM     13  O   UNL A   1      32.011  26.133  25.510  1.00  0.00    -0.475 OA
ATOM     14  C   UNL A   1      30.716  27.516  22.367  1.00  0.00     0.058 A 
ATOM     15  C   UNL A   1      31.453  25.211  22.894  1.00  0.00     0.025 C 
ATOM     16  C   UNL A   1      32.652  24.910  25.046  1.00  0.00     0.314 C 
BRANCH   8  17
ATOM     17  C   UNL A   1      31.774  28.836  26.336  1.00  0.00     0.036 C 
ATOM     18  C   UNL A   1      31.805  30.356  26.464  1.00  0.00     0.009 C 
ENDBRANCH   8  17
BRANCH  11  19
ATOM     19  O   UNL A   1      29.859  29.591  21.787  1.00  0.00    -0.406 OA
BRANCH  19  20
ATOM     20  C   UNL A   1      28.518  29.993  22.004  1.00  0.00     0.573 C 
ATOM     21  F   UNL A   1      28.451  31.029  22.870  1.00  0.00    -0.132 F 
ATOM     22  F   UNL A   1      27.923  30.342  20.844  1.00  0.00    -0.132 F 
ATOM     23  F   UNL A   1      27.832  28.959  22.540  1.00  0.00    -0.132 F 
ENDBRANCH  19  20
ENDBRANCH  11  19
BRANCH  16  24
ATOM     24  C   UNL A   1      32.729  23.966  26.267  1.00  0.00     0.429 C 
ATOM     25  F   UNL A   1      33.983  23.821  26.748  1.00  0.00    -0.167 F 
ATOM     26  F   UNL A   1      32.005  24.470  27.307  1.00  0.00    -0.167 F 
ATOM     27  F   UNL A   1      32.223  22.738  26.008  1.00  0.00    -0.167 F 
ENDBRANCH  16  24
ENDBRANCH   4   7
ENDBRANCH   2   3
ENDBRANCH   1   2
BRANCH   1  28
ATOM     28  C   UNL A   1      37.024  22.055  24.350  1.00  0.00     0.118 C 
BRANCH  28  29
ATOM     29  N   UNL A   1      37.674  21.021  25.142  1.00  0.00    -0.352 N 
ATOM     30  C   UNL A   1      38.811  21.088  25.907  1.00  0.00     0.251 C 
ATOM     31  H   UNL A   1      37.231  20.142  25.127  1.00  0.00     0.163 HD
ATOM     32  O   UNL A   1      39.334  20.047  26.295  1.00  0.00    -0.269 OA
BRANCH  30  33
ATOM     33  C   UNL A   1      39.406  22.395  26.264  1.00  0.00     0.039 A 
ATOM     34  C   UNL A   1      40.521  22.418  27.108  1.00  0.00     0.014 A 
ATOM     35  C   UNL A   1      38.841  23.594  25.820  1.00  0.00     0.014 A 
ATOM     36  C   UNL A   1      41.089  23.640  27.476  1.00  0.00     0.010 A 
ATOM     37  C   UNL A   1      39.450  24.806  26.131  1.00  0.00     0.010 A 
ATOM     38  C   UNL A   1      40.569  24.845  26.975  1.00  0.00    -0.014 A 
BRANCH  38  39
ATOM     39  C   UNL A   1      41.180  26.153  27.325  1.00  0.00     0.031 A 
ATOM     40  C   UNL A   1      42.602  26.454  26.937  1.00  0.00     0.074 A 
ATOM     41  C   UNL A   1      40.481  27.034  28.068  1.00  0.00     0.049 A 
ATOM     42  N   UNL A   1      43.325  27.509  27.209  1.00  0.00    -0.248 NA
ATOM     43  C   UNL A   1      43.317  25.423  26.165  1.00  0.00     0.031 C 
ATOM     44  C   UNL A   1      39.122  26.823  28.571  1.00  0.00     0.029 A 
ATOM     45  N   UNL A   1      40.828  28.268  28.555  1.00  0.00    -0.354 N 
ATOM     46  C   UNL A   1      44.586  27.254  26.681  1.00  0.00     0.074 A 
ATOM     47  C   UNL A   1      44.539  25.931  26.098  1.00  0.00     0.031 C 
ATOM     48  C   UNL A   1      38.751  27.890  29.296  1.00  0.00     0.029 A 
ATOM     49  C   UNL A   1      39.852  28.848  29.333  1.00  0.00     0.049 A 
ATOM     50  H   UNL A   1      41.692  28.699  28.366  1.00  0.00     0.167 HD
ATOM     51  C   UNL A   1      45.677  28.058  26.660  1.00  0.00     0.034 A 
ATOM     52  C   UNL A   1      39.847  30.015  30.006  1.00  0.00     0.034 A 
ATOM     53  C   UNL A   1      45.702  29.392  27.196  1.00  0.00     0.049 A 
ATOM     54  C   UNL A   1      41.051  30.912  29.918  1.00  0.00     0.074 A 
ATOM     55  C   UNL A   1      46.725  30.322  27.140  1.00  0.00     0.029 A 
ATOM     56  N   UNL A   1      44.659  29.985  27.890  1.00  0.00    -0.354 N 
ATOM     57  N   UNL A   1      42.178  30.720  29.276  1.00  0.00    -0.248 NA
ATOM     58  C   UNL A   1      40.970  32.205  30.614  1.00  0.00     0.031 C 
ATOM     59  C   UNL A   1      46.307  31.472  27.818  1.00  0.00     0.029 A 
ATOM     60  C   UNL A   1      45.015  31.266  28.274  1.00  0.00     0.049 A 
ATOM     61  H   UNL A   1      43.794  29.558  28.082  1.00  0.00     0.167 HD
ATOM     62  C   UNL A   1      42.924  31.879  29.458  1.00  0.00     0.074 A 
ATOM     63  C   UNL A   1      42.112  32.776  30.254  1.00  0.00     0.031 C 
ATOM     64  C   UNL A   1      44.174  32.170  29.018  1.00  0.00     0.034 A 
BRANCH  51  65
ATOM     65  C   UNL A   1      46.918  27.537  25.982  1.00  0.00     0.023 A 
ATOM     66  C   UNL A   1      47.128  27.805  24.614  1.00  0.00     0.012 A 
ATOM     67  C   UNL A   1      47.905  26.839  26.708  1.00  0.00     0.148 A 
ATOM     68  C   UNL A   1      48.279  27.355  23.969  1.00  0.00     0.002 A 
ATOM     69  C   UNL A   1      49.070  26.433  26.068  1.00  0.00     0.091 A 
ATOM     70  F   UNL A   1      47.681  26.576  28.004  1.00  0.00    -0.205 F 
ATOM     71  C   UNL A   1      49.254  26.680  24.698  1.00  0.00     0.022 A 
BRANCH  69  72
ATOM     72  S   UNL A   1      50.422  25.628  26.936  1.00  0.00     0.127 S 
ATOM     73  O   UNL A   1      50.770  26.635  27.938  1.00  0.00    -0.237 OA
ATOM     74  O   UNL A   1      49.775  24.432  27.474  1.00  0.00    -0.237 OA
ATOM     75  O   UNL A   1      51.444  25.366  25.931  1.00  0.00    -0.744 OA
ENDBRANCH  69  72
ENDBRANCH  51  65
BRANCH  52  76
ATOM     76  C   UNL A   1      38.632  30.431  30.761  1.00  0.00     0.023 A 
ATOM     77  C   UNL A   1      38.524  30.106  32.127  1.00  0.00     0.012 A 
ATOM     78  C   UNL A   1      37.605  31.174  30.148  1.00  0.00     0.148 A 
ATOM     79  C   UNL A   1      37.400  30.487  32.862  1.00  0.00     0.002 A 
ATOM     80  C   UNL A   1      36.515  31.598  30.899  1.00  0.00     0.091 A 
ATOM     81  F   UNL A   1      37.720  31.464  28.844  1.00  0.00    -0.205 F 
ATOM     82  C   UNL A   1      36.402  31.242  32.252  1.00  0.00     0.022 A 
BRANCH  80  83
ATOM     83  S   UNL A   1      35.252  32.688  30.232  1.00  0.00     0.127 S 
ATOM     84  O   UNL A   1      34.395  32.901  31.394  1.00  0.00    -0.237 OA
ATOM     85  O   UNL A   1      36.040  33.850  29.822  1.00  0.00    -0.237 OA
ATOM     86  O   UNL A   1      34.650  31.955  29.125  1.00  0.00    -0.744 OA
ENDBRANCH  80  83
ENDBRANCH  52  76
BRANCH  64  87
ATOM     87  C   UNL A   1      44.735  33.526  29.352  1.00  0.00     0.023 A 
ATOM     88  C   UNL A   1      45.439  33.717  30.557  1.00  0.00     0.012 A 
ATOM     89  C   UNL A   1      44.630  34.590  28.435  1.00  0.00     0.148 A 
ATOM     90  C   UNL A   1      46.003  34.956  30.858  1.00  0.00     0.002 A 
ATOM     91  C   UNL A   1      45.238  35.808  28.720  1.00  0.00     0.091 A 
ATOM     92  F   UNL A   1      43.939  34.395  27.303  1.00  0.00    -0.205 F 
ATOM     93  C   UNL A   1      45.913  35.996  29.935  1.00  0.00     0.022 A 
BRANCH  91  94
ATOM     94  S   UNL A   1      45.256  37.170  27.549  1.00  0.00     0.127 S 
ATOM     95  O   UNL A   1      45.982  38.196  28.296  1.00  0.00    -0.237 OA
ATOM     96  O   UNL A   1      45.992  36.601  26.419  1.00  0.00    -0.237 OA
ATOM     97  O   UNL A   1      43.859  37.472  27.266  1.00  0.00    -0.744 OA
ENDBRANCH  91  94
ENDBRANCH  64  87
ENDBRANCH  38  39
ENDBRANCH  30  33
ENDBRANCH  28  29
ENDBRANCH   1  28
TORSDOF 17
ENDMDL
