MODEL 1
REMARK VINA RESULT:     -11.3      0.000      0.000
REMARK SMILES CC[C@@H]1C=CC[C@@H]2C(=O)N(CCCC(=O)NCCCNC(=O)c3ccc(-c4c5nc(c(-c6cccc(S(=O)(=O)[O-])c6F)c6ccc([nH]6)c(-c6cccc(S(=O)(=O)[O-])c6F)c6nc(c(-c7cccc(S(=O)(=O)[O-])c7F)c7ccc4[nH]7)C=C6)C=C5)cc3)C(=O)[C@@H]21
REMARK SMILES IDX 17 1 16 2 14 3 15 4 13 6 12 7 11 8 10 9 3 10 4 11 88 12 5 13
REMARK SMILES IDX 7 14 86 15 6 16 8 17 87 18 9 19 2 20 1 21 18 22 19 23 20 24
REMARK SMILES IDX 21 25 22 27 23 28 24 29 85 30 25 31 84 32 26 33 27 34 28 35
REMARK SMILES IDX 78 36 29 37 83 38 77 39 79 40 30 41 82 42 76 43 75 44 31 46
REMARK SMILES IDX 63 47 43 48 62 49 44 50 47 51 61 52 80 53 45 54 46 55 60 57
REMARK SMILES IDX 81 58 48 59 32 60 33 61 41 62 34 63 36 64 42 65 35 66 37 67
REMARK SMILES IDX 38 68 39 69 40 70 64 71 65 72 73 73 66 74 68 75 74 76 67 77
REMARK SMILES IDX 69 78 70 79 71 80 72 81 49 82 50 83 58 84 51 85 53 86 59 87
REMARK SMILES IDX 52 88 54 89 55 90 56 91 57 92
REMARK H PARENT 16 5 20 26 79 45 47 56
REMARK Flexibility Score: inf
ROOT
ATOM      1  C   UNL A   1      32.804  26.937  26.406  1.00  0.00     0.117 C 
ENDROOT
BRANCH   1   2
ATOM      2  N   UNL A   1      31.577  26.232  26.704  1.00  0.00    -0.356 N 
ATOM      3  C   UNL A   1      30.831  25.368  25.971  1.00  0.00     0.220 C 
ATOM      4  O   UNL A   1      29.860  24.858  26.542  1.00  0.00    -0.275 OA
ATOM      5  H   UNL A   1      31.218  26.411  27.603  1.00  0.00     0.163 HD
BRANCH   3   6
ATOM      6  C   UNL A   1      31.175  24.937  24.555  1.00  0.00     0.102 C 
BRANCH   6   7
ATOM      7  C   UNL A   1      30.770  23.557  24.045  1.00  0.00     0.032 C 
BRANCH   7   8
ATOM      8  C   UNL A   1      31.730  22.680  23.247  1.00  0.00     0.129 C 
BRANCH   8   9
ATOM      9  N   UNL A   1      33.103  22.464  23.696  1.00  0.00    -0.282 N 
ATOM     10  C   UNL A   1      34.820  22.118  26.436  1.00  0.00     0.024 C 
ATOM     11  C   UNL A   1      34.843  23.634  26.400  1.00  0.00    -0.027 C 
ATOM     12  C   UNL A   1      34.770  21.491  25.023  1.00  0.00     0.099 C 
ATOM     13  C   UNL A   1      35.597  24.268  25.489  1.00  0.00    -0.030 C 
ATOM     14  C   UNL A   1      35.443  22.338  23.944  1.00  0.00     0.096 C 
ATOM     15  C   UNL A   1      33.370  21.384  24.488  1.00  0.00     0.233 C 
ATOM     16  C   UNL A   1      36.333  23.472  24.448  1.00  0.00     0.041 C 
ATOM     17  C   UNL A   1      34.276  22.962  23.218  1.00  0.00     0.233 C 
ATOM     18  O   UNL A   1      32.620  20.443  24.701  1.00  0.00    -0.274 OA
ATOM     19  O   UNL A   1      34.465  23.741  22.294  1.00  0.00    -0.274 OA
BRANCH  10  20
ATOM     20  C   UNL A   1      33.744  21.564  27.392  1.00  0.00     0.005 C 
ATOM     21  C   UNL A   1      32.709  22.624  27.739  1.00  0.00     0.004 C 
ENDBRANCH  10  20
ENDBRANCH   8   9
ENDBRANCH   7   8
ENDBRANCH   6   7
ENDBRANCH   3   6
ENDBRANCH   1   2
BRANCH   1  22
ATOM     22  C   UNL A   1      32.843  28.313  27.055  1.00  0.00     0.042 C 
BRANCH  22  23
ATOM     23  C   UNL A   1      34.018  29.148  26.602  1.00  0.00     0.118 C 
BRANCH  23  24
ATOM     24  N   UNL A   1      33.870  30.553  26.966  1.00  0.00    -0.352 N 
ATOM     25  C   UNL A   1      34.616  31.312  27.836  1.00  0.00     0.251 C 
ATOM     26  H   UNL A   1      33.128  31.026  26.523  1.00  0.00     0.163 HD
ATOM     27  O   UNL A   1      34.230  32.434  28.149  1.00  0.00    -0.269 OA
BRANCH  25  28
ATOM     28  C   UNL A   1      35.866  30.763  28.411  1.00  0.00     0.039 A 
ATOM     29  C   UNL A   1      35.795  29.808  29.429  1.00  0.00     0.014 A 
ATOM     30  C   UNL A   1      37.109  31.176  27.931  1.00  0.00     0.014 A 
ATOM     31  C   UNL A   1      36.969  29.226  29.916  1.00  0.00     0.010 A 
ATOM     32  C   UNL A   1      38.258  30.503  28.318  1.00  0.00     0.010 A 
ATOM     33  C   UNL A   1      38.208  29.545  29.339  1.00  0.00    -0.014 A 
BRANCH  33  34
ATOM     34  C   UNL A   1      39.483  28.946  29.809  1.00  0.00     0.031 A 
ATOM     35  C   UNL A   1      40.236  29.610  30.935  1.00  0.00     0.074 A 
ATOM     36  C   UNL A   1      40.015  27.890  29.165  1.00  0.00     0.049 A 
ATOM     37  N   UNL A   1      41.426  29.343  31.405  1.00  0.00    -0.248 NA
ATOM     38  C   UNL A   1      39.583  30.760  31.589  1.00  0.00     0.031 C 
ATOM     39  C   UNL A   1      39.421  27.208  28.014  1.00  0.00     0.029 A 
ATOM     40  N   UNL A   1      41.198  27.223  29.369  1.00  0.00    -0.354 N 
ATOM     41  C   UNL A   1      41.683  30.320  32.360  1.00  0.00     0.074 A 
ATOM     42  C   UNL A   1      40.548  31.214  32.372  1.00  0.00     0.031 C 
ATOM     43  C   UNL A   1      40.237  26.216  27.619  1.00  0.00     0.029 A 
ATOM     44  C   UNL A   1      41.429  26.216  28.461  1.00  0.00     0.049 A 
ATOM     45  H   UNL A   1      41.823  27.445  30.097  1.00  0.00     0.167 HD
ATOM     46  C   UNL A   1      42.750  30.443  33.183  1.00  0.00     0.034 A 
ATOM     47  C   UNL A   1      42.488  25.395  28.316  1.00  0.00     0.034 A 
ATOM     48  C   UNL A   1      43.843  29.512  33.213  1.00  0.00     0.049 A 
ATOM     49  C   UNL A   1      43.638  25.517  29.280  1.00  0.00     0.074 A 
ATOM     50  C   UNL A   1      44.927  29.486  34.071  1.00  0.00     0.029 A 
ATOM     51  N   UNL A   1      43.987  28.440  32.346  1.00  0.00    -0.354 N 
ATOM     52  N   UNL A   1      43.798  26.361  30.271  1.00  0.00    -0.248 NA
ATOM     53  C   UNL A   1      44.736  24.551  29.132  1.00  0.00     0.031 C 
ATOM     54  C   UNL A   1      45.743  28.411  33.705  1.00  0.00     0.029 A 
ATOM     55  C   UNL A   1      45.144  27.746  32.645  1.00  0.00     0.049 A 
ATOM     56  H   UNL A   1      43.359  28.208  31.625  1.00  0.00     0.167 HD
ATOM     57  C   UNL A   1      44.988  25.999  30.891  1.00  0.00     0.074 A 
ATOM     58  C   UNL A   1      45.503  24.852  30.171  1.00  0.00     0.031 C 
ATOM     59  C   UNL A   1      45.605  26.568  31.956  1.00  0.00     0.034 A 
BRANCH  46  60
ATOM     60  C   UNL A   1      42.759  31.597  34.154  1.00  0.00     0.023 A 
ATOM     61  C   UNL A   1      43.372  32.814  33.789  1.00  0.00     0.012 A 
ATOM     62  C   UNL A   1      42.122  31.494  35.405  1.00  0.00     0.148 A 
ATOM     63  C   UNL A   1      43.391  33.893  34.672  1.00  0.00     0.002 A 
ATOM     64  C   UNL A   1      42.099  32.592  36.258  1.00  0.00     0.091 A 
ATOM     65  F   UNL A   1      41.562  30.324  35.744  1.00  0.00    -0.205 F 
ATOM     66  C   UNL A   1      42.746  33.785  35.900  1.00  0.00     0.022 A 
BRANCH  64  67
ATOM     67  S   UNL A   1      41.221  32.584  37.824  1.00  0.00     0.127 S 
ATOM     68  O   UNL A   1      39.894  32.126  37.416  1.00  0.00    -0.237 OA
ATOM     69  O   UNL A   1      41.991  31.612  38.602  1.00  0.00    -0.237 OA
ATOM     70  O   UNL A   1      41.282  33.950  38.327  1.00  0.00    -0.744 OA
ENDBRANCH  64  67
ENDBRANCH  46  60
BRANCH  47  71
ATOM     71  C   UNL A   1      42.479  24.341  27.261  1.00  0.00     0.023 A 
ATOM     72  C   UNL A   1      43.323  24.480  26.140  1.00  0.00     0.012 A 
ATOM     73  C   UNL A   1      41.664  23.199  27.367  1.00  0.00     0.148 A 
ATOM     74  C   UNL A   1      43.327  23.520  25.129  1.00  0.00     0.002 A 
ATOM     75  C   UNL A   1      41.712  22.219  26.382  1.00  0.00     0.091 A 
ATOM     76  F   UNL A   1      40.864  23.088  28.437  1.00  0.00    -0.205 F 
ATOM     77  C   UNL A   1      42.529  22.386  25.253  1.00  0.00     0.022 A 
BRANCH  75  78
ATOM     78  S   UNL A   1      40.815  20.669  26.516  1.00  0.00     0.127 S 
ATOM     79  O   UNL A   1      40.938  20.374  27.941  1.00  0.00    -0.237 OA
ATOM     80  O   UNL A   1      39.473  21.060  26.081  1.00  0.00    -0.237 OA
ATOM     81  O   UNL A   1      41.491  19.743  25.618  1.00  0.00    -0.744 OA
ENDBRANCH  75  78
ENDBRANCH  47  71
BRANCH  59  82
ATOM     82  C   UNL A   1      46.870  25.930  32.461  1.00  0.00     0.023 A 
ATOM     83  C   UNL A   1      48.123  26.373  31.995  1.00  0.00     0.012 A 
ATOM     84  C   UNL A   1      46.814  24.956  33.479  1.00  0.00     0.148 A 
ATOM     85  C   UNL A   1      49.300  25.836  32.515  1.00  0.00     0.002 A 
ATOM     86  C   UNL A   1      47.989  24.464  34.029  1.00  0.00     0.091 A 
ATOM     87  F   UNL A   1      45.609  24.537  33.895  1.00  0.00    -0.205 F 
ATOM     88  C   UNL A   1      49.234  24.894  33.539  1.00  0.00     0.022 A 
BRANCH  86  89
ATOM     89  S   UNL A   1      48.001  23.330  35.421  1.00  0.00     0.127 S 
ATOM     90  O   UNL A   1      47.326  22.161  34.858  1.00  0.00    -0.237 OA
ATOM     91  O   UNL A   1      49.433  23.151  35.662  1.00  0.00    -0.237 OA
ATOM     92  O   UNL A   1      47.286  24.003  36.496  1.00  0.00    -0.744 OA
ENDBRANCH  86  89
ENDBRANCH  59  82
ENDBRANCH  33  34
ENDBRANCH  25  28
ENDBRANCH  23  24
ENDBRANCH  22  23
ENDBRANCH   1  22
TORSDOF 17
ENDMDL
MODEL 2
REMARK VINA RESULT:     -11.3      1.997      2.649
REMARK SMILES CC[C@@H]1C=CC[C@@H]2C(=O)N(CCCC(=O)NCCCNC(=O)c3ccc(-c4c5nc(c(-c6cccc(S(=O)(=O)[O-])c6F)c6ccc([nH]6)c(-c6cccc(S(=O)(=O)[O-])c6F)c6nc(c(-c7cccc(S(=O)(=O)[O-])c7F)c7ccc4[nH]7)C=C6)C=C5)cc3)C(=O)[C@@H]21
REMARK SMILES IDX 17 1 16 2 14 3 15 4 13 6 12 7 11 8 10 9 3 10 4 11 88 12 5 13
REMARK SMILES IDX 7 14 86 15 6 16 8 17 87 18 9 19 2 20 1 21 18 22 19 23 20 24
REMARK SMILES IDX 21 25 22 27 23 28 24 29 85 30 25 31 84 32 26 33 27 34 28 35
REMARK SMILES IDX 78 36 29 37 83 38 77 39 79 40 30 41 82 42 76 43 75 44 31 46
REMARK SMILES IDX 63 47 43 48 62 49 44 50 47 51 61 52 80 53 45 54 46 55 60 57
REMARK SMILES IDX 81 58 48 59 32 60 33 61 41 62 34 63 36 64 42 65 35 66 37 67
REMARK SMILES IDX 38 68 39 69 40 70 64 71 65 72 73 73 66 74 68 75 74 76 67 77
REMARK SMILES IDX 69 78 70 79 71 80 72 81 49 82 50 83 58 84 51 85 53 86 59 87
REMARK SMILES IDX 52 88 54 89 55 90 56 91 57 92
REMARK H PARENT 16 5 20 26 79 45 47 56
REMARK Flexibility Score: inf
ROOT
ATOM      1  C   UNL A   1      31.396  28.485  24.137  1.00  0.00     0.117 C 
ENDROOT
BRANCH   1   2
ATOM      2  N   UNL A   1      31.276  27.748  25.375  1.00  0.00    -0.356 N 
ATOM      3  C   UNL A   1      30.878  26.477  25.635  1.00  0.00     0.220 C 
ATOM      4  O   UNL A   1      30.963  26.103  26.810  1.00  0.00    -0.275 OA
ATOM      5  H   UNL A   1      31.531  28.261  26.175  1.00  0.00     0.163 HD
BRANCH   3   6
ATOM      6  C   UNL A   1      30.433  25.490  24.568  1.00  0.00     0.102 C 
BRANCH   6   7
ATOM      7  C   UNL A   1      30.790  24.011  24.683  1.00  0.00     0.032 C 
BRANCH   7   8
ATOM      8  C   UNL A   1      31.562  23.281  23.589  1.00  0.00     0.129 C 
BRANCH   8   9
ATOM      9  N   UNL A   1      32.941  22.848  23.801  1.00  0.00    -0.282 N 
ATOM     10  C   UNL A   1      34.926  21.878  26.187  1.00  0.00     0.024 C 
ATOM     11  C   UNL A   1      35.140  23.369  26.370  1.00  0.00    -0.027 C 
ATOM     12  C   UNL A   1      34.621  21.498  24.720  1.00  0.00     0.099 C 
ATOM     13  C   UNL A   1      35.850  24.057  25.463  1.00  0.00    -0.030 C 
ATOM     14  C   UNL A   1      35.258  22.431  23.690  1.00  0.00     0.096 C 
ATOM     15  C   UNL A   1      33.163  21.631  24.380  1.00  0.00     0.233 C 
ATOM     16  C   UNL A   1      36.343  23.366  24.223  1.00  0.00     0.041 C 
ATOM     17  C   UNL A   1      34.100  23.287  23.238  1.00  0.00     0.233 C 
ATOM     18  O   UNL A   1      32.330  20.755  24.558  1.00  0.00    -0.274 OA
ATOM     19  O   UNL A   1      34.272  24.180  22.421  1.00  0.00    -0.274 OA
BRANCH  10  20
ATOM     20  C   UNL A   1      33.915  21.296  27.195  1.00  0.00     0.005 C 
ATOM     21  C   UNL A   1      33.080  22.391  27.841  1.00  0.00     0.004 C 
ENDBRANCH  10  20
ENDBRANCH   8   9
ENDBRANCH   7   8
ENDBRANCH   6   7
ENDBRANCH   3   6
ENDBRANCH   1   2
BRANCH   1  22
ATOM     22  C   UNL A   1      32.704  29.257  24.057  1.00  0.00     0.042 C 
BRANCH  22  23
ATOM     23  C   UNL A   1      33.317  29.524  25.412  1.00  0.00     0.118 C 
BRANCH  23  24
ATOM     24  N   UNL A   1      32.915  30.817  25.955  1.00  0.00    -0.352 N 
ATOM     25  C   UNL A   1      33.425  31.510  27.028  1.00  0.00     0.251 C 
ATOM     26  H   UNL A   1      32.171  31.258  25.484  1.00  0.00     0.163 HD
ATOM     27  O   UNL A   1      32.837  32.505  27.444  1.00  0.00    -0.269 OA
BRANCH  25  28
ATOM     28  C   UNL A   1      34.661  31.039  27.692  1.00  0.00     0.039 A 
ATOM     29  C   UNL A   1      35.720  31.930  27.890  1.00  0.00     0.014 A 
ATOM     30  C   UNL A   1      34.770  29.722  28.138  1.00  0.00     0.014 A 
ATOM     31  C   UNL A   1      36.855  31.513  28.591  1.00  0.00     0.010 A 
ATOM     32  C   UNL A   1      35.833  29.351  28.947  1.00  0.00     0.010 A 
ATOM     33  C   UNL A   1      36.906  30.228  29.155  1.00  0.00    -0.014 A 
BRANCH  33  34
ATOM     34  C   UNL A   1      38.082  29.740  29.919  1.00  0.00     0.031 A 
ATOM     35  C   UNL A   1      38.320  30.261  31.315  1.00  0.00     0.074 A 
ATOM     36  C   UNL A   1      38.983  28.929  29.333  1.00  0.00     0.049 A 
ATOM     37  N   UNL A   1      39.348  30.081  32.101  1.00  0.00    -0.248 NA
ATOM     38  C   UNL A   1      37.282  31.141  31.884  1.00  0.00     0.031 C 
ATOM     39  C   UNL A   1      38.905  28.420  27.962  1.00  0.00     0.029 A 
ATOM     40  N   UNL A   1      40.165  28.417  29.808  1.00  0.00    -0.354 N 
ATOM     41  C   UNL A   1      39.108  30.866  33.222  1.00  0.00     0.074 A 
ATOM     42  C   UNL A   1      37.862  31.561  32.998  1.00  0.00     0.031 C 
ATOM     43  C   UNL A   1      39.986  27.663  27.710  1.00  0.00     0.029 A 
ATOM     44  C   UNL A   1      40.853  27.664  28.884  1.00  0.00     0.049 A 
ATOM     45  H   UNL A   1      40.490  28.573  30.724  1.00  0.00     0.167 HD
ATOM     46  C   UNL A   1      39.839  30.973  34.356  1.00  0.00     0.034 A 
ATOM     47  C   UNL A   1      42.053  27.056  28.971  1.00  0.00     0.034 A 
ATOM     48  C   UNL A   1      41.041  30.227  34.600  1.00  0.00     0.049 A 
ATOM     49  C   UNL A   1      42.820  27.145  30.263  1.00  0.00     0.074 A 
ATOM     50  C   UNL A   1      41.809  30.185  35.750  1.00  0.00     0.029 A 
ATOM     51  N   UNL A   1      41.650  29.390  33.677  1.00  0.00    -0.354 N 
ATOM     52  N   UNL A   1      42.506  27.780  31.366  1.00  0.00    -0.248 NA
ATOM     53  C   UNL A   1      44.087  26.403  30.338  1.00  0.00     0.031 C 
ATOM     54  C   UNL A   1      42.898  29.341  35.513  1.00  0.00     0.029 A 
ATOM     55  C   UNL A   1      42.786  28.828  34.229  1.00  0.00     0.049 A 
ATOM     56  H   UNL A   1      41.321  29.222  32.765  1.00  0.00     0.167 HD
ATOM     57  C   UNL A   1      43.511  27.477  32.279  1.00  0.00     0.074 A 
ATOM     58  C   UNL A   1      44.437  26.593  31.602  1.00  0.00     0.031 C 
ATOM     59  C   UNL A   1      43.659  27.899  33.559  1.00  0.00     0.034 A 
BRANCH  46  60
ATOM     60  C   UNL A   1      39.327  31.890  35.438  1.00  0.00     0.023 A 
ATOM     61  C   UNL A   1      38.383  31.413  36.372  1.00  0.00     0.012 A 
ATOM     62  C   UNL A   1      39.812  33.205  35.560  1.00  0.00     0.148 A 
ATOM     63  C   UNL A   1      37.897  32.244  37.380  1.00  0.00     0.002 A 
ATOM     64  C   UNL A   1      39.363  34.011  36.600  1.00  0.00     0.091 A 
ATOM     65  F   UNL A   1      40.694  33.650  34.652  1.00  0.00    -0.205 F 
ATOM     66  C   UNL A   1      38.395  33.538  37.501  1.00  0.00     0.022 A 
BRANCH  64  67
ATOM     67  S   UNL A   1      40.004  35.662  36.894  1.00  0.00     0.127 S 
ATOM     68  O   UNL A   1      39.332  36.021  38.143  1.00  0.00    -0.237 OA
ATOM     69  O   UNL A   1      41.441  35.414  37.024  1.00  0.00    -0.237 OA
ATOM     70  O   UNL A   1      39.626  36.454  35.732  1.00  0.00    -0.744 OA
ENDBRANCH  64  67
ENDBRANCH  46  60
BRANCH  47  71
ATOM     71  C   UNL A   1      42.569  26.254  27.825  1.00  0.00     0.023 A 
ATOM     72  C   UNL A   1      43.516  26.827  26.953  1.00  0.00     0.012 A 
ATOM     73  C   UNL A   1      42.148  24.929  27.605  1.00  0.00     0.148 A 
ATOM     74  C   UNL A   1      44.008  26.108  25.863  1.00  0.00     0.002 A 
ATOM     75  C   UNL A   1      42.682  24.199  26.549  1.00  0.00     0.091 A 
ATOM     76  F   UNL A   1      41.242  24.403  28.441  1.00  0.00    -0.205 F 
ATOM     77  C   UNL A   1      43.598  24.792  25.666  1.00  0.00     0.022 A 
BRANCH  75  78
ATOM     78  S   UNL A   1      42.309  22.461  26.288  1.00  0.00     0.127 S 
ATOM     79  O   UNL A   1      42.863  21.852  27.494  1.00  0.00    -0.237 OA
ATOM     80  O   UNL A   1      40.847  22.475  26.220  1.00  0.00    -0.237 OA
ATOM     81  O   UNL A   1      42.965  22.100  25.039  1.00  0.00    -0.744 OA
ENDBRANCH  75  78
ENDBRANCH  47  71
BRANCH  59  82
ATOM     82  C   UNL A   1      44.823  27.363  34.347  1.00  0.00     0.023 A 
ATOM     83  C   UNL A   1      46.036  28.078  34.393  1.00  0.00     0.012 A 
ATOM     84  C   UNL A   1      44.675  26.198  35.125  1.00  0.00     0.148 A 
ATOM     85  C   UNL A   1      47.093  27.624  35.181  1.00  0.00     0.002 A 
ATOM     86  C   UNL A   1      45.712  25.781  35.948  1.00  0.00     0.091 A 
ATOM     87  F   UNL A   1      43.517  25.525  35.052  1.00  0.00    -0.205 F 
ATOM     88  C   UNL A   1      46.927  26.486  35.967  1.00  0.00     0.022 A 
BRANCH  86  89
ATOM     89  S   UNL A   1      45.550  24.391  37.073  1.00  0.00     0.127 S 
ATOM     90  O   UNL A   1      46.869  24.363  37.703  1.00  0.00    -0.237 OA
ATOM     91  O   UNL A   1      44.464  24.829  37.950  1.00  0.00    -0.237 OA
ATOM     92  O   UNL A   1      45.231  23.236  36.245  1.00  0.00    -0.744 OA
ENDBRANCH  86  89
ENDBRANCH  59  82
ENDBRANCH  33  34
ENDBRANCH  25  28
ENDBRANCH  23  24
ENDBRANCH  22  23
ENDBRANCH   1  22
TORSDOF 17
ENDMDL
MODEL 3
REMARK VINA RESULT:     -11.3      3.601      6.720
REMARK SMILES CC[C@@H]1C=CC[C@@H]2C(=O)N(CCCC(=O)NCCCNC(=O)c3ccc(-c4c5nc(c(-c6cccc(S(=O)(=O)[O-])c6F)c6ccc([nH]6)c(-c6cccc(S(=O)(=O)[O-])c6F)c6nc(c(-c7cccc(S(=O)(=O)[O-])c7F)c7ccc4[nH]7)C=C6)C=C5)cc3)C(=O)[C@@H]21
REMARK SMILES IDX 17 1 16 2 14 3 15 4 13 6 12 7 11 8 10 9 3 10 4 11 88 12 5 13
REMARK SMILES IDX 7 14 86 15 6 16 8 17 87 18 9 19 2 20 1 21 18 22 19 23 20 24
REMARK SMILES IDX 21 25 22 27 23 28 24 29 85 30 25 31 84 32 26 33 27 34 28 35
REMARK SMILES IDX 78 36 29 37 83 38 77 39 79 40 30 41 82 42 76 43 75 44 31 46
REMARK SMILES IDX 63 47 43 48 62 49 44 50 47 51 61 52 80 53 45 54 46 55 60 57
REMARK SMILES IDX 81 58 48 59 32 60 33 61 41 62 34 63 36 64 42 65 35 66 37 67
REMARK SMILES IDX 38 68 39 69 40 70 64 71 65 72 73 73 66 74 68 75 74 76 67 77
REMARK SMILES IDX 69 78 70 79 71 80 72 81 49 82 50 83 58 84 51 85 53 86 59 87
REMARK SMILES IDX 52 88 54 89 55 90 56 91 57 92
REMARK H PARENT 16 5 20 26 79 45 47 56
REMARK Flexibility Score: inf
ROOT
ATOM      1  C   UNL A   1      33.865  35.176  28.780  1.00  0.00     0.117 C 
ENDROOT
BRANCH   1   2
ATOM      2  N   UNL A   1      32.913  35.802  29.669  1.00  0.00    -0.356 N 
ATOM      3  C   UNL A   1      33.027  36.251  30.945  1.00  0.00     0.220 C 
ATOM      4  O   UNL A   1      32.039  36.824  31.417  1.00  0.00    -0.275 OA
ATOM      5  H   UNL A   1      32.019  35.926  29.278  1.00  0.00     0.163 HD
BRANCH   3   6
ATOM      6  C   UNL A   1      34.304  36.168  31.764  1.00  0.00     0.102 C 
BRANCH   6   7
ATOM      7  C   UNL A   1      34.280  36.434  33.267  1.00  0.00     0.032 C 
BRANCH   7   8
ATOM      8  C   UNL A   1      34.460  35.314  34.286  1.00  0.00     0.129 C 
BRANCH   8   9
ATOM      9  N   UNL A   1      35.199  34.100  33.947  1.00  0.00    -0.282 N 
ATOM     10  C   UNL A   1      38.218  33.112  33.251  1.00  0.00     0.024 C 
ATOM     11  C   UNL A   1      37.835  33.529  31.843  1.00  0.00    -0.027 C 
ATOM     12  C   UNL A   1      37.006  32.614  34.072  1.00  0.00     0.099 C 
ATOM     13  C   UNL A   1      36.961  32.791  31.143  1.00  0.00    -0.030 C 
ATOM     14  C   UNL A   1      35.906  31.970  33.229  1.00  0.00     0.096 C 
ATOM     15  C   UNL A   1      36.255  33.736  34.733  1.00  0.00     0.233 C 
ATOM     16  C   UNL A   1      36.293  31.613  31.794  1.00  0.00     0.041 C 
ATOM     17  C   UNL A   1      34.849  33.044  33.162  1.00  0.00     0.233 C 
ATOM     18  O   UNL A   1      36.535  34.204  35.826  1.00  0.00    -0.274 OA
ATOM     19  O   UNL A   1      33.822  32.865  32.522  1.00  0.00    -0.274 OA
BRANCH  10  20
ATOM     20  C   UNL A   1      39.055  34.183  33.980  1.00  0.00     0.005 C 
ATOM     21  C   UNL A   1      40.196  34.686  33.108  1.00  0.00     0.004 C 
ENDBRANCH  10  20
ENDBRANCH   8   9
ENDBRANCH   7   8
ENDBRANCH   6   7
ENDBRANCH   3   6
ENDBRANCH   1   2
BRANCH   1  22
ATOM     22  C   UNL A   1      34.176  33.745  29.191  1.00  0.00     0.042 C 
BRANCH  22  23
ATOM     23  C   UNL A   1      35.023  33.009  28.180  1.00  0.00     0.118 C 
BRANCH  23  24
ATOM     24  N   UNL A   1      34.310  31.893  27.569  1.00  0.00    -0.352 N 
ATOM     25  C   UNL A   1      34.724  30.598  27.365  1.00  0.00     0.251 C 
ATOM     26  H   UNL A   1      33.398  32.098  27.257  1.00  0.00     0.163 HD
ATOM     27  O   UNL A   1      34.048  29.845  26.671  1.00  0.00    -0.269 OA
BRANCH  25  28
ATOM     28  C   UNL A   1      35.996  30.127  27.961  1.00  0.00     0.039 A 
ATOM     29  C   UNL A   1      35.974  29.450  29.183  1.00  0.00     0.014 A 
ATOM     30  C   UNL A   1      37.208  30.335  27.303  1.00  0.00     0.014 A 
ATOM     31  C   UNL A   1      37.161  28.930  29.708  1.00  0.00     0.010 A 
ATOM     32  C   UNL A   1      38.357  29.704  27.755  1.00  0.00     0.010 A 
ATOM     33  C   UNL A   1      38.357  29.024  28.979  1.00  0.00    -0.014 A 
BRANCH  33  34
ATOM     34  C   UNL A   1      39.642  28.477  29.485  1.00  0.00     0.031 A 
ATOM     35  C   UNL A   1      40.367  29.204  30.590  1.00  0.00     0.074 A 
ATOM     36  C   UNL A   1      40.208  27.410  28.888  1.00  0.00     0.049 A 
ATOM     37  N   UNL A   1      41.558  28.987  31.081  1.00  0.00    -0.248 NA
ATOM     38  C   UNL A   1      39.677  30.361  31.192  1.00  0.00     0.031 C 
ATOM     39  C   UNL A   1      39.643  26.669  27.759  1.00  0.00     0.029 A 
ATOM     40  N   UNL A   1      41.405  26.784  29.129  1.00  0.00    -0.354 N 
ATOM     41  C   UNL A   1      41.780  30.006  32.000  1.00  0.00     0.074 A 
ATOM     42  C   UNL A   1      40.622  30.871  31.965  1.00  0.00     0.031 C 
ATOM     43  C   UNL A   1      40.488  25.684  27.410  1.00  0.00     0.029 A 
ATOM     44  C   UNL A   1      41.671  25.748  28.263  1.00  0.00     0.049 A 
ATOM     45  H   UNL A   1      42.017  27.049  29.853  1.00  0.00     0.167 HD
ATOM     46  C   UNL A   1      42.835  30.190  32.827  1.00  0.00     0.034 A 
ATOM     47  C   UNL A   1      42.753  24.949  28.160  1.00  0.00     0.034 A 
ATOM     48  C   UNL A   1      43.951  29.289  32.904  1.00  0.00     0.049 A 
ATOM     49  C   UNL A   1      43.889  25.139  29.129  1.00  0.00     0.074 A 
ATOM     50  C   UNL A   1      45.027  29.326  33.771  1.00  0.00     0.029 A 
ATOM     51  N   UNL A   1      44.131  28.188  32.081  1.00  0.00    -0.354 N 
ATOM     52  N   UNL A   1      44.017  26.025  30.087  1.00  0.00    -0.248 NA
ATOM     53  C   UNL A   1      45.013  24.198  29.029  1.00  0.00     0.031 C 
ATOM     54  C   UNL A   1      45.873  28.259  33.456  1.00  0.00     0.029 A 
ATOM     55  C   UNL A   1      45.303  27.537  32.417  1.00  0.00     0.049 A 
ATOM     56  H   UNL A   1      43.517  27.912  31.364  1.00  0.00     0.167 HD
ATOM     57  C   UNL A   1      45.210  25.719  30.732  1.00  0.00     0.074 A 
ATOM     58  C   UNL A   1      45.761  24.559  30.063  1.00  0.00     0.031 C 
ATOM     59  C   UNL A   1      45.801  26.345  31.780  1.00  0.00     0.034 A 
BRANCH  46  60
ATOM     60  C   UNL A   1      42.805  31.381  33.751  1.00  0.00     0.023 A 
ATOM     61  C   UNL A   1      43.359  32.608  33.331  1.00  0.00     0.012 A 
ATOM     62  C   UNL A   1      42.188  31.300  35.014  1.00  0.00     0.148 A 
ATOM     63  C   UNL A   1      43.341  33.721  34.170  1.00  0.00     0.002 A 
ATOM     64  C   UNL A   1      42.126  32.429  35.824  1.00  0.00     0.091 A 
ATOM     65  F   UNL A   1      41.684  30.121  35.406  1.00  0.00    -0.205 F 
ATOM     66  C   UNL A   1      42.716  33.634  35.410  1.00  0.00     0.022 A 
BRANCH  64  67
ATOM     67  S   UNL A   1      41.268  32.445  37.401  1.00  0.00     0.127 S 
ATOM     68  O   UNL A   1      39.897  32.143  36.993  1.00  0.00    -0.237 OA
ATOM     69  O   UNL A   1      41.941  31.367  38.127  1.00  0.00    -0.237 OA
ATOM     70  O   UNL A   1      41.475  33.774  37.958  1.00  0.00    -0.744 OA
ENDBRANCH  64  67
ENDBRANCH  46  60
BRANCH  47  71
ATOM     71  C   UNL A   1      42.782  23.855  27.147  1.00  0.00     0.023 A 
ATOM     72  C   UNL A   1      43.442  24.069  25.920  1.00  0.00     0.012 A 
ATOM     73  C   UNL A   1      42.182  22.606  27.395  1.00  0.00     0.148 A 
ATOM     74  C   UNL A   1      43.475  23.070  24.947  1.00  0.00     0.002 A 
ATOM     75  C   UNL A   1      42.265  21.597  26.442  1.00  0.00     0.091 A 
ATOM     76  F   UNL A   1      41.553  22.425  28.565  1.00  0.00    -0.205 F 
ATOM     77  C   UNL A   1      42.894  21.833  25.210  1.00  0.00     0.022 A 
BRANCH  75  78
ATOM     78  S   UNL A   1      41.655  19.934  26.740  1.00  0.00     0.127 S 
ATOM     79  O   UNL A   1      40.370  20.197  27.382  1.00  0.00    -0.237 OA
ATOM     80  O   UNL A   1      41.566  19.399  25.381  1.00  0.00    -0.237 OA
ATOM     81  O   UNL A   1      42.659  19.290  27.575  1.00  0.00    -0.744 OA
ENDBRANCH  75  78
ENDBRANCH  47  71
BRANCH  59  82
ATOM     82  C   UNL A   1      47.077  25.760  32.321  1.00  0.00     0.023 A 
ATOM     83  C   UNL A   1      48.321  26.180  31.812  1.00  0.00     0.012 A 
ATOM     84  C   UNL A   1      47.039  24.866  33.410  1.00  0.00     0.148 A 
ATOM     85  C   UNL A   1      49.508  25.696  32.361  1.00  0.00     0.002 A 
ATOM     86  C   UNL A   1      48.224  24.430  33.986  1.00  0.00     0.091 A 
ATOM     87  F   UNL A   1      45.843  24.468  33.868  1.00  0.00    -0.205 F 
ATOM     88  C   UNL A   1      49.460  24.834  33.455  1.00  0.00     0.022 A 
BRANCH  86  89
ATOM     89  S   UNL A   1      48.259  23.406  35.461  1.00  0.00     0.127 S 
ATOM     90  O   UNL A   1      47.599  24.270  36.438  1.00  0.00    -0.237 OA
ATOM     91  O   UNL A   1      47.474  22.243  35.047  1.00  0.00    -0.237 OA
ATOM     92  O   UNL A   1      49.663  23.126  35.725  1.00  0.00    -0.744 OA
ENDBRANCH  86  89
ENDBRANCH  59  82
ENDBRANCH  33  34
ENDBRANCH  25  28
ENDBRANCH  23  24
ENDBRANCH  22  23
ENDBRANCH   1  22
TORSDOF 17
ENDMDL
