MODEL 1
REMARK VINA RESULT:     -12.4      0.000      0.000
REMARK SMILES O=C(NCCCNC(=O)c1ccc(-c2c(F)cccc2F)cn1)c1ccc(-c2c3nc(c(-c4cccc(S(=O)(=O)[O-])c4F)c4ccc([nH]4)c(-c4cccc(S(=O)(=O)[O-])c4F)c4nc(c(-c5cccc(S(=O)(=O)[O-])c5F)c5ccc2[nH]5)C=C4)C=C3)cc1
REMARK SMILES IDX 4 1 3 2 1 3 2 4 24 6 25 7 86 8 26 9 85 10 27 11 28 12 29 13
REMARK SMILES IDX 79 14 30 15 84 16 78 17 80 18 31 19 83 20 77 21 76 22 32 24
REMARK SMILES IDX 64 25 44 26 63 27 45 28 48 29 62 30 81 31 46 32 47 33 61 35
REMARK SMILES IDX 82 36 49 37 33 38 34 39 42 40 35 41 37 42 43 43 36 44 38 45
REMARK SMILES IDX 39 46 40 47 41 48 65 49 66 50 74 51 67 52 69 53 75 54 68 55
REMARK SMILES IDX 70 56 71 57 72 58 73 59 50 60 51 61 59 62 52 63 54 64 60 65
REMARK SMILES IDX 53 66 55 67 56 68 57 69 58 70 5 71 6 72 7 73 8 74 9 76 10 77
REMARK SMILES IDX 11 78 23 79 12 80 22 81 13 82 14 83 15 84 20 85 16 86 17 87
REMARK SMILES IDX 19 88 21 89 18 90
REMARK H PARENT 3 5 80 23 48 34 7 75
REMARK Flexibility Score: inf
ROOT
ATOM      1  C   UNL A   1      38.653  20.261  25.498  1.00  0.00     0.118 C 
ENDROOT
BRANCH   1   2
ATOM      2  N   UNL A   1      39.717  19.322  25.829  1.00  0.00    -0.352 N 
ATOM      3  O   UNL A   1      41.818  18.612  26.182  1.00  0.00    -0.269 OA
ATOM      4  C   UNL A   1      41.029  19.553  26.160  1.00  0.00     0.251 C 
ATOM      5  H   UNL A   1      39.453  18.372  25.813  1.00  0.00     0.163 HD
BRANCH   4   6
ATOM      6  C   UNL A   1      41.489  20.923  26.475  1.00  0.00     0.039 A 
ATOM      7  C   UNL A   1      41.761  21.836  25.453  1.00  0.00     0.014 A 
ATOM      8  C   UNL A   1      41.607  21.320  27.811  1.00  0.00     0.014 A 
ATOM      9  C   UNL A   1      42.288  23.083  25.757  1.00  0.00     0.010 A 
ATOM     10  C   UNL A   1      42.041  22.614  28.118  1.00  0.00     0.010 A 
ATOM     11  C   UNL A   1      42.403  23.500  27.091  1.00  0.00    -0.014 A 
BRANCH  11  12
ATOM     12  C   UNL A   1      42.773  24.909  27.374  1.00  0.00     0.031 A 
ATOM     13  C   UNL A   1      41.810  25.868  28.011  1.00  0.00     0.074 A 
ATOM     14  C   UNL A   1      44.013  25.314  27.031  1.00  0.00     0.049 A 
ATOM     15  N   UNL A   1      42.003  27.119  28.341  1.00  0.00    -0.248 NA
ATOM     16  C   UNL A   1      40.456  25.373  28.311  1.00  0.00     0.031 C 
ATOM     17  C   UNL A   1      45.011  24.480  26.351  1.00  0.00     0.029 A 
ATOM     18  N   UNL A   1      44.648  26.517  27.195  1.00  0.00    -0.354 N 
ATOM     19  C   UNL A   1      40.791  27.575  28.846  1.00  0.00     0.074 A 
ATOM     20  C   UNL A   1      39.866  26.464  28.785  1.00  0.00     0.031 C 
ATOM     21  C   UNL A   1      46.133  25.189  26.175  1.00  0.00     0.029 A 
ATOM     22  C   UNL A   1      45.921  26.540  26.676  1.00  0.00     0.049 A 
ATOM     23  H   UNL A   1      44.232  27.291  27.641  1.00  0.00     0.167 HD
ATOM     24  C   UNL A   1      40.489  28.804  29.327  1.00  0.00     0.034 A 
ATOM     25  C   UNL A   1      46.814  27.544  26.587  1.00  0.00     0.034 A 
ATOM     26  C   UNL A   1      41.433  29.888  29.427  1.00  0.00     0.049 A 
ATOM     27  C   UNL A   1      46.453  28.883  27.159  1.00  0.00     0.074 A 
ATOM     28  C   UNL A   1      41.248  31.136  29.997  1.00  0.00     0.029 A 
ATOM     29  N   UNL A   1      42.728  29.862  28.935  1.00  0.00    -0.354 N 
ATOM     30  N   UNL A   1      45.359  29.242  27.784  1.00  0.00    -0.248 NA
ATOM     31  C   UNL A   1      47.455  29.950  27.032  1.00  0.00     0.031 C 
ATOM     32  C   UNL A   1      42.423  31.874  29.826  1.00  0.00     0.029 A 
ATOM     33  C   UNL A   1      43.346  31.079  29.166  1.00  0.00     0.049 A 
ATOM     34  H   UNL A   1      43.147  29.091  28.489  1.00  0.00     0.167 HD
ATOM     35  C   UNL A   1      45.543  30.571  28.137  1.00  0.00     0.074 A 
ATOM     36  C   UNL A   1      46.872  30.942  27.690  1.00  0.00     0.031 C 
ATOM     37  C   UNL A   1      44.682  31.419  28.750  1.00  0.00     0.034 A 
BRANCH  24  38
ATOM     38  C   UNL A   1      39.091  29.054  29.829  1.00  0.00     0.023 A 
ATOM     39  C   UNL A   1      38.751  28.687  31.146  1.00  0.00     0.012 A 
ATOM     40  C   UNL A   1      38.160  29.761  29.044  1.00  0.00     0.148 A 
ATOM     41  C   UNL A   1      37.500  29.011  31.671  1.00  0.00     0.002 A 
ATOM     42  C   UNL A   1      36.928  30.110  29.585  1.00  0.00     0.091 A 
ATOM     43  F   UNL A   1      38.499  30.085  27.787  1.00  0.00    -0.205 F 
ATOM     44  C   UNL A   1      36.595  29.732  30.896  1.00  0.00     0.022 A 
BRANCH  42  45
ATOM     45  S   UNL A   1      35.718  31.099  28.697  1.00  0.00     0.127 S 
ATOM     46  O   UNL A   1      35.040  30.083  27.893  1.00  0.00    -0.237 OA
ATOM     47  O   UNL A   1      34.913  31.650  29.787  1.00  0.00    -0.237 OA
ATOM     48  O   UNL A   1      36.479  32.084  27.941  1.00  0.00    -0.744 OA
ENDBRANCH  42  45
ENDBRANCH  24  38
BRANCH  25  49
ATOM     49  C   UNL A   1      48.138  27.303  25.948  1.00  0.00     0.023 A 
ATOM     50  C   UNL A   1      49.205  26.812  26.722  1.00  0.00     0.012 A 
ATOM     51  C   UNL A   1      48.332  27.522  24.571  1.00  0.00     0.148 A 
ATOM     52  C   UNL A   1      50.450  26.568  26.140  1.00  0.00     0.002 A 
ATOM     53  C   UNL A   1      49.556  27.218  23.986  1.00  0.00     0.091 A 
ATOM     54  F   UNL A   1      47.312  28.013  23.852  1.00  0.00    -0.205 F 
ATOM     55  C   UNL A   1      50.621  26.758  24.771  1.00  0.00     0.022 A 
BRANCH  53  56
ATOM     56  S   UNL A   1      49.789  27.294  22.206  1.00  0.00     0.127 S 
ATOM     57  O   UNL A   1      51.172  26.850  22.065  1.00  0.00    -0.237 OA
ATOM     58  O   UNL A   1      48.784  26.348  21.719  1.00  0.00    -0.237 OA
ATOM     59  O   UNL A   1      49.516  28.682  21.849  1.00  0.00    -0.744 OA
ENDBRANCH  53  56
ENDBRANCH  25  49
BRANCH  37  60
ATOM     60  C   UNL A   1      45.149  32.832  28.971  1.00  0.00     0.023 A 
ATOM     61  C   UNL A   1      45.847  33.151  30.152  1.00  0.00     0.012 A 
ATOM     62  C   UNL A   1      44.950  33.825  27.993  1.00  0.00     0.148 A 
ATOM     63  C   UNL A   1      46.313  34.446  30.372  1.00  0.00     0.002 A 
ATOM     64  C   UNL A   1      45.457  35.102  28.198  1.00  0.00     0.091 A 
ATOM     65  F   UNL A   1      44.265  33.505  26.885  1.00  0.00    -0.205 F 
ATOM     66  C   UNL A   1      46.129  35.417  29.391  1.00  0.00     0.022 A 
BRANCH  64  67
ATOM     67  S   UNL A   1      45.343  36.392  26.954  1.00  0.00     0.127 S 
ATOM     68  O   UNL A   1      46.101  35.808  25.848  1.00  0.00    -0.237 OA
ATOM     69  O   UNL A   1      43.901  36.480  26.726  1.00  0.00    -0.237 OA
ATOM     70  O   UNL A   1      45.931  37.581  27.557  1.00  0.00    -0.744 OA
ENDBRANCH  64  67
ENDBRANCH  37  60
ENDBRANCH  11  12
ENDBRANCH   4   6
ENDBRANCH   1   2
BRANCH   1  71
ATOM     71  C   UNL A   1      37.482  19.587  24.801  1.00  0.00     0.042 C 
BRANCH  71  72
ATOM     72  C   UNL A   1      36.153  20.285  25.038  1.00  0.00     0.118 C 
BRANCH  72  73
ATOM     73  N   UNL A   1      35.019  19.378  24.925  1.00  0.00    -0.351 N 
ATOM     74  C   UNL A   1      33.680  19.647  25.114  1.00  0.00     0.269 C 
ATOM     75  H   UNL A   1      35.238  18.449  24.681  1.00  0.00     0.163 HD
ATOM     76  O   UNL A   1      32.856  18.738  25.081  1.00  0.00    -0.268 OA
BRANCH  74  77
ATOM     77  C   UNL A   1      33.258  21.057  25.314  1.00  0.00     0.128 A 
ATOM     78  C   UNL A   1      32.967  21.835  24.202  1.00  0.00     0.035 A 
ATOM     79  N   UNL A   1      33.270  21.526  26.584  1.00  0.00    -0.250 NA
ATOM     80  C   UNL A   1      32.746  23.194  24.396  1.00  0.00     0.013 A 
ATOM     81  C   UNL A   1      33.024  22.849  26.734  1.00  0.00     0.120 A 
ATOM     82  C   UNL A   1      32.781  23.744  25.686  1.00  0.00     0.006 A 
BRANCH  82  83
ATOM     83  C   UNL A   1      32.615  25.189  25.907  1.00  0.00     0.055 A 
ATOM     84  C   UNL A   1      33.701  26.076  25.857  1.00  0.00     0.134 A 
ATOM     85  C   UNL A   1      31.368  25.747  26.224  1.00  0.00     0.134 A 
ATOM     86  F   UNL A   1      34.930  25.625  25.552  1.00  0.00    -0.206 F 
ATOM     87  C   UNL A   1      33.560  27.439  26.121  1.00  0.00     0.040 A 
ATOM     88  C   UNL A   1      31.208  27.107  26.490  1.00  0.00     0.040 A 
ATOM     89  F   UNL A   1      30.281  24.965  26.304  1.00  0.00    -0.206 F 
ATOM     90  C   UNL A   1      32.309  27.958  26.442  1.00  0.00     0.006 A 
ENDBRANCH  82  83
ENDBRANCH  74  77
ENDBRANCH  72  73
ENDBRANCH  71  72
ENDBRANCH   1  71
TORSDOF 14
ENDMDL
MODEL 2
REMARK VINA RESULT:     -12.3      6.081     11.389
REMARK SMILES O=C(NCCCNC(=O)c1ccc(-c2c(F)cccc2F)cn1)c1ccc(-c2c3nc(c(-c4cccc(S(=O)(=O)[O-])c4F)c4ccc([nH]4)c(-c4cccc(S(=O)(=O)[O-])c4F)c4nc(c(-c5cccc(S(=O)(=O)[O-])c5F)c5ccc2[nH]5)C=C4)C=C3)cc1
REMARK SMILES IDX 4 1 3 2 1 3 2 4 24 6 25 7 86 8 26 9 85 10 27 11 28 12 29 13
REMARK SMILES IDX 79 14 30 15 84 16 78 17 80 18 31 19 83 20 77 21 76 22 32 24
REMARK SMILES IDX 64 25 44 26 63 27 45 28 48 29 62 30 81 31 46 32 47 33 61 35
REMARK SMILES IDX 82 36 49 37 33 38 34 39 42 40 35 41 37 42 43 43 36 44 38 45
REMARK SMILES IDX 39 46 40 47 41 48 65 49 66 50 74 51 67 52 69 53 75 54 68 55
REMARK SMILES IDX 70 56 71 57 72 58 73 59 50 60 51 61 59 62 52 63 54 64 60 65
REMARK SMILES IDX 53 66 55 67 56 68 57 69 58 70 5 71 6 72 7 73 8 74 9 76 10 77
REMARK SMILES IDX 11 78 23 79 12 80 22 81 13 82 14 83 15 84 20 85 16 86 17 87
REMARK SMILES IDX 19 88 21 89 18 90
REMARK H PARENT 3 5 80 23 48 34 7 75
REMARK Flexibility Score: inf
ROOT
ATOM      1  C   UNL A   1      32.427  32.198  26.917  1.00  0.00     0.118 C 
ENDROOT
BRANCH   1   2
ATOM      2  N   UNL A   1      32.400  33.611  27.269  1.00  0.00    -0.352 N 
ATOM      3  O   UNL A   1      32.788  35.446  28.505  1.00  0.00    -0.269 OA
ATOM      4  C   UNL A   1      33.124  34.302  28.210  1.00  0.00     0.251 C 
ATOM      5  H   UNL A   1      31.763  34.157  26.752  1.00  0.00     0.163 HD
BRANCH   4   6
ATOM      6  C   UNL A   1      34.287  33.669  28.869  1.00  0.00     0.039 A 
ATOM      7  C   UNL A   1      34.110  32.609  29.762  1.00  0.00     0.014 A 
ATOM      8  C   UNL A   1      35.578  34.109  28.558  1.00  0.00     0.014 A 
ATOM      9  C   UNL A   1      35.199  32.091  30.450  1.00  0.00     0.010 A 
ATOM     10  C   UNL A   1      36.683  33.515  29.176  1.00  0.00     0.010 A 
ATOM     11  C   UNL A   1      36.500  32.514  30.142  1.00  0.00    -0.014 A 
BRANCH  11  12
ATOM     12  C   UNL A   1      37.650  31.796  30.746  1.00  0.00     0.031 A 
ATOM     13  C   UNL A   1      38.411  30.744  29.993  1.00  0.00     0.074 A 
ATOM     14  C   UNL A   1      37.993  32.110  32.012  1.00  0.00     0.049 A 
ATOM     15  N   UNL A   1      39.451  30.053  30.382  1.00  0.00    -0.248 NA
ATOM     16  C   UNL A   1      37.948  30.413  28.634  1.00  0.00     0.031 C 
ATOM     17  C   UNL A   1      37.284  33.076  32.859  1.00  0.00     0.029 A 
ATOM     18  N   UNL A   1      39.010  31.658  32.810  1.00  0.00    -0.354 N 
ATOM     19  C   UNL A   1      39.744  29.179  29.342  1.00  0.00     0.074 A 
ATOM     20  C   UNL A   1      38.773  29.428  28.297  1.00  0.00     0.031 C 
ATOM     21  C   UNL A   1      37.897  33.156  34.046  1.00  0.00     0.029 A 
ATOM     22  C   UNL A   1      39.007  32.213  34.069  1.00  0.00     0.049 A 
ATOM     23  H   UNL A   1      39.679  30.999  32.513  1.00  0.00     0.167 HD
ATOM     24  C   UNL A   1      40.740  28.265  29.266  1.00  0.00     0.034 A 
ATOM     25  C   UNL A   1      39.791  31.972  35.136  1.00  0.00     0.034 A 
ATOM     26  C   UNL A   1      41.729  28.060  30.293  1.00  0.00     0.049 A 
ATOM     27  C   UNL A   1      40.903  30.973  35.003  1.00  0.00     0.074 A 
ATOM     28  C   UNL A   1      42.837  27.231  30.262  1.00  0.00     0.029 A 
ATOM     29  N   UNL A   1      41.723  28.672  31.535  1.00  0.00    -0.354 N 
ATOM     30  N   UNL A   1      41.264  30.281  33.951  1.00  0.00    -0.248 NA
ATOM     31  C   UNL A   1      41.728  30.737  36.195  1.00  0.00     0.031 C 
ATOM     32  C   UNL A   1      43.487  27.323  31.497  1.00  0.00     0.029 A 
ATOM     33  C   UNL A   1      42.794  28.222  32.290  1.00  0.00     0.049 A 
ATOM     34  H   UNL A   1      41.057  29.331  31.838  1.00  0.00     0.167 HD
ATOM     35  C   UNL A   1      42.365  29.535  34.348  1.00  0.00     0.074 A 
ATOM     36  C   UNL A   1      42.636  29.892  35.727  1.00  0.00     0.031 C 
ATOM     37  C   UNL A   1      43.072  28.616  33.646  1.00  0.00     0.034 A 
BRANCH  24  38
ATOM     38  C   UNL A   1      40.854  27.431  28.017  1.00  0.00     0.023 A 
ATOM     39  C   UNL A   1      41.499  27.964  26.884  1.00  0.00     0.012 A 
ATOM     40  C   UNL A   1      40.437  26.086  28.009  1.00  0.00     0.148 A 
ATOM     41  C   UNL A   1      41.719  27.173  25.756  1.00  0.00     0.002 A 
ATOM     42  C   UNL A   1      40.689  25.294  26.894  1.00  0.00     0.091 A 
ATOM     43  F   UNL A   1      39.810  25.604  29.092  1.00  0.00    -0.205 F 
ATOM     44  C   UNL A   1      41.326  25.838  25.766  1.00  0.00     0.022 A 
BRANCH  42  45
ATOM     45  S   UNL A   1      40.289  23.544  26.831  1.00  0.00     0.127 S 
ATOM     46  O   UNL A   1      38.878  23.578  26.446  1.00  0.00    -0.237 OA
ATOM     47  O   UNL A   1      41.193  23.059  25.788  1.00  0.00    -0.237 OA
ATOM     48  O   UNL A   1      40.556  23.020  28.163  1.00  0.00    -0.744 OA
ENDBRANCH  42  45
ENDBRANCH  24  38
BRANCH  25  49
ATOM     49  C   UNL A   1      39.557  32.708  36.409  1.00  0.00     0.023 A 
ATOM     50  C   UNL A   1      40.222  33.927  36.640  1.00  0.00     0.012 A 
ATOM     51  C   UNL A   1      38.651  32.226  37.373  1.00  0.00     0.148 A 
ATOM     52  C   UNL A   1      40.006  34.639  37.822  1.00  0.00     0.002 A 
ATOM     53  C   UNL A   1      38.394  32.972  38.518  1.00  0.00     0.091 A 
ATOM     54  F   UNL A   1      38.043  31.053  37.148  1.00  0.00    -0.205 F 
ATOM     55  C   UNL A   1      39.084  34.169  38.753  1.00  0.00     0.022 A 
BRANCH  53  56
ATOM     56  S   UNL A   1      37.106  32.497  39.677  1.00  0.00     0.127 S 
ATOM     57  O   UNL A   1      37.551  31.171  40.095  1.00  0.00    -0.237 OA
ATOM     58  O   UNL A   1      37.211  33.536  40.702  1.00  0.00    -0.237 OA
ATOM     59  O   UNL A   1      35.868  32.549  38.907  1.00  0.00    -0.744 OA
ENDBRANCH  53  56
ENDBRANCH  25  49
BRANCH  37  60
ATOM     60  C   UNL A   1      44.206  27.931  34.359  1.00  0.00     0.023 A 
ATOM     61  C   UNL A   1      45.479  28.534  34.369  1.00  0.00     0.012 A 
ATOM     62  C   UNL A   1      44.002  26.729  35.063  1.00  0.00     0.148 A 
ATOM     63  C   UNL A   1      46.542  27.934  35.042  1.00  0.00     0.002 A 
ATOM     64  C   UNL A   1      45.054  26.160  35.770  1.00  0.00     0.091 A 
ATOM     65  F   UNL A   1      42.787  26.162  35.023  1.00  0.00    -0.205 F 
ATOM     66  C   UNL A   1      46.327  26.755  35.751  1.00  0.00     0.022 A 
BRANCH  64  67
ATOM     67  S   UNL A   1      44.847  24.691  36.781  1.00  0.00     0.127 S 
ATOM     68  O   UNL A   1      43.832  25.127  37.738  1.00  0.00    -0.237 OA
ATOM     69  O   UNL A   1      44.384  23.704  35.807  1.00  0.00    -0.237 OA
ATOM     70  O   UNL A   1      46.160  24.408  37.346  1.00  0.00    -0.744 OA
ENDBRANCH  64  67
ENDBRANCH  37  60
ENDBRANCH  11  12
ENDBRANCH   4   6
ENDBRANCH   1   2
BRANCH   1  71
ATOM     71  C   UNL A   1      31.139  31.743  26.247  1.00  0.00     0.042 C 
BRANCH  71  72
ATOM     72  C   UNL A   1      31.311  30.507  25.381  1.00  0.00     0.118 C 
BRANCH  72  73
ATOM     73  N   UNL A   1      30.390  30.484  24.253  1.00  0.00    -0.351 N 
ATOM     74  C   UNL A   1      30.323  29.579  23.215  1.00  0.00     0.269 C 
ATOM     75  H   UNL A   1      29.727  31.212  24.229  1.00  0.00     0.163 HD
ATOM     76  O   UNL A   1      29.546  29.764  22.282  1.00  0.00    -0.268 OA
BRANCH  74  77
ATOM     77  C   UNL A   1      31.173  28.363  23.274  1.00  0.00     0.128 A 
ATOM     78  C   UNL A   1      30.696  27.241  23.937  1.00  0.00     0.035 A 
ATOM     79  N   UNL A   1      32.416  28.458  22.746  1.00  0.00    -0.250 NA
ATOM     80  C   UNL A   1      31.570  26.177  24.134  1.00  0.00     0.013 A 
ATOM     81  C   UNL A   1      33.229  27.392  22.935  1.00  0.00     0.120 A 
ATOM     82  C   UNL A   1      32.882  26.234  23.640  1.00  0.00     0.006 A 
BRANCH  82  83
ATOM     83  C   UNL A   1      33.843  25.149  23.894  1.00  0.00     0.055 A 
ATOM     84  C   UNL A   1      34.007  24.081  23.000  1.00  0.00     0.134 A 
ATOM     85  C   UNL A   1      34.610  25.105  25.068  1.00  0.00     0.134 A 
ATOM     86  F   UNL A   1      33.317  24.050  21.848  1.00  0.00    -0.206 F 
ATOM     87  C   UNL A   1      34.875  23.019  23.262  1.00  0.00     0.040 A 
ATOM     88  C   UNL A   1      35.482  24.051  25.345  1.00  0.00     0.040 A 
ATOM     89  F   UNL A   1      34.502  26.081  25.981  1.00  0.00    -0.206 F 
ATOM     90  C   UNL A   1      35.614  23.001  24.441  1.00  0.00     0.006 A 
ENDBRANCH  82  83
ENDBRANCH  74  77
ENDBRANCH  72  73
ENDBRANCH  71  72
ENDBRANCH   1  71
TORSDOF 14
ENDMDL
MODEL 3
REMARK VINA RESULT:     -12.2      6.515     11.615
REMARK SMILES O=C(NCCCNC(=O)c1ccc(-c2c(F)cccc2F)cn1)c1ccc(-c2c3nc(c(-c4cccc(S(=O)(=O)[O-])c4F)c4ccc([nH]4)c(-c4cccc(S(=O)(=O)[O-])c4F)c4nc(c(-c5cccc(S(=O)(=O)[O-])c5F)c5ccc2[nH]5)C=C4)C=C3)cc1
REMARK SMILES IDX 4 1 3 2 1 3 2 4 24 6 25 7 86 8 26 9 85 10 27 11 28 12 29 13
REMARK SMILES IDX 79 14 30 15 84 16 78 17 80 18 31 19 83 20 77 21 76 22 32 24
REMARK SMILES IDX 64 25 44 26 63 27 45 28 48 29 62 30 81 31 46 32 47 33 61 35
REMARK SMILES IDX 82 36 49 37 33 38 34 39 42 40 35 41 37 42 43 43 36 44 38 45
REMARK SMILES IDX 39 46 40 47 41 48 65 49 66 50 74 51 67 52 69 53 75 54 68 55
REMARK SMILES IDX 70 56 71 57 72 58 73 59 50 60 51 61 59 62 52 63 54 64 60 65
REMARK SMILES IDX 53 66 55 67 56 68 57 69 58 70 5 71 6 72 7 73 8 74 9 76 10 77
REMARK SMILES IDX 11 78 23 79 12 80 22 81 13 82 14 83 15 84 20 85 16 86 17 87
REMARK SMILES IDX 19 88 21 89 18 90
REMARK H PARENT 3 5 80 23 48 34 7 75
REMARK Flexibility Score: inf
ROOT
ATOM      1  C   UNL A   1      32.698  32.381  27.106  1.00  0.00     0.118 C 
ENDROOT
BRANCH   1   2
ATOM      2  N   UNL A   1      32.544  33.776  27.496  1.00  0.00    -0.352 N 
ATOM      3  O   UNL A   1      32.713  35.592  28.807  1.00  0.00    -0.269 OA
ATOM      4  C   UNL A   1      33.151  34.485  28.504  1.00  0.00     0.251 C 
ATOM      5  H   UNL A   1      31.904  34.292  26.951  1.00  0.00     0.163 HD
BRANCH   4   6
ATOM      6  C   UNL A   1      34.310  33.915  29.223  1.00  0.00     0.039 A 
ATOM      7  C   UNL A   1      34.128  32.951  30.218  1.00  0.00     0.014 A 
ATOM      8  C   UNL A   1      35.603  34.314  28.870  1.00  0.00     0.014 A 
ATOM      9  C   UNL A   1      35.214  32.499  30.955  1.00  0.00     0.010 A 
ATOM     10  C   UNL A   1      36.706  33.779  29.544  1.00  0.00     0.010 A 
ATOM     11  C   UNL A   1      36.518  32.881  30.606  1.00  0.00    -0.014 A 
BRANCH  11  12
ATOM     12  C   UNL A   1      37.663  32.220  31.279  1.00  0.00     0.031 A 
ATOM     13  C   UNL A   1      38.419  31.096  30.634  1.00  0.00     0.074 A 
ATOM     14  C   UNL A   1      38.008  32.657  32.508  1.00  0.00     0.049 A 
ATOM     15  N   UNL A   1      39.457  30.442  31.091  1.00  0.00    -0.248 NA
ATOM     16  C   UNL A   1      37.957  30.635  29.314  1.00  0.00     0.031 C 
ATOM     17  C   UNL A   1      37.302  33.705  33.255  1.00  0.00     0.029 A 
ATOM     18  N   UNL A   1      39.022  32.281  33.348  1.00  0.00    -0.354 N 
ATOM     19  C   UNL A   1      39.745  29.468  30.143  1.00  0.00     0.074 A 
ATOM     20  C   UNL A   1      38.776  29.617  29.078  1.00  0.00     0.031 C 
ATOM     21  C   UNL A   1      37.915  33.900  34.429  1.00  0.00     0.029 A 
ATOM     22  C   UNL A   1      39.020  32.957  34.546  1.00  0.00     0.049 A 
ATOM     23  H   UNL A   1      39.687  31.593  33.118  1.00  0.00     0.167 HD
ATOM     24  C   UNL A   1      40.737  28.546  30.158  1.00  0.00     0.034 A 
ATOM     25  C   UNL A   1      39.803  32.819  35.632  1.00  0.00     0.034 A 
ATOM     26  C   UNL A   1      41.725  28.439  31.202  1.00  0.00     0.049 A 
ATOM     27  C   UNL A   1      40.910  31.807  35.600  1.00  0.00     0.074 A 
ATOM     28  C   UNL A   1      42.829  27.606  31.254  1.00  0.00     0.029 A 
ATOM     29  N   UNL A   1      41.721  29.171  32.377  1.00  0.00    -0.354 N 
ATOM     30  N   UNL A   1      41.269  31.012  34.622  1.00  0.00    -0.248 NA
ATOM     31  C   UNL A   1      41.734  31.687  36.810  1.00  0.00     0.031 C 
ATOM     32  C   UNL A   1      43.479  27.816  32.475  1.00  0.00     0.029 A 
ATOM     33  C   UNL A   1      42.789  28.793  33.174  1.00  0.00     0.049 A 
ATOM     34  H   UNL A   1      41.058  29.860  32.612  1.00  0.00     0.167 HD
ATOM     35  C   UNL A   1      42.366  30.305  35.092  1.00  0.00     0.074 A 
ATOM     36  C   UNL A   1      42.638  30.795  36.429  1.00  0.00     0.031 C 
ATOM     37  C   UNL A   1      43.069  29.318  34.485  1.00  0.00     0.034 A 
BRANCH  24  38
ATOM     38  C   UNL A   1      40.848  27.593  28.998  1.00  0.00     0.023 A 
ATOM     39  C   UNL A   1      39.945  26.517  28.896  1.00  0.00     0.012 A 
ATOM     40  C   UNL A   1      41.759  27.835  27.951  1.00  0.00     0.148 A 
ATOM     41  C   UNL A   1      39.952  25.689  27.773  1.00  0.00     0.002 A 
ATOM     42  C   UNL A   1      41.739  27.026  26.821  1.00  0.00     0.091 A 
ATOM     43  F   UNL A   1      42.621  28.854  28.078  1.00  0.00    -0.205 F 
ATOM     44  C   UNL A   1      40.840  25.950  26.733  1.00  0.00     0.022 A 
BRANCH  42  45
ATOM     45  S   UNL A   1      42.790  27.320  25.393  1.00  0.00     0.127 S 
ATOM     46  O   UNL A   1      42.646  26.063  24.658  1.00  0.00    -0.237 OA
ATOM     47  O   UNL A   1      42.141  28.471  24.765  1.00  0.00    -0.237 OA
ATOM     48  O   UNL A   1      44.122  27.581  25.920  1.00  0.00    -0.744 OA
ENDBRANCH  42  45
ENDBRANCH  24  38
BRANCH  25  49
ATOM     49  C   UNL A   1      39.572  33.679  36.826  1.00  0.00     0.023 A 
ATOM     50  C   UNL A   1      39.965  35.030  36.798  1.00  0.00     0.012 A 
ATOM     51  C   UNL A   1      38.930  33.175  37.973  1.00  0.00     0.148 A 
ATOM     52  C   UNL A   1      39.746  35.855  37.902  1.00  0.00     0.002 A 
ATOM     53  C   UNL A   1      38.659  34.018  39.045  1.00  0.00     0.091 A 
ATOM     54  F   UNL A   1      38.582  31.880  37.994  1.00  0.00    -0.205 F 
ATOM     55  C   UNL A   1      39.082  35.354  39.019  1.00  0.00     0.022 A 
BRANCH  53  56
ATOM     56  S   UNL A   1      37.671  33.472  40.442  1.00  0.00     0.127 S 
ATOM     57  O   UNL A   1      36.443  33.031  39.789  1.00  0.00    -0.237 OA
ATOM     58  O   UNL A   1      38.492  32.397  41.002  1.00  0.00    -0.237 OA
ATOM     59  O   UNL A   1      37.559  34.641  41.306  1.00  0.00    -0.744 OA
ENDBRANCH  53  56
ENDBRANCH  25  49
BRANCH  37  60
ATOM     60  C   UNL A   1      44.199  28.701  35.263  1.00  0.00     0.023 A 
ATOM     61  C   UNL A   1      45.507  29.193  35.086  1.00  0.00     0.012 A 
ATOM     62  C   UNL A   1      43.962  27.682  36.205  1.00  0.00     0.148 A 
ATOM     63  C   UNL A   1      46.570  28.657  35.812  1.00  0.00     0.002 A 
ATOM     64  C   UNL A   1      45.018  27.184  36.958  1.00  0.00     0.091 A 
ATOM     65  F   UNL A   1      42.712  27.214  36.342  1.00  0.00    -0.205 F 
ATOM     66  C   UNL A   1      46.323  27.662  36.755  1.00  0.00     0.022 A 
BRANCH  64  67
ATOM     67  S   UNL A   1      44.781  25.965  38.255  1.00  0.00     0.127 S 
ATOM     68  O   UNL A   1      44.266  24.823  37.501  1.00  0.00    -0.237 OA
ATOM     69  O   UNL A   1      46.139  25.792  38.772  1.00  0.00    -0.237 OA
ATOM     70  O   UNL A   1      43.849  26.564  39.200  1.00  0.00    -0.744 OA
ENDBRANCH  64  67
ENDBRANCH  37  60
ENDBRANCH  11  12
ENDBRANCH   4   6
ENDBRANCH   1   2
BRANCH   1  71
ATOM     71  C   UNL A   1      31.387  31.759  26.650  1.00  0.00     0.042 C 
BRANCH  71  72
ATOM     72  C   UNL A   1      31.567  30.647  25.629  1.00  0.00     0.118 C 
BRANCH  72  73
ATOM     73  N   UNL A   1      30.539  30.665  24.598  1.00  0.00    -0.351 N 
ATOM     74  C   UNL A   1      30.332  29.767  23.573  1.00  0.00     0.269 C 
ATOM     75  H   UNL A   1      29.907  31.420  24.638  1.00  0.00     0.163 HD
ATOM     76  O   UNL A   1      29.476  29.986  22.721  1.00  0.00    -0.268 OA
BRANCH  74  77
ATOM     77  C   UNL A   1      31.134  28.517  23.549  1.00  0.00     0.128 A 
ATOM     78  C   UNL A   1      30.642  27.391  24.193  1.00  0.00     0.035 A 
ATOM     79  N   UNL A   1      32.354  28.583  22.966  1.00  0.00    -0.250 NA
ATOM     80  C   UNL A   1      31.481  26.287  24.311  1.00  0.00     0.013 A 
ATOM     81  C   UNL A   1      33.131  27.480  23.079  1.00  0.00     0.120 A 
ATOM     82  C   UNL A   1      32.769  26.311  23.758  1.00  0.00     0.006 A 
BRANCH  82  83
ATOM     83  C   UNL A   1      33.695  25.180  23.928  1.00  0.00     0.055 A 
ATOM     84  C   UNL A   1      34.536  25.072  25.046  1.00  0.00     0.134 A 
ATOM     85  C   UNL A   1      33.817  24.176  22.956  1.00  0.00     0.134 A 
ATOM     86  F   UNL A   1      34.477  25.987  26.028  1.00  0.00    -0.206 F 
ATOM     87  C   UNL A   1      35.456  24.032  25.186  1.00  0.00     0.040 A 
ATOM     88  C   UNL A   1      34.731  23.129  23.080  1.00  0.00     0.040 A 
ATOM     89  F   UNL A   1      33.058  24.213  21.850  1.00  0.00    -0.206 F 
ATOM     90  C   UNL A   1      35.558  23.057  24.198  1.00  0.00     0.006 A 
ENDBRANCH  82  83
ENDBRANCH  74  77
ENDBRANCH  72  73
ENDBRANCH  71  72
ENDBRANCH   1  71
TORSDOF 14
ENDMDL
