MODEL 1
REMARK VINA RESULT:     -10.9      0.000      0.000
REMARK SMILES CCOC(=O)CS(=O)(=O)N1CCC(CC(=O)NCCCNC(=O)c2ccc(-c3c4nc(c(-c5cccc(S(=O)(=O)[O-])c5F)c5ccc([nH]5)c(-c5cccc(S(=O)(=O)[O-])c5F)c5nc(c(-c6cccc(S(=O)(=O)[O-])c6F)c6ccc3[nH]6)C=C5)C=C4)cc2)CC1
REMARK SMILES IDX 15 1 16 2 17 3 14 5 13 6 10 7 11 8 88 9 12 10 87 11 7 12
REMARK SMILES IDX 8 13 9 14 6 15 4 16 5 17 3 18 2 19 1 20 18 21 19 22 20 23
REMARK SMILES IDX 21 24 22 25 23 27 24 28 25 29 86 30 26 31 85 32 27 33 28 34
REMARK SMILES IDX 29 35 79 36 30 37 84 38 78 39 80 40 31 41 83 42 77 43 76 44
REMARK SMILES IDX 32 46 64 47 44 48 63 49 45 50 48 51 62 52 81 53 46 54 47 55
REMARK SMILES IDX 61 57 82 58 49 59 33 60 34 61 42 62 35 63 37 64 43 65 36 66
REMARK SMILES IDX 38 67 39 68 40 69 41 70 65 71 66 72 74 73 67 74 69 75 75 76
REMARK SMILES IDX 68 77 70 78 71 79 72 80 73 81 50 82 51 83 59 84 52 85 54 86
REMARK SMILES IDX 60 87 53 88 55 89 56 90 57 91 58 92
REMARK H PARENT 17 4 21 26 80 45 48 56
REMARK Flexibility Score: inf
ROOT
ATOM      1  C   UNL A   1      33.135  19.808  24.665  1.00  0.00     0.220 C 
ATOM      2  O   UNL A   1      32.662  18.839  24.067  1.00  0.00    -0.275 OA
ATOM      3  N   UNL A   1      34.451  19.750  25.029  1.00  0.00    -0.356 N 
ATOM      4  H   UNL A   1      34.879  18.883  24.850  1.00  0.00     0.163 HD
ENDROOT
BRANCH   1   5
ATOM      5  C   UNL A   1      32.254  21.007  25.003  1.00  0.00     0.103 C 
BRANCH   5   6
ATOM      6  C   UNL A   1      31.991  21.921  23.785  1.00  0.00     0.001 C 
ATOM      7  N   UNL A   1      32.645  24.565  22.662  1.00  0.00    -0.201 NA
ATOM      8  C   UNL A   1      31.289  24.331  23.253  1.00  0.00     0.102 C 
ATOM      9  C   UNL A   1      33.063  23.334  21.940  1.00  0.00     0.102 C 
ATOM     10  C   UNL A   1      31.362  23.219  24.268  1.00  0.00     0.021 C 
ATOM     11  C   UNL A   1      33.269  22.213  22.978  1.00  0.00     0.021 C 
BRANCH   7  12
ATOM     12  S   UNL A   1      32.605  26.048  21.818  1.00  0.00     0.224 S 
ATOM     13  O   UNL A   1      31.227  26.488  21.852  1.00  0.00    -0.212 OA
ATOM     14  O   UNL A   1      33.276  25.786  20.560  1.00  0.00    -0.212 OA
BRANCH  12  15
ATOM     15  C   UNL A   1      33.606  27.203  22.686  1.00  0.00     0.276 C 
BRANCH  15  16
ATOM     16  C   UNL A   1      33.020  27.662  23.964  1.00  0.00     0.322 C 
ATOM     17  O   UNL A   1      32.979  26.946  24.961  1.00  0.00    -0.251 OA
BRANCH  16  18
ATOM     18  O   UNL A   1      32.682  28.975  23.952  1.00  0.00    -0.465 OA
BRANCH  18  19
ATOM     19  C   UNL A   1      31.462  29.321  24.624  1.00  0.00     0.229 C 
ATOM     20  C   UNL A   1      30.282  29.352  23.670  1.00  0.00     0.049 C 
ENDBRANCH  18  19
ENDBRANCH  16  18
ENDBRANCH  15  16
ENDBRANCH  12  15
ENDBRANCH   7  12
ENDBRANCH   5   6
ENDBRANCH   1   5
BRANCH   3  21
ATOM     21  C   UNL A   1      35.339  20.739  25.635  1.00  0.00     0.117 C 
BRANCH  21  22
ATOM     22  C   UNL A   1      36.310  21.402  24.648  1.00  0.00     0.042 C 
BRANCH  22  23
ATOM     23  C   UNL A   1      37.498  22.108  25.286  1.00  0.00     0.118 C 
BRANCH  23  24
ATOM     24  N   UNL A   1      38.397  21.159  25.922  1.00  0.00    -0.352 N 
ATOM     25  C   UNL A   1      39.626  21.367  26.503  1.00  0.00     0.251 C 
ATOM     26  H   UNL A   1      38.077  20.230  25.940  1.00  0.00     0.163 HD
ATOM     27  O   UNL A   1      40.348  20.394  26.715  1.00  0.00    -0.269 OA
BRANCH  25  28
ATOM     28  C   UNL A   1      40.097  22.726  26.876  1.00  0.00     0.039 A 
ATOM     29  C   UNL A   1      39.647  23.824  26.133  1.00  0.00     0.014 A 
ATOM     30  C   UNL A   1      41.038  22.928  27.889  1.00  0.00     0.014 A 
ATOM     31  C   UNL A   1      40.111  25.113  26.425  1.00  0.00     0.010 A 
ATOM     32  C   UNL A   1      41.438  24.223  28.233  1.00  0.00     0.010 A 
ATOM     33  C   UNL A   1      40.999  25.329  27.490  1.00  0.00    -0.014 A 
BRANCH  33  34
ATOM     34  C   UNL A   1      41.494  26.694  27.827  1.00  0.00     0.031 A 
ATOM     35  C   UNL A   1      42.921  27.083  27.527  1.00  0.00     0.074 A 
ATOM     36  C   UNL A   1      40.690  27.562  28.474  1.00  0.00     0.049 A 
ATOM     37  N   UNL A   1      43.552  28.195  27.808  1.00  0.00    -0.248 NA
ATOM     38  C   UNL A   1      43.757  26.081  26.845  1.00  0.00     0.031 C 
ATOM     39  C   UNL A   1      39.314  27.289  28.892  1.00  0.00     0.029 A 
ATOM     40  N   UNL A   1      40.924  28.840  28.919  1.00  0.00    -0.354 N 
ATOM     41  C   UNL A   1      44.861  28.012  27.376  1.00  0.00     0.074 A 
ATOM     42  C   UNL A   1      44.944  26.670  26.843  1.00  0.00     0.031 C 
ATOM     43  C   UNL A   1      38.828  28.362  29.536  1.00  0.00     0.029 A 
ATOM     44  C   UNL A   1      39.863  29.390  29.602  1.00  0.00     0.049 A 
ATOM     45  H   UNL A   1      41.771  29.319  28.765  1.00  0.00     0.167 HD
ATOM     46  C   UNL A   1      45.896  28.888  27.391  1.00  0.00     0.034 A 
ATOM     47  C   UNL A   1      39.737  30.582  30.219  1.00  0.00     0.034 A 
ATOM     48  C   UNL A   1      45.801  30.241  27.872  1.00  0.00     0.049 A 
ATOM     49  C   UNL A   1      40.883  31.557  30.177  1.00  0.00     0.074 A 
ATOM     50  C   UNL A   1      46.766  31.232  27.847  1.00  0.00     0.029 A 
ATOM     51  N   UNL A   1      44.676  30.793  28.465  1.00  0.00    -0.354 N 
ATOM     52  N   UNL A   1      42.064  31.419  29.626  1.00  0.00    -0.248 NA
ATOM     53  C   UNL A   1      40.666  32.868  30.807  1.00  0.00     0.031 C 
ATOM     54  C   UNL A   1      46.231  32.379  28.442  1.00  0.00     0.029 A 
ATOM     55  C   UNL A   1      44.924  32.109  28.814  1.00  0.00     0.049 A 
ATOM     56  H   UNL A   1      43.827  30.319  28.614  1.00  0.00     0.167 HD
ATOM     57  C   UNL A   1      42.719  32.630  29.814  1.00  0.00     0.074 A 
ATOM     58  C   UNL A   1      41.794  33.501  30.510  1.00  0.00     0.031 C 
ATOM     59  C   UNL A   1      43.978  32.985  29.457  1.00  0.00     0.034 A 
BRANCH  46  60
ATOM     60  C   UNL A   1      47.211  28.431  26.811  1.00  0.00     0.023 A 
ATOM     61  C   UNL A   1      48.299  28.183  27.674  1.00  0.00     0.012 A 
ATOM     62  C   UNL A   1      47.356  28.188  25.431  1.00  0.00     0.148 A 
ATOM     63  C   UNL A   1      49.520  27.737  27.170  1.00  0.00     0.002 A 
ATOM     64  C   UNL A   1      48.564  27.701  24.941  1.00  0.00     0.091 A 
ATOM     65  F   UNL A   1      46.318  28.445  24.623  1.00  0.00    -0.205 F 
ATOM     66  C   UNL A   1      49.649  27.486  25.807  1.00  0.00     0.022 A 
BRANCH  64  67
ATOM     67  S   UNL A   1      48.807  27.270  23.214  1.00  0.00     0.127 S 
ATOM     68  O   UNL A   1      50.262  27.358  23.091  1.00  0.00    -0.237 OA
ATOM     69  O   UNL A   1      48.272  25.909  23.157  1.00  0.00    -0.237 OA
ATOM     70  O   UNL A   1      48.054  28.250  22.446  1.00  0.00    -0.744 OA
ENDBRANCH  64  67
ENDBRANCH  46  60
BRANCH  47  71
ATOM     71  C   UNL A   1      38.448  30.943  30.877  1.00  0.00     0.023 A 
ATOM     72  C   UNL A   1      38.268  30.662  32.246  1.00  0.00     0.012 A 
ATOM     73  C   UNL A   1      37.417  31.589  30.168  1.00  0.00     0.148 A 
ATOM     74  C   UNL A   1      37.077  30.993  32.891  1.00  0.00     0.002 A 
ATOM     75  C   UNL A   1      36.251  31.961  30.827  1.00  0.00     0.091 A 
ATOM     76  F   UNL A   1      37.603  31.836  28.864  1.00  0.00    -0.205 F 
ATOM     77  C   UNL A   1      36.072  31.652  32.185  1.00  0.00     0.022 A 
BRANCH  75  78
ATOM     78  S   UNL A   1      34.949  32.911  30.033  1.00  0.00     0.127 S 
ATOM     79  O   UNL A   1      34.459  31.966  29.033  1.00  0.00    -0.237 OA
ATOM     80  O   UNL A   1      34.031  33.157  31.146  1.00  0.00    -0.237 OA
ATOM     81  O   UNL A   1      35.598  34.103  29.508  1.00  0.00    -0.744 OA
ENDBRANCH  75  78
ENDBRANCH  47  71
BRANCH  59  82
ATOM     82  C   UNL A   1      44.432  34.385  29.780  1.00  0.00     0.023 A 
ATOM     83  C   UNL A   1      45.100  34.642  30.993  1.00  0.00     0.012 A 
ATOM     84  C   UNL A   1      44.273  35.426  28.843  1.00  0.00     0.148 A 
ATOM     85  C   UNL A   1      45.577  35.920  31.282  1.00  0.00     0.002 A 
ATOM     86  C   UNL A   1      44.793  36.685  29.118  1.00  0.00     0.091 A 
ATOM     87  F   UNL A   1      43.618  35.166  27.702  1.00  0.00    -0.205 F 
ATOM     88  C   UNL A   1      45.436  36.937  30.341  1.00  0.00     0.022 A 
BRANCH  86  89
ATOM     89  S   UNL A   1      44.741  38.031  27.927  1.00  0.00     0.127 S 
ATOM     90  O   UNL A   1      43.302  38.235  27.771  1.00  0.00    -0.237 OA
ATOM     91  O   UNL A   1      45.435  39.104  28.641  1.00  0.00    -0.237 OA
ATOM     92  O   UNL A   1      45.438  37.546  26.744  1.00  0.00    -0.744 OA
ENDBRANCH  86  89
ENDBRANCH  59  82
ENDBRANCH  33  34
ENDBRANCH  25  28
ENDBRANCH  23  24
ENDBRANCH  22  23
ENDBRANCH  21  22
ENDBRANCH   3  21
TORSDOF 19
ENDMDL
MODEL 2
REMARK VINA RESULT:     -10.8      5.032     10.034
REMARK SMILES CCOC(=O)CS(=O)(=O)N1CCC(CC(=O)NCCCNC(=O)c2ccc(-c3c4nc(c(-c5cccc(S(=O)(=O)[O-])c5F)c5ccc([nH]5)c(-c5cccc(S(=O)(=O)[O-])c5F)c5nc(c(-c6cccc(S(=O)(=O)[O-])c6F)c6ccc3[nH]6)C=C5)C=C4)cc2)CC1
REMARK SMILES IDX 15 1 16 2 17 3 14 5 13 6 10 7 11 8 88 9 12 10 87 11 7 12
REMARK SMILES IDX 8 13 9 14 6 15 4 16 5 17 3 18 2 19 1 20 18 21 19 22 20 23
REMARK SMILES IDX 21 24 22 25 23 27 24 28 25 29 86 30 26 31 85 32 27 33 28 34
REMARK SMILES IDX 29 35 79 36 30 37 84 38 78 39 80 40 31 41 83 42 77 43 76 44
REMARK SMILES IDX 32 46 64 47 44 48 63 49 45 50 48 51 62 52 81 53 46 54 47 55
REMARK SMILES IDX 61 57 82 58 49 59 33 60 34 61 42 62 35 63 37 64 43 65 36 66
REMARK SMILES IDX 38 67 39 68 40 69 41 70 65 71 66 72 74 73 67 74 69 75 75 76
REMARK SMILES IDX 68 77 70 78 71 79 72 80 73 81 50 82 51 83 59 84 52 85 54 86
REMARK SMILES IDX 60 87 53 88 55 89 56 90 57 91 58 92
REMARK H PARENT 17 4 21 26 80 45 48 56
REMARK Flexibility Score: inf
ROOT
ATOM      1  C   UNL A   1      30.219  28.755  22.872  1.00  0.00     0.220 C 
ATOM      2  O   UNL A   1      29.827  29.041  21.739  1.00  0.00    -0.275 OA
ATOM      3  N   UNL A   1      31.213  29.521  23.413  1.00  0.00    -0.356 N 
ATOM      4  H   UNL A   1      31.586  30.190  22.794  1.00  0.00     0.163 HD
ENDROOT
BRANCH   1   5
ATOM      5  C   UNL A   1      29.623  27.562  23.614  1.00  0.00     0.103 C 
BRANCH   5   6
ATOM      6  C   UNL A   1      30.157  26.207  23.099  1.00  0.00     0.001 C 
ATOM      7  N   UNL A   1      32.324  24.250  23.486  1.00  0.00    -0.201 NA
ATOM      8  C   UNL A   1      32.343  25.140  22.282  1.00  0.00     0.102 C 
ATOM      9  C   UNL A   1      30.918  23.854  23.759  1.00  0.00     0.102 C 
ATOM     10  C   UNL A   1      31.571  26.401  22.571  1.00  0.00     0.021 C 
ATOM     11  C   UNL A   1      30.136  25.113  24.182  1.00  0.00     0.021 C 
BRANCH   7  12
ATOM     12  S   UNL A   1      33.500  23.033  23.262  1.00  0.00     0.224 S 
ATOM     13  O   UNL A   1      34.335  23.064  24.443  1.00  0.00    -0.212 OA
ATOM     14  O   UNL A   1      34.055  23.280  21.947  1.00  0.00    -0.212 OA
BRANCH  12  15
ATOM     15  C   UNL A   1      32.678  21.481  23.173  1.00  0.00     0.276 C 
BRANCH  15  16
ATOM     16  C   UNL A   1      32.775  20.679  24.412  1.00  0.00     0.322 C 
ATOM     17  O   UNL A   1      32.284  21.052  25.474  1.00  0.00    -0.251 OA
BRANCH  16  18
ATOM     18  O   UNL A   1      33.320  19.455  24.211  1.00  0.00    -0.465 OA
BRANCH  18  19
ATOM     19  C   UNL A   1      32.400  18.388  23.940  1.00  0.00     0.229 C 
ATOM     20  C   UNL A   1      32.446  17.958  22.485  1.00  0.00     0.049 C 
ENDBRANCH  18  19
ENDBRANCH  16  18
ENDBRANCH  15  16
ENDBRANCH  12  15
ENDBRANCH   7  12
ENDBRANCH   5   6
ENDBRANCH   1   5
BRANCH   3  21
ATOM     21  C   UNL A   1      31.821  29.532  24.740  1.00  0.00     0.117 C 
BRANCH  21  22
ATOM     22  C   UNL A   1      33.161  28.788  24.824  1.00  0.00     0.042 C 
BRANCH  22  23
ATOM     23  C   UNL A   1      33.873  28.888  26.167  1.00  0.00     0.118 C 
BRANCH  23  24
ATOM     24  N   UNL A   1      33.765  30.226  26.723  1.00  0.00    -0.352 N 
ATOM     25  C   UNL A   1      34.503  30.827  27.717  1.00  0.00     0.251 C 
ATOM     26  H   UNL A   1      33.058  30.786  26.330  1.00  0.00     0.163 HD
ATOM     27  O   UNL A   1      34.062  31.850  28.239  1.00  0.00    -0.269 OA
BRANCH  25  28
ATOM     28  C   UNL A   1      35.807  30.275  28.168  1.00  0.00     0.039 A 
ATOM     29  C   UNL A   1      35.870  29.622  29.405  1.00  0.00     0.014 A 
ATOM     30  C   UNL A   1      36.981  30.463  27.434  1.00  0.00     0.014 A 
ATOM     31  C   UNL A   1      37.093  29.134  29.884  1.00  0.00     0.010 A 
ATOM     32  C   UNL A   1      38.185  29.906  27.875  1.00  0.00     0.010 A 
ATOM     33  C   UNL A   1      38.262  29.255  29.116  1.00  0.00    -0.014 A 
BRANCH  33  34
ATOM     34  C   UNL A   1      39.571  28.732  29.600  1.00  0.00     0.031 A 
ATOM     35  C   UNL A   1      40.312  29.439  30.707  1.00  0.00     0.074 A 
ATOM     36  C   UNL A   1      40.135  27.666  28.996  1.00  0.00     0.049 A 
ATOM     37  N   UNL A   1      41.490  29.177  31.214  1.00  0.00    -0.248 NA
ATOM     38  C   UNL A   1      39.656  30.613  31.307  1.00  0.00     0.031 C 
ATOM     39  C   UNL A   1      39.563  26.934  27.865  1.00  0.00     0.029 A 
ATOM     40  N   UNL A   1      41.331  27.032  29.230  1.00  0.00    -0.354 N 
ATOM     41  C   UNL A   1      41.732  30.170  32.156  1.00  0.00     0.074 A 
ATOM     42  C   UNL A   1      40.593  31.060  32.130  1.00  0.00     0.031 C 
ATOM     43  C   UNL A   1      40.407  25.957  27.500  1.00  0.00     0.029 A 
ATOM     44  C   UNL A   1      41.592  26.006  28.352  1.00  0.00     0.049 A 
ATOM     45  H   UNL A   1      41.943  27.287  29.958  1.00  0.00     0.167 HD
ATOM     46  C   UNL A   1      42.790  30.314  32.993  1.00  0.00     0.034 A 
ATOM     47  C   UNL A   1      42.666  25.200  28.236  1.00  0.00     0.034 A 
ATOM     48  C   UNL A   1      43.898  29.399  33.057  1.00  0.00     0.049 A 
ATOM     49  C   UNL A   1      43.806  25.347  29.209  1.00  0.00     0.074 A 
ATOM     50  C   UNL A   1      44.972  29.410  33.929  1.00  0.00     0.029 A 
ATOM     51  N   UNL A   1      44.077  28.312  32.217  1.00  0.00    -0.354 N 
ATOM     52  N   UNL A   1      43.943  26.200  30.195  1.00  0.00    -0.248 NA
ATOM     53  C   UNL A   1      44.921  24.397  29.080  1.00  0.00     0.031 C 
ATOM     54  C   UNL A   1      45.811  28.338  33.605  1.00  0.00     0.029 A 
ATOM     55  C   UNL A   1      45.246  27.646  32.546  1.00  0.00     0.049 A 
ATOM     56  H   UNL A   1      43.464  28.051  31.492  1.00  0.00     0.167 HD
ATOM     57  C   UNL A   1      45.139  25.871  30.822  1.00  0.00     0.074 A 
ATOM     58  C   UNL A   1      45.678  24.726  30.118  1.00  0.00     0.031 C 
ATOM     59  C   UNL A   1      45.745  26.474  31.875  1.00  0.00     0.034 A 
BRANCH  46  60
ATOM     60  C   UNL A   1      42.770  31.474  33.955  1.00  0.00     0.023 A 
ATOM     61  C   UNL A   1      43.327  32.710  33.562  1.00  0.00     0.012 A 
ATOM     62  C   UNL A   1      42.151  31.368  35.216  1.00  0.00     0.148 A 
ATOM     63  C   UNL A   1      43.303  33.808  34.421  1.00  0.00     0.002 A 
ATOM     64  C   UNL A   1      42.092  32.480  36.050  1.00  0.00     0.091 A 
ATOM     65  F   UNL A   1      41.642  30.183  35.582  1.00  0.00    -0.205 F 
ATOM     66  C   UNL A   1      42.677  33.696  35.659  1.00  0.00     0.022 A 
BRANCH  64  67
ATOM     67  S   UNL A   1      41.239  32.462  37.632  1.00  0.00     0.127 S 
ATOM     68  O   UNL A   1      41.235  33.883  37.980  1.00  0.00    -0.237 OA
ATOM     69  O   UNL A   1      39.928  31.921  37.269  1.00  0.00    -0.237 OA
ATOM     70  O   UNL A   1      42.028  31.606  38.504  1.00  0.00    -0.744 OA
ENDBRANCH  64  67
ENDBRANCH  46  60
BRANCH  47  71
ATOM     71  C   UNL A   1      42.686  24.135  27.192  1.00  0.00     0.023 A 
ATOM     72  C   UNL A   1      43.361  24.370  25.978  1.00  0.00     0.012 A 
ATOM     73  C   UNL A   1      42.070  22.887  27.404  1.00  0.00     0.148 A 
ATOM     74  C   UNL A   1      43.401  23.392  24.984  1.00  0.00     0.002 A 
ATOM     75  C   UNL A   1      42.155  21.897  26.430  1.00  0.00     0.091 A 
ATOM     76  F   UNL A   1      41.423  22.688  28.560  1.00  0.00    -0.205 F 
ATOM     77  C   UNL A   1      42.808  22.153  25.213  1.00  0.00     0.022 A 
BRANCH  75  78
ATOM     78  S   UNL A   1      41.521  20.235  26.679  1.00  0.00     0.127 S 
ATOM     79  O   UNL A   1      41.949  19.567  25.452  1.00  0.00    -0.237 OA
ATOM     80  O   UNL A   1      42.234  19.816  27.886  1.00  0.00    -0.237 OA
ATOM     81  O   UNL A   1      40.083  20.386  26.846  1.00  0.00    -0.744 OA
ENDBRANCH  75  78
ENDBRANCH  47  71
BRANCH  59  82
ATOM     82  C   UNL A   1      47.048  25.894  32.362  1.00  0.00     0.023 A 
ATOM     83  C   UNL A   1      48.264  26.352  31.818  1.00  0.00     0.012 A 
ATOM     84  C   UNL A   1      47.070  24.960  33.417  1.00  0.00     0.148 A 
ATOM     85  C   UNL A   1      49.481  25.868  32.297  1.00  0.00     0.002 A 
ATOM     86  C   UNL A   1      48.287  24.518  33.920  1.00  0.00     0.091 A 
ATOM     87  F   UNL A   1      45.901  24.523  33.908  1.00  0.00    -0.205 F 
ATOM     88  C   UNL A   1      49.494  24.963  33.355  1.00  0.00     0.022 A 
BRANCH  86  89
ATOM     89  S   UNL A   1      48.403  23.425  35.343  1.00  0.00     0.127 S 
ATOM     90  O   UNL A   1      47.125  23.667  36.009  1.00  0.00    -0.237 OA
ATOM     91  O   UNL A   1      48.524  22.109  34.714  1.00  0.00    -0.237 OA
ATOM     92  O   UNL A   1      49.584  23.850  36.080  1.00  0.00    -0.744 OA
ENDBRANCH  86  89
ENDBRANCH  59  82
ENDBRANCH  33  34
ENDBRANCH  25  28
ENDBRANCH  23  24
ENDBRANCH  22  23
ENDBRANCH  21  22
ENDBRANCH   3  21
TORSDOF 19
ENDMDL
MODEL 3
REMARK VINA RESULT:     -10.8      5.191     10.697
REMARK SMILES CCOC(=O)CS(=O)(=O)N1CCC(CC(=O)NCCCNC(=O)c2ccc(-c3c4nc(c(-c5cccc(S(=O)(=O)[O-])c5F)c5ccc([nH]5)c(-c5cccc(S(=O)(=O)[O-])c5F)c5nc(c(-c6cccc(S(=O)(=O)[O-])c6F)c6ccc3[nH]6)C=C5)C=C4)cc2)CC1
REMARK SMILES IDX 15 1 16 2 17 3 14 5 13 6 10 7 11 8 88 9 12 10 87 11 7 12
REMARK SMILES IDX 8 13 9 14 6 15 4 16 5 17 3 18 2 19 1 20 18 21 19 22 20 23
REMARK SMILES IDX 21 24 22 25 23 27 24 28 25 29 86 30 26 31 85 32 27 33 28 34
REMARK SMILES IDX 29 35 79 36 30 37 84 38 78 39 80 40 31 41 83 42 77 43 76 44
REMARK SMILES IDX 32 46 64 47 44 48 63 49 45 50 48 51 62 52 81 53 46 54 47 55
REMARK SMILES IDX 61 57 82 58 49 59 33 60 34 61 42 62 35 63 37 64 43 65 36 66
REMARK SMILES IDX 38 67 39 68 40 69 41 70 65 71 66 72 74 73 67 74 69 75 75 76
REMARK SMILES IDX 68 77 70 78 71 79 72 80 73 81 50 82 51 83 59 84 52 85 54 86
REMARK SMILES IDX 60 87 53 88 55 89 56 90 57 91 58 92
REMARK H PARENT 17 4 21 26 80 45 48 56
REMARK Flexibility Score: inf
ROOT
ATOM      1  C   UNL A   1      30.619  28.721  23.322  1.00  0.00     0.220 C 
ATOM      2  O   UNL A   1      30.155  28.977  22.208  1.00  0.00    -0.275 OA
ATOM      3  N   UNL A   1      31.466  29.634  23.883  1.00  0.00    -0.356 N 
ATOM      4  H   UNL A   1      31.696  30.386  23.290  1.00  0.00     0.163 HD
ENDROOT
BRANCH   1   5
ATOM      5  C   UNL A   1      30.269  27.409  24.016  1.00  0.00     0.103 C 
BRANCH   5   6
ATOM      6  C   UNL A   1      31.327  26.306  23.785  1.00  0.00     0.001 C 
ATOM      7  N   UNL A   1      32.215  23.676  24.770  1.00  0.00    -0.201 NA
ATOM      8  C   UNL A   1      33.015  24.896  25.107  1.00  0.00     0.102 C 
ATOM      9  C   UNL A   1      31.715  23.810  23.377  1.00  0.00     0.102 C 
ATOM     10  C   UNL A   1      32.127  26.113  25.065  1.00  0.00     0.021 C 
ATOM     11  C   UNL A   1      30.703  24.972  23.337  1.00  0.00     0.021 C 
BRANCH   7  12
ATOM     12  S   UNL A   1      33.141  22.305  25.190  1.00  0.00     0.224 S 
ATOM     13  O   UNL A   1      33.472  22.462  26.590  1.00  0.00    -0.212 OA
ATOM     14  O   UNL A   1      34.178  22.224  24.181  1.00  0.00    -0.212 OA
BRANCH  12  15
ATOM     15  C   UNL A   1      32.135  20.877  24.988  1.00  0.00     0.276 C 
BRANCH  15  16
ATOM     16  C   UNL A   1      32.561  19.996  23.878  1.00  0.00     0.322 C 
ATOM     17  O   UNL A   1      32.128  20.125  22.736  1.00  0.00    -0.251 OA
BRANCH  16  18
ATOM     18  O   UNL A   1      33.565  19.154  24.224  1.00  0.00    -0.465 OA
BRANCH  18  19
ATOM     19  C   UNL A   1      33.199  17.782  24.430  1.00  0.00     0.229 C 
ATOM     20  C   UNL A   1      33.687  16.893  23.300  1.00  0.00     0.049 C 
ENDBRANCH  18  19
ENDBRANCH  16  18
ENDBRANCH  15  16
ENDBRANCH  12  15
ENDBRANCH   7  12
ENDBRANCH   5   6
ENDBRANCH   1   5
BRANCH   3  21
ATOM     21  C   UNL A   1      32.092  29.701  25.200  1.00  0.00     0.117 C 
BRANCH  21  22
ATOM     22  C   UNL A   1      31.617  30.878  26.064  1.00  0.00     0.042 C 
BRANCH  22  23
ATOM     23  C   UNL A   1      32.547  31.254  27.211  1.00  0.00     0.118 C 
BRANCH  23  24
ATOM     24  N   UNL A   1      32.853  32.675  27.197  1.00  0.00    -0.352 N 
ATOM     25  C   UNL A   1      33.842  33.367  27.856  1.00  0.00     0.251 C 
ATOM     26  H   UNL A   1      32.264  33.223  26.632  1.00  0.00     0.163 HD
ATOM     27  O   UNL A   1      33.746  34.590  27.944  1.00  0.00    -0.269 OA
BRANCH  25  28
ATOM     28  C   UNL A   1      35.013  32.678  28.459  1.00  0.00     0.039 A 
ATOM     29  C   UNL A   1      34.791  31.579  29.298  1.00  0.00     0.014 A 
ATOM     30  C   UNL A   1      36.317  33.145  28.278  1.00  0.00     0.014 A 
ATOM     31  C   UNL A   1      35.868  30.938  29.923  1.00  0.00     0.010 A 
ATOM     32  C   UNL A   1      37.397  32.456  28.837  1.00  0.00     0.010 A 
ATOM     33  C   UNL A   1      37.186  31.358  29.685  1.00  0.00    -0.014 A 
BRANCH  33  34
ATOM     34  C   UNL A   1      38.348  30.682  30.329  1.00  0.00     0.031 A 
ATOM     35  C   UNL A   1      38.782  31.072  31.720  1.00  0.00     0.074 A 
ATOM     36  C   UNL A   1      39.064  29.772  29.638  1.00  0.00     0.049 A 
ATOM     37  N   UNL A   1      39.806  30.648  32.416  1.00  0.00    -0.248 NA
ATOM     38  C   UNL A   1      37.975  32.092  32.411  1.00  0.00     0.031 C 
ATOM     39  C   UNL A   1      38.801  29.357  28.259  1.00  0.00     0.029 A 
ATOM     40  N   UNL A   1      40.180  29.053  29.993  1.00  0.00    -0.354 N 
ATOM     41  C   UNL A   1      39.791  31.374  33.602  1.00  0.00     0.074 A 
ATOM     42  C   UNL A   1      38.674  32.290  33.519  1.00  0.00     0.031 C 
ATOM     43  C   UNL A   1      39.728  28.464  27.883  1.00  0.00     0.029 A 
ATOM     44  C   UNL A   1      40.669  28.259  28.981  1.00  0.00     0.049 A 
ATOM     45  H   UNL A   1      40.591  29.101  30.886  1.00  0.00     0.167 HD
ATOM     46  C   UNL A   1      40.609  31.270  34.678  1.00  0.00     0.034 A 
ATOM     47  C   UNL A   1      41.755  27.462  28.935  1.00  0.00     0.034 A 
ATOM     48  C   UNL A   1      41.688  30.324  34.784  1.00  0.00     0.049 A 
ATOM     49  C   UNL A   1      42.620  27.326  30.160  1.00  0.00     0.074 A 
ATOM     50  C   UNL A   1      42.516  30.081  35.865  1.00  0.00     0.029 A 
ATOM     51  N   UNL A   1      42.088  29.465  33.772  1.00  0.00    -0.354 N 
ATOM     52  N   UNL A   1      42.495  27.910  31.327  1.00  0.00    -0.248 NA
ATOM     53  C   UNL A   1      43.752  26.391  30.077  1.00  0.00     0.031 C 
ATOM     54  C   UNL A   1      43.430  29.087  35.502  1.00  0.00     0.029 A 
ATOM     55  C   UNL A   1      43.155  28.694  34.202  1.00  0.00     0.049 A 
ATOM     56  H   UNL A   1      41.675  29.411  32.881  1.00  0.00     0.167 HD
ATOM     57  C   UNL A   1      43.509  27.392  32.125  1.00  0.00     0.074 A 
ATOM     58  C   UNL A   1      44.227  26.429  31.315  1.00  0.00     0.031 C 
ATOM     59  C   UNL A   1      43.827  27.698  33.407  1.00  0.00     0.034 A 
BRANCH  46  60
ATOM     60  C   UNL A   1      40.332  32.165  35.860  1.00  0.00     0.023 A 
ATOM     61  C   UNL A   1      41.138  33.302  36.072  1.00  0.00     0.012 A 
ATOM     62  C   UNL A   1      39.243  31.921  36.721  1.00  0.00     0.148 A 
ATOM     63  C   UNL A   1      40.891  34.161  37.143  1.00  0.00     0.002 A 
ATOM     64  C   UNL A   1      38.976  32.807  37.760  1.00  0.00     0.091 A 
ATOM     65  F   UNL A   1      38.497  30.827  36.516  1.00  0.00    -0.205 F 
ATOM     66  C   UNL A   1      39.806  33.920  37.979  1.00  0.00     0.022 A 
BRANCH  64  67
ATOM     67  S   UNL A   1      37.555  32.629  38.846  1.00  0.00     0.127 S 
ATOM     68  O   UNL A   1      37.753  31.278  39.370  1.00  0.00    -0.237 OA
ATOM     69  O   UNL A   1      37.775  33.699  39.820  1.00  0.00    -0.237 OA
ATOM     70  O   UNL A   1      36.382  32.808  38.004  1.00  0.00    -0.744 OA
ENDBRANCH  64  67
ENDBRANCH  46  60
BRANCH  47  71
ATOM     71  C   UNL A   1      42.051  26.681  27.700  1.00  0.00     0.023 A 
ATOM     72  C   UNL A   1      42.672  27.321  26.609  1.00  0.00     0.012 A 
ATOM     73  C   UNL A   1      41.752  25.308  27.610  1.00  0.00     0.148 A 
ATOM     74  C   UNL A   1      42.965  26.616  25.442  1.00  0.00     0.002 A 
ATOM     75  C   UNL A   1      42.092  24.598  26.463  1.00  0.00     0.091 A 
ATOM     76  F   UNL A   1      41.150  24.721  28.653  1.00  0.00    -0.205 F 
ATOM     77  C   UNL A   1      42.686  25.253  25.372  1.00  0.00     0.022 A 
BRANCH  75  78
ATOM     78  S   UNL A   1      41.873  22.821  26.323  1.00  0.00     0.127 S 
ATOM     79  O   UNL A   1      42.478  22.548  25.022  1.00  0.00    -0.237 OA
ATOM     80  O   UNL A   1      42.638  22.330  27.470  1.00  0.00    -0.237 OA
ATOM     81  O   UNL A   1      40.438  22.595  26.410  1.00  0.00    -0.744 OA
ENDBRANCH  75  78
ENDBRANCH  47  71
BRANCH  59  82
ATOM     82  C   UNL A   1      44.984  26.968  34.038  1.00  0.00     0.023 A 
ATOM     83  C   UNL A   1      46.289  27.481  33.910  1.00  0.00     0.012 A 
ATOM     84  C   UNL A   1      44.765  25.821  34.828  1.00  0.00     0.148 A 
ATOM     85  C   UNL A   1      47.363  26.848  34.535  1.00  0.00     0.002 A 
ATOM     86  C   UNL A   1      45.833  25.224  35.486  1.00  0.00     0.091 A 
ATOM     87  F   UNL A   1      43.518  25.337  34.922  1.00  0.00    -0.205 F 
ATOM     88  C   UNL A   1      47.135  25.729  35.332  1.00  0.00     0.022 A 
BRANCH  86  89
ATOM     89  S   UNL A   1      45.620  23.836  36.609  1.00  0.00     0.127 S 
ATOM     90  O   UNL A   1      44.968  22.853  35.747  1.00  0.00    -0.237 OA
ATOM     91  O   UNL A   1      47.002  23.512  36.968  1.00  0.00    -0.237 OA
ATOM     92  O   UNL A   1      44.813  24.335  37.713  1.00  0.00    -0.744 OA
ENDBRANCH  86  89
ENDBRANCH  59  82
ENDBRANCH  33  34
ENDBRANCH  25  28
ENDBRANCH  23  24
ENDBRANCH  22  23
ENDBRANCH  21  22
ENDBRANCH   3  21
TORSDOF 19
ENDMDL
