MODEL 1
REMARK VINA RESULT:     -10.5      0.000      0.000
REMARK SMILES CCSCC[C@@H]1CCC[C@@]1([NH3+])C(=O)NCCCNC(=O)c1ccc(-c2c3nc(c(-c4cccc(S(=O)(=O)[O-])c4F)c4ccc([nH]4)c(-c4cccc(S(=O)(=O)[O-])c4F)c4nc(c(-c5cccc(S(=O)(=O)[O-])c5F)c5ccc2[nH]5)C=C4)C=C3)cc1
REMARK SMILES IDX 15 1 14 2 12 3 13 4 10 6 6 7 7 8 8 9 9 10 5 11 4 12 3 13
REMARK SMILES IDX 2 14 1 15 11 16 16 20 17 21 18 22 19 23 20 25 21 26 22 27
REMARK SMILES IDX 83 28 23 29 82 30 24 31 25 32 26 33 76 34 27 35 81 36 75 37
REMARK SMILES IDX 77 38 28 39 80 40 74 41 73 42 29 44 61 45 41 46 60 47 42 48
REMARK SMILES IDX 45 49 59 50 78 51 43 52 44 53 58 55 79 56 46 57 30 58 31 59
REMARK SMILES IDX 39 60 32 61 34 62 40 63 33 64 35 65 36 66 37 67 38 68 62 69
REMARK SMILES IDX 63 70 71 71 64 72 66 73 72 74 65 75 67 76 68 77 69 78 70 79
REMARK SMILES IDX 47 80 48 81 56 82 49 83 51 84 57 85 50 86 52 87 53 88 54 89
REMARK SMILES IDX 55 90
REMARK H PARENT 14 5 11 17 11 18 11 19 18 24 77 43 45 54
REMARK Flexibility Score: inf
ROOT
ATOM      1  C   UNL A   1      32.464  29.816  26.149  1.00  0.00     0.118 C 
ENDROOT
BRANCH   1   2
ATOM      2  N   UNL A   1      33.132  29.803  24.862  1.00  0.00    -0.351 N 
ATOM      3  C   UNL A   1      33.335  28.823  23.946  1.00  0.00     0.281 C 
ATOM      4  O   UNL A   1      34.207  29.062  23.108  1.00  0.00    -0.268 OA
ATOM      5  H   UNL A   1      33.511  30.673  24.604  1.00  0.00     0.163 HD
BRANCH   3   6
ATOM      6  C   UNL A   1      32.554  27.489  23.964  1.00  0.00     0.176 C 
ATOM      7  C   UNL A   1      31.258  27.554  23.104  1.00  0.00     0.061 C 
ATOM      8  C   UNL A   1      30.942  26.069  22.856  1.00  0.00     0.011 C 
ATOM      9  C   UNL A   1      32.298  25.366  22.783  1.00  0.00     0.008 C 
ATOM     10  C   UNL A   1      33.338  26.406  23.201  1.00  0.00     0.079 C 
BRANCH   7  11
ATOM     11  C   UNL A   1      30.041  28.297  23.698  1.00  0.00     0.021 C 
BRANCH  11  12
ATOM     12  C   UNL A   1      29.959  29.798  23.397  1.00  0.00     0.070 C 
BRANCH  12  13
ATOM     13  S   UNL A   1      29.273  30.223  21.748  1.00  0.00    -0.162 SA
BRANCH  13  14
ATOM     14  C   UNL A   1      27.719  31.072  22.180  1.00  0.00     0.066 C 
ATOM     15  C   UNL A   1      27.574  31.351  23.664  1.00  0.00     0.015 C 
ENDBRANCH  13  14
ENDBRANCH  12  13
ENDBRANCH  11  12
ENDBRANCH   7  11
BRANCH   6  16
ATOM     16  N   UNL A   1      32.213  27.043  25.335  1.00  0.00    -0.345 N 
ATOM     17  H   UNL A   1      31.291  26.607  25.331  1.00  0.00     0.345 HD
ATOM     18  H   UNL A   1      32.205  27.848  25.962  1.00  0.00     0.345 HD
ATOM     19  H   UNL A   1      32.908  26.369  25.656  1.00  0.00     0.345 HD
ENDBRANCH   6  16
ENDBRANCH   3   6
ENDBRANCH   1   2
BRANCH   1  20
ATOM     20  C   UNL A   1      32.048  31.225  26.547  1.00  0.00     0.042 C 
BRANCH  20  21
ATOM     21  C   UNL A   1      33.132  32.013  27.271  1.00  0.00     0.118 C 
BRANCH  21  22
ATOM     22  N   UNL A   1      32.757  33.402  27.509  1.00  0.00    -0.352 N 
ATOM     23  C   UNL A   1      33.200  34.283  28.472  1.00  0.00     0.251 C 
ATOM     24  H   UNL A   1      32.087  33.766  26.888  1.00  0.00     0.163 HD
ATOM     25  O   UNL A   1      32.620  35.344  28.644  1.00  0.00    -0.269 OA
BRANCH  23  26
ATOM     26  C   UNL A   1      34.364  33.920  29.307  1.00  0.00     0.039 A 
ATOM     27  C   UNL A   1      34.168  33.153  30.459  1.00  0.00     0.014 A 
ATOM     28  C   UNL A   1      35.649  34.317  28.937  1.00  0.00     0.014 A 
ATOM     29  C   UNL A   1      35.275  32.710  31.187  1.00  0.00     0.010 A 
ATOM     30  C   UNL A   1      36.748  33.793  29.602  1.00  0.00     0.010 A 
ATOM     31  C   UNL A   1      36.576  32.986  30.736  1.00  0.00    -0.014 A 
BRANCH  31  32
ATOM     32  C   UNL A   1      37.779  32.442  31.417  1.00  0.00     0.031 A 
ATOM     33  C   UNL A   1      38.541  31.305  30.791  1.00  0.00     0.074 A 
ATOM     34  C   UNL A   1      38.106  32.880  32.648  1.00  0.00     0.049 A 
ATOM     35  N   UNL A   1      39.524  30.600  31.285  1.00  0.00    -0.248 NA
ATOM     36  C   UNL A   1      38.117  30.878  29.446  1.00  0.00     0.031 C 
ATOM     37  C   UNL A   1      37.397  33.920  33.396  1.00  0.00     0.029 A 
ATOM     38  N   UNL A   1      39.099  32.476  33.507  1.00  0.00    -0.354 N 
ATOM     39  C   UNL A   1      39.802  29.620  30.339  1.00  0.00     0.074 A 
ATOM     40  C   UNL A   1      38.861  29.798  29.256  1.00  0.00     0.031 C 
ATOM     41  C   UNL A   1      37.974  34.072  34.598  1.00  0.00     0.029 A 
ATOM     42  C   UNL A   1      39.069  33.117  34.725  1.00  0.00     0.049 A 
ATOM     43  H   UNL A   1      39.768  31.793  33.274  1.00  0.00     0.167 HD
ATOM     44  C   UNL A   1      40.771  28.675  30.356  1.00  0.00     0.034 A 
ATOM     45  C   UNL A   1      39.828  32.943  35.826  1.00  0.00     0.034 A 
ATOM     46  C   UNL A   1      41.740  28.538  31.407  1.00  0.00     0.049 A 
ATOM     47  C   UNL A   1      40.929  31.918  35.799  1.00  0.00     0.074 A 
ATOM     48  C   UNL A   1      42.823  27.681  31.472  1.00  0.00     0.029 A 
ATOM     49  N   UNL A   1      41.742  29.277  32.580  1.00  0.00    -0.354 N 
ATOM     50  N   UNL A   1      41.274  31.104  34.830  1.00  0.00    -0.248 NA
ATOM     51  C   UNL A   1      41.766  31.806  37.002  1.00  0.00     0.031 C 
ATOM     52  C   UNL A   1      43.469  27.885  32.696  1.00  0.00     0.029 A 
ATOM     53  C   UNL A   1      42.803  28.890  33.380  1.00  0.00     0.049 A 
ATOM     54  H   UNL A   1      41.087  29.974  32.811  1.00  0.00     0.167 HD
ATOM     55  C   UNL A   1      42.390  30.414  35.291  1.00  0.00     0.074 A 
ATOM     56  C   UNL A   1      42.672  30.917  36.619  1.00  0.00     0.031 C 
ATOM     57  C   UNL A   1      43.107  29.442  34.674  1.00  0.00     0.034 A 
BRANCH  44  58
ATOM     58  C   UNL A   1      40.866  27.749  29.171  1.00  0.00     0.023 A 
ATOM     59  C   UNL A   1      40.035  26.613  29.106  1.00  0.00     0.012 A 
ATOM     60  C   UNL A   1      41.734  28.032  28.098  1.00  0.00     0.148 A 
ATOM     61  C   UNL A   1      40.092  25.750  28.012  1.00  0.00     0.002 A 
ATOM     62  C   UNL A   1      41.752  27.193  26.988  1.00  0.00     0.091 A 
ATOM     63  F   UNL A   1      42.533  29.105  28.185  1.00  0.00    -0.205 F 
ATOM     64  C   UNL A   1      40.942  26.046  26.951  1.00  0.00     0.022 A 
BRANCH  62  65
ATOM     65  S   UNL A   1      42.750  27.531  25.533  1.00  0.00     0.127 S 
ATOM     66  O   UNL A   1      42.574  26.300  24.764  1.00  0.00    -0.237 OA
ATOM     67  O   UNL A   1      42.082  28.704  24.969  1.00  0.00    -0.237 OA
ATOM     68  O   UNL A   1      44.100  27.776  26.022  1.00  0.00    -0.744 OA
ENDBRANCH  62  65
ENDBRANCH  44  58
BRANCH  45  69
ATOM     69  C   UNL A   1      39.613  33.804  37.024  1.00  0.00     0.023 A 
ATOM     70  C   UNL A   1      40.023  35.151  36.986  1.00  0.00     0.012 A 
ATOM     71  C   UNL A   1      38.983  33.310  38.183  1.00  0.00     0.148 A 
ATOM     72  C   UNL A   1      39.840  35.982  38.092  1.00  0.00     0.002 A 
ATOM     73  C   UNL A   1      38.753  34.159  39.260  1.00  0.00     0.091 A 
ATOM     74  F   UNL A   1      38.608  32.023  38.203  1.00  0.00    -0.205 F 
ATOM     75  C   UNL A   1      39.196  35.489  39.224  1.00  0.00     0.022 A 
BRANCH  73  76
ATOM     76  S   UNL A   1      37.812  33.649  40.703  1.00  0.00     0.127 S 
ATOM     77  O   UNL A   1      38.712  32.678  41.320  1.00  0.00    -0.237 OA
ATOM     78  O   UNL A   1      37.669  34.910  41.433  1.00  0.00    -0.237 OA
ATOM     79  O   UNL A   1      36.559  33.112  40.186  1.00  0.00    -0.744 OA
ENDBRANCH  73  76
ENDBRANCH  45  69
BRANCH  57  80
ATOM     80  C   UNL A   1      44.299  28.881  35.403  1.00  0.00     0.023 A 
ATOM     81  C   UNL A   1      45.570  29.459  35.220  1.00  0.00     0.012 A 
ATOM     82  C   UNL A   1      44.138  27.841  36.340  1.00  0.00     0.148 A 
ATOM     83  C   UNL A   1      46.669  28.994  35.941  1.00  0.00     0.002 A 
ATOM     84  C   UNL A   1      45.227  27.416  37.091  1.00  0.00     0.091 A 
ATOM     85  F   UNL A   1      42.922  27.294  36.485  1.00  0.00    -0.205 F 
ATOM     86  C   UNL A   1      46.495  27.983  36.885  1.00  0.00     0.022 A 
BRANCH  84  87
ATOM     87  S   UNL A   1      45.079  26.193  38.397  1.00  0.00     0.127 S 
ATOM     88  O   UNL A   1      44.663  25.007  37.649  1.00  0.00    -0.237 OA
ATOM     89  O   UNL A   1      46.443  26.135  38.923  1.00  0.00    -0.237 OA
ATOM     90  O   UNL A   1      44.092  26.718  39.331  1.00  0.00    -0.744 OA
ENDBRANCH  84  87
ENDBRANCH  57  80
ENDBRANCH  31  32
ENDBRANCH  23  26
ENDBRANCH  21  22
ENDBRANCH  20  21
ENDBRANCH   1  20
TORSDOF 18
ENDMDL
MODEL 2
REMARK VINA RESULT:     -10.4      6.115      9.237
REMARK SMILES CCSCC[C@@H]1CCC[C@@]1([NH3+])C(=O)NCCCNC(=O)c1ccc(-c2c3nc(c(-c4cccc(S(=O)(=O)[O-])c4F)c4ccc([nH]4)c(-c4cccc(S(=O)(=O)[O-])c4F)c4nc(c(-c5cccc(S(=O)(=O)[O-])c5F)c5ccc2[nH]5)C=C4)C=C3)cc1
REMARK SMILES IDX 15 1 14 2 12 3 13 4 10 6 6 7 7 8 8 9 9 10 5 11 4 12 3 13
REMARK SMILES IDX 2 14 1 15 11 16 16 20 17 21 18 22 19 23 20 25 21 26 22 27
REMARK SMILES IDX 83 28 23 29 82 30 24 31 25 32 26 33 76 34 27 35 81 36 75 37
REMARK SMILES IDX 77 38 28 39 80 40 74 41 73 42 29 44 61 45 41 46 60 47 42 48
REMARK SMILES IDX 45 49 59 50 78 51 43 52 44 53 58 55 79 56 46 57 30 58 31 59
REMARK SMILES IDX 39 60 32 61 34 62 40 63 33 64 35 65 36 66 37 67 38 68 62 69
REMARK SMILES IDX 63 70 71 71 64 72 66 73 72 74 65 75 67 76 68 77 69 78 70 79
REMARK SMILES IDX 47 80 48 81 56 82 49 83 51 84 57 85 50 86 52 87 53 88 54 89
REMARK SMILES IDX 55 90
REMARK H PARENT 14 5 11 17 11 18 11 19 18 24 77 43 45 54
REMARK Flexibility Score: inf
ROOT
ATOM      1  C   UNL A   1      35.571  22.493  26.070  1.00  0.00     0.118 C 
ENDROOT
BRANCH   1   2
ATOM      2  N   UNL A   1      34.633  22.275  27.154  1.00  0.00    -0.351 N 
ATOM      3  C   UNL A   1      33.282  22.156  27.186  1.00  0.00     0.281 C 
ATOM      4  O   UNL A   1      32.770  22.290  28.298  1.00  0.00    -0.268 OA
ATOM      5  H   UNL A   1      35.059  22.199  28.038  1.00  0.00     0.163 HD
BRANCH   3   6
ATOM      6  C   UNL A   1      32.437  21.898  25.916  1.00  0.00     0.176 C 
ATOM      7  C   UNL A   1      32.828  22.846  24.745  1.00  0.00     0.061 C 
ATOM      8  C   UNL A   1      32.269  22.112  23.514  1.00  0.00     0.011 C 
ATOM      9  C   UNL A   1      32.390  20.621  23.834  1.00  0.00     0.008 C 
ATOM     10  C   UNL A   1      32.805  20.535  25.303  1.00  0.00     0.079 C 
BRANCH   7  11
ATOM     11  C   UNL A   1      32.326  24.305  24.808  1.00  0.00     0.021 C 
BRANCH  11  12
ATOM     12  C   UNL A   1      33.394  25.372  25.079  1.00  0.00     0.070 C 
BRANCH  12  13
ATOM     13  S   UNL A   1      33.342  26.826  23.958  1.00  0.00    -0.162 SA
BRANCH  13  14
ATOM     14  C   UNL A   1      31.776  26.568  23.061  1.00  0.00     0.066 C 
ATOM     15  C   UNL A   1      31.933  25.756  21.789  1.00  0.00     0.015 C 
ENDBRANCH  13  14
ENDBRANCH  12  13
ENDBRANCH  11  12
ENDBRANCH   7  11
BRANCH   6  16
ATOM     16  N   UNL A   1      30.982  22.001  26.167  1.00  0.00    -0.345 N 
ATOM     17  H   UNL A   1      30.635  22.886  25.797  1.00  0.00     0.345 HD
ATOM     18  H   UNL A   1      30.805  21.960  27.171  1.00  0.00     0.345 HD
ATOM     19  H   UNL A   1      30.501  21.228  25.706  1.00  0.00     0.345 HD
ENDBRANCH   6  16
ENDBRANCH   3   6
ENDBRANCH   1   2
BRANCH   1  20
ATOM     20  C   UNL A   1      36.166  21.181  25.577  1.00  0.00     0.042 C 
BRANCH  20  21
ATOM     21  C   UNL A   1      37.566  21.315  24.989  1.00  0.00     0.118 C 
BRANCH  21  22
ATOM     22  N   UNL A   1      38.502  20.339  25.533  1.00  0.00    -0.352 N 
ATOM     23  C   UNL A   1      39.694  20.534  26.196  1.00  0.00     0.251 C 
ATOM     24  H   UNL A   1      38.243  19.397  25.409  1.00  0.00     0.163 HD
ATOM     25  O   UNL A   1      40.445  19.591  26.397  1.00  0.00    -0.269 OA
BRANCH  23  26
ATOM     26  C   UNL A   1      40.065  21.895  26.637  1.00  0.00     0.039 A 
ATOM     27  C   UNL A   1      41.057  22.054  27.609  1.00  0.00     0.014 A 
ATOM     28  C   UNL A   1      39.448  23.011  26.071  1.00  0.00     0.014 A 
ATOM     29  C   UNL A   1      41.492  23.339  27.943  1.00  0.00     0.010 A 
ATOM     30  C   UNL A   1      39.952  24.278  26.330  1.00  0.00     0.010 A 
ATOM     31  C   UNL A   1      40.976  24.459  27.271  1.00  0.00    -0.014 A 
BRANCH  31  32
ATOM     32  C   UNL A   1      41.489  25.831  27.517  1.00  0.00     0.031 A 
ATOM     33  C   UNL A   1      42.901  26.182  27.130  1.00  0.00     0.074 A 
ATOM     34  C   UNL A   1      40.734  26.715  28.199  1.00  0.00     0.049 A 
ATOM     35  N   UNL A   1      43.579  27.269  27.383  1.00  0.00    -0.248 NA
ATOM     36  C   UNL A   1      43.663  25.159  26.392  1.00  0.00     0.031 C 
ATOM     37  C   UNL A   1      39.381  26.467  28.701  1.00  0.00     0.029 A 
ATOM     38  N   UNL A   1      41.015  27.990  28.625  1.00  0.00    -0.354 N 
ATOM     39  C   UNL A   1      44.857  27.044  26.884  1.00  0.00     0.074 A 
ATOM     40  C   UNL A   1      44.870  25.703  26.344  1.00  0.00     0.031 C 
ATOM     41  C   UNL A   1      38.950  27.552  29.364  1.00  0.00     0.029 A 
ATOM     42  C   UNL A   1      40.006  28.558  29.371  1.00  0.00     0.049 A 
ATOM     43  H   UNL A   1      41.858  28.455  28.417  1.00  0.00     0.167 HD
ATOM     44  C   UNL A   1      45.916  27.887  26.852  1.00  0.00     0.034 A 
ATOM     45  C   UNL A   1      39.946  29.747  30.002  1.00  0.00     0.034 A 
ATOM     46  C   UNL A   1      45.881  29.238  27.338  1.00  0.00     0.049 A 
ATOM     47  C   UNL A   1      41.120  30.683  29.909  1.00  0.00     0.074 A 
ATOM     48  C   UNL A   1      46.866  30.206  27.260  1.00  0.00     0.029 A 
ATOM     49  N   UNL A   1      44.804  29.814  27.994  1.00  0.00    -0.354 N 
ATOM     50  N   UNL A   1      42.266  30.509  29.297  1.00  0.00    -0.248 NA
ATOM     51  C   UNL A   1      40.984  31.991  30.566  1.00  0.00     0.031 C 
ATOM     52  C   UNL A   1      46.394  31.361  27.891  1.00  0.00     0.029 A 
ATOM     53  C   UNL A   1      45.103  31.121  28.336  1.00  0.00     0.049 A 
ATOM     54  H   UNL A   1      43.953  29.360  28.189  1.00  0.00     0.167 HD
ATOM     55  C   UNL A   1      42.970  31.698  29.460  1.00  0.00     0.074 A 
ATOM     56  C   UNL A   1      42.114  32.589  30.214  1.00  0.00     0.031 C 
ATOM     57  C   UNL A   1      44.218  32.016  29.034  1.00  0.00     0.034 A 
BRANCH  44  58
ATOM     58  C   UNL A   1      47.188  27.388  26.217  1.00  0.00     0.023 A 
ATOM     59  C   UNL A   1      47.453  27.681  24.864  1.00  0.00     0.012 A 
ATOM     60  C   UNL A   1      48.145  26.681  26.970  1.00  0.00     0.148 A 
ATOM     61  C   UNL A   1      48.631  27.245  24.259  1.00  0.00     0.002 A 
ATOM     62  C   UNL A   1      49.339  26.290  26.373  1.00  0.00     0.091 A 
ATOM     63  F   UNL A   1      47.868  26.392  28.250  1.00  0.00    -0.205 F 
ATOM     64  C   UNL A   1      49.577  26.560  25.015  1.00  0.00     0.022 A 
BRANCH  62  65
ATOM     65  S   UNL A   1      50.657  25.476  27.282  1.00  0.00     0.127 S 
ATOM     66  O   UNL A   1      49.979  24.277  27.772  1.00  0.00    -0.237 OA
ATOM     67  O   UNL A   1      51.648  25.231  26.233  1.00  0.00    -0.237 OA
ATOM     68  O   UNL A   1      51.080  26.420  28.307  1.00  0.00    -0.744 OA
ENDBRANCH  62  65
ENDBRANCH  44  58
BRANCH  45  69
ATOM     69  C   UNL A   1      38.704  30.146  30.725  1.00  0.00     0.023 A 
ATOM     70  C   UNL A   1      38.539  29.765  32.071  1.00  0.00     0.012 A 
ATOM     71  C   UNL A   1      37.705  30.920  30.102  1.00  0.00     0.148 A 
ATOM     72  C   UNL A   1      37.387  30.119  32.774  1.00  0.00     0.002 A 
ATOM     73  C   UNL A   1      36.586  31.316  30.825  1.00  0.00     0.091 A 
ATOM     74  F   UNL A   1      37.876  31.264  28.818  1.00  0.00    -0.205 F 
ATOM     75  C   UNL A   1      36.416  30.902  32.155  1.00  0.00     0.022 A 
BRANCH  73  76
ATOM     76  S   UNL A   1      35.352  32.436  30.153  1.00  0.00     0.127 S 
ATOM     77  O   UNL A   1      34.874  31.692  28.990  1.00  0.00    -0.237 OA
ATOM     78  O   UNL A   1      34.398  32.534  31.259  1.00  0.00    -0.237 OA
ATOM     79  O   UNL A   1      36.063  33.675  29.865  1.00  0.00    -0.744 OA
ENDBRANCH  73  76
ENDBRANCH  45  69
BRANCH  57  80
ATOM     80  C   UNL A   1      44.728  33.401  29.330  1.00  0.00     0.023 A 
ATOM     81  C   UNL A   1      45.378  33.664  30.551  1.00  0.00     0.012 A 
ATOM     82  C   UNL A   1      44.645  34.416  28.355  1.00  0.00     0.148 A 
ATOM     83  C   UNL A   1      45.917  34.924  30.808  1.00  0.00     0.002 A 
ATOM     84  C   UNL A   1      45.228  35.653  28.598  1.00  0.00     0.091 A 
ATOM     85  F   UNL A   1      44.006  34.149  27.207  1.00  0.00    -0.205 F 
ATOM     86  C   UNL A   1      45.854  35.913  29.828  1.00  0.00     0.022 A 
BRANCH  84  87
ATOM     87  S   UNL A   1      45.282  36.952  27.360  1.00  0.00     0.127 S 
ATOM     88  O   UNL A   1      46.039  37.994  28.053  1.00  0.00    -0.237 OA
ATOM     89  O   UNL A   1      46.002  36.304  26.263  1.00  0.00    -0.237 OA
ATOM     90  O   UNL A   1      43.896  37.283  27.062  1.00  0.00    -0.744 OA
ENDBRANCH  84  87
ENDBRANCH  57  80
ENDBRANCH  31  32
ENDBRANCH  23  26
ENDBRANCH  21  22
ENDBRANCH  20  21
ENDBRANCH   1  20
TORSDOF 18
ENDMDL
MODEL 3
REMARK VINA RESULT:     -10.3      3.844      9.321
REMARK SMILES CCSCC[C@@H]1CCC[C@@]1([NH3+])C(=O)NCCCNC(=O)c1ccc(-c2c3nc(c(-c4cccc(S(=O)(=O)[O-])c4F)c4ccc([nH]4)c(-c4cccc(S(=O)(=O)[O-])c4F)c4nc(c(-c5cccc(S(=O)(=O)[O-])c5F)c5ccc2[nH]5)C=C4)C=C3)cc1
REMARK SMILES IDX 15 1 14 2 12 3 13 4 10 6 6 7 7 8 8 9 9 10 5 11 4 12 3 13
REMARK SMILES IDX 2 14 1 15 11 16 16 20 17 21 18 22 19 23 20 25 21 26 22 27
REMARK SMILES IDX 83 28 23 29 82 30 24 31 25 32 26 33 76 34 27 35 81 36 75 37
REMARK SMILES IDX 77 38 28 39 80 40 74 41 73 42 29 44 61 45 41 46 60 47 42 48
REMARK SMILES IDX 45 49 59 50 78 51 43 52 44 53 58 55 79 56 46 57 30 58 31 59
REMARK SMILES IDX 39 60 32 61 34 62 40 63 33 64 35 65 36 66 37 67 38 68 62 69
REMARK SMILES IDX 63 70 71 71 64 72 66 73 72 74 65 75 67 76 68 77 69 78 70 79
REMARK SMILES IDX 47 80 48 81 56 82 49 83 51 84 57 85 50 86 52 87 53 88 54 89
REMARK SMILES IDX 55 90
REMARK H PARENT 14 5 11 17 11 18 11 19 18 24 77 43 45 54
REMARK Flexibility Score: inf
ROOT
ATOM      1  C   UNL A   1      33.235  27.308  25.078  1.00  0.00     0.118 C 
ENDROOT
BRANCH   1   2
ATOM      2  N   UNL A   1      33.438  27.365  23.643  1.00  0.00    -0.351 N 
ATOM      3  C   UNL A   1      33.358  26.424  22.669  1.00  0.00     0.281 C 
ATOM      4  O   UNL A   1      33.893  26.728  21.602  1.00  0.00    -0.268 OA
ATOM      5  H   UNL A   1      33.680  28.260  23.312  1.00  0.00     0.163 HD
BRANCH   3   6
ATOM      6  C   UNL A   1      32.671  25.055  22.885  1.00  0.00     0.176 C 
ATOM      7  C   UNL A   1      33.131  24.368  24.204  1.00  0.00     0.061 C 
ATOM      8  C   UNL A   1      32.010  23.345  24.461  1.00  0.00     0.011 C 
ATOM      9  C   UNL A   1      30.732  23.991  23.923  1.00  0.00     0.008 C 
ATOM     10  C   UNL A   1      31.175  25.255  23.185  1.00  0.00     0.079 C 
BRANCH   7  11
ATOM     11  C   UNL A   1      34.521  23.695  24.214  1.00  0.00     0.021 C 
BRANCH  11  12
ATOM     12  C   UNL A   1      34.532  22.181  24.459  1.00  0.00     0.070 C 
BRANCH  12  13
ATOM     13  S   UNL A   1      35.976  21.558  25.407  1.00  0.00    -0.162 SA
BRANCH  13  14
ATOM     14  C   UNL A   1      37.305  22.689  24.879  1.00  0.00     0.066 C 
ATOM     15  C   UNL A   1      37.764  23.636  25.972  1.00  0.00     0.015 C 
ENDBRANCH  13  14
ENDBRANCH  12  13
ENDBRANCH  11  12
ENDBRANCH   7  11
BRANCH   6  16
ATOM     16  N   UNL A   1      32.876  24.127  21.750  1.00  0.00    -0.345 N 
ATOM     17  H   UNL A   1      32.057  23.528  21.650  1.00  0.00     0.345 HD
ATOM     18  H   UNL A   1      33.699  23.551  21.925  1.00  0.00     0.345 HD
ATOM     19  H   UNL A   1      33.012  24.664  20.893  1.00  0.00     0.345 HD
ENDBRANCH   6  16
ENDBRANCH   3   6
ENDBRANCH   1   2
BRANCH   1  20
ATOM     20  C   UNL A   1      34.024  28.393  25.796  1.00  0.00     0.042 C 
BRANCH  20  21
ATOM     21  C   UNL A   1      33.372  28.892  27.080  1.00  0.00     0.118 C 
BRANCH  21  22
ATOM     22  N   UNL A   1      33.549  30.325  27.284  1.00  0.00    -0.352 N 
ATOM     23  C   UNL A   1      34.574  31.008  27.900  1.00  0.00     0.251 C 
ATOM     24  H   UNL A   1      32.827  30.890  26.925  1.00  0.00     0.163 HD
ATOM     25  O   UNL A   1      34.450  32.196  28.159  1.00  0.00    -0.269 OA
BRANCH  23  26
ATOM     26  C   UNL A   1      35.810  30.285  28.268  1.00  0.00     0.039 A 
ATOM     27  C   UNL A   1      36.885  30.268  27.375  1.00  0.00     0.014 A 
ATOM     28  C   UNL A   1      35.912  29.648  29.504  1.00  0.00     0.014 A 
ATOM     29  C   UNL A   1      38.094  29.687  27.766  1.00  0.00     0.010 A 
ATOM     30  C   UNL A   1      37.142  29.163  29.927  1.00  0.00     0.010 A 
ATOM     31  C   UNL A   1      38.246  29.173  29.063  1.00  0.00    -0.014 A 
BRANCH  31  32
ATOM     32  C   UNL A   1      39.545  28.647  29.556  1.00  0.00     0.031 A 
ATOM     33  C   UNL A   1      40.275  29.371  30.656  1.00  0.00     0.074 A 
ATOM     34  C   UNL A   1      40.125  27.603  28.931  1.00  0.00     0.049 A 
ATOM     35  N   UNL A   1      41.475  29.159  31.128  1.00  0.00    -0.248 NA
ATOM     36  C   UNL A   1      39.577  30.506  31.284  1.00  0.00     0.031 C 
ATOM     37  C   UNL A   1      39.556  26.869  27.799  1.00  0.00     0.029 A 
ATOM     38  N   UNL A   1      41.343  27.002  29.135  1.00  0.00    -0.354 N 
ATOM     39  C   UNL A   1      41.696  30.160  32.067  1.00  0.00     0.074 A 
ATOM     40  C   UNL A   1      40.520  31.000  32.074  1.00  0.00     0.031 C 
ATOM     41  C   UNL A   1      40.421  25.919  27.409  1.00  0.00     0.029 A 
ATOM     42  C   UNL A   1      41.621  25.999  28.234  1.00  0.00     0.049 A 
ATOM     43  H   UNL A   1      41.959  27.264  29.857  1.00  0.00     0.167 HD
ATOM     44  C   UNL A   1      42.768  30.347  32.872  1.00  0.00     0.034 A 
ATOM     45  C   UNL A   1      42.725  25.241  28.081  1.00  0.00     0.034 A 
ATOM     46  C   UNL A   1      43.910  29.476  32.901  1.00  0.00     0.049 A 
ATOM     47  C   UNL A   1      43.883  25.439  29.020  1.00  0.00     0.074 A 
ATOM     48  C   UNL A   1      45.002  29.518  33.750  1.00  0.00     0.029 A 
ATOM     49  N   UNL A   1      44.109  28.405  32.044  1.00  0.00    -0.354 N 
ATOM     50  N   UNL A   1      44.008  26.293  30.006  1.00  0.00    -0.248 NA
ATOM     51  C   UNL A   1      45.040  24.548  28.849  1.00  0.00     0.031 C 
ATOM     52  C   UNL A   1      45.874  28.486  33.390  1.00  0.00     0.029 A 
ATOM     53  C   UNL A   1      45.310  27.783  32.336  1.00  0.00     0.049 A 
ATOM     54  H   UNL A   1      43.488  28.127  31.332  1.00  0.00     0.167 HD
ATOM     55  C   UNL A   1      45.237  26.018  30.597  1.00  0.00     0.074 A 
ATOM     56  C   UNL A   1      45.810  24.907  29.867  1.00  0.00     0.031 C 
ATOM     57  C   UNL A   1      45.840  26.640  31.640  1.00  0.00     0.034 A 
BRANCH  44  58
ATOM     58  C   UNL A   1      42.730  31.510  33.829  1.00  0.00     0.023 A 
ATOM     59  C   UNL A   1      43.250  32.757  33.430  1.00  0.00     0.012 A 
ATOM     60  C   UNL A   1      42.132  31.384  35.098  1.00  0.00     0.148 A 
ATOM     61  C   UNL A   1      43.211  33.853  34.292  1.00  0.00     0.002 A 
ATOM     62  C   UNL A   1      42.054  32.493  35.934  1.00  0.00     0.091 A 
ATOM     63  F   UNL A   1      41.662  30.185  35.470  1.00  0.00    -0.205 F 
ATOM     64  C   UNL A   1      42.605  33.723  35.537  1.00  0.00     0.022 A 
BRANCH  62  65
ATOM     65  S   UNL A   1      41.220  32.452  37.525  1.00  0.00     0.127 S 
ATOM     66  O   UNL A   1      39.917  31.897  37.160  1.00  0.00    -0.237 OA
ATOM     67  O   UNL A   1      42.074  31.548  38.296  1.00  0.00    -0.237 OA
ATOM     68  O   UNL A   1      41.202  33.827  38.004  1.00  0.00    -0.744 OA
ENDBRANCH  62  65
ENDBRANCH  44  58
BRANCH  45  69
ATOM     69  C   UNL A   1      42.761  24.181  27.033  1.00  0.00     0.023 A 
ATOM     70  C   UNL A   1      43.477  24.413  25.843  1.00  0.00     0.012 A 
ATOM     71  C   UNL A   1      42.120  22.940  27.217  1.00  0.00     0.148 A 
ATOM     72  C   UNL A   1      43.528  23.443  24.841  1.00  0.00     0.002 A 
ATOM     73  C   UNL A   1      42.221  21.957  26.239  1.00  0.00     0.091 A 
ATOM     74  F   UNL A   1      41.436  22.740  28.352  1.00  0.00    -0.205 F 
ATOM     75  C   UNL A   1      42.909  22.212  25.043  1.00  0.00     0.022 A 
BRANCH  73  76
ATOM     76  S   UNL A   1      41.572  20.297  26.471  1.00  0.00     0.127 S 
ATOM     77  O   UNL A   1      42.188  19.577  25.359  1.00  0.00    -0.237 OA
ATOM     78  O   UNL A   1      42.093  19.951  27.795  1.00  0.00    -0.237 OA
ATOM     79  O   UNL A   1      40.123  20.431  26.415  1.00  0.00    -0.744 OA
ENDBRANCH  73  76
ENDBRANCH  45  69
BRANCH  57  80
ATOM     80  C   UNL A   1      47.174  26.111  32.095  1.00  0.00     0.023 A 
ATOM     81  C   UNL A   1      48.360  26.609  31.521  1.00  0.00     0.012 A 
ATOM     82  C   UNL A   1      47.252  25.189  33.158  1.00  0.00     0.148 A 
ATOM     83  C   UNL A   1      49.603  26.179  31.982  1.00  0.00     0.002 A 
ATOM     84  C   UNL A   1      48.494  24.803  33.645  1.00  0.00     0.091 A 
ATOM     85  F   UNL A   1      46.110  24.714  33.677  1.00  0.00    -0.205 F 
ATOM     86  C   UNL A   1      49.671  25.288  33.051  1.00  0.00     0.022 A 
BRANCH  84  87
ATOM     87  S   UNL A   1      48.679  23.739  35.079  1.00  0.00     0.127 S 
ATOM     88  O   UNL A   1      50.133  23.651  35.201  1.00  0.00    -0.237 OA
ATOM     89  O   UNL A   1      48.025  24.519  36.130  1.00  0.00    -0.237 OA
ATOM     90  O   UNL A   1      48.006  22.491  34.744  1.00  0.00    -0.744 OA
ENDBRANCH  84  87
ENDBRANCH  57  80
ENDBRANCH  31  32
ENDBRANCH  23  26
ENDBRANCH  21  22
ENDBRANCH  20  21
ENDBRANCH   1  20
TORSDOF 18
ENDMDL
