MODEL 1
REMARK VINA RESULT:     -12.1      0.000      0.000
REMARK SMILES Cc1cc2[nH]ccc2nc1C(=O)NCCCNC(=O)c1ccc(-c2c3nc(c(-c4cccc(S(=O)(=O)[O-])c4F)c4ccc([nH]4)c(-c4cccc(S(=O)(=O)[O-])c4F)c4nc(c(-c5cccc(S(=O)(=O)[O-])c5F)c5ccc2[nH]5)C=C4)C=C3)cc1
REMARK SMILES IDX 17 1 18 2 19 3 16 5 15 6 14 7 13 8 11 9 12 10 10 12 1 13
REMARK SMILES IDX 2 14 3 15 4 16 9 17 5 18 8 19 6 20 7 22 20 23 21 24 82 25
REMARK SMILES IDX 22 26 81 27 23 28 24 29 25 30 75 31 26 32 80 33 74 34 76 35
REMARK SMILES IDX 27 36 79 37 73 38 72 39 28 41 60 42 40 43 59 44 41 45 44 46
REMARK SMILES IDX 58 47 77 48 42 49 43 50 57 52 78 53 45 54 29 55 30 56 38 57
REMARK SMILES IDX 31 58 33 59 39 60 32 61 34 62 35 63 36 64 37 65 61 66 62 67
REMARK SMILES IDX 70 68 63 69 65 70 71 71 64 72 66 73 67 74 68 75 69 76 46 77
REMARK SMILES IDX 47 78 55 79 48 80 50 81 56 82 49 83 51 84 52 85 53 86 54 87
REMARK H PARENT 17 4 13 11 5 21 76 40 44 51
REMARK Flexibility Score: inf
ROOT
ATOM      1  N   UNL A   1      34.405  32.162  29.118  1.00  0.00    -0.352 N 
ATOM      2  C   UNL A   1      35.302  31.767  30.105  1.00  0.00     0.251 C 
ATOM      3  O   UNL A   1      35.108  32.011  31.292  1.00  0.00    -0.269 OA
ATOM      4  H   UNL A   1      33.705  32.803  29.377  1.00  0.00     0.163 HD
ENDROOT
BRANCH   1   5
ATOM      5  C   UNL A   1      34.412  31.703  27.719  1.00  0.00     0.118 C 
BRANCH   5   6
ATOM      6  C   UNL A   1      33.293  30.776  27.330  1.00  0.00     0.042 C 
BRANCH   6   7
ATOM      7  C   UNL A   1      33.658  29.310  27.354  1.00  0.00     0.118 C 
BRANCH   7   8
ATOM      8  N   UNL A   1      32.664  28.297  27.569  1.00  0.00    -0.351 N 
ATOM      9  C   UNL A   1      32.011  27.549  26.596  1.00  0.00     0.270 C 
ATOM     10  O   UNL A   1      31.430  26.530  26.983  1.00  0.00    -0.268 OA
ATOM     11  H   UNL A   1      32.419  28.112  28.505  1.00  0.00     0.163 HD
BRANCH   9  12
ATOM     12  C   UNL A   1      31.891  27.969  25.128  1.00  0.00     0.131 A 
ATOM     13  C   UNL A   1      33.865  26.636  24.042  1.00  0.00     0.047 C 
ATOM     14  C   UNL A   1      32.753  27.649  24.055  1.00  0.00    -0.018 A 
ATOM     15  C   UNL A   1      32.570  28.302  22.821  1.00  0.00     0.034 A 
ATOM     16  C   UNL A   1      31.427  29.072  22.683  1.00  0.00     0.064 A 
ATOM     17  N   UNL A   1      30.770  28.729  24.966  1.00  0.00    -0.241 NA
ATOM     18  N   UNL A   1      30.912  29.753  21.608  1.00  0.00    -0.360 N 
ATOM     19  C   UNL A   1      30.544  29.232  23.737  1.00  0.00     0.089 A 
ATOM     20  C   UNL A   1      29.683  30.268  21.930  1.00  0.00     0.085 A 
ATOM     21  H   UNL A   1      31.360  29.856  20.738  1.00  0.00     0.166 HD
ATOM     22  C   UNL A   1      29.437  29.969  23.254  1.00  0.00     0.048 A 
ENDBRANCH   9  12
ENDBRANCH   7   8
ENDBRANCH   6   7
ENDBRANCH   5   6
ENDBRANCH   1   5
BRANCH   2  23
ATOM     23  C   UNL A   1      36.500  31.033  29.657  1.00  0.00     0.039 A 
ATOM     24  C   UNL A   1      37.723  31.670  29.454  1.00  0.00     0.014 A 
ATOM     25  C   UNL A   1      36.410  29.647  29.709  1.00  0.00     0.014 A 
ATOM     26  C   UNL A   1      38.875  30.887  29.441  1.00  0.00     0.010 A 
ATOM     27  C   UNL A   1      37.550  28.929  29.953  1.00  0.00     0.010 A 
ATOM     28  C   UNL A   1      38.791  29.516  29.756  1.00  0.00    -0.014 A 
BRANCH  28  29
ATOM     29  C   UNL A   1      39.992  28.713  29.976  1.00  0.00     0.031 A 
ATOM     30  C   UNL A   1      40.468  28.676  31.386  1.00  0.00     0.074 A 
ATOM     31  C   UNL A   1      40.593  27.963  29.023  1.00  0.00     0.049 A 
ATOM     32  N   UNL A   1      41.443  29.367  31.877  1.00  0.00    -0.248 NA
ATOM     33  C   UNL A   1      39.689  27.949  32.398  1.00  0.00     0.031 C 
ATOM     34  C   UNL A   1      40.133  27.644  27.663  1.00  0.00     0.029 A 
ATOM     35  N   UNL A   1      41.735  27.230  29.117  1.00  0.00    -0.354 N 
ATOM     36  C   UNL A   1      41.566  28.969  33.204  1.00  0.00     0.074 A 
ATOM     37  C   UNL A   1      40.351  28.265  33.518  1.00  0.00     0.031 C 
ATOM     38  C   UNL A   1      40.837  26.601  27.172  1.00  0.00     0.029 A 
ATOM     39  C   UNL A   1      41.930  26.327  28.078  1.00  0.00     0.049 A 
ATOM     40  H   UNL A   1      42.373  27.331  29.861  1.00  0.00     0.167 HD
ATOM     41  C   UNL A   1      42.766  29.050  33.844  1.00  0.00     0.034 A 
ATOM     42  C   UNL A   1      42.931  25.424  27.959  1.00  0.00     0.034 A 
ATOM     43  C   UNL A   1      43.705  29.836  33.079  1.00  0.00     0.049 A 
ATOM     44  C   UNL A   1      44.051  25.927  28.783  1.00  0.00     0.074 A 
ATOM     45  C   UNL A   1      43.748  31.136  32.618  1.00  0.00     0.029 A 
ATOM     46  N   UNL A   1      44.621  29.133  32.333  1.00  0.00    -0.354 N 
ATOM     47  N   UNL A   1      44.704  27.022  28.509  1.00  0.00    -0.248 NA
ATOM     48  C   UNL A   1      44.156  25.453  30.150  1.00  0.00     0.031 C 
ATOM     49  C   UNL A   1      44.332  31.041  31.320  1.00  0.00     0.029 A 
ATOM     50  C   UNL A   1      44.684  29.708  31.094  1.00  0.00     0.049 A 
ATOM     51  H   UNL A   1      45.140  28.353  32.638  1.00  0.00     0.167 HD
ATOM     52  C   UNL A   1      44.900  27.617  29.748  1.00  0.00     0.074 A 
ATOM     53  C   UNL A   1      44.647  26.556  30.721  1.00  0.00     0.031 C 
ATOM     54  C   UNL A   1      44.964  28.975  29.876  1.00  0.00     0.034 A 
BRANCH  41  55
ATOM     55  C   UNL A   1      43.253  28.133  34.945  1.00  0.00     0.023 A 
ATOM     56  C   UNL A   1      43.797  28.749  36.097  1.00  0.00     0.012 A 
ATOM     57  C   UNL A   1      43.466  26.745  34.804  1.00  0.00     0.148 A 
ATOM     58  C   UNL A   1      44.571  28.038  37.019  1.00  0.00     0.002 A 
ATOM     59  C   UNL A   1      44.172  26.026  35.763  1.00  0.00     0.091 A 
ATOM     60  F   UNL A   1      43.103  26.122  33.681  1.00  0.00    -0.205 F 
ATOM     61  C   UNL A   1      44.757  26.674  36.853  1.00  0.00     0.022 A 
BRANCH  59  62
ATOM     62  S   UNL A   1      44.403  24.248  35.633  1.00  0.00     0.127 S 
ATOM     63  O   UNL A   1      43.025  23.783  35.501  1.00  0.00    -0.237 OA
ATOM     64  O   UNL A   1      45.213  24.143  34.420  1.00  0.00    -0.237 OA
ATOM     65  O   UNL A   1      45.097  23.851  36.852  1.00  0.00    -0.744 OA
ENDBRANCH  59  62
ENDBRANCH  41  55
BRANCH  42  66
ATOM     66  C   UNL A   1      42.905  24.046  27.420  1.00  0.00     0.023 A 
ATOM     67  C   UNL A   1      41.709  23.303  27.473  1.00  0.00     0.012 A 
ATOM     68  C   UNL A   1      43.942  23.588  26.578  1.00  0.00     0.148 A 
ATOM     69  C   UNL A   1      41.531  22.168  26.673  1.00  0.00     0.002 A 
ATOM     70  C   UNL A   1      43.757  22.464  25.778  1.00  0.00     0.091 A 
ATOM     71  F   UNL A   1      45.069  24.309  26.496  1.00  0.00    -0.205 F 
ATOM     72  C   UNL A   1      42.547  21.758  25.815  1.00  0.00     0.022 A 
BRANCH  70  73
ATOM     73  S   UNL A   1      44.992  21.904  24.597  1.00  0.00     0.127 S 
ATOM     74  O   UNL A   1      44.378  20.680  24.081  1.00  0.00    -0.237 OA
ATOM     75  O   UNL A   1      45.029  23.016  23.650  1.00  0.00    -0.237 OA
ATOM     76  O   UNL A   1      46.212  21.693  25.365  1.00  0.00    -0.744 OA
ENDBRANCH  70  73
ENDBRANCH  42  66
BRANCH  54  77
ATOM     77  C   UNL A   1      45.097  29.815  28.628  1.00  0.00     0.023 A 
ATOM     78  C   UNL A   1      43.982  30.331  27.935  1.00  0.00     0.012 A 
ATOM     79  C   UNL A   1      46.380  30.280  28.296  1.00  0.00     0.148 A 
ATOM     80  C   UNL A   1      44.149  31.295  26.934  1.00  0.00     0.002 A 
ATOM     81  C   UNL A   1      46.536  31.279  27.344  1.00  0.00     0.091 A 
ATOM     82  F   UNL A   1      47.428  29.771  28.962  1.00  0.00    -0.205 F 
ATOM     83  C   UNL A   1      45.424  31.784  26.653  1.00  0.00     0.022 A 
BRANCH  81  84
ATOM     84  S   UNL A   1      48.126  32.061  27.058  1.00  0.00     0.127 S 
ATOM     85  O   UNL A   1      48.444  32.597  28.380  1.00  0.00    -0.237 OA
ATOM     86  O   UNL A   1      48.958  30.932  26.637  1.00  0.00    -0.237 OA
ATOM     87  O   UNL A   1      47.905  33.058  26.018  1.00  0.00    -0.744 OA
ENDBRANCH  81  84
ENDBRANCH  54  77
ENDBRANCH  28  29
ENDBRANCH   2  23
TORSDOF 13
ENDMDL
MODEL 2
REMARK VINA RESULT:     -12.0      3.042      4.502
REMARK SMILES Cc1cc2[nH]ccc2nc1C(=O)NCCCNC(=O)c1ccc(-c2c3nc(c(-c4cccc(S(=O)(=O)[O-])c4F)c4ccc([nH]4)c(-c4cccc(S(=O)(=O)[O-])c4F)c4nc(c(-c5cccc(S(=O)(=O)[O-])c5F)c5ccc2[nH]5)C=C4)C=C3)cc1
REMARK SMILES IDX 17 1 18 2 19 3 16 5 15 6 14 7 13 8 11 9 12 10 10 12 1 13
REMARK SMILES IDX 2 14 3 15 4 16 9 17 5 18 8 19 6 20 7 22 20 23 21 24 82 25
REMARK SMILES IDX 22 26 81 27 23 28 24 29 25 30 75 31 26 32 80 33 74 34 76 35
REMARK SMILES IDX 27 36 79 37 73 38 72 39 28 41 60 42 40 43 59 44 41 45 44 46
REMARK SMILES IDX 58 47 77 48 42 49 43 50 57 52 78 53 45 54 29 55 30 56 38 57
REMARK SMILES IDX 31 58 33 59 39 60 32 61 34 62 35 63 36 64 37 65 61 66 62 67
REMARK SMILES IDX 70 68 63 69 65 70 71 71 64 72 66 73 67 74 68 75 69 76 46 77
REMARK SMILES IDX 47 78 55 79 48 80 50 81 56 82 49 83 51 84 52 85 53 86 54 87
REMARK H PARENT 17 4 13 11 5 21 76 40 44 51
REMARK Flexibility Score: inf
ROOT
ATOM      1  N   UNL A   1      35.043  31.859  30.553  1.00  0.00    -0.352 N 
ATOM      2  C   UNL A   1      35.315  31.674  29.201  1.00  0.00     0.251 C 
ATOM      3  O   UNL A   1      34.561  32.088  28.326  1.00  0.00    -0.269 OA
ATOM      4  H   UNL A   1      34.139  32.165  30.792  1.00  0.00     0.163 HD
ENDROOT
BRANCH   1   5
ATOM      5  C   UNL A   1      35.991  31.635  31.657  1.00  0.00     0.118 C 
BRANCH   5   6
ATOM      6  C   UNL A   1      36.702  32.860  32.165  1.00  0.00     0.042 C 
BRANCH   6   7
ATOM      7  C   UNL A   1      36.131  33.431  33.441  1.00  0.00     0.118 C 
BRANCH   7   8
ATOM      8  N   UNL A   1      34.763  33.206  33.814  1.00  0.00    -0.351 N 
ATOM      9  C   UNL A   1      33.633  33.732  33.197  1.00  0.00     0.270 C 
ATOM     10  O   UNL A   1      32.558  33.186  33.461  1.00  0.00    -0.268 OA
ATOM     11  H   UNL A   1      34.609  32.616  34.587  1.00  0.00     0.163 HD
BRANCH   9  12
ATOM     12  C   UNL A   1      33.642  34.985  32.315  1.00  0.00     0.131 A 
ATOM     13  C   UNL A   1      33.732  36.885  34.114  1.00  0.00     0.047 C 
ATOM     14  C   UNL A   1      33.584  36.338  32.721  1.00  0.00    -0.018 A 
ATOM     15  C   UNL A   1      33.403  37.332  31.741  1.00  0.00     0.034 A 
ATOM     16  C   UNL A   1      33.493  36.931  30.418  1.00  0.00     0.064 A 
ATOM     17  N   UNL A   1      33.731  34.616  31.006  1.00  0.00    -0.241 NA
ATOM     18  N   UNL A   1      33.455  37.645  29.246  1.00  0.00    -0.360 N 
ATOM     19  C   UNL A   1      33.693  35.601  30.088  1.00  0.00     0.089 A 
ATOM     20  C   UNL A   1      33.713  36.812  28.187  1.00  0.00     0.085 A 
ATOM     21  H   UNL A   1      33.271  38.609  29.177  1.00  0.00     0.166 HD
ATOM     22  C   UNL A   1      33.850  35.533  28.684  1.00  0.00     0.048 A 
ENDBRANCH   9  12
ENDBRANCH   7   8
ENDBRANCH   6   7
ENDBRANCH   5   6
ENDBRANCH   1   5
BRANCH   2  23
ATOM     23  C   UNL A   1      36.562  30.960  28.867  1.00  0.00     0.039 A 
ATOM     24  C   UNL A   1      37.789  31.617  28.782  1.00  0.00     0.014 A 
ATOM     25  C   UNL A   1      36.490  29.573  28.907  1.00  0.00     0.014 A 
ATOM     26  C   UNL A   1      38.949  30.852  28.877  1.00  0.00     0.010 A 
ATOM     27  C   UNL A   1      37.613  28.872  29.256  1.00  0.00     0.010 A 
ATOM     28  C   UNL A   1      38.858  29.479  29.179  1.00  0.00    -0.014 A 
BRANCH  28  29
ATOM     29  C   UNL A   1      40.044  28.693  29.511  1.00  0.00     0.031 A 
ATOM     30  C   UNL A   1      40.414  28.700  30.952  1.00  0.00     0.074 A 
ATOM     31  C   UNL A   1      40.721  27.924  28.626  1.00  0.00     0.049 A 
ATOM     32  N   UNL A   1      41.344  29.413  31.496  1.00  0.00    -0.248 NA
ATOM     33  C   UNL A   1      39.567  27.992  31.923  1.00  0.00     0.031 C 
ATOM     34  C   UNL A   1      40.367  27.565  27.245  1.00  0.00     0.029 A 
ATOM     35  N   UNL A   1      41.859  27.205  28.825  1.00  0.00    -0.354 N 
ATOM     36  C   UNL A   1      41.369  29.052  32.839  1.00  0.00     0.074 A 
ATOM     37  C   UNL A   1      40.140  28.344  33.080  1.00  0.00     0.031 C 
ATOM     38  C   UNL A   1      41.114  26.515  26.836  1.00  0.00     0.029 A 
ATOM     39  C   UNL A   1      42.138  26.277  27.828  1.00  0.00     0.049 A 
ATOM     40  H   UNL A   1      42.438  27.333  29.611  1.00  0.00     0.167 HD
ATOM     41  C   UNL A   1      42.518  29.161  33.564  1.00  0.00     0.034 A 
ATOM     42  C   UNL A   1      43.152  25.381  27.810  1.00  0.00     0.034 A 
ATOM     43  C   UNL A   1      43.505  29.935  32.851  1.00  0.00     0.049 A 
ATOM     44  C   UNL A   1      44.202  25.917  28.701  1.00  0.00     0.074 A 
ATOM     45  C   UNL A   1      43.573  31.223  32.358  1.00  0.00     0.029 A 
ATOM     46  N   UNL A   1      44.480  29.221  32.195  1.00  0.00    -0.354 N 
ATOM     47  N   UNL A   1      44.866  27.010  28.447  1.00  0.00    -0.248 NA
ATOM     48  C   UNL A   1      44.208  25.480  30.085  1.00  0.00     0.031 C 
ATOM     49  C   UNL A   1      44.254  31.099  31.111  1.00  0.00     0.029 A 
ATOM     50  C   UNL A   1      44.632  29.764  30.948  1.00  0.00     0.049 A 
ATOM     51  H   UNL A   1      44.981  28.456  32.558  1.00  0.00     0.167 HD
ATOM     52  C   UNL A   1      44.964  27.640  29.680  1.00  0.00     0.074 A 
ATOM     53  C   UNL A   1      44.646  26.603  30.660  1.00  0.00     0.031 C 
ATOM     54  C   UNL A   1      45.007  29.001  29.775  1.00  0.00     0.034 A 
BRANCH  41  55
ATOM     55  C   UNL A   1      42.928  28.279  34.723  1.00  0.00     0.023 A 
ATOM     56  C   UNL A   1      43.345  28.931  35.908  1.00  0.00     0.012 A 
ATOM     57  C   UNL A   1      43.194  26.896  34.630  1.00  0.00     0.148 A 
ATOM     58  C   UNL A   1      44.051  28.260  36.911  1.00  0.00     0.002 A 
ATOM     59  C   UNL A   1      43.829  26.215  35.664  1.00  0.00     0.091 A 
ATOM     60  F   UNL A   1      42.954  26.243  33.491  1.00  0.00    -0.205 F 
ATOM     61  C   UNL A   1      44.292  26.900  36.790  1.00  0.00     0.022 A 
BRANCH  59  62
ATOM     62  S   UNL A   1      44.122  24.444  35.591  1.00  0.00     0.127 S 
ATOM     63  O   UNL A   1      45.079  24.350  34.492  1.00  0.00    -0.237 OA
ATOM     64  O   UNL A   1      44.676  24.182  36.920  1.00  0.00    -0.237 OA
ATOM     65  O   UNL A   1      42.818  23.838  35.357  1.00  0.00    -0.744 OA
ENDBRANCH  59  62
ENDBRANCH  41  55
BRANCH  42  66
ATOM     66  C   UNL A   1      43.176  23.989  27.308  1.00  0.00     0.023 A 
ATOM     67  C   UNL A   1      42.028  23.184  27.438  1.00  0.00     0.012 A 
ATOM     68  C   UNL A   1      44.197  23.563  26.429  1.00  0.00     0.148 A 
ATOM     69  C   UNL A   1      41.875  22.019  26.677  1.00  0.00     0.002 A 
ATOM     70  C   UNL A   1      44.037  22.409  25.669  1.00  0.00     0.091 A 
ATOM     71  F   UNL A   1      45.277  24.342  26.274  1.00  0.00    -0.205 F 
ATOM     72  C   UNL A   1      42.871  21.640  25.782  1.00  0.00     0.022 A 
BRANCH  70  73
ATOM     73  S   UNL A   1      45.244  21.883  24.444  1.00  0.00     0.127 S 
ATOM     74  O   UNL A   1      45.532  23.138  23.750  1.00  0.00    -0.237 OA
ATOM     75  O   UNL A   1      46.330  21.387  25.285  1.00  0.00    -0.237 OA
ATOM     76  O   UNL A   1      44.573  20.880  23.628  1.00  0.00    -0.744 OA
ENDBRANCH  70  73
ENDBRANCH  42  66
BRANCH  54  77
ATOM     77  C   UNL A   1      45.227  29.809  28.518  1.00  0.00     0.023 A 
ATOM     78  C   UNL A   1      44.164  30.321  27.746  1.00  0.00     0.012 A 
ATOM     79  C   UNL A   1      46.534  30.250  28.254  1.00  0.00     0.148 A 
ATOM     80  C   UNL A   1      44.404  31.258  26.735  1.00  0.00     0.002 A 
ATOM     81  C   UNL A   1      46.761  31.224  27.290  1.00  0.00     0.091 A 
ATOM     82  F   UNL A   1      47.533  29.745  28.995  1.00  0.00    -0.205 F 
ATOM     83  C   UNL A   1      45.700  31.725  26.521  1.00  0.00     0.022 A 
BRANCH  81  84
ATOM     84  S   UNL A   1      48.376  31.980  27.084  1.00  0.00     0.127 S 
ATOM     85  O   UNL A   1      48.110  32.993  26.064  1.00  0.00    -0.237 OA
ATOM     86  O   UNL A   1      48.645  32.511  28.421  1.00  0.00    -0.237 OA
ATOM     87  O   UNL A   1      49.276  30.907  26.677  1.00  0.00    -0.744 OA
ENDBRANCH  81  84
ENDBRANCH  54  77
ENDBRANCH  28  29
ENDBRANCH   2  23
TORSDOF 13
ENDMDL
MODEL 3
REMARK VINA RESULT:     -12.0      3.551      5.724
REMARK SMILES Cc1cc2[nH]ccc2nc1C(=O)NCCCNC(=O)c1ccc(-c2c3nc(c(-c4cccc(S(=O)(=O)[O-])c4F)c4ccc([nH]4)c(-c4cccc(S(=O)(=O)[O-])c4F)c4nc(c(-c5cccc(S(=O)(=O)[O-])c5F)c5ccc2[nH]5)C=C4)C=C3)cc1
REMARK SMILES IDX 17 1 18 2 19 3 16 5 15 6 14 7 13 8 11 9 12 10 10 12 1 13
REMARK SMILES IDX 2 14 3 15 4 16 9 17 5 18 8 19 6 20 7 22 20 23 21 24 82 25
REMARK SMILES IDX 22 26 81 27 23 28 24 29 25 30 75 31 26 32 80 33 74 34 76 35
REMARK SMILES IDX 27 36 79 37 73 38 72 39 28 41 60 42 40 43 59 44 41 45 44 46
REMARK SMILES IDX 58 47 77 48 42 49 43 50 57 52 78 53 45 54 29 55 30 56 38 57
REMARK SMILES IDX 31 58 33 59 39 60 32 61 34 62 35 63 36 64 37 65 61 66 62 67
REMARK SMILES IDX 70 68 63 69 65 70 71 71 64 72 66 73 67 74 68 75 69 76 46 77
REMARK SMILES IDX 47 78 55 79 48 80 50 81 56 82 49 83 51 84 52 85 53 86 54 87
REMARK H PARENT 17 4 13 11 5 21 76 40 44 51
REMARK Flexibility Score: inf
ROOT
ATOM      1  N   UNL A   1      34.801  33.503  29.505  1.00  0.00    -0.352 N 
ATOM      2  C   UNL A   1      35.777  32.939  28.690  1.00  0.00     0.251 C 
ATOM      3  O   UNL A   1      35.850  33.197  27.493  1.00  0.00    -0.269 OA
ATOM      4  H   UNL A   1      34.058  33.968  29.060  1.00  0.00     0.163 HD
ENDROOT
BRANCH   1   5
ATOM      5  C   UNL A   1      34.784  33.463  30.977  1.00  0.00     0.118 C 
BRANCH   5   6
ATOM      6  C   UNL A   1      34.325  34.722  31.659  1.00  0.00     0.042 C 
BRANCH   6   7
ATOM      7  C   UNL A   1      35.191  35.159  32.817  1.00  0.00     0.118 C 
BRANCH   7   8
ATOM      8  N   UNL A   1      35.122  34.500  34.091  1.00  0.00    -0.351 N 
ATOM      9  C   UNL A   1      36.165  33.873  34.763  1.00  0.00     0.270 C 
ATOM     10  O   UNL A   1      35.986  33.642  35.962  1.00  0.00    -0.268 OA
ATOM     11  H   UNL A   1      34.243  34.493  34.535  1.00  0.00     0.163 HD
BRANCH   9  12
ATOM     12  C   UNL A   1      37.445  33.373  34.085  1.00  0.00     0.131 A 
ATOM     13  C   UNL A   1      36.634  31.109  33.051  1.00  0.00     0.047 C 
ATOM     14  C   UNL A   1      37.662  32.136  33.436  1.00  0.00    -0.018 A 
ATOM     15  C   UNL A   1      38.973  31.794  33.054  1.00  0.00     0.034 A 
ATOM     16  C   UNL A   1      39.936  32.783  33.162  1.00  0.00     0.064 A 
ATOM     17  N   UNL A   1      38.409  34.332  34.178  1.00  0.00    -0.241 NA
ATOM     18  N   UNL A   1      41.260  32.809  32.799  1.00  0.00    -0.360 N 
ATOM     19  C   UNL A   1      39.623  34.029  33.679  1.00  0.00     0.089 A 
ATOM     20  C   UNL A   1      41.770  34.066  32.995  1.00  0.00     0.085 A 
ATOM     21  H   UNL A   1      41.766  32.039  32.453  1.00  0.00     0.166 HD
ATOM     22  C   UNL A   1      40.776  34.840  33.554  1.00  0.00     0.048 A 
ENDBRANCH   9  12
ENDBRANCH   7   8
ENDBRANCH   6   7
ENDBRANCH   5   6
ENDBRANCH   1   5
BRANCH   2  23
ATOM     23  C   UNL A   1      36.729  32.016  29.337  1.00  0.00     0.039 A 
ATOM     24  C   UNL A   1      36.471  30.651  29.452  1.00  0.00     0.014 A 
ATOM     25  C   UNL A   1      37.997  32.532  29.579  1.00  0.00     0.014 A 
ATOM     26  C   UNL A   1      37.548  29.798  29.683  1.00  0.00     0.010 A 
ATOM     27  C   UNL A   1      39.065  31.676  29.544  1.00  0.00     0.010 A 
ATOM     28  C   UNL A   1      38.860  30.310  29.665  1.00  0.00    -0.014 A 
BRANCH  28  29
ATOM     29  C   UNL A   1      40.022  29.423  29.674  1.00  0.00     0.031 A 
ATOM     30  C   UNL A   1      40.585  29.147  31.024  1.00  0.00     0.074 A 
ATOM     31  C   UNL A   1      40.514  28.800  28.578  1.00  0.00     0.049 A 
ATOM     32  N   UNL A   1      41.630  29.704  31.541  1.00  0.00    -0.248 NA
ATOM     33  C   UNL A   1      39.831  28.312  31.970  1.00  0.00     0.031 C 
ATOM     34  C   UNL A   1      39.949  28.717  27.223  1.00  0.00     0.029 A 
ATOM     35  N   UNL A   1      41.613  28.005  28.477  1.00  0.00    -0.354 N 
ATOM     36  C   UNL A   1      41.813  29.102  32.781  1.00  0.00     0.074 A 
ATOM     37  C   UNL A   1      40.580  28.419  33.073  1.00  0.00     0.031 C 
ATOM     38  C   UNL A   1      40.555  27.728  26.530  1.00  0.00     0.029 A 
ATOM     39  C   UNL A   1      41.686  27.264  27.303  1.00  0.00     0.049 A 
ATOM     40  H   UNL A   1      42.302  27.959  29.179  1.00  0.00     0.167 HD
ATOM     41  C   UNL A   1      43.055  29.023  33.336  1.00  0.00     0.034 A 
ATOM     42  C   UNL A   1      42.621  26.341  26.978  1.00  0.00     0.034 A 
ATOM     43  C   UNL A   1      43.988  29.870  32.631  1.00  0.00     0.049 A 
ATOM     44  C   UNL A   1      43.819  26.656  27.784  1.00  0.00     0.074 A 
ATOM     45  C   UNL A   1      44.080  31.222  32.368  1.00  0.00     0.029 A 
ATOM     46  N   UNL A   1      44.810  29.245  31.724  1.00  0.00    -0.354 N 
ATOM     47  N   UNL A   1      44.518  27.746  27.630  1.00  0.00    -0.248 NA
ATOM     48  C   UNL A   1      43.984  25.972  29.054  1.00  0.00     0.031 C 
ATOM     49  C   UNL A   1      44.572  31.298  31.032  1.00  0.00     0.029 A 
ATOM     50  C   UNL A   1      44.828  29.999  30.583  1.00  0.00     0.049 A 
ATOM     51  H   UNL A   1      45.299  28.403  31.869  1.00  0.00     0.167 HD
ATOM     52  C   UNL A   1      44.830  28.132  28.927  1.00  0.00     0.074 A 
ATOM     53  C   UNL A   1      44.576  26.948  29.746  1.00  0.00     0.031 C 
ATOM     54  C   UNL A   1      44.983  29.449  29.252  1.00  0.00     0.034 A 
BRANCH  41  55
ATOM     55  C   UNL A   1      43.556  27.925  34.248  1.00  0.00     0.023 A 
ATOM     56  C   UNL A   1      44.141  28.327  35.473  1.00  0.00     0.012 A 
ATOM     57  C   UNL A   1      43.741  26.579  33.865  1.00  0.00     0.148 A 
ATOM     58  C   UNL A   1      44.927  27.459  36.236  1.00  0.00     0.002 A 
ATOM     59  C   UNL A   1      44.460  25.697  34.666  1.00  0.00     0.091 A 
ATOM     60  F   UNL A   1      43.337  26.163  32.664  1.00  0.00    -0.205 F 
ATOM     61  C   UNL A   1      45.086  26.141  35.833  1.00  0.00     0.022 A 
BRANCH  59  62
ATOM     62  S   UNL A   1      44.657  23.966  34.227  1.00  0.00     0.127 S 
ATOM     63  O   UNL A   1      45.321  24.066  32.929  1.00  0.00    -0.237 OA
ATOM     64  O   UNL A   1      45.499  23.478  35.319  1.00  0.00    -0.237 OA
ATOM     65  O   UNL A   1      43.311  23.407  34.214  1.00  0.00    -0.744 OA
ENDBRANCH  59  62
ENDBRANCH  41  55
BRANCH  42  66
ATOM     66  C   UNL A   1      42.477  25.065  26.242  1.00  0.00     0.023 A 
ATOM     67  C   UNL A   1      43.477  24.673  25.330  1.00  0.00     0.012 A 
ATOM     68  C   UNL A   1      41.539  24.098  26.665  1.00  0.00     0.148 A 
ATOM     69  C   UNL A   1      43.573  23.347  24.894  1.00  0.00     0.002 A 
ATOM     70  C   UNL A   1      41.644  22.779  26.235  1.00  0.00     0.091 A 
ATOM     71  F   UNL A   1      40.607  24.455  27.559  1.00  0.00    -0.205 F 
ATOM     72  C   UNL A   1      42.668  22.397  25.358  1.00  0.00     0.022 A 
BRANCH  70  73
ATOM     73  S   UNL A   1      40.557  21.477  26.834  1.00  0.00     0.127 S 
ATOM     74  O   UNL A   1      40.802  21.522  28.275  1.00  0.00    -0.237 OA
ATOM     75  O   UNL A   1      39.244  21.967  26.421  1.00  0.00    -0.237 OA
ATOM     76  O   UNL A   1      41.004  20.254  26.181  1.00  0.00    -0.744 OA
ENDBRANCH  70  73
ENDBRANCH  42  66
BRANCH  54  77
ATOM     77  C   UNL A   1      45.086  30.464  28.137  1.00  0.00     0.023 A 
ATOM     78  C   UNL A   1      43.955  31.072  27.555  1.00  0.00     0.012 A 
ATOM     79  C   UNL A   1      46.361  30.976  27.845  1.00  0.00     0.148 A 
ATOM     80  C   UNL A   1      44.098  32.173  26.702  1.00  0.00     0.002 A 
ATOM     81  C   UNL A   1      46.494  32.104  27.047  1.00  0.00     0.091 A 
ATOM     82  F   UNL A   1      47.424  30.378  28.404  1.00  0.00    -0.205 F 
ATOM     83  C   UNL A   1      45.365  32.702  26.465  1.00  0.00     0.022 A 
BRANCH  81  84
ATOM     84  S   UNL A   1      48.077  32.925  26.840  1.00  0.00     0.127 S 
ATOM     85  O   UNL A   1      47.774  33.917  25.811  1.00  0.00    -0.237 OA
ATOM     86  O   UNL A   1      48.319  33.478  28.174  1.00  0.00    -0.237 OA
ATOM     87  O   UNL A   1      49.022  31.887  26.446  1.00  0.00    -0.744 OA
ENDBRANCH  81  84
ENDBRANCH  54  77
ENDBRANCH  28  29
ENDBRANCH   2  23
TORSDOF 13
ENDMDL
