MODEL 1
REMARK VINA RESULT:     -12.6      0.000      0.000
REMARK SMILES COc1cc2c(cc1OC)[C@@H](CC(=O)NCCCNC(=O)c1ccc(-c3c4nc(c(-c5cccc(S(=O)(=O)[O-])c5F)c5ccc([nH]5)c(-c5cccc(S(=O)(=O)[O-])c5F)c5nc(c(-c6cccc(S(=O)(=O)[O-])c6F)c6ccc3[nH]6)C=C5)C=C4)cc1)N(C(=O)Nc1ccc(Cl)cc1)CC2
REMARK SMILES IDX 17 1 16 2 15 3 13 4 14 5 12 7 11 8 3 9 4 10 8 11 5 12 7 13
REMARK SMILES IDX 6 14 97 15 96 16 85 17 2 18 1 19 9 20 10 21 86 22 87 23
REMARK SMILES IDX 88 24 89 26 90 27 95 28 91 29 94 30 92 31 93 32 18 33 19 34
REMARK SMILES IDX 20 35 21 37 22 38 23 39 84 40 24 41 83 42 25 43 26 44 27 45
REMARK SMILES IDX 77 46 28 47 82 48 76 49 78 50 29 51 81 52 75 53 74 54 30 56
REMARK SMILES IDX 62 57 42 58 61 59 43 60 46 61 60 62 79 63 44 64 45 65 59 67
REMARK SMILES IDX 80 68 47 69 31 70 32 71 40 72 33 73 35 74 41 75 34 76 36 77
REMARK SMILES IDX 37 78 38 79 39 80 63 81 64 82 72 83 65 84 67 85 73 86 66 87
REMARK SMILES IDX 68 88 69 89 70 90 71 91 48 92 49 93 57 94 50 95 52 96 58 97
REMARK SMILES IDX 51 98 53 99 54 100 55 101 56 102
REMARK H PARENT 15 6 88 25 19 36 78 55 46 66
REMARK Flexibility Score: inf
ROOT
ATOM      1  C   UNL A   1      38.164  21.383  25.641  1.00  0.00     0.042 C 
ENDROOT
BRANCH   1   2
ATOM      2  C   UNL A   1      36.731  21.934  25.694  1.00  0.00     0.117 C 
BRANCH   2   3
ATOM      3  N   UNL A   1      36.278  22.333  24.363  1.00  0.00    -0.356 N 
ATOM      4  C   UNL A   1      35.308  23.199  23.953  1.00  0.00     0.222 C 
ATOM      5  O   UNL A   1      35.014  23.208  22.754  1.00  0.00    -0.275 OA
ATOM      6  H   UNL A   1      36.763  21.896  23.626  1.00  0.00     0.163 HD
BRANCH   4   7
ATOM      7  C   UNL A   1      34.687  24.214  24.895  1.00  0.00     0.130 C 
BRANCH   7   8
ATOM      8  C   UNL A   1      33.134  24.166  24.889  1.00  0.00     0.127 C 
ATOM      9  C   UNL A   1      30.911  27.777  23.797  1.00  0.00     0.161 A 
ATOM     10  C   UNL A   1      30.297  26.738  24.476  1.00  0.00     0.054 A 
ATOM     11  C   UNL A   1      32.240  27.664  23.366  1.00  0.00     0.161 A 
ATOM     12  C   UNL A   1      31.033  25.595  24.782  1.00  0.00    -0.037 A 
ATOM     13  C   UNL A   1      32.959  26.479  23.632  1.00  0.00     0.056 A 
ATOM     14  C   UNL A   1      32.392  25.443  24.394  1.00  0.00    -0.018 A 
ATOM     15  C   UNL A   1      30.451  24.598  25.743  1.00  0.00     0.057 C 
ATOM     16  C   UNL A   1      31.512  24.509  26.825  1.00  0.00     0.127 C 
ATOM     17  N   UNL A   1      32.693  23.830  26.281  1.00  0.00    -0.317 N 
BRANCH   9  18
ATOM     18  O   UNL A   1      30.203  28.950  23.715  1.00  0.00    -0.493 OA
ATOM     19  C   UNL A   1      29.083  28.808  22.849  1.00  0.00     0.278 C 
ENDBRANCH   9  18
BRANCH  11  20
ATOM     20  O   UNL A   1      32.745  28.773  22.737  1.00  0.00    -0.493 OA
ATOM     21  C   UNL A   1      34.145  28.984  22.797  1.00  0.00     0.278 C 
ENDBRANCH  11  20
BRANCH  17  22
ATOM     22  C   UNL A   1      32.873  22.559  26.802  1.00  0.00     0.322 C 
ATOM     23  O   UNL A   1      33.595  22.320  27.765  1.00  0.00    -0.248 OA
ATOM     24  N   UNL A   1      32.121  21.645  26.098  1.00  0.00    -0.308 N 
ATOM     25  H   UNL A   1      31.144  21.768  26.108  1.00  0.00     0.171 HD
BRANCH  24  26
ATOM     26  C   UNL A   1      32.616  20.555  25.369  1.00  0.00     0.042 A 
ATOM     27  C   UNL A   1      32.910  19.396  26.095  1.00  0.00     0.028 A 
ATOM     28  C   UNL A   1      32.618  20.528  23.974  1.00  0.00     0.028 A 
ATOM     29  C   UNL A   1      33.117  18.189  25.429  1.00  0.00     0.022 A 
ATOM     30  C   UNL A   1      32.810  19.314  23.307  1.00  0.00     0.022 A 
ATOM     31  C   UNL A   1      33.038  18.149  24.038  1.00  0.00     0.041 A 
ATOM     32  Cl  UNL A   1      33.194  16.638  23.234  1.00  0.00    -0.084 Cl
ENDBRANCH  24  26
ENDBRANCH  17  22
ENDBRANCH   7   8
ENDBRANCH   4   7
ENDBRANCH   2   3
ENDBRANCH   1   2
BRANCH   1  33
ATOM     33  C   UNL A   1      38.286  19.981  25.061  1.00  0.00     0.118 C 
BRANCH  33  34
ATOM     34  N   UNL A   1      39.427  19.256  25.599  1.00  0.00    -0.352 N 
ATOM     35  C   UNL A   1      40.636  19.615  26.149  1.00  0.00     0.251 C 
ATOM     36  H   UNL A   1      39.306  18.280  25.560  1.00  0.00     0.163 HD
ATOM     37  O   UNL A   1      41.431  18.686  26.327  1.00  0.00    -0.269 OA
BRANCH  35  38
ATOM     38  C   UNL A   1      41.057  20.999  26.538  1.00  0.00     0.039 A 
ATOM     39  C   UNL A   1      41.507  21.848  25.508  1.00  0.00     0.014 A 
ATOM     40  C   UNL A   1      41.131  21.487  27.841  1.00  0.00     0.014 A 
ATOM     41  C   UNL A   1      42.012  23.131  25.777  1.00  0.00     0.010 A 
ATOM     42  C   UNL A   1      41.550  22.801  28.104  1.00  0.00     0.010 A 
ATOM     43  C   UNL A   1      42.024  23.634  27.084  1.00  0.00    -0.014 A 
BRANCH  43  44
ATOM     44  C   UNL A   1      42.537  25.000  27.412  1.00  0.00     0.031 A 
ATOM     45  C   UNL A   1      41.642  26.021  28.080  1.00  0.00     0.074 A 
ATOM     46  C   UNL A   1      43.776  25.371  27.027  1.00  0.00     0.049 A 
ATOM     47  N   UNL A   1      41.870  27.286  28.331  1.00  0.00    -0.248 NA
ATOM     48  C   UNL A   1      40.303  25.568  28.492  1.00  0.00     0.031 C 
ATOM     49  C   UNL A   1      44.726  24.520  26.312  1.00  0.00     0.029 A 
ATOM     50  N   UNL A   1      44.438  26.569  27.154  1.00  0.00    -0.354 N 
ATOM     51  C   UNL A   1      40.690  27.792  28.867  1.00  0.00     0.074 A 
ATOM     52  C   UNL A   1      39.739  26.702  28.885  1.00  0.00     0.031 C 
ATOM     53  C   UNL A   1      45.844  25.217  26.061  1.00  0.00     0.029 A 
ATOM     54  C   UNL A   1      45.684  26.576  26.567  1.00  0.00     0.049 A 
ATOM     55  H   UNL A   1      44.058  27.348  27.620  1.00  0.00     0.167 HD
ATOM     56  C   UNL A   1      40.425  29.038  29.332  1.00  0.00     0.034 A 
ATOM     57  C   UNL A   1      46.594  27.563  26.438  1.00  0.00     0.034 A 
ATOM     58  C   UNL A   1      41.393  30.101  29.395  1.00  0.00     0.049 A 
ATOM     59  C   UNL A   1      46.306  28.915  27.032  1.00  0.00     0.074 A 
ATOM     60  C   UNL A   1      41.252  31.361  29.951  1.00  0.00     0.029 A 
ATOM     61  N   UNL A   1      42.682  30.030  28.894  1.00  0.00    -0.354 N 
ATOM     62  N   UNL A   1      45.236  29.323  27.670  1.00  0.00    -0.248 NA
ATOM     63  C   UNL A   1      47.363  29.931  26.922  1.00  0.00     0.031 C 
ATOM     64  C   UNL A   1      42.453  32.057  29.775  1.00  0.00     0.029 A 
ATOM     65  C   UNL A   1      43.348  31.223  29.125  1.00  0.00     0.049 A 
ATOM     66  H   UNL A   1      43.070  29.247  28.440  1.00  0.00     0.167 HD
ATOM     67  C   UNL A   1      45.505  30.629  28.067  1.00  0.00     0.074 A 
ATOM     68  C   UNL A   1      46.846  30.937  27.616  1.00  0.00     0.031 C 
ATOM     69  C   UNL A   1      44.704  31.500  28.729  1.00  0.00     0.034 A 
BRANCH  56  70
ATOM     70  C   UNL A   1      39.044  29.309  29.879  1.00  0.00     0.023 A 
ATOM     71  C   UNL A   1      38.714  28.872  31.178  1.00  0.00     0.012 A 
ATOM     72  C   UNL A   1      38.100  30.053  29.141  1.00  0.00     0.148 A 
ATOM     73  C   UNL A   1      37.456  29.133  31.719  1.00  0.00     0.002 A 
ATOM     74  C   UNL A   1      36.863  30.347  29.706  1.00  0.00     0.091 A 
ATOM     75  F   UNL A   1      38.423  30.449  27.903  1.00  0.00    -0.205 F 
ATOM     76  C   UNL A   1      36.535  29.878  30.987  1.00  0.00     0.022 A 
BRANCH  74  77
ATOM     77  S   UNL A   1      35.639  31.371  28.879  1.00  0.00     0.127 S 
ATOM     78  O   UNL A   1      34.995  30.402  27.992  1.00  0.00    -0.237 OA
ATOM     79  O   UNL A   1      34.806  31.820  29.995  1.00  0.00    -0.237 OA
ATOM     80  O   UNL A   1      36.384  32.430  28.214  1.00  0.00    -0.744 OA
ENDBRANCH  74  77
ENDBRANCH  56  70
BRANCH  57  81
ATOM     81  C   UNL A   1      47.902  27.282  25.778  1.00  0.00     0.023 A 
ATOM     82  C   UNL A   1      48.950  26.724  26.536  1.00  0.00     0.012 A 
ATOM     83  C   UNL A   1      48.103  27.524  24.405  1.00  0.00     0.148 A 
ATOM     84  C   UNL A   1      50.183  26.440  25.946  1.00  0.00     0.002 A 
ATOM     85  C   UNL A   1      49.315  27.186  23.812  1.00  0.00     0.091 A 
ATOM     86  F   UNL A   1      47.101  28.071  23.702  1.00  0.00    -0.205 F 
ATOM     87  C   UNL A   1      50.361  26.659  24.584  1.00  0.00     0.022 A 
BRANCH  85  88
ATOM     88  S   UNL A   1      49.576  27.309  22.038  1.00  0.00     0.127 S 
ATOM     89  O   UNL A   1      49.466  28.749  21.818  1.00  0.00    -0.237 OA
ATOM     90  O   UNL A   1      50.925  26.763  21.884  1.00  0.00    -0.237 OA
ATOM     91  O   UNL A   1      48.532  26.489  21.436  1.00  0.00    -0.744 OA
ENDBRANCH  85  88
ENDBRANCH  57  81
BRANCH  69  92
ATOM     92  C   UNL A   1      45.259  32.864  29.046  1.00  0.00     0.023 A 
ATOM     93  C   UNL A   1      45.991  33.062  30.233  1.00  0.00     0.012 A 
ATOM     94  C   UNL A   1      45.128  33.927  28.130  1.00  0.00     0.148 A 
ATOM     95  C   UNL A   1      46.558  34.303  30.519  1.00  0.00     0.002 A 
ATOM     96  C   UNL A   1      45.734  35.149  28.399  1.00  0.00     0.091 A 
ATOM     97  F   UNL A   1      44.411  33.725  27.014  1.00  0.00    -0.205 F 
ATOM     98  C   UNL A   1      46.440  35.341  29.598  1.00  0.00     0.022 A 
BRANCH  96  99
ATOM     99  S   UNL A   1      45.714  36.510  27.227  1.00  0.00     0.127 S 
ATOM    100  O   UNL A   1      46.332  35.900  26.050  1.00  0.00    -0.237 OA
ATOM    101  O   UNL A   1      44.282  36.784  27.090  1.00  0.00    -0.237 OA
ATOM    102  O   UNL A   1      46.475  37.584  27.849  1.00  0.00    -0.744 OA
ENDBRANCH  96  99
ENDBRANCH  69  92
ENDBRANCH  43  44
ENDBRANCH  35  38
ENDBRANCH  33  34
ENDBRANCH   1  33
TORSDOF 18
ENDMDL
MODEL 2
REMARK VINA RESULT:     -12.5      1.215      7.249
REMARK SMILES COc1cc2c(cc1OC)[C@@H](CC(=O)NCCCNC(=O)c1ccc(-c3c4nc(c(-c5cccc(S(=O)(=O)[O-])c5F)c5ccc([nH]5)c(-c5cccc(S(=O)(=O)[O-])c5F)c5nc(c(-c6cccc(S(=O)(=O)[O-])c6F)c6ccc3[nH]6)C=C5)C=C4)cc1)N(C(=O)Nc1ccc(Cl)cc1)CC2
REMARK SMILES IDX 17 1 16 2 15 3 13 4 14 5 12 7 11 8 3 9 4 10 8 11 5 12 7 13
REMARK SMILES IDX 6 14 97 15 96 16 85 17 2 18 1 19 9 20 10 21 86 22 87 23
REMARK SMILES IDX 88 24 89 26 90 27 95 28 91 29 94 30 92 31 93 32 18 33 19 34
REMARK SMILES IDX 20 35 21 37 22 38 23 39 84 40 24 41 83 42 25 43 26 44 27 45
REMARK SMILES IDX 77 46 28 47 82 48 76 49 78 50 29 51 81 52 75 53 74 54 30 56
REMARK SMILES IDX 62 57 42 58 61 59 43 60 46 61 60 62 79 63 44 64 45 65 59 67
REMARK SMILES IDX 80 68 47 69 31 70 32 71 40 72 33 73 35 74 41 75 34 76 36 77
REMARK SMILES IDX 37 78 38 79 39 80 63 81 64 82 72 83 65 84 67 85 73 86 66 87
REMARK SMILES IDX 68 88 69 89 70 90 71 91 48 92 49 93 57 94 50 95 52 96 58 97
REMARK SMILES IDX 51 98 53 99 54 100 55 101 56 102
REMARK H PARENT 15 6 88 25 19 36 78 55 46 66
REMARK Flexibility Score: inf
ROOT
ATOM      1  C   UNL A   1      39.107  21.192  25.893  1.00  0.00     0.042 C 
ENDROOT
BRANCH   1   2
ATOM      2  C   UNL A   1      37.679  21.748  25.790  1.00  0.00     0.117 C 
BRANCH   2   3
ATOM      3  N   UNL A   1      37.418  22.262  24.447  1.00  0.00    -0.356 N 
ATOM      4  C   UNL A   1      36.400  23.018  23.944  1.00  0.00     0.222 C 
ATOM      5  O   UNL A   1      36.338  23.156  22.718  1.00  0.00    -0.275 OA
ATOM      6  H   UNL A   1      38.102  22.017  23.783  1.00  0.00     0.163 HD
BRANCH   4   7
ATOM      7  C   UNL A   1      35.442  23.777  24.843  1.00  0.00     0.130 C 
BRANCH   7   8
ATOM      8  C   UNL A   1      33.953  23.468  24.527  1.00  0.00     0.127 C 
ATOM      9  C   UNL A   1      31.591  26.445  22.352  1.00  0.00     0.161 A 
ATOM     10  C   UNL A   1      30.978  25.433  23.071  1.00  0.00     0.054 A 
ATOM     11  C   UNL A   1      32.987  26.493  22.231  1.00  0.00     0.161 A 
ATOM     12  C   UNL A   1      31.765  24.491  23.728  1.00  0.00    -0.037 A 
ATOM     13  C   UNL A   1      33.773  25.501  22.854  1.00  0.00     0.056 A 
ATOM     14  C   UNL A   1      33.185  24.512  23.663  1.00  0.00    -0.018 A 
ATOM     15  C   UNL A   1      31.112  23.568  24.717  1.00  0.00     0.057 C 
ATOM     16  C   UNL A   1      31.897  23.825  25.991  1.00  0.00     0.127 C 
ATOM     17  N   UNL A   1      33.249  23.279  25.837  1.00  0.00    -0.317 N 
BRANCH   9  18
ATOM     18  O   UNL A   1      30.775  27.456  21.910  1.00  0.00    -0.493 OA
ATOM     19  C   UNL A   1      30.151  28.121  23.002  1.00  0.00     0.278 C 
ENDBRANCH   9  18
BRANCH  11  20
ATOM     20  O   UNL A   1      33.475  27.562  21.525  1.00  0.00    -0.493 OA
ATOM     21  C   UNL A   1      34.138  28.584  22.250  1.00  0.00     0.278 C 
ENDBRANCH  11  20
BRANCH  17  22
ATOM     22  C   UNL A   1      33.468  22.151  26.610  1.00  0.00     0.322 C 
ATOM     23  O   UNL A   1      34.192  22.140  27.602  1.00  0.00    -0.248 OA
ATOM     24  N   UNL A   1      32.750  21.085  26.112  1.00  0.00    -0.308 N 
ATOM     25  H   UNL A   1      31.770  21.175  26.097  1.00  0.00     0.171 HD
BRANCH  24  26
ATOM     26  C   UNL A   1      33.286  19.885  25.625  1.00  0.00     0.042 A 
ATOM     27  C   UNL A   1      32.407  18.803  25.519  1.00  0.00     0.028 A 
ATOM     28  C   UNL A   1      34.562  19.809  25.065  1.00  0.00     0.028 A 
ATOM     29  C   UNL A   1      32.769  17.680  24.777  1.00  0.00     0.022 A 
ATOM     30  C   UNL A   1      34.918  18.690  24.307  1.00  0.00     0.022 A 
ATOM     31  C   UNL A   1      34.014  17.640  24.151  1.00  0.00     0.041 A 
ATOM     32  Cl  UNL A   1      34.408  16.295  23.157  1.00  0.00    -0.084 Cl
ENDBRANCH  24  26
ENDBRANCH  17  22
ENDBRANCH   7   8
ENDBRANCH   4   7
ENDBRANCH   2   3
ENDBRANCH   1   2
BRANCH   1  33
ATOM     33  C   UNL A   1      39.218  19.685  25.714  1.00  0.00     0.118 C 
BRANCH  33  34
ATOM     34  N   UNL A   1      40.565  19.194  25.965  1.00  0.00    -0.352 N 
ATOM     35  C   UNL A   1      41.767  19.778  26.292  1.00  0.00     0.251 C 
ATOM     36  H   UNL A   1      40.632  18.216  25.881  1.00  0.00     0.163 HD
ATOM     37  O   UNL A   1      42.747  19.027  26.245  1.00  0.00    -0.269 OA
BRANCH  35  38
ATOM     38  C   UNL A   1      41.981  21.207  26.689  1.00  0.00     0.039 A 
ATOM     39  C   UNL A   1      42.190  22.137  25.653  1.00  0.00     0.014 A 
ATOM     40  C   UNL A   1      42.084  21.677  27.996  1.00  0.00     0.014 A 
ATOM     41  C   UNL A   1      42.492  23.483  25.919  1.00  0.00     0.010 A 
ATOM     42  C   UNL A   1      42.297  23.039  28.265  1.00  0.00     0.010 A 
ATOM     43  C   UNL A   1      42.533  23.958  27.236  1.00  0.00    -0.014 A 
BRANCH  43  44
ATOM     44  C   UNL A   1      42.834  25.386  27.564  1.00  0.00     0.031 A 
ATOM     45  C   UNL A   1      44.250  25.914  27.485  1.00  0.00     0.074 A 
ATOM     46  C   UNL A   1      41.861  26.196  28.029  1.00  0.00     0.049 A 
ATOM     47  N   UNL A   1      44.721  27.082  27.844  1.00  0.00    -0.248 NA
ATOM     48  C   UNL A   1      45.277  24.998  26.961  1.00  0.00     0.031 C 
ATOM     49  C   UNL A   1      40.465  25.807  28.227  1.00  0.00     0.029 A 
ATOM     50  N   UNL A   1      41.901  27.504  28.451  1.00  0.00    -0.354 N 
ATOM     51  C   UNL A   1      46.098  27.019  27.653  1.00  0.00     0.074 A 
ATOM     52  C   UNL A   1      46.390  25.689  27.165  1.00  0.00     0.031 C 
ATOM     53  C   UNL A   1      39.783  26.847  28.731  1.00  0.00     0.029 A 
ATOM     54  C   UNL A   1      40.695  27.969  28.924  1.00  0.00     0.049 A 
ATOM     55  H   UNL A   1      42.716  28.056  28.417  1.00  0.00     0.167 HD
ATOM     56  C   UNL A   1      47.033  27.984  27.834  1.00  0.00     0.034 A 
ATOM     57  C   UNL A   1      40.357  29.158  29.463  1.00  0.00     0.034 A 
ATOM     58  C   UNL A   1      46.737  29.333  28.236  1.00  0.00     0.049 A 
ATOM     59  C   UNL A   1      41.398  30.238  29.581  1.00  0.00     0.074 A 
ATOM     60  C   UNL A   1      47.602  30.410  28.339  1.00  0.00     0.029 A 
ATOM     61  N   UNL A   1      45.481  29.795  28.597  1.00  0.00    -0.354 N 
ATOM     62  N   UNL A   1      42.665  30.200  29.249  1.00  0.00    -0.248 NA
ATOM     63  C   UNL A   1      40.956  31.536  30.111  1.00  0.00     0.031 C 
ATOM     64  C   UNL A   1      46.870  31.521  28.772  1.00  0.00     0.029 A 
ATOM     65  C   UNL A   1      45.547  31.140  28.923  1.00  0.00     0.049 A 
ATOM     66  H   UNL A   1      44.663  29.249  28.617  1.00  0.00     0.167 HD
ATOM     67  C   UNL A   1      43.163  31.475  29.497  1.00  0.00     0.074 A 
ATOM     68  C   UNL A   1      42.055  32.269  29.987  1.00  0.00     0.031 C 
ATOM     69  C   UNL A   1      44.428  31.940  29.349  1.00  0.00     0.034 A 
BRANCH  56  70
ATOM     70  C   UNL A   1      48.472  27.639  27.531  1.00  0.00     0.023 A 
ATOM     71  C   UNL A   1      49.280  27.078  28.541  1.00  0.00     0.012 A 
ATOM     72  C   UNL A   1      49.003  27.803  26.235  1.00  0.00     0.148 A 
ATOM     73  C   UNL A   1      50.603  26.725  28.280  1.00  0.00     0.002 A 
ATOM     74  C   UNL A   1      50.310  27.406  25.972  1.00  0.00     0.091 A 
ATOM     75  F   UNL A   1      48.228  28.349  25.288  1.00  0.00    -0.205 F 
ATOM     76  C   UNL A   1      51.114  26.880  26.995  1.00  0.00     0.022 A 
BRANCH  74  77
ATOM     77  S   UNL A   1      51.036  27.485  24.330  1.00  0.00     0.127 S 
ATOM     78  O   UNL A   1      51.241  28.924  24.167  1.00  0.00    -0.237 OA
ATOM     79  O   UNL A   1      52.267  26.712  24.497  1.00  0.00    -0.237 OA
ATOM     80  O   UNL A   1      50.061  26.885  23.431  1.00  0.00    -0.744 OA
ENDBRANCH  74  77
ENDBRANCH  56  70
BRANCH  57  81
ATOM     81  C   UNL A   1      38.943  29.414  29.865  1.00  0.00     0.023 A 
ATOM     82  C   UNL A   1      38.527  29.077  31.168  1.00  0.00     0.012 A 
ATOM     83  C   UNL A   1      38.023  30.021  28.988  1.00  0.00     0.148 A 
ATOM     84  C   UNL A   1      37.214  29.312  31.579  1.00  0.00     0.002 A 
ATOM     85  C   UNL A   1      36.733  30.303  29.422  1.00  0.00     0.091 A 
ATOM     86  F   UNL A   1      38.431  30.320  27.745  1.00  0.00    -0.205 F 
ATOM     87  C   UNL A   1      36.322  29.935  30.712  1.00  0.00     0.022 A 
BRANCH  85  88
ATOM     88  S   UNL A   1      35.568  31.228  28.414  1.00  0.00     0.127 S 
ATOM     89  O   UNL A   1      36.399  32.327  27.927  1.00  0.00    -0.237 OA
ATOM     90  O   UNL A   1      35.189  30.245  27.398  1.00  0.00    -0.237 OA
ATOM     91  O   UNL A   1      34.484  31.597  29.316  1.00  0.00    -0.744 OA
ENDBRANCH  85  88
ENDBRANCH  57  81
BRANCH  69  92
ATOM     92  C   UNL A   1      44.689  33.385  29.685  1.00  0.00     0.023 A 
ATOM     93  C   UNL A   1      45.137  33.733  30.974  1.00  0.00     0.012 A 
ATOM     94  C   UNL A   1      44.570  34.387  28.701  1.00  0.00     0.148 A 
ATOM     95  C   UNL A   1      45.434  35.058  31.288  1.00  0.00     0.002 A 
ATOM     96  C   UNL A   1      44.912  35.699  29.007  1.00  0.00     0.091 A 
ATOM     97  F   UNL A   1      44.124  34.039  27.485  1.00  0.00    -0.205 F 
ATOM     98  C   UNL A   1      45.334  36.038  30.303  1.00  0.00     0.022 A 
BRANCH  96  99
ATOM     99  S   UNL A   1      44.904  37.007  27.775  1.00  0.00     0.127 S 
ATOM    100  O   UNL A   1      45.345  38.159  28.561  1.00  0.00    -0.237 OA
ATOM    101  O   UNL A   1      45.882  36.524  26.800  1.00  0.00    -0.237 OA
ATOM    102  O   UNL A   1      43.538  37.075  27.275  1.00  0.00    -0.744 OA
ENDBRANCH  96  99
ENDBRANCH  69  92
ENDBRANCH  43  44
ENDBRANCH  35  38
ENDBRANCH  33  34
ENDBRANCH   1  33
TORSDOF 18
ENDMDL
MODEL 3
REMARK VINA RESULT:     -12.3      5.536      9.122
REMARK SMILES COc1cc2c(cc1OC)[C@@H](CC(=O)NCCCNC(=O)c1ccc(-c3c4nc(c(-c5cccc(S(=O)(=O)[O-])c5F)c5ccc([nH]5)c(-c5cccc(S(=O)(=O)[O-])c5F)c5nc(c(-c6cccc(S(=O)(=O)[O-])c6F)c6ccc3[nH]6)C=C5)C=C4)cc1)N(C(=O)Nc1ccc(Cl)cc1)CC2
REMARK SMILES IDX 17 1 16 2 15 3 13 4 14 5 12 7 11 8 3 9 4 10 8 11 5 12 7 13
REMARK SMILES IDX 6 14 97 15 96 16 85 17 2 18 1 19 9 20 10 21 86 22 87 23
REMARK SMILES IDX 88 24 89 26 90 27 95 28 91 29 94 30 92 31 93 32 18 33 19 34
REMARK SMILES IDX 20 35 21 37 22 38 23 39 84 40 24 41 83 42 25 43 26 44 27 45
REMARK SMILES IDX 77 46 28 47 82 48 76 49 78 50 29 51 81 52 75 53 74 54 30 56
REMARK SMILES IDX 62 57 42 58 61 59 43 60 46 61 60 62 79 63 44 64 45 65 59 67
REMARK SMILES IDX 80 68 47 69 31 70 32 71 40 72 33 73 35 74 41 75 34 76 36 77
REMARK SMILES IDX 37 78 38 79 39 80 63 81 64 82 72 83 65 84 67 85 73 86 66 87
REMARK SMILES IDX 68 88 69 89 70 90 71 91 48 92 49 93 57 94 50 95 52 96 58 97
REMARK SMILES IDX 51 98 53 99 54 100 55 101 56 102
REMARK H PARENT 15 6 88 25 19 36 78 55 46 66
REMARK Flexibility Score: inf
ROOT
ATOM      1  C   UNL A   1      31.540  30.923  25.823  1.00  0.00     0.042 C 
ENDROOT
BRANCH   1   2
ATOM      2  C   UNL A   1      31.832  29.557  25.185  1.00  0.00     0.117 C 
BRANCH   2   3
ATOM      3  N   UNL A   1      31.539  28.474  26.121  1.00  0.00    -0.356 N 
ATOM      4  C   UNL A   1      31.924  27.166  26.149  1.00  0.00     0.222 C 
ATOM      5  O   UNL A   1      31.375  26.422  26.968  1.00  0.00    -0.275 OA
ATOM      6  H   UNL A   1      30.957  28.737  26.871  1.00  0.00     0.163 HD
BRANCH   4   7
ATOM      7  C   UNL A   1      33.071  26.647  25.303  1.00  0.00     0.130 C 
BRANCH   7   8
ATOM      8  C   UNL A   1      32.604  25.657  24.201  1.00  0.00     0.127 C 
ATOM      9  C   UNL A   1      33.392  21.382  24.724  1.00  0.00     0.161 A 
ATOM     10  C   UNL A   1      33.084  21.905  23.480  1.00  0.00     0.054 A 
ATOM     11  C   UNL A   1      33.376  22.196  25.866  1.00  0.00     0.161 A 
ATOM     12  C   UNL A   1      32.815  23.267  23.360  1.00  0.00    -0.037 A 
ATOM     13  C   UNL A   1      33.046  23.562  25.742  1.00  0.00     0.056 A 
ATOM     14  C   UNL A   1      32.815  24.139  24.481  1.00  0.00    -0.018 A 
ATOM     15  C   UNL A   1      32.750  23.871  21.986  1.00  0.00     0.057 C 
ATOM     16  C   UNL A   1      33.791  24.974  22.051  1.00  0.00     0.127 C 
ATOM     17  N   UNL A   1      33.302  26.040  22.931  1.00  0.00    -0.317 N 
BRANCH   9  18
ATOM     18  O   UNL A   1      33.853  20.090  24.743  1.00  0.00    -0.493 OA
ATOM     19  C   UNL A   1      32.782  19.165  24.597  1.00  0.00     0.278 C 
ENDBRANCH   9  18
BRANCH  11  20
ATOM     20  O   UNL A   1      33.733  21.570  27.033  1.00  0.00    -0.493 OA
ATOM     21  C   UNL A   1      33.230  22.101  28.246  1.00  0.00     0.278 C 
ENDBRANCH  11  20
BRANCH  17  22
ATOM     22  C   UNL A   1      32.957  27.193  22.244  1.00  0.00     0.322 C 
ATOM     23  O   UNL A   1      33.764  28.069  21.946  1.00  0.00    -0.248 OA
ATOM     24  N   UNL A   1      31.613  27.184  21.945  1.00  0.00    -0.308 N 
ATOM     25  H   UNL A   1      31.289  26.458  21.365  1.00  0.00     0.171 HD
BRANCH  24  26
ATOM     26  C   UNL A   1      30.663  28.114  22.388  1.00  0.00     0.042 A 
ATOM     27  C   UNL A   1      30.820  29.432  21.946  1.00  0.00     0.028 A 
ATOM     28  C   UNL A   1      29.497  27.733  23.053  1.00  0.00     0.028 A 
ATOM     29  C   UNL A   1      29.777  30.345  22.086  1.00  0.00     0.022 A 
ATOM     30  C   UNL A   1      28.444  28.644  23.179  1.00  0.00     0.022 A 
ATOM     31  C   UNL A   1      28.582  29.938  22.678  1.00  0.00     0.041 A 
ATOM     32  Cl  UNL A   1      27.267  31.043  22.754  1.00  0.00    -0.084 Cl
ENDBRANCH  24  26
ENDBRANCH  17  22
ENDBRANCH   7   8
ENDBRANCH   4   7
ENDBRANCH   2   3
ENDBRANCH   1   2
BRANCH   1  33
ATOM     33  C   UNL A   1      32.298  31.197  27.114  1.00  0.00     0.118 C 
BRANCH  33  34
ATOM     34  N   UNL A   1      32.753  32.577  27.208  1.00  0.00    -0.352 N 
ATOM     35  C   UNL A   1      33.839  33.207  27.768  1.00  0.00     0.251 C 
ATOM     36  H   UNL A   1      32.138  33.207  26.767  1.00  0.00     0.163 HD
ATOM     37  O   UNL A   1      33.779  34.441  27.792  1.00  0.00    -0.269 OA
BRANCH  35  38
ATOM     38  C   UNL A   1      35.055  32.541  28.336  1.00  0.00     0.039 A 
ATOM     39  C   UNL A   1      34.864  31.317  29.006  1.00  0.00     0.014 A 
ATOM     40  C   UNL A   1      36.342  33.073  28.340  1.00  0.00     0.014 A 
ATOM     41  C   UNL A   1      35.922  30.657  29.654  1.00  0.00     0.010 A 
ATOM     42  C   UNL A   1      37.418  32.373  28.909  1.00  0.00     0.010 A 
ATOM     43  C   UNL A   1      37.224  31.171  29.600  1.00  0.00    -0.014 A 
BRANCH  43  44
ATOM     44  C   UNL A   1      38.381  30.493  30.262  1.00  0.00     0.031 A 
ATOM     45  C   UNL A   1      38.801  30.876  31.664  1.00  0.00     0.074 A 
ATOM     46  C   UNL A   1      39.125  29.599  29.578  1.00  0.00     0.049 A 
ATOM     47  N   UNL A   1      39.846  30.487  32.352  1.00  0.00    -0.248 NA
ATOM     48  C   UNL A   1      37.953  31.846  32.375  1.00  0.00     0.031 C 
ATOM     49  C   UNL A   1      38.886  29.184  28.197  1.00  0.00     0.029 A 
ATOM     50  N   UNL A   1      40.254  28.902  29.940  1.00  0.00    -0.354 N 
ATOM     51  C   UNL A   1      39.816  31.209  33.540  1.00  0.00     0.074 A 
ATOM     52  C   UNL A   1      38.660  32.077  33.472  1.00  0.00     0.031 C 
ATOM     53  C   UNL A   1      39.833  28.309  27.826  1.00  0.00     0.029 A 
ATOM     54  C   UNL A   1      40.770  28.123  28.928  1.00  0.00     0.049 A 
ATOM     55  H   UNL A   1      40.656  28.955  30.837  1.00  0.00     0.167 HD
ATOM     56  C   UNL A   1      40.650  31.140  34.607  1.00  0.00     0.034 A 
ATOM     57  C   UNL A   1      41.875  27.351  28.884  1.00  0.00     0.034 A 
ATOM     58  C   UNL A   1      41.750  30.218  34.715  1.00  0.00     0.049 A 
ATOM     59  C   UNL A   1      42.741  27.232  30.108  1.00  0.00     0.074 A 
ATOM     60  C   UNL A   1      42.582  29.995  35.800  1.00  0.00     0.029 A 
ATOM     61  N   UNL A   1      42.169  29.362  33.710  1.00  0.00    -0.354 N 
ATOM     62  N   UNL A   1      42.603  27.812  31.275  1.00  0.00    -0.248 NA
ATOM     63  C   UNL A   1      43.894  26.323  30.023  1.00  0.00     0.031 C 
ATOM     64  C   UNL A   1      43.512  29.012  35.445  1.00  0.00     0.029 A 
ATOM     65  C   UNL A   1      43.247  28.610  34.146  1.00  0.00     0.049 A 
ATOM     66  H   UNL A   1      41.759  29.297  32.816  1.00  0.00     0.167 HD
ATOM     67  C   UNL A   1      43.627  27.313  32.073  1.00  0.00     0.074 A 
ATOM     68  C   UNL A   1      44.366  26.367  31.262  1.00  0.00     0.031 C 
ATOM     69  C   UNL A   1      43.938  27.625  33.355  1.00  0.00     0.034 A 
BRANCH  56  70
ATOM     70  C   UNL A   1      40.368  32.041  35.785  1.00  0.00     0.023 A 
ATOM     71  C   UNL A   1      41.184  33.169  36.008  1.00  0.00     0.012 A 
ATOM     72  C   UNL A   1      39.260  31.815  36.628  1.00  0.00     0.148 A 
ATOM     73  C   UNL A   1      40.929  34.034  37.071  1.00  0.00     0.002 A 
ATOM     74  C   UNL A   1      38.987  32.707  37.660  1.00  0.00     0.091 A 
ATOM     75  F   UNL A   1      38.502  30.731  36.413  1.00  0.00    -0.205 F 
ATOM     76  C   UNL A   1      39.826  33.808  37.890  1.00  0.00     0.022 A 
BRANCH  74  77
ATOM     77  S   UNL A   1      37.543  32.553  38.719  1.00  0.00     0.127 S 
ATOM     78  O   UNL A   1      37.601  31.140  39.092  1.00  0.00    -0.237 OA
ATOM     79  O   UNL A   1      37.855  33.482  39.805  1.00  0.00    -0.237 OA
ATOM     80  O   UNL A   1      36.402  32.939  37.901  1.00  0.00    -0.744 OA
ENDBRANCH  74  77
ENDBRANCH  56  70
BRANCH  57  81
ATOM     81  C   UNL A   1      42.183  26.571  27.651  1.00  0.00     0.023 A 
ATOM     82  C   UNL A   1      42.819  27.213  26.571  1.00  0.00     0.012 A 
ATOM     83  C   UNL A   1      41.891  25.196  27.554  1.00  0.00     0.148 A 
ATOM     84  C   UNL A   1      43.131  26.509  25.406  1.00  0.00     0.002 A 
ATOM     85  C   UNL A   1      42.255  24.489  26.413  1.00  0.00     0.091 A 
ATOM     86  F   UNL A   1      41.270  24.604  28.584  1.00  0.00    -0.205 F 
ATOM     87  C   UNL A   1      42.860  25.147  25.332  1.00  0.00     0.022 A 
BRANCH  85  88
ATOM     88  S   UNL A   1      42.066  22.706  26.297  1.00  0.00     0.127 S 
ATOM     89  O   UNL A   1      42.791  22.249  27.480  1.00  0.00    -0.237 OA
ATOM     90  O   UNL A   1      40.614  22.542  26.364  1.00  0.00    -0.237 OA
ATOM     91  O   UNL A   1      42.646  22.338  25.011  1.00  0.00    -0.744 OA
ENDBRANCH  85  88
ENDBRANCH  57  81
BRANCH  69  92
ATOM     92  C   UNL A   1      45.107  26.916  33.987  1.00  0.00     0.023 A 
ATOM     93  C   UNL A   1      46.393  27.489  33.917  1.00  0.00     0.012 A 
ATOM     94  C   UNL A   1      44.920  25.727  34.719  1.00  0.00     0.148 A 
ATOM     95  C   UNL A   1      47.478  26.875  34.541  1.00  0.00     0.002 A 
ATOM     96  C   UNL A   1      45.997  25.144  35.376  1.00  0.00     0.091 A 
ATOM     97  F   UNL A   1      43.693  25.186  34.757  1.00  0.00    -0.205 F 
ATOM     98  C   UNL A   1      47.278  25.711  35.280  1.00  0.00     0.022 A 
BRANCH  96  99
ATOM     99  S   UNL A   1      45.814  23.698  36.427  1.00  0.00     0.127 S 
ATOM    100  O   UNL A   1      45.168  24.268  37.609  1.00  0.00    -0.237 OA
ATOM    101  O   UNL A   1      44.953  22.832  35.620  1.00  0.00    -0.237 OA
ATOM    102  O   UNL A   1      47.160  23.182  36.635  1.00  0.00    -0.744 OA
ENDBRANCH  96  99
ENDBRANCH  69  92
ENDBRANCH  43  44
ENDBRANCH  35  38
ENDBRANCH  33  34
ENDBRANCH   1  33
TORSDOF 18
ENDMDL
