MODEL 1
REMARK VINA RESULT:     -11.4      0.000      0.000
REMARK SMILES O=C(CC1CC[NH+](C[C@@H]2Cc3ccccc32)CC1)NCCCNC(=O)c1ccc(-c2c3nc(c(-c4cccc(S(=O)(=O)[O-])c4F)c4ccc([nH]4)c(-c4cccc(S(=O)(=O)[O-])c4F)c4nc(c(-c5cccc(S(=O)(=O)[O-])c5F)c5ccc2[nH]5)C=C4)C=C3)cc1
REMARK SMILES IDX 21 1 20 2 19 3 1 4 2 5 3 7 4 8 5 9 18 10 6 11 17 12 7 13
REMARK SMILES IDX 8 15 9 16 10 17 16 18 11 19 15 20 12 21 14 22 13 23 22 24
REMARK SMILES IDX 23 25 24 26 25 28 26 29 27 30 88 31 28 32 87 33 29 34 30 35
REMARK SMILES IDX 31 36 81 37 32 38 86 39 80 40 82 41 33 42 85 43 79 44 78 45
REMARK SMILES IDX 34 47 66 48 46 49 65 50 47 51 50 52 64 53 83 54 48 55 49 56
REMARK SMILES IDX 63 58 84 59 51 60 35 61 36 62 44 63 37 64 39 65 45 66 38 67
REMARK SMILES IDX 40 68 41 69 42 70 43 71 67 72 68 73 76 74 69 75 71 76 77 77
REMARK SMILES IDX 70 78 72 79 73 80 74 81 75 82 52 83 53 84 61 85 54 86 56 87
REMARK SMILES IDX 62 88 55 89 57 90 58 91 59 92 60 93
REMARK H PARENT 19 6 7 14 23 27 82 46 50 57
REMARK Flexibility Score: inf
ROOT
ATOM      1  C   UNL A   1      37.691  20.241  24.874  1.00  0.00     0.042 C 
ENDROOT
BRANCH   1   2
ATOM      2  C   UNL A   1      37.159  21.567  24.289  1.00  0.00     0.117 C 
BRANCH   2   3
ATOM      3  N   UNL A   1      35.947  22.108  24.887  1.00  0.00    -0.356 N 
ATOM      4  O   UNL A   1      36.867  23.782  26.137  1.00  0.00    -0.275 OA
ATOM      5  C   UNL A   1      35.869  23.153  25.787  1.00  0.00     0.220 C 
ATOM      6  H   UNL A   1      35.098  21.687  24.623  1.00  0.00     0.163 HD
BRANCH   5   7
ATOM      7  C   UNL A   1      34.501  23.416  26.471  1.00  0.00     0.104 C 
BRANCH   7   8
ATOM      8  C   UNL A   1      33.681  24.711  26.272  1.00  0.00     0.009 C 
ATOM      9  C   UNL A   1      32.172  24.487  26.547  1.00  0.00     0.066 C 
ATOM     10  C   UNL A   1      33.731  25.337  24.886  1.00  0.00     0.066 C 
ATOM     11  C   UNL A   1      31.492  23.587  25.497  1.00  0.00     0.262 C 
ATOM     12  C   UNL A   1      33.147  24.406  23.822  1.00  0.00     0.262 C 
ATOM     13  N   UNL A   1      31.824  23.878  24.109  1.00  0.00    -0.334 N 
ATOM     14  H   UNL A   1      31.197  24.674  23.983  1.00  0.00     0.348 HD
BRANCH  13  15
ATOM     15  C   UNL A   1      31.427  22.855  23.113  1.00  0.00     0.270 C 
BRANCH  15  16
ATOM     16  C   UNL A   1      32.348  21.680  22.715  1.00  0.00     0.079 C 
ATOM     17  C   UNL A   1      31.822  20.652  21.645  1.00  0.00     0.050 C 
ATOM     18  C   UNL A   1      32.614  20.469  23.577  1.00  0.00    -0.036 A 
ATOM     19  C   UNL A   1      32.221  19.576  22.615  1.00  0.00    -0.043 A 
ATOM     20  C   UNL A   1      33.107  20.008  24.771  1.00  0.00     0.004 A 
ATOM     21  C   UNL A   1      32.275  18.210  22.807  1.00  0.00     0.004 A 
ATOM     22  C   UNL A   1      33.182  18.635  25.009  1.00  0.00     0.000 A 
ATOM     23  C   UNL A   1      32.766  17.736  24.026  1.00  0.00     0.000 A 
ENDBRANCH  15  16
ENDBRANCH  13  15
ENDBRANCH   7   8
ENDBRANCH   5   7
ENDBRANCH   2   3
ENDBRANCH   1   2
BRANCH   1  24
ATOM     24  C   UNL A   1      38.802  20.195  25.942  1.00  0.00     0.118 C 
BRANCH  24  25
ATOM     25  N   UNL A   1      39.857  19.220  25.794  1.00  0.00    -0.352 N 
ATOM     26  C   UNL A   1      41.187  19.409  26.128  1.00  0.00     0.251 C 
ATOM     27  H   UNL A   1      39.608  18.342  25.424  1.00  0.00     0.163 HD
ATOM     28  O   UNL A   1      41.969  18.460  26.089  1.00  0.00    -0.269 OA
BRANCH  26  29
ATOM     29  C   UNL A   1      41.696  20.762  26.483  1.00  0.00     0.039 A 
ATOM     30  C   UNL A   1      41.985  21.652  25.444  1.00  0.00     0.014 A 
ATOM     31  C   UNL A   1      41.921  21.155  27.807  1.00  0.00     0.014 A 
ATOM     32  C   UNL A   1      42.450  22.946  25.727  1.00  0.00     0.010 A 
ATOM     33  C   UNL A   1      42.364  22.461  28.088  1.00  0.00     0.010 A 
ATOM     34  C   UNL A   1      42.625  23.378  27.053  1.00  0.00    -0.014 A 
BRANCH  34  35
ATOM     35  C   UNL A   1      43.032  24.789  27.347  1.00  0.00     0.031 A 
ATOM     36  C   UNL A   1      42.059  25.786  27.925  1.00  0.00     0.074 A 
ATOM     37  C   UNL A   1      44.285  25.201  27.053  1.00  0.00     0.049 A 
ATOM     38  N   UNL A   1      42.250  27.047  28.229  1.00  0.00    -0.248 NA
ATOM     39  C   UNL A   1      40.693  25.310  28.188  1.00  0.00     0.031 C 
ATOM     40  C   UNL A   1      45.323  24.367  26.447  1.00  0.00     0.029 A 
ATOM     41  N   UNL A   1      44.891  26.428  27.201  1.00  0.00    -0.354 N 
ATOM     42  C   UNL A   1      41.028  27.524  28.692  1.00  0.00     0.074 A 
ATOM     43  C   UNL A   1      40.097  26.417  28.612  1.00  0.00     0.031 C 
ATOM     44  C   UNL A   1      46.433  25.103  26.270  1.00  0.00     0.029 A 
ATOM     45  C   UNL A   1      46.181  26.471  26.719  1.00  0.00     0.049 A 
ATOM     46  H   UNL A   1      44.445  27.202  27.612  1.00  0.00     0.167 HD
ATOM     47  C   UNL A   1      40.711  28.757  29.159  1.00  0.00     0.034 A 
ATOM     48  C   UNL A   1      47.061  27.490  26.633  1.00  0.00     0.034 A 
ATOM     49  C   UNL A   1      41.636  29.856  29.267  1.00  0.00     0.049 A 
ATOM     50  C   UNL A   1      46.685  28.851  27.159  1.00  0.00     0.074 A 
ATOM     51  C   UNL A   1      41.415  31.116  29.800  1.00  0.00     0.029 A 
ATOM     52  N   UNL A   1      42.948  29.840  28.822  1.00  0.00    -0.354 N 
ATOM     53  N   UNL A   1      45.570  29.233  27.732  1.00  0.00    -0.248 NA
ATOM     54  C   UNL A   1      47.700  29.912  27.060  1.00  0.00     0.031 C 
ATOM     55  C   UNL A   1      42.582  31.872  29.645  1.00  0.00     0.029 A 
ATOM     56  C   UNL A   1      43.543  31.071  29.053  1.00  0.00     0.049 A 
ATOM     57  H   UNL A   1      43.393  29.068  28.404  1.00  0.00     0.167 HD
ATOM     58  C   UNL A   1      45.765  30.561  28.099  1.00  0.00     0.074 A 
ATOM     59  C   UNL A   1      47.109  30.916  27.695  1.00  0.00     0.031 C 
ATOM     60  C   UNL A   1      44.901  31.408  28.709  1.00  0.00     0.034 A 
BRANCH  47  61
ATOM     61  C   UNL A   1      39.297  28.990  29.635  1.00  0.00     0.023 A 
ATOM     62  C   UNL A   1      38.934  28.619  30.945  1.00  0.00     0.012 A 
ATOM     63  C   UNL A   1      38.354  29.649  28.819  1.00  0.00     0.148 A 
ATOM     64  C   UNL A   1      37.646  28.864  31.424  1.00  0.00     0.002 A 
ATOM     65  C   UNL A   1      37.088  29.930  29.318  1.00  0.00     0.091 A 
ATOM     66  F   UNL A   1      38.714  29.988  27.573  1.00  0.00    -0.205 F 
ATOM     67  C   UNL A   1      36.728  29.527  30.615  1.00  0.00     0.022 A 
BRANCH  65  68
ATOM     68  S   UNL A   1      35.859  30.852  28.385  1.00  0.00     0.127 S 
ATOM     69  O   UNL A   1      35.543  29.915  27.309  1.00  0.00    -0.237 OA
ATOM     70  O   UNL A   1      34.792  31.029  29.371  1.00  0.00    -0.237 OA
ATOM     71  O   UNL A   1      36.512  32.084  27.968  1.00  0.00    -0.744 OA
ENDBRANCH  65  68
ENDBRANCH  47  61
BRANCH  48  72
ATOM     72  C   UNL A   1      48.418  27.255  26.056  1.00  0.00     0.023 A 
ATOM     73  C   UNL A   1      49.451  26.770  26.882  1.00  0.00     0.012 A 
ATOM     74  C   UNL A   1      48.687  27.500  24.695  1.00  0.00     0.148 A 
ATOM     75  C   UNL A   1      50.734  26.562  26.372  1.00  0.00     0.002 A 
ATOM     76  C   UNL A   1      49.950  27.236  24.180  1.00  0.00     0.091 A 
ATOM     77  F   UNL A   1      47.694  27.976  23.929  1.00  0.00    -0.205 F 
ATOM     78  C   UNL A   1      50.980  26.784  25.019  1.00  0.00     0.022 A 
BRANCH  76  79
ATOM     79  S   UNL A   1      50.324  27.369  22.428  1.00  0.00     0.127 S 
ATOM     80  O   UNL A   1      51.698  26.874  22.378  1.00  0.00    -0.237 OA
ATOM     81  O   UNL A   1      49.324  26.477  21.839  1.00  0.00    -0.237 OA
ATOM     82  O   UNL A   1      50.147  28.775  22.092  1.00  0.00    -0.744 OA
ENDBRANCH  76  79
ENDBRANCH  48  72
BRANCH  60  83
ATOM     83  C   UNL A   1      45.378  32.799  29.041  1.00  0.00     0.023 A 
ATOM     84  C   UNL A   1      46.107  33.035  30.223  1.00  0.00     0.012 A 
ATOM     85  C   UNL A   1      45.190  33.855  28.125  1.00  0.00     0.148 A 
ATOM     86  C   UNL A   1      46.621  34.303  30.499  1.00  0.00     0.002 A 
ATOM     87  C   UNL A   1      45.746  35.102  28.383  1.00  0.00     0.091 A 
ATOM     88  F   UNL A   1      44.478  33.616  27.015  1.00  0.00    -0.205 F 
ATOM     89  C   UNL A   1      46.454  35.332  29.574  1.00  0.00     0.022 A 
BRANCH  87  90
ATOM     90  S   UNL A   1      45.668  36.459  27.207  1.00  0.00     0.127 S 
ATOM     91  O   UNL A   1      46.460  37.486  27.883  1.00  0.00    -0.237 OA
ATOM     92  O   UNL A   1      46.305  35.880  26.023  1.00  0.00    -0.237 OA
ATOM     93  O   UNL A   1      44.255  36.773  27.045  1.00  0.00    -0.744 OA
ENDBRANCH  87  90
ENDBRANCH  60  83
ENDBRANCH  34  35
ENDBRANCH  26  29
ENDBRANCH  24  25
ENDBRANCH   1  24
TORSDOF 16
ENDMDL
MODEL 2
REMARK VINA RESULT:     -11.4      6.533     11.449
REMARK SMILES O=C(CC1CC[NH+](C[C@@H]2Cc3ccccc32)CC1)NCCCNC(=O)c1ccc(-c2c3nc(c(-c4cccc(S(=O)(=O)[O-])c4F)c4ccc([nH]4)c(-c4cccc(S(=O)(=O)[O-])c4F)c4nc(c(-c5cccc(S(=O)(=O)[O-])c5F)c5ccc2[nH]5)C=C4)C=C3)cc1
REMARK SMILES IDX 21 1 20 2 19 3 1 4 2 5 3 7 4 8 5 9 18 10 6 11 17 12 7 13
REMARK SMILES IDX 8 15 9 16 10 17 16 18 11 19 15 20 12 21 14 22 13 23 22 24
REMARK SMILES IDX 23 25 24 26 25 28 26 29 27 30 88 31 28 32 87 33 29 34 30 35
REMARK SMILES IDX 31 36 81 37 32 38 86 39 80 40 82 41 33 42 85 43 79 44 78 45
REMARK SMILES IDX 34 47 66 48 46 49 65 50 47 51 50 52 64 53 83 54 48 55 49 56
REMARK SMILES IDX 63 58 84 59 51 60 35 61 36 62 44 63 37 64 39 65 45 66 38 67
REMARK SMILES IDX 40 68 41 69 42 70 43 71 67 72 68 73 76 74 69 75 71 76 77 77
REMARK SMILES IDX 70 78 72 79 73 80 74 81 75 82 52 83 53 84 61 85 54 86 56 87
REMARK SMILES IDX 62 88 55 89 57 90 58 91 59 92 60 93
REMARK H PARENT 19 6 7 14 23 27 82 46 50 57
REMARK Flexibility Score: inf
ROOT
ATOM      1  C   UNL A   1      31.829  31.410  26.658  1.00  0.00     0.042 C 
ENDROOT
BRANCH   1   2
ATOM      2  C   UNL A   1      31.892  29.931  27.098  1.00  0.00     0.117 C 
BRANCH   2   3
ATOM      3  N   UNL A   1      32.269  28.960  26.081  1.00  0.00    -0.356 N 
ATOM      4  O   UNL A   1      30.644  29.391  24.538  1.00  0.00    -0.275 OA
ATOM      5  C   UNL A   1      31.618  28.726  24.886  1.00  0.00     0.220 C 
ATOM      6  H   UNL A   1      33.068  28.416  26.265  1.00  0.00     0.163 HD
BRANCH   5   7
ATOM      7  C   UNL A   1      32.056  27.490  24.056  1.00  0.00     0.104 C 
BRANCH   7   8
ATOM      8  C   UNL A   1      31.133  26.766  23.050  1.00  0.00     0.009 C 
ATOM      9  C   UNL A   1      30.538  25.464  23.644  1.00  0.00     0.066 C 
ATOM     10  C   UNL A   1      31.770  26.333  21.737  1.00  0.00     0.066 C 
ATOM     11  C   UNL A   1      31.592  24.362  23.867  1.00  0.00     0.262 C 
ATOM     12  C   UNL A   1      32.887  25.312  21.959  1.00  0.00     0.262 C 
ATOM     13  N   UNL A   1      32.531  24.161  22.771  1.00  0.00    -0.334 N 
ATOM     14  H   UNL A   1      31.925  23.601  22.171  1.00  0.00     0.348 HD
BRANCH  13  15
ATOM     15  C   UNL A   1      33.721  23.330  23.074  1.00  0.00     0.270 C 
BRANCH  15  16
ATOM     16  C   UNL A   1      34.370  23.285  24.477  1.00  0.00     0.079 C 
ATOM     17  C   UNL A   1      34.987  24.613  25.053  1.00  0.00     0.050 C 
ATOM     18  C   UNL A   1      35.713  22.665  24.780  1.00  0.00    -0.036 A 
ATOM     19  C   UNL A   1      36.220  23.806  25.346  1.00  0.00    -0.043 A 
ATOM     20  C   UNL A   1      36.467  21.521  24.766  1.00  0.00     0.004 A 
ATOM     21  C   UNL A   1      37.489  23.862  25.887  1.00  0.00     0.004 A 
ATOM     22  C   UNL A   1      37.755  21.529  25.303  1.00  0.00     0.000 A 
ATOM     23  C   UNL A   1      38.266  22.701  25.864  1.00  0.00     0.000 A 
ENDBRANCH  15  16
ENDBRANCH  13  15
ENDBRANCH   7   8
ENDBRANCH   5   7
ENDBRANCH   2   3
ENDBRANCH   1   2
BRANCH   1  24
ATOM     24  C   UNL A   1      32.884  32.448  27.094  1.00  0.00     0.118 C 
BRANCH  24  25
ATOM     25  N   UNL A   1      32.428  33.724  27.591  1.00  0.00    -0.352 N 
ATOM     26  C   UNL A   1      33.097  34.525  28.499  1.00  0.00     0.251 C 
ATOM     27  H   UNL A   1      31.564  34.055  27.252  1.00  0.00     0.163 HD
ATOM     28  O   UNL A   1      32.678  35.657  28.743  1.00  0.00    -0.269 OA
BRANCH  26  29
ATOM     29  C   UNL A   1      34.290  34.015  29.229  1.00  0.00     0.039 A 
ATOM     30  C   UNL A   1      34.081  33.210  30.353  1.00  0.00     0.014 A 
ATOM     31  C   UNL A   1      35.597  34.336  28.847  1.00  0.00     0.014 A 
ATOM     32  C   UNL A   1      35.173  32.689  31.065  1.00  0.00     0.010 A 
ATOM     33  C   UNL A   1      36.689  33.792  29.547  1.00  0.00     0.010 A 
ATOM     34  C   UNL A   1      36.493  32.952  30.660  1.00  0.00    -0.014 A 
BRANCH  34  35
ATOM     35  C   UNL A   1      37.648  32.316  31.369  1.00  0.00     0.031 A 
ATOM     36  C   UNL A   1      38.409  31.164  30.760  1.00  0.00     0.074 A 
ATOM     37  C   UNL A   1      38.001  32.748  32.599  1.00  0.00     0.049 A 
ATOM     38  N   UNL A   1      39.427  30.496  31.247  1.00  0.00    -0.248 NA
ATOM     39  C   UNL A   1      37.965  30.694  29.440  1.00  0.00     0.031 C 
ATOM     40  C   UNL A   1      37.332  33.820  33.337  1.00  0.00     0.029 A 
ATOM     41  N   UNL A   1      38.992  32.325  33.456  1.00  0.00    -0.354 N 
ATOM     42  C   UNL A   1      39.729  29.513  30.311  1.00  0.00     0.074 A 
ATOM     43  C   UNL A   1      38.773  29.662  29.233  1.00  0.00     0.031 C 
ATOM     44  C   UNL A   1      37.924  33.967  34.533  1.00  0.00     0.029 A 
ATOM     45  C   UNL A   1      38.996  32.983  34.667  1.00  0.00     0.049 A 
ATOM     46  H   UNL A   1      39.637  31.619  33.226  1.00  0.00     0.167 HD
ATOM     47  C   UNL A   1      40.719  28.585  30.331  1.00  0.00     0.034 A 
ATOM     48  C   UNL A   1      39.760  32.811  35.766  1.00  0.00     0.034 A 
ATOM     49  C   UNL A   1      41.691  28.446  31.385  1.00  0.00     0.049 A 
ATOM     50  C   UNL A   1      40.853  31.775  35.763  1.00  0.00     0.074 A 
ATOM     51  C   UNL A   1      42.772  27.582  31.448  1.00  0.00     0.029 A 
ATOM     52  N   UNL A   1      41.695  29.171  32.566  1.00  0.00    -0.354 N 
ATOM     53  N   UNL A   1      41.213  30.959  34.802  1.00  0.00    -0.248 NA
ATOM     54  C   UNL A   1      41.669  31.657  36.983  1.00  0.00     0.031 C 
ATOM     55  C   UNL A   1      43.408  27.760  32.681  1.00  0.00     0.029 A 
ATOM     56  C   UNL A   1      42.748  28.763  33.370  1.00  0.00     0.049 A 
ATOM     57  H   UNL A   1      41.044  29.872  32.800  1.00  0.00     0.167 HD
ATOM     58  C   UNL A   1      42.320  30.267  35.284  1.00  0.00     0.074 A 
ATOM     59  C   UNL A   1      42.579  30.764  36.618  1.00  0.00     0.031 C 
ATOM     60  C   UNL A   1      43.047  29.300  34.673  1.00  0.00     0.034 A 
BRANCH  47  61
ATOM     61  C   UNL A   1      40.838  27.653  29.150  1.00  0.00     0.023 A 
ATOM     62  C   UNL A   1      40.032  26.498  29.091  1.00  0.00     0.012 A 
ATOM     63  C   UNL A   1      41.681  27.961  28.062  1.00  0.00     0.148 A 
ATOM     64  C   UNL A   1      40.090  25.644  27.989  1.00  0.00     0.002 A 
ATOM     65  C   UNL A   1      41.701  27.129  26.948  1.00  0.00     0.091 A 
ATOM     66  F   UNL A   1      42.446  29.058  28.137  1.00  0.00    -0.205 F 
ATOM     67  C   UNL A   1      40.916  25.964  26.915  1.00  0.00     0.022 A 
BRANCH  65  68
ATOM     68  S   UNL A   1      42.669  27.496  25.479  1.00  0.00     0.127 S 
ATOM     69  O   UNL A   1      44.021  27.576  26.031  1.00  0.00    -0.237 OA
ATOM     70  O   UNL A   1      42.421  26.320  24.644  1.00  0.00    -0.237 OA
ATOM     71  O   UNL A   1      42.138  28.743  24.948  1.00  0.00    -0.744 OA
ENDBRANCH  65  68
ENDBRANCH  47  61
BRANCH  48  72
ATOM     72  C   UNL A   1      39.547  33.678  36.963  1.00  0.00     0.023 A 
ATOM     73  C   UNL A   1      40.001  35.012  36.946  1.00  0.00     0.012 A 
ATOM     74  C   UNL A   1      38.890  33.192  38.110  1.00  0.00     0.148 A 
ATOM     75  C   UNL A   1      39.833  35.836  38.061  1.00  0.00     0.002 A 
ATOM     76  C   UNL A   1      38.674  34.034  39.194  1.00  0.00     0.091 A 
ATOM     77  F   UNL A   1      38.479  31.915  38.112  1.00  0.00    -0.205 F 
ATOM     78  C   UNL A   1      39.161  35.351  39.179  1.00  0.00     0.022 A 
BRANCH  76  79
ATOM     79  S   UNL A   1      37.706  33.538  40.623  1.00  0.00     0.127 S 
ATOM     80  O   UNL A   1      36.501  33.000  39.996  1.00  0.00    -0.237 OA
ATOM     81  O   UNL A   1      38.577  32.539  41.244  1.00  0.00    -0.237 OA
ATOM     82  O   UNL A   1      37.520  34.747  41.413  1.00  0.00    -0.744 OA
ENDBRANCH  76  79
ENDBRANCH  48  72
BRANCH  60  83
ATOM     83  C   UNL A   1      44.239  28.735  35.403  1.00  0.00     0.023 A 
ATOM     84  C   UNL A   1      45.515  29.303  35.221  1.00  0.00     0.012 A 
ATOM     85  C   UNL A   1      44.072  27.701  36.348  1.00  0.00     0.148 A 
ATOM     86  C   UNL A   1      46.610  28.837  35.952  1.00  0.00     0.002 A 
ATOM     87  C   UNL A   1      45.156  27.277  37.107  1.00  0.00     0.091 A 
ATOM     88  F   UNL A   1      42.855  27.161  36.493  1.00  0.00    -0.205 F 
ATOM     89  C   UNL A   1      46.428  27.836  36.904  1.00  0.00     0.022 A 
BRANCH  87  90
ATOM     90  S   UNL A   1      45.000  26.064  38.424  1.00  0.00     0.127 S 
ATOM     91  O   UNL A   1      46.353  26.052  38.980  1.00  0.00    -0.237 OA
ATOM     92  O   UNL A   1      43.991  26.675  39.290  1.00  0.00    -0.237 OA
ATOM     93  O   UNL A   1      44.582  24.824  37.785  1.00  0.00    -0.744 OA
ENDBRANCH  87  90
ENDBRANCH  60  83
ENDBRANCH  34  35
ENDBRANCH  26  29
ENDBRANCH  24  25
ENDBRANCH   1  24
TORSDOF 16
ENDMDL
MODEL 3
REMARK VINA RESULT:     -11.3      0.593      1.121
REMARK SMILES O=C(CC1CC[NH+](C[C@@H]2Cc3ccccc32)CC1)NCCCNC(=O)c1ccc(-c2c3nc(c(-c4cccc(S(=O)(=O)[O-])c4F)c4ccc([nH]4)c(-c4cccc(S(=O)(=O)[O-])c4F)c4nc(c(-c5cccc(S(=O)(=O)[O-])c5F)c5ccc2[nH]5)C=C4)C=C3)cc1
REMARK SMILES IDX 21 1 20 2 19 3 1 4 2 5 3 7 4 8 5 9 18 10 6 11 17 12 7 13
REMARK SMILES IDX 8 15 9 16 10 17 16 18 11 19 15 20 12 21 14 22 13 23 22 24
REMARK SMILES IDX 23 25 24 26 25 28 26 29 27 30 88 31 28 32 87 33 29 34 30 35
REMARK SMILES IDX 31 36 81 37 32 38 86 39 80 40 82 41 33 42 85 43 79 44 78 45
REMARK SMILES IDX 34 47 66 48 46 49 65 50 47 51 50 52 64 53 83 54 48 55 49 56
REMARK SMILES IDX 63 58 84 59 51 60 35 61 36 62 44 63 37 64 39 65 45 66 38 67
REMARK SMILES IDX 40 68 41 69 42 70 43 71 67 72 68 73 76 74 69 75 71 76 77 77
REMARK SMILES IDX 70 78 72 79 73 80 74 81 75 82 52 83 53 84 61 85 54 86 56 87
REMARK SMILES IDX 62 88 55 89 57 90 58 91 59 92 60 93
REMARK H PARENT 19 6 7 14 23 27 82 46 50 57
REMARK Flexibility Score: inf
ROOT
ATOM      1  C   UNL A   1      38.249  20.495  25.088  1.00  0.00     0.042 C 
ENDROOT
BRANCH   1   2
ATOM      2  C   UNL A   1      38.127  22.026  24.932  1.00  0.00     0.117 C 
BRANCH   2   3
ATOM      3  N   UNL A   1      36.797  22.598  25.091  1.00  0.00    -0.356 N 
ATOM      4  O   UNL A   1      37.334  24.452  26.309  1.00  0.00    -0.275 OA
ATOM      5  C   UNL A   1      36.473  23.747  25.784  1.00  0.00     0.220 C 
ATOM      6  H   UNL A   1      36.055  22.115  24.660  1.00  0.00     0.163 HD
BRANCH   5   7
ATOM      7  C   UNL A   1      34.969  24.049  26.019  1.00  0.00     0.104 C 
BRANCH   7   8
ATOM      8  C   UNL A   1      34.147  25.028  25.149  1.00  0.00     0.009 C 
ATOM      9  C   UNL A   1      32.630  24.933  25.449  1.00  0.00     0.066 C 
ATOM     10  C   UNL A   1      34.254  24.847  23.642  1.00  0.00     0.066 C 
ATOM     11  C   UNL A   1      32.005  23.599  24.996  1.00  0.00     0.262 C 
ATOM     12  C   UNL A   1      33.726  23.483  23.196  1.00  0.00     0.262 C 
ATOM     13  N   UNL A   1      32.396  23.140  23.670  1.00  0.00    -0.334 N 
ATOM     14  H   UNL A   1      31.769  23.735  23.128  1.00  0.00     0.348 HD
BRANCH  13  15
ATOM     15  C   UNL A   1      32.052  21.737  23.336  1.00  0.00     0.270 C 
BRANCH  15  16
ATOM     16  C   UNL A   1      32.398  20.552  24.266  1.00  0.00     0.079 C 
ATOM     17  C   UNL A   1      33.766  20.592  25.044  1.00  0.00     0.050 C 
ATOM     18  C   UNL A   1      32.843  19.190  23.789  1.00  0.00    -0.036 A 
ATOM     19  C   UNL A   1      33.999  19.201  24.526  1.00  0.00    -0.043 A 
ATOM     20  C   UNL A   1      32.517  18.079  23.054  1.00  0.00     0.004 A 
ATOM     21  C   UNL A   1      34.877  18.137  24.540  1.00  0.00     0.004 A 
ATOM     22  C   UNL A   1      33.373  16.978  23.040  1.00  0.00     0.000 A 
ATOM     23  C   UNL A   1      34.554  17.007  23.783  1.00  0.00     0.000 A 
ENDBRANCH  15  16
ENDBRANCH  13  15
ENDBRANCH   7   8
ENDBRANCH   5   7
ENDBRANCH   2   3
ENDBRANCH   1   2
BRANCH   1  24
ATOM     24  C   UNL A   1      39.053  19.842  26.231  1.00  0.00     0.118 C 
BRANCH  24  25
ATOM     25  N   UNL A   1      40.123  18.935  25.887  1.00  0.00    -0.352 N 
ATOM     26  C   UNL A   1      41.475  19.184  26.041  1.00  0.00     0.251 C 
ATOM     27  H   UNL A   1      39.867  18.062  25.511  1.00  0.00     0.163 HD
ATOM     28  O   UNL A   1      42.290  18.282  25.845  1.00  0.00    -0.269 OA
BRANCH  26  29
ATOM     29  C   UNL A   1      41.963  20.546  26.391  1.00  0.00     0.039 A 
ATOM     30  C   UNL A   1      42.215  21.444  25.350  1.00  0.00     0.014 A 
ATOM     31  C   UNL A   1      42.204  20.940  27.712  1.00  0.00     0.014 A 
ATOM     32  C   UNL A   1      42.659  22.747  25.628  1.00  0.00     0.010 A 
ATOM     33  C   UNL A   1      42.624  22.255  27.989  1.00  0.00     0.010 A 
ATOM     34  C   UNL A   1      42.848  23.179  26.952  1.00  0.00    -0.014 A 
BRANCH  34  35
ATOM     35  C   UNL A   1      43.231  24.597  27.242  1.00  0.00     0.031 A 
ATOM     36  C   UNL A   1      42.243  25.578  27.824  1.00  0.00     0.074 A 
ATOM     37  C   UNL A   1      44.475  25.031  26.943  1.00  0.00     0.049 A 
ATOM     38  N   UNL A   1      42.413  26.842  28.126  1.00  0.00    -0.248 NA
ATOM     39  C   UNL A   1      40.887  25.078  28.093  1.00  0.00     0.031 C 
ATOM     40  C   UNL A   1      45.526  24.215  26.334  1.00  0.00     0.029 A 
ATOM     41  N   UNL A   1      45.060  26.269  27.087  1.00  0.00    -0.354 N 
ATOM     42  C   UNL A   1      41.184  27.298  28.593  1.00  0.00     0.074 A 
ATOM     43  C   UNL A   1      40.273  26.174  28.518  1.00  0.00     0.031 C 
ATOM     44  C   UNL A   1      46.621  24.971  26.151  1.00  0.00     0.029 A 
ATOM     45  C   UNL A   1      46.347  26.334  26.600  1.00  0.00     0.049 A 
ATOM     46  H   UNL A   1      44.602  27.035  27.500  1.00  0.00     0.167 HD
ATOM     47  C   UNL A   1      40.847  28.526  29.061  1.00  0.00     0.034 A 
ATOM     48  C   UNL A   1      47.209  27.369  26.509  1.00  0.00     0.034 A 
ATOM     49  C   UNL A   1      41.753  29.641  29.163  1.00  0.00     0.049 A 
ATOM     50  C   UNL A   1      46.810  28.723  27.035  1.00  0.00     0.074 A 
ATOM     51  C   UNL A   1      41.512  30.898  29.696  1.00  0.00     0.029 A 
ATOM     52  N   UNL A   1      43.063  29.648  28.713  1.00  0.00    -0.354 N 
ATOM     53  N   UNL A   1      45.691  29.087  27.612  1.00  0.00    -0.248 NA
ATOM     54  C   UNL A   1      47.806  29.803  26.931  1.00  0.00     0.031 C 
ATOM     55  C   UNL A   1      42.664  31.674  29.536  1.00  0.00     0.029 A 
ATOM     56  C   UNL A   1      43.637  30.889  28.940  1.00  0.00     0.049 A 
ATOM     57  H   UNL A   1      43.520  28.883  28.293  1.00  0.00     0.167 HD
ATOM     58  C   UNL A   1      45.864  30.418  27.977  1.00  0.00     0.074 A 
ATOM     59  C   UNL A   1      47.199  30.797  27.567  1.00  0.00     0.031 C 
ATOM     60  C   UNL A   1      44.987  31.250  28.590  1.00  0.00     0.034 A 
BRANCH  47  61
ATOM     61  C   UNL A   1      39.432  28.734  29.542  1.00  0.00     0.023 A 
ATOM     62  C   UNL A   1      39.080  28.357  30.854  1.00  0.00     0.012 A 
ATOM     63  C   UNL A   1      38.474  29.376  28.730  1.00  0.00     0.148 A 
ATOM     64  C   UNL A   1      37.791  28.580  31.338  1.00  0.00     0.002 A 
ATOM     65  C   UNL A   1      37.205  29.635  29.234  1.00  0.00     0.091 A 
ATOM     66  F   UNL A   1      38.822  29.719  27.482  1.00  0.00    -0.205 F 
ATOM     67  C   UNL A   1      36.857  29.226  30.533  1.00  0.00     0.022 A 
BRANCH  65  68
ATOM     68  S   UNL A   1      35.956  30.533  28.305  1.00  0.00     0.127 S 
ATOM     69  O   UNL A   1      36.734  31.650  27.771  1.00  0.00    -0.237 OA
ATOM     70  O   UNL A   1      35.543  29.546  27.307  1.00  0.00    -0.237 OA
ATOM     71  O   UNL A   1      34.924  30.895  29.266  1.00  0.00    -0.744 OA
ENDBRANCH  65  68
ENDBRANCH  47  61
BRANCH  48  72
ATOM     72  C   UNL A   1      48.567  27.158  25.926  1.00  0.00     0.023 A 
ATOM     73  C   UNL A   1      49.608  26.678  26.745  1.00  0.00     0.012 A 
ATOM     74  C   UNL A   1      48.829  27.418  24.567  1.00  0.00     0.148 A 
ATOM     75  C   UNL A   1      50.892  26.493  26.230  1.00  0.00     0.002 A 
ATOM     76  C   UNL A   1      50.094  27.176  24.046  1.00  0.00     0.091 A 
ATOM     77  F   UNL A   1      47.828  27.888  23.808  1.00  0.00    -0.205 F 
ATOM     78  C   UNL A   1      51.132  26.730  24.879  1.00  0.00     0.022 A 
BRANCH  76  79
ATOM     79  S   UNL A   1      50.461  27.330  22.295  1.00  0.00     0.127 S 
ATOM     80  O   UNL A   1      49.436  26.475  21.698  1.00  0.00    -0.237 OA
ATOM     81  O   UNL A   1      50.274  28.764  22.074  1.00  0.00    -0.237 OA
ATOM     82  O   UNL A   1      51.834  26.871  22.138  1.00  0.00    -0.744 OA
ENDBRANCH  76  79
ENDBRANCH  48  72
BRANCH  60  83
ATOM     83  C   UNL A   1      45.441  32.650  28.918  1.00  0.00     0.023 A 
ATOM     84  C   UNL A   1      46.173  32.900  30.095  1.00  0.00     0.012 A 
ATOM     85  C   UNL A   1      45.227  33.702  28.003  1.00  0.00     0.148 A 
ATOM     86  C   UNL A   1      46.666  34.177  30.367  1.00  0.00     0.002 A 
ATOM     87  C   UNL A   1      45.762  34.959  28.257  1.00  0.00     0.091 A 
ATOM     88  F   UNL A   1      44.512  33.450  26.898  1.00  0.00    -0.205 F 
ATOM     89  C   UNL A   1      46.473  35.202  29.443  1.00  0.00     0.022 A 
BRANCH  87  90
ATOM     90  S   UNL A   1      45.651  36.314  27.081  1.00  0.00     0.127 S 
ATOM     91  O   UNL A   1      46.413  37.361  27.761  1.00  0.00    -0.237 OA
ATOM     92  O   UNL A   1      46.307  35.753  25.900  1.00  0.00    -0.237 OA
ATOM     93  O   UNL A   1      44.231  36.589  26.915  1.00  0.00    -0.744 OA
ENDBRANCH  87  90
ENDBRANCH  60  83
ENDBRANCH  34  35
ENDBRANCH  26  29
ENDBRANCH  24  25
ENDBRANCH   1  24
TORSDOF 16
ENDMDL
