MODEL 1
REMARK VINA RESULT:     -10.8      0.000      0.000
REMARK SMILES COCC[C@H](NC(=O)c1ccc(Br)nc1)C(=O)NCCCNC(=O)c1ccc(-c2c3nc(c(-c4cccc(S(=O)(=O)[O-])c4F)c4ccc([nH]4)c(-c4cccc(S(=O)(=O)[O-])c4F)c4nc(c(-c5cccc(S(=O)(=O)[O-])c5F)c5ccc2[nH]5)C=C4)C=C3)cc1
REMARK SMILES IDX 20 1 19 2 18 3 16 4 17 5 5 7 4 8 3 9 2 10 1 11 6 12 7 13
REMARK SMILES IDX 8 15 9 16 10 17 15 18 11 19 14 20 12 21 13 22 21 23 22 24
REMARK SMILES IDX 23 25 24 27 25 28 26 29 87 30 27 31 86 32 28 33 29 34 30 35
REMARK SMILES IDX 80 36 31 37 85 38 79 39 81 40 32 41 84 42 78 43 77 44 33 46
REMARK SMILES IDX 65 47 45 48 64 49 46 50 49 51 63 52 82 53 47 54 48 55 62 57
REMARK SMILES IDX 83 58 50 59 34 60 35 61 43 62 36 63 38 64 44 65 37 66 39 67
REMARK SMILES IDX 40 68 41 69 42 70 66 71 67 72 75 73 68 74 70 75 76 76 69 77
REMARK SMILES IDX 71 78 72 79 73 80 74 81 51 82 52 83 60 84 53 85 55 86 61 87
REMARK SMILES IDX 54 88 56 89 57 90 58 91 59 92
REMARK H PARENT 18 6 6 14 22 26 81 45 49 56
REMARK Flexibility Score: inf
ROOT
ATOM      1  C   UNL A   1      31.573  28.601  26.705  1.00  0.00     0.042 C 
ENDROOT
BRANCH   1   2
ATOM      2  C   UNL A   1      31.636  27.135  26.307  1.00  0.00     0.117 C 
BRANCH   2   3
ATOM      3  N   UNL A   1      33.003  26.642  26.239  1.00  0.00    -0.354 N 
ATOM      4  C   UNL A   1      33.546  25.617  25.526  1.00  0.00     0.242 C 
ATOM      5  O   UNL A   1      34.771  25.478  25.568  1.00  0.00    -0.273 OA
ATOM      6  H   UNL A   1      33.643  27.133  26.804  1.00  0.00     0.163 HD
BRANCH   4   7
ATOM      7  C   UNL A   1      32.683  24.741  24.599  1.00  0.00     0.173 C 
BRANCH   7   8
ATOM      8  C   UNL A   1      32.674  23.278  25.075  1.00  0.00     0.063 C 
BRANCH   8   9
ATOM      9  C   UNL A   1      31.563  22.942  26.071  1.00  0.00     0.162 C 
BRANCH   9  10
ATOM     10  O   UNL A   1      31.905  23.342  27.395  1.00  0.00    -0.385 OA
ATOM     11  C   UNL A   1      32.905  22.535  28.004  1.00  0.00     0.194 C 
ENDBRANCH   9  10
ENDBRANCH   8   9
ENDBRANCH   7   8
BRANCH   7  12
ATOM     12  N   UNL A   1      33.133  24.921  23.210  1.00  0.00    -0.340 N 
ATOM     13  C   UNL A   1      32.820  25.889  22.292  1.00  0.00     0.253 C 
ATOM     14  H   UNL A   1      33.761  24.235  22.888  1.00  0.00     0.164 HD
ATOM     15  O   UNL A   1      33.277  25.847  21.160  1.00  0.00    -0.269 OA
BRANCH  13  16
ATOM     16  C   UNL A   1      31.876  26.956  22.646  1.00  0.00     0.058 A 
ATOM     17  C   UNL A   1      30.526  26.718  22.892  1.00  0.00     0.018 A 
ATOM     18  C   UNL A   1      32.346  28.259  22.698  1.00  0.00     0.126 A 
ATOM     19  C   UNL A   1      29.681  27.806  23.101  1.00  0.00     0.037 A 
ATOM     20  N   UNL A   1      31.545  29.333  22.898  1.00  0.00    -0.249 NA
ATOM     21  C   UNL A   1      30.228  29.083  23.081  1.00  0.00     0.106 A 
ATOM     22  Br  UNL A   1      29.076  30.573  23.298  1.00  0.00    -0.029 Br
ENDBRANCH  13  16
ENDBRANCH   7  12
ENDBRANCH   4   7
ENDBRANCH   2   3
ENDBRANCH   1   2
BRANCH   1  23
ATOM     23  C   UNL A   1      32.697  29.455  26.135  1.00  0.00     0.118 C 
BRANCH  23  24
ATOM     24  N   UNL A   1      32.524  30.877  26.402  1.00  0.00    -0.352 N 
ATOM     25  C   UNL A   1      33.273  31.709  27.200  1.00  0.00     0.251 C 
ATOM     26  H   UNL A   1      31.762  31.302  25.946  1.00  0.00     0.163 HD
ATOM     27  O   UNL A   1      32.883  32.850  27.428  1.00  0.00    -0.269 OA
BRANCH  25  28
ATOM     28  C   UNL A   1      34.534  31.218  27.796  1.00  0.00     0.039 A 
ATOM     29  C   UNL A   1      35.576  32.120  28.020  1.00  0.00     0.014 A 
ATOM     30  C   UNL A   1      34.678  29.873  28.147  1.00  0.00     0.014 A 
ATOM     31  C   UNL A   1      36.738  31.686  28.664  1.00  0.00     0.010 A 
ATOM     32  C   UNL A   1      35.801  29.462  28.857  1.00  0.00     0.010 A 
ATOM     33  C   UNL A   1      36.845  30.361  29.118  1.00  0.00    -0.014 A 
BRANCH  33  34
ATOM     34  C   UNL A   1      38.035  29.892  29.871  1.00  0.00     0.031 A 
ATOM     35  C   UNL A   1      38.293  30.397  31.265  1.00  0.00     0.074 A 
ATOM     36  C   UNL A   1      38.937  29.095  29.264  1.00  0.00     0.049 A 
ATOM     37  N   UNL A   1      39.313  30.170  32.048  1.00  0.00    -0.248 NA
ATOM     38  C   UNL A   1      37.286  31.307  31.841  1.00  0.00     0.031 C 
ATOM     39  C   UNL A   1      38.848  28.612  27.884  1.00  0.00     0.029 A 
ATOM     40  N   UNL A   1      40.122  28.574  29.722  1.00  0.00    -0.354 N 
ATOM     41  C   UNL A   1      39.097  30.938  33.186  1.00  0.00     0.074 A 
ATOM     42  C   UNL A   1      37.863  31.663  32.979  1.00  0.00     0.031 C 
ATOM     43  C   UNL A   1      39.927  27.862  27.610  1.00  0.00     0.029 A 
ATOM     44  C   UNL A   1      40.795  27.827  28.784  1.00  0.00     0.049 A 
ATOM     45  H   UNL A   1      40.457  28.722  30.635  1.00  0.00     0.167 HD
ATOM     46  C   UNL A   1      39.838  31.006  34.317  1.00  0.00     0.034 A 
ATOM     47  C   UNL A   1      41.975  27.181  28.863  1.00  0.00     0.034 A 
ATOM     48  C   UNL A   1      41.023  30.228  34.550  1.00  0.00     0.049 A 
ATOM     49  C   UNL A   1      42.735  27.205  30.161  1.00  0.00     0.074 A 
ATOM     50  C   UNL A   1      41.787  30.148  35.701  1.00  0.00     0.029 A 
ATOM     51  N   UNL A   1      41.611  29.386  33.619  1.00  0.00    -0.354 N 
ATOM     52  N   UNL A   1      42.428  27.808  31.284  1.00  0.00    -0.248 NA
ATOM     53  C   UNL A   1      43.984  26.432  30.216  1.00  0.00     0.031 C 
ATOM     54  C   UNL A   1      42.838  29.255  35.464  1.00  0.00     0.029 A 
ATOM     55  C   UNL A   1      42.726  28.779  34.167  1.00  0.00     0.049 A 
ATOM     56  H   UNL A   1      41.283  29.243  32.702  1.00  0.00     0.167 HD
ATOM     57  C   UNL A   1      43.425  27.460  32.188  1.00  0.00     0.074 A 
ATOM     58  C   UNL A   1      44.335  26.578  31.487  1.00  0.00     0.031 C 
ATOM     59  C   UNL A   1      43.585  27.853  33.476  1.00  0.00     0.034 A 
BRANCH  46  60
ATOM     60  C   UNL A   1      39.338  31.896  35.422  1.00  0.00     0.023 A 
ATOM     61  C   UNL A   1      38.399  31.388  36.342  1.00  0.00     0.012 A 
ATOM     62  C   UNL A   1      39.824  33.208  35.584  1.00  0.00     0.148 A 
ATOM     63  C   UNL A   1      37.925  32.180  37.388  1.00  0.00     0.002 A 
ATOM     64  C   UNL A   1      39.376  33.979  36.652  1.00  0.00     0.091 A 
ATOM     65  F   UNL A   1      40.696  33.685  34.685  1.00  0.00    -0.205 F 
ATOM     66  C   UNL A   1      38.421  33.470  37.548  1.00  0.00     0.022 A 
BRANCH  64  67
ATOM     67  S   UNL A   1      40.008  35.629  36.979  1.00  0.00     0.127 S 
ATOM     68  O   UNL A   1      39.312  35.973  38.218  1.00  0.00    -0.237 OA
ATOM     69  O   UNL A   1      41.444  35.389  37.132  1.00  0.00    -0.237 OA
ATOM     70  O   UNL A   1      39.652  36.426  35.813  1.00  0.00    -0.744 OA
ENDBRANCH  64  67
ENDBRANCH  46  60
BRANCH  47  71
ATOM     71  C   UNL A   1      42.458  26.377  27.706  1.00  0.00     0.023 A 
ATOM     72  C   UNL A   1      43.378  26.955  26.810  1.00  0.00     0.012 A 
ATOM     73  C   UNL A   1      42.054  25.043  27.511  1.00  0.00     0.148 A 
ATOM     74  C   UNL A   1      43.868  26.227  25.725  1.00  0.00     0.002 A 
ATOM     75  C   UNL A   1      42.585  24.308  26.455  1.00  0.00     0.091 A 
ATOM     76  F   UNL A   1      41.165  24.515  28.364  1.00  0.00    -0.205 F 
ATOM     77  C   UNL A   1      43.481  24.901  25.554  1.00  0.00     0.022 A 
BRANCH  75  78
ATOM     78  S   UNL A   1      42.236  22.558  26.244  1.00  0.00     0.127 S 
ATOM     79  O   UNL A   1      42.786  21.993  27.473  1.00  0.00    -0.237 OA
ATOM     80  O   UNL A   1      40.775  22.543  26.159  1.00  0.00    -0.237 OA
ATOM     81  O   UNL A   1      42.908  22.180  25.008  1.00  0.00    -0.744 OA
ENDBRANCH  75  78
ENDBRANCH  47  71
BRANCH  59  82
ATOM     82  C   UNL A   1      44.773  27.317  34.225  1.00  0.00     0.023 A 
ATOM     83  C   UNL A   1      45.987  28.032  34.200  1.00  0.00     0.012 A 
ATOM     84  C   UNL A   1      44.668  26.157  35.017  1.00  0.00     0.148 A 
ATOM     85  C   UNL A   1      47.085  27.588  34.934  1.00  0.00     0.002 A 
ATOM     86  C   UNL A   1      45.755  25.743  35.778  1.00  0.00     0.091 A 
ATOM     87  F   UNL A   1      43.511  25.477  35.010  1.00  0.00    -0.205 F 
ATOM     88  C   UNL A   1      46.966  26.453  35.732  1.00  0.00     0.022 A 
BRANCH  86  89
ATOM     89  S   UNL A   1      45.652  24.343  36.899  1.00  0.00     0.127 S 
ATOM     90  O   UNL A   1      47.001  24.309  37.461  1.00  0.00    -0.237 OA
ATOM     91  O   UNL A   1      44.611  24.763  37.839  1.00  0.00    -0.237 OA
ATOM     92  O   UNL A   1      45.283  23.202  36.070  1.00  0.00    -0.744 OA
ENDBRANCH  86  89
ENDBRANCH  59  82
ENDBRANCH  33  34
ENDBRANCH  25  28
ENDBRANCH  23  24
ENDBRANCH   1  23
TORSDOF 18
ENDMDL
MODEL 2
REMARK VINA RESULT:     -10.7      4.978      9.706
REMARK SMILES COCC[C@H](NC(=O)c1ccc(Br)nc1)C(=O)NCCCNC(=O)c1ccc(-c2c3nc(c(-c4cccc(S(=O)(=O)[O-])c4F)c4ccc([nH]4)c(-c4cccc(S(=O)(=O)[O-])c4F)c4nc(c(-c5cccc(S(=O)(=O)[O-])c5F)c5ccc2[nH]5)C=C4)C=C3)cc1
REMARK SMILES IDX 20 1 19 2 18 3 16 4 17 5 5 7 4 8 3 9 2 10 1 11 6 12 7 13
REMARK SMILES IDX 8 15 9 16 10 17 15 18 11 19 14 20 12 21 13 22 21 23 22 24
REMARK SMILES IDX 23 25 24 27 25 28 26 29 87 30 27 31 86 32 28 33 29 34 30 35
REMARK SMILES IDX 80 36 31 37 85 38 79 39 81 40 32 41 84 42 78 43 77 44 33 46
REMARK SMILES IDX 65 47 45 48 64 49 46 50 49 51 63 52 82 53 47 54 48 55 62 57
REMARK SMILES IDX 83 58 50 59 34 60 35 61 43 62 36 63 38 64 44 65 37 66 39 67
REMARK SMILES IDX 40 68 41 69 42 70 66 71 67 72 75 73 68 74 70 75 76 76 69 77
REMARK SMILES IDX 71 78 72 79 73 80 74 81 51 82 52 83 60 84 53 85 55 86 61 87
REMARK SMILES IDX 54 88 56 89 57 90 58 91 59 92
REMARK H PARENT 18 6 6 14 22 26 81 45 49 56
REMARK Flexibility Score: inf
ROOT
ATOM      1  C   UNL A   1      36.330  22.924  24.289  1.00  0.00     0.042 C 
ENDROOT
BRANCH   1   2
ATOM      2  C   UNL A   1      35.073  23.729  24.001  1.00  0.00     0.117 C 
BRANCH   2   3
ATOM      3  N   UNL A   1      34.952  24.889  24.870  1.00  0.00    -0.354 N 
ATOM      4  C   UNL A   1      33.882  25.683  25.151  1.00  0.00     0.242 C 
ATOM      5  O   UNL A   1      34.026  26.547  26.020  1.00  0.00    -0.273 OA
ATOM      6  H   UNL A   1      35.783  25.142  25.333  1.00  0.00     0.163 HD
BRANCH   4   7
ATOM      7  C   UNL A   1      32.506  25.433  24.506  1.00  0.00     0.173 C 
BRANCH   7   8
ATOM      8  C   UNL A   1      32.152  26.553  23.513  1.00  0.00     0.063 C 
BRANCH   8   9
ATOM      9  C   UNL A   1      33.329  27.052  22.674  1.00  0.00     0.162 C 
BRANCH   9  10
ATOM     10  O   UNL A   1      33.680  26.121  21.654  1.00  0.00    -0.385 OA
ATOM     11  C   UNL A   1      32.575  25.647  20.896  1.00  0.00     0.194 C 
ENDBRANCH   9  10
ENDBRANCH   8   9
ENDBRANCH   7   8
BRANCH   7  12
ATOM     12  N   UNL A   1      31.507  25.227  25.566  1.00  0.00    -0.340 N 
ATOM     13  C   UNL A   1      31.206  24.109  26.299  1.00  0.00     0.253 C 
ATOM     14  H   UNL A   1      30.969  26.021  25.784  1.00  0.00     0.164 HD
ATOM     15  O   UNL A   1      30.305  24.128  27.125  1.00  0.00    -0.269 OA
BRANCH  13  16
ATOM     16  C   UNL A   1      31.926  22.854  26.051  1.00  0.00     0.058 A 
ATOM     17  C   UNL A   1      32.990  22.426  26.841  1.00  0.00     0.018 A 
ATOM     18  C   UNL A   1      31.551  22.086  24.959  1.00  0.00     0.126 A 
ATOM     19  C   UNL A   1      33.692  21.284  26.458  1.00  0.00     0.037 A 
ATOM     20  N   UNL A   1      32.217  20.974  24.567  1.00  0.00    -0.249 NA
ATOM     21  C   UNL A   1      33.281  20.606  25.317  1.00  0.00     0.106 A 
ATOM     22  Br  UNL A   1      34.269  19.090  24.751  1.00  0.00    -0.029 Br
ENDBRANCH  13  16
ENDBRANCH   7  12
ENDBRANCH   4   7
ENDBRANCH   2   3
ENDBRANCH   1   2
BRANCH   1  23
ATOM     23  C   UNL A   1      36.983  23.238  25.627  1.00  0.00     0.118 C 
BRANCH  23  24
ATOM     24  N   UNL A   1      38.115  22.370  25.927  1.00  0.00    -0.352 N 
ATOM     25  C   UNL A   1      39.347  22.696  26.442  1.00  0.00     0.251 C 
ATOM     26  H   UNL A   1      37.977  21.415  25.733  1.00  0.00     0.163 HD
ATOM     27  O   UNL A   1      40.236  21.849  26.481  1.00  0.00    -0.269 OA
BRANCH  25  28
ATOM     28  C   UNL A   1      39.603  24.069  26.926  1.00  0.00     0.039 A 
ATOM     29  C   UNL A   1      39.276  24.397  28.243  1.00  0.00     0.014 A 
ATOM     30  C   UNL A   1      40.180  25.024  26.084  1.00  0.00     0.014 A 
ATOM     31  C   UNL A   1      39.594  25.665  28.738  1.00  0.00     0.010 A 
ATOM     32  C   UNL A   1      40.566  26.256  26.601  1.00  0.00     0.010 A 
ATOM     33  C   UNL A   1      40.273  26.592  27.930  1.00  0.00    -0.014 A 
BRANCH  33  34
ATOM     34  C   UNL A   1      40.690  27.918  28.451  1.00  0.00     0.031 A 
ATOM     35  C   UNL A   1      42.152  28.234  28.623  1.00  0.00     0.074 A 
ATOM     36  C   UNL A   1      39.757  28.796  28.868  1.00  0.00     0.049 A 
ATOM     37  N   UNL A   1      42.710  29.298  29.136  1.00  0.00    -0.248 NA
ATOM     38  C   UNL A   1      43.112  27.202  28.192  1.00  0.00     0.031 C 
ATOM     39  C   UNL A   1      38.309  28.570  28.841  1.00  0.00     0.029 A 
ATOM     40  N   UNL A   1      39.886  30.044  29.423  1.00  0.00    -0.354 N 
ATOM     41  C   UNL A   1      44.078  29.049  29.131  1.00  0.00     0.074 A 
ATOM     42  C   UNL A   1      44.264  27.720  28.594  1.00  0.00     0.031 C 
ATOM     43  C   UNL A   1      37.687  29.645  29.350  1.00  0.00     0.029 A 
ATOM     44  C   UNL A   1      38.687  30.626  29.759  1.00  0.00     0.049 A 
ATOM     45  H   UNL A   1      40.757  30.481  29.567  1.00  0.00     0.167 HD
ATOM     46  C   UNL A   1      45.090  29.866  29.507  1.00  0.00     0.034 A 
ATOM     47  C   UNL A   1      38.422  31.819  30.327  1.00  0.00     0.034 A 
ATOM     48  C   UNL A   1      44.906  31.214  29.970  1.00  0.00     0.049 A 
ATOM     49  C   UNL A   1      39.565  32.741  30.655  1.00  0.00     0.074 A 
ATOM     50  C   UNL A   1      45.871  32.157  30.277  1.00  0.00     0.029 A 
ATOM     51  N   UNL A   1      43.676  31.814  30.184  1.00  0.00    -0.354 N 
ATOM     52  N   UNL A   1      40.851  32.550  30.489  1.00  0.00    -0.248 NA
ATOM     53  C   UNL A   1      39.220  34.057  31.212  1.00  0.00     0.031 C 
ATOM     54  C   UNL A   1      45.221  33.330  30.675  1.00  0.00     0.029 A 
ATOM     55  C   UNL A   1      43.853  33.116  30.615  1.00  0.00     0.049 A 
ATOM     56  H   UNL A   1      42.803  31.377  30.049  1.00  0.00     0.167 HD
ATOM     57  C   UNL A   1      41.467  33.730  30.889  1.00  0.00     0.074 A 
ATOM     58  C   UNL A   1      40.411  34.639  31.287  1.00  0.00     0.031 C 
ATOM     59  C   UNL A   1      42.788  34.028  30.944  1.00  0.00     0.034 A 
BRANCH  46  60
ATOM     60  C   UNL A   1      46.494  29.348  29.351  1.00  0.00     0.023 A 
ATOM     61  C   UNL A   1      47.111  28.697  30.439  1.00  0.00     0.012 A 
ATOM     62  C   UNL A   1      47.186  29.459  28.129  1.00  0.00     0.148 A 
ATOM     63  C   UNL A   1      48.405  28.192  30.326  1.00  0.00     0.002 A 
ATOM     64  C   UNL A   1      48.463  28.919  28.012  1.00  0.00     0.091 A 
ATOM     65  F   UNL A   1      46.596  30.104  27.113  1.00  0.00    -0.205 F 
ATOM     66  C   UNL A   1      49.076  28.294  29.111  1.00  0.00     0.022 A 
BRANCH  64  67
ATOM     67  S   UNL A   1      49.378  28.941  26.466  1.00  0.00     0.127 S 
ATOM     68  O   UNL A   1      49.736  30.354  26.354  1.00  0.00    -0.237 OA
ATOM     69  O   UNL A   1      50.502  28.049  26.755  1.00  0.00    -0.237 OA
ATOM     70  O   UNL A   1      48.457  28.441  25.455  1.00  0.00    -0.744 OA
ENDBRANCH  64  67
ENDBRANCH  46  60
BRANCH  47  71
ATOM     71  C   UNL A   1      37.010  32.247  30.529  1.00  0.00     0.023 A 
ATOM     72  C   UNL A   1      36.426  32.096  31.802  1.00  0.00     0.012 A 
ATOM     73  C   UNL A   1      36.259  32.837  29.495  1.00  0.00     0.148 A 
ATOM     74  C   UNL A   1      35.112  32.501  32.035  1.00  0.00     0.002 A 
ATOM     75  C   UNL A   1      34.966  33.284  29.748  1.00  0.00     0.091 A 
ATOM     76  F   UNL A   1      36.825  32.957  28.285  1.00  0.00    -0.205 F 
ATOM     77  C   UNL A   1      34.386  33.105  31.012  1.00  0.00     0.022 A 
BRANCH  75  78
ATOM     78  S   UNL A   1      34.015  34.188  28.521  1.00  0.00     0.127 S 
ATOM     79  O   UNL A   1      33.864  33.191  27.465  1.00  0.00    -0.237 OA
ATOM     80  O   UNL A   1      32.787  34.501  29.253  1.00  0.00    -0.237 OA
ATOM     81  O   UNL A   1      34.824  35.353  28.191  1.00  0.00    -0.744 OA
ENDBRANCH  75  78
ENDBRANCH  47  71
BRANCH  59  82
ATOM     82  C   UNL A   1      43.174  35.399  31.428  1.00  0.00     0.023 A 
ATOM     83  C   UNL A   1      43.326  35.627  32.810  1.00  0.00     0.012 A 
ATOM     84  C   UNL A   1      43.466  36.433  30.518  1.00  0.00     0.148 A 
ATOM     85  C   UNL A   1      43.741  36.873  33.280  1.00  0.00     0.002 A 
ATOM     86  C   UNL A   1      43.917  37.659  30.992  1.00  0.00     0.091 A 
ATOM     87  F   UNL A   1      43.292  36.203  29.207  1.00  0.00    -0.205 F 
ATOM     88  C   UNL A   1      44.048  37.883  32.372  1.00  0.00     0.022 A 
BRANCH  86  89
ATOM     89  S   UNL A   1      44.418  38.981  29.883  1.00  0.00     0.127 S 
ATOM     90  O   UNL A   1      45.233  38.260  28.906  1.00  0.00    -0.237 OA
ATOM     91  O   UNL A   1      43.136  39.466  29.367  1.00  0.00    -0.237 OA
ATOM     92  O   UNL A   1      45.131  39.943  30.714  1.00  0.00    -0.744 OA
ENDBRANCH  86  89
ENDBRANCH  59  82
ENDBRANCH  33  34
ENDBRANCH  25  28
ENDBRANCH  23  24
ENDBRANCH   1  23
TORSDOF 18
ENDMDL
MODEL 3
REMARK VINA RESULT:     -10.6      5.405     10.297
REMARK SMILES COCC[C@H](NC(=O)c1ccc(Br)nc1)C(=O)NCCCNC(=O)c1ccc(-c2c3nc(c(-c4cccc(S(=O)(=O)[O-])c4F)c4ccc([nH]4)c(-c4cccc(S(=O)(=O)[O-])c4F)c4nc(c(-c5cccc(S(=O)(=O)[O-])c5F)c5ccc2[nH]5)C=C4)C=C3)cc1
REMARK SMILES IDX 20 1 19 2 18 3 16 4 17 5 5 7 4 8 3 9 2 10 1 11 6 12 7 13
REMARK SMILES IDX 8 15 9 16 10 17 15 18 11 19 14 20 12 21 13 22 21 23 22 24
REMARK SMILES IDX 23 25 24 27 25 28 26 29 87 30 27 31 86 32 28 33 29 34 30 35
REMARK SMILES IDX 80 36 31 37 85 38 79 39 81 40 32 41 84 42 78 43 77 44 33 46
REMARK SMILES IDX 65 47 45 48 64 49 46 50 49 51 63 52 82 53 47 54 48 55 62 57
REMARK SMILES IDX 83 58 50 59 34 60 35 61 43 62 36 63 38 64 44 65 37 66 39 67
REMARK SMILES IDX 40 68 41 69 42 70 66 71 67 72 75 73 68 74 70 75 76 76 69 77
REMARK SMILES IDX 71 78 72 79 73 80 74 81 51 82 52 83 60 84 53 85 55 86 61 87
REMARK SMILES IDX 54 88 56 89 57 90 58 91 59 92
REMARK H PARENT 18 6 6 14 22 26 81 45 49 56
REMARK Flexibility Score: inf
ROOT
ATOM      1  C   UNL A   1      36.592  22.137  23.919  1.00  0.00     0.042 C 
ENDROOT
BRANCH   1   2
ATOM      2  C   UNL A   1      35.556  23.198  23.583  1.00  0.00     0.117 C 
BRANCH   2   3
ATOM      3  N   UNL A   1      35.487  24.239  24.595  1.00  0.00    -0.354 N 
ATOM      4  C   UNL A   1      34.434  24.980  25.040  1.00  0.00     0.242 C 
ATOM      5  O   UNL A   1      34.630  25.731  25.999  1.00  0.00    -0.273 OA
ATOM      6  H   UNL A   1      36.345  24.444  25.031  1.00  0.00     0.163 HD
BRANCH   4   7
ATOM      7  C   UNL A   1      33.020  24.793  24.459  1.00  0.00     0.173 C 
BRANCH   7   8
ATOM      8  C   UNL A   1      32.594  26.027  23.645  1.00  0.00     0.063 C 
BRANCH   8   9
ATOM      9  C   UNL A   1      33.705  26.642  22.793  1.00  0.00     0.162 C 
BRANCH   9  10
ATOM     10  O   UNL A   1      33.330  26.726  21.421  1.00  0.00    -0.385 OA
ATOM     11  C   UNL A   1      32.651  25.576  20.934  1.00  0.00     0.194 C 
ENDBRANCH   9  10
ENDBRANCH   8   9
ENDBRANCH   7   8
BRANCH   7  12
ATOM     12  N   UNL A   1      32.095  24.436  25.545  1.00  0.00    -0.340 N 
ATOM     13  C   UNL A   1      31.776  23.214  26.076  1.00  0.00     0.253 C 
ATOM     14  H   UNL A   1      31.630  25.199  25.957  1.00  0.00     0.164 HD
ATOM     15  O   UNL A   1      30.946  23.118  26.967  1.00  0.00    -0.269 OA
BRANCH  13  16
ATOM     16  C   UNL A   1      32.388  21.997  25.531  1.00  0.00     0.058 A 
ATOM     17  C   UNL A   1      32.000  21.436  24.316  1.00  0.00     0.018 A 
ATOM     18  C   UNL A   1      33.367  21.361  26.280  1.00  0.00     0.126 A 
ATOM     19  C   UNL A   1      32.550  20.213  23.937  1.00  0.00     0.037 A 
ATOM     20  N   UNL A   1      33.915  20.172  25.933  1.00  0.00    -0.249 NA
ATOM     21  C   UNL A   1      33.485  19.618  24.776  1.00  0.00     0.106 A 
ATOM     22  Br  UNL A   1      34.189  17.923  24.301  1.00  0.00    -0.029 Br
ENDBRANCH  13  16
ENDBRANCH   7  12
ENDBRANCH   4   7
ENDBRANCH   2   3
ENDBRANCH   1   2
BRANCH   1  23
ATOM     23  C   UNL A   1      36.965  22.070  25.394  1.00  0.00     0.118 C 
BRANCH  23  24
ATOM     24  N   UNL A   1      37.969  21.055  25.683  1.00  0.00    -0.352 N 
ATOM     25  C   UNL A   1      39.245  21.208  26.171  1.00  0.00     0.251 C 
ATOM     26  H   UNL A   1      37.694  20.127  25.503  1.00  0.00     0.163 HD
ATOM     27  O   UNL A   1      40.006  20.246  26.203  1.00  0.00    -0.269 OA
BRANCH  25  28
ATOM     28  C   UNL A   1      39.701  22.536  26.633  1.00  0.00     0.039 A 
ATOM     29  C   UNL A   1      40.719  22.611  27.587  1.00  0.00     0.014 A 
ATOM     30  C   UNL A   1      39.135  23.704  26.114  1.00  0.00     0.014 A 
ATOM     31  C   UNL A   1      41.219  23.860  27.966  1.00  0.00     0.010 A 
ATOM     32  C   UNL A   1      39.687  24.939  26.433  1.00  0.00     0.010 A 
ATOM     33  C   UNL A   1      40.730  25.032  27.366  1.00  0.00    -0.014 A 
BRANCH  33  34
ATOM     34  C   UNL A   1      41.293  26.366  27.693  1.00  0.00     0.031 A 
ATOM     35  C   UNL A   1      42.710  26.700  27.310  1.00  0.00     0.074 A 
ATOM     36  C   UNL A   1      40.570  27.235  28.425  1.00  0.00     0.049 A 
ATOM     37  N   UNL A   1      43.405  27.773  27.579  1.00  0.00    -0.248 NA
ATOM     38  C   UNL A   1      43.456  25.677  26.556  1.00  0.00     0.031 C 
ATOM     39  C   UNL A   1      39.218  26.992  28.937  1.00  0.00     0.029 A 
ATOM     40  N   UNL A   1      40.879  28.488  28.891  1.00  0.00    -0.354 N 
ATOM     41  C   UNL A   1      44.676  27.540  27.068  1.00  0.00     0.074 A 
ATOM     42  C   UNL A   1      44.667  26.210  26.501  1.00  0.00     0.031 C 
ATOM     43  C   UNL A   1      38.815  28.063  29.639  1.00  0.00     0.029 A 
ATOM     44  C   UNL A   1      39.882  29.059  29.647  1.00  0.00     0.049 A 
ATOM     45  H   UNL A   1      41.735  28.936  28.702  1.00  0.00     0.167 HD
ATOM     46  C   UNL A   1      45.744  28.371  27.040  1.00  0.00     0.034 A 
ATOM     47  C   UNL A   1      39.831  30.252  30.271  1.00  0.00     0.034 A 
ATOM     48  C   UNL A   1      45.728  29.719  27.536  1.00  0.00     0.049 A 
ATOM     49  C   UNL A   1      41.002  31.189  30.150  1.00  0.00     0.074 A 
ATOM     50  C   UNL A   1      46.726  30.676  27.462  1.00  0.00     0.029 A 
ATOM     51  N   UNL A   1      44.657  30.307  28.190  1.00  0.00    -0.354 N 
ATOM     52  N   UNL A   1      42.138  31.012  29.520  1.00  0.00    -0.248 NA
ATOM     53  C   UNL A   1      40.871  32.505  30.794  1.00  0.00     0.031 C 
ATOM     54  C   UNL A   1      46.254  31.844  28.072  1.00  0.00     0.029 A 
ATOM     55  C   UNL A   1      44.964  31.613  28.523  1.00  0.00     0.049 A 
ATOM     56  H   UNL A   1      43.803  29.859  28.389  1.00  0.00     0.167 HD
ATOM     57  C   UNL A   1      42.842  32.201  29.662  1.00  0.00     0.074 A 
ATOM     58  C   UNL A   1      41.997  33.100  30.421  1.00  0.00     0.031 C 
ATOM     59  C   UNL A   1      44.086  32.515  29.222  1.00  0.00     0.034 A 
BRANCH  46  60
ATOM     60  C   UNL A   1      46.998  27.869  26.375  1.00  0.00     0.023 A 
ATOM     61  C   UNL A   1      47.975  27.218  27.156  1.00  0.00     0.012 A 
ATOM     62  C   UNL A   1      47.192  27.994  24.986  1.00  0.00     0.148 A 
ATOM     63  C   UNL A   1      49.142  26.727  26.571  1.00  0.00     0.002 A 
ATOM     64  C   UNL A   1      48.341  27.467  24.404  1.00  0.00     0.091 A 
ATOM     65  F   UNL A   1      46.266  28.638  24.263  1.00  0.00    -0.205 F 
ATOM     66  C   UNL A   1      49.319  26.843  25.195  1.00  0.00     0.022 A 
BRANCH  64  67
ATOM     67  S   UNL A   1      48.625  27.507  22.630  1.00  0.00     0.127 S 
ATOM     68  O   UNL A   1      49.924  28.175  22.554  1.00  0.00    -0.237 OA
ATOM     69  O   UNL A   1      48.649  26.085  22.285  1.00  0.00    -0.237 OA
ATOM     70  O   UNL A   1      47.502  28.245  22.067  1.00  0.00    -0.744 OA
ENDBRANCH  64  67
ENDBRANCH  46  60
BRANCH  47  71
ATOM     71  C   UNL A   1      38.589  30.664  30.981  1.00  0.00     0.023 A 
ATOM     72  C   UNL A   1      38.477  30.413  32.363  1.00  0.00     0.012 A 
ATOM     73  C   UNL A   1      37.545  31.336  30.319  1.00  0.00     0.148 A 
ATOM     74  C   UNL A   1      37.337  30.801  33.067  1.00  0.00     0.002 A 
ATOM     75  C   UNL A   1      36.432  31.764  31.037  1.00  0.00     0.091 A 
ATOM     76  F   UNL A   1      37.661  31.552  29.001  1.00  0.00    -0.205 F 
ATOM     77  C   UNL A   1      36.320  31.485  32.408  1.00  0.00     0.022 A 
BRANCH  75  78
ATOM     78  S   UNL A   1      35.142  32.765  30.288  1.00  0.00     0.127 S 
ATOM     79  O   UNL A   1      34.650  31.880  29.236  1.00  0.00    -0.237 OA
ATOM     80  O   UNL A   1      34.220  32.966  31.406  1.00  0.00    -0.237 OA
ATOM     81  O   UNL A   1      35.811  33.979  29.841  1.00  0.00    -0.744 OA
ENDBRANCH  75  78
ENDBRANCH  47  71
BRANCH  59  82
ATOM     82  C   UNL A   1      44.606  33.893  29.527  1.00  0.00     0.023 A 
ATOM     83  C   UNL A   1      45.345  34.109  30.707  1.00  0.00     0.012 A 
ATOM     84  C   UNL A   1      44.436  34.950  28.611  1.00  0.00     0.148 A 
ATOM     85  C   UNL A   1      45.887  35.363  30.982  1.00  0.00     0.002 A 
ATOM     86  C   UNL A   1      45.015  36.186  28.874  1.00  0.00     0.091 A 
ATOM     87  F   UNL A   1      43.710  34.731  27.505  1.00  0.00    -0.205 F 
ATOM     88  C   UNL A   1      45.734  36.397  30.062  1.00  0.00     0.022 A 
BRANCH  86  89
ATOM     89  S   UNL A   1      44.937  37.541  27.697  1.00  0.00     0.127 S 
ATOM     90  O   UNL A   1      43.533  37.506  27.291  1.00  0.00    -0.237 OA
ATOM     91  O   UNL A   1      45.305  38.697  28.517  1.00  0.00    -0.237 OA
ATOM     92  O   UNL A   1      45.904  37.214  26.656  1.00  0.00    -0.744 OA
ENDBRANCH  86  89
ENDBRANCH  59  82
ENDBRANCH  33  34
ENDBRANCH  25  28
ENDBRANCH  23  24
ENDBRANCH   1  23
TORSDOF 18
ENDMDL
