MODEL 1
REMARK VINA RESULT:     -12.9      0.000      0.000
REMARK SMILES Cc1ccc(CNc2ccc(C(=O)NCCCNC(=O)c3ccc(-c4c5nc(c(-c6cccc(S(=O)(=O)[O-])c6F)c6ccc([nH]6)c(-c6cccc(S(=O)(=O)[O-])c6F)c6nc(c(-c7cccc(S(=O)(=O)[O-])c7F)c7ccc4[nH]7)C=C6)C=C5)cc3)cc2Br)cc1
REMARK SMILES IDX 16 1 15 2 14 3 12 4 13 5 11 7 8 8 9 9 85 10 10 11 84 12
REMARK SMILES IDX 86 13 7 14 6 16 5 17 1 18 2 19 3 20 88 21 4 22 87 23 17 24
REMARK SMILES IDX 18 25 19 26 20 28 21 29 22 30 83 31 23 32 82 33 24 34 25 35
REMARK SMILES IDX 26 36 76 37 27 38 81 39 75 40 77 41 28 42 80 43 74 44 73 45
REMARK SMILES IDX 29 47 61 48 41 49 60 50 42 51 45 52 59 53 78 54 43 55 44 56
REMARK SMILES IDX 58 58 79 59 46 60 30 61 31 62 39 63 32 64 34 65 40 66 33 67
REMARK SMILES IDX 35 68 36 69 37 70 38 71 62 72 63 73 71 74 64 75 66 76 72 77
REMARK SMILES IDX 65 78 67 79 68 80 69 81 70 82 47 83 48 84 56 85 49 86 51 87
REMARK SMILES IDX 57 88 50 89 52 90 53 91 54 92 55 93
REMARK H PARENT 14 6 7 15 18 27 77 46 45 57
REMARK Flexibility Score: inf
ROOT
ATOM      1  C   UNL A   1      37.418  21.352  25.316  1.00  0.00     0.042 C 
ENDROOT
BRANCH   1   2
ATOM      2  C   UNL A   1      35.977  21.330  25.825  1.00  0.00     0.118 C 
BRANCH   2   3
ATOM      3  N   UNL A   1      35.230  20.192  25.309  1.00  0.00    -0.352 N 
ATOM      4  C   UNL A   1      34.021  20.081  24.663  1.00  0.00     0.251 C 
ATOM      5  O   UNL A   1      33.704  18.964  24.250  1.00  0.00    -0.269 OA
ATOM      6  H   UNL A   1      35.680  19.328  25.452  1.00  0.00     0.163 HD
BRANCH   4   7
ATOM      7  C   UNL A   1      33.077  21.217  24.417  1.00  0.00     0.041 A 
ATOM      8  C   UNL A   1      31.198  23.339  24.104  1.00  0.00     0.049 A 
ATOM      9  C   UNL A   1      32.075  22.989  23.082  1.00  0.00     0.028 A 
ATOM     10  C   UNL A   1      31.321  22.653  25.323  1.00  0.00     0.041 A 
ATOM     11  C   UNL A   1      32.979  21.941  23.232  1.00  0.00     0.016 A 
ATOM     12  C   UNL A   1      32.246  21.609  25.479  1.00  0.00     0.031 A 
ATOM     13  Br  UNL A   1      30.193  23.076  26.795  1.00  0.00    -0.049 Br
BRANCH   8  14
ATOM     14  N   UNL A   1      30.202  24.279  23.875  1.00  0.00    -0.380 N 
ATOM     15  H   UNL A   1      29.268  24.076  24.110  1.00  0.00     0.160 HD
BRANCH  14  16
ATOM     16  C   UNL A   1      30.544  25.566  23.289  1.00  0.00     0.148 C 
BRANCH  16  17
ATOM     17  C   UNL A   1      31.340  26.370  24.284  1.00  0.00    -0.029 A 
ATOM     18  C   UNL A   1      33.638  28.521  27.224  1.00  0.00     0.044 C 
ATOM     19  C   UNL A   1      32.833  27.804  26.183  1.00  0.00    -0.051 A 
ATOM     20  C   UNL A   1      31.517  27.428  26.463  1.00  0.00     0.004 A 
ATOM     21  C   UNL A   1      33.388  27.484  24.938  1.00  0.00     0.004 A 
ATOM     22  C   UNL A   1      30.772  26.725  25.518  1.00  0.00     0.006 A 
ATOM     23  C   UNL A   1      32.647  26.772  23.994  1.00  0.00     0.006 A 
ENDBRANCH  16  17
ENDBRANCH  14  16
ENDBRANCH   8  14
ENDBRANCH   4   7
ENDBRANCH   2   3
ENDBRANCH   1   2
BRANCH   1  24
ATOM     24  C   UNL A   1      38.163  22.628  25.641  1.00  0.00     0.118 C 
BRANCH  24  25
ATOM     25  N   UNL A   1      39.560  22.407  25.993  1.00  0.00    -0.352 N 
ATOM     26  C   UNL A   1      40.502  23.343  26.379  1.00  0.00     0.251 C 
ATOM     27  H   UNL A   1      39.872  21.475  25.951  1.00  0.00     0.163 HD
ATOM     28  O   UNL A   1      41.684  23.018  26.469  1.00  0.00    -0.269 OA
BRANCH  26  29
ATOM     29  C   UNL A   1      40.033  24.685  26.784  1.00  0.00     0.039 A 
ATOM     30  C   UNL A   1      40.669  25.791  26.211  1.00  0.00     0.014 A 
ATOM     31  C   UNL A   1      39.228  24.831  27.910  1.00  0.00     0.014 A 
ATOM     32  C   UNL A   1      40.713  26.990  26.915  1.00  0.00     0.010 A 
ATOM     33  C   UNL A   1      39.358  25.978  28.659  1.00  0.00     0.010 A 
ATOM     34  C   UNL A   1      40.150  27.029  28.185  1.00  0.00    -0.014 A 
BRANCH  34  35
ATOM     35  C   UNL A   1      40.323  28.119  29.125  1.00  0.00     0.031 A 
ATOM     36  C   UNL A   1      39.398  29.262  29.076  1.00  0.00     0.074 A 
ATOM     37  C   UNL A   1      41.193  27.962  30.145  1.00  0.00     0.049 A 
ATOM     38  N   UNL A   1      39.645  30.418  29.588  1.00  0.00    -0.248 NA
ATOM     39  C   UNL A   1      38.102  29.176  28.411  1.00  0.00     0.031 C 
ATOM     40  C   UNL A   1      41.231  28.709  31.394  1.00  0.00     0.029 A 
ATOM     41  N   UNL A   1      42.362  27.194  30.166  1.00  0.00    -0.354 N 
ATOM     42  C   UNL A   1      38.463  31.125  29.567  1.00  0.00     0.074 A 
ATOM     43  C   UNL A   1      37.554  30.342  28.763  1.00  0.00     0.031 C 
ATOM     44  C   UNL A   1      42.455  28.585  31.932  1.00  0.00     0.029 A 
ATOM     45  C   UNL A   1      43.286  27.908  30.949  1.00  0.00     0.049 A 
ATOM     46  H   UNL A   1      42.509  26.327  29.721  1.00  0.00     0.167 HD
ATOM     47  C   UNL A   1      38.312  32.211  30.376  1.00  0.00     0.034 A 
ATOM     48  C   UNL A   1      44.483  28.364  30.475  1.00  0.00     0.034 A 
ATOM     49  C   UNL A   1      39.524  32.451  31.164  1.00  0.00     0.049 A 
ATOM     50  C   UNL A   1      44.613  29.876  30.564  1.00  0.00     0.074 A 
ATOM     51  C   UNL A   1      39.908  32.040  32.430  1.00  0.00     0.029 A 
ATOM     52  N   UNL A   1      40.674  32.906  30.535  1.00  0.00    -0.354 N 
ATOM     53  N   UNL A   1      43.641  30.672  30.917  1.00  0.00    -0.248 NA
ATOM     54  C   UNL A   1      45.829  30.617  30.231  1.00  0.00     0.031 C 
ATOM     55  C   UNL A   1      41.320  32.155  32.520  1.00  0.00     0.029 A 
ATOM     56  C   UNL A   1      41.791  32.666  31.323  1.00  0.00     0.049 A 
ATOM     57  H   UNL A   1      40.695  33.339  29.650  1.00  0.00     0.167 HD
ATOM     58  C   UNL A   1      44.015  31.977  30.739  1.00  0.00     0.074 A 
ATOM     59  C   UNL A   1      45.422  31.889  30.385  1.00  0.00     0.031 C 
ATOM     60  C   UNL A   1      43.121  33.009  30.833  1.00  0.00     0.034 A 
BRANCH  47  61
ATOM     61  C   UNL A   1      36.950  32.779  30.709  1.00  0.00     0.023 A 
ATOM     62  C   UNL A   1      36.384  32.435  31.956  1.00  0.00     0.012 A 
ATOM     63  C   UNL A   1      36.154  33.567  29.849  1.00  0.00     0.148 A 
ATOM     64  C   UNL A   1      35.064  32.755  32.289  1.00  0.00     0.002 A 
ATOM     65  C   UNL A   1      34.810  33.820  30.148  1.00  0.00     0.091 A 
ATOM     66  F   UNL A   1      36.707  34.118  28.760  1.00  0.00    -0.205 F 
ATOM     67  C   UNL A   1      34.263  33.411  31.368  1.00  0.00     0.022 A 
BRANCH  65  68
ATOM     68  S   UNL A   1      33.681  34.544  28.945  1.00  0.00     0.127 S 
ATOM     69  O   UNL A   1      33.456  33.432  28.015  1.00  0.00    -0.237 OA
ATOM     70  O   UNL A   1      32.525  34.892  29.765  1.00  0.00    -0.237 OA
ATOM     71  O   UNL A   1      34.407  35.662  28.355  1.00  0.00    -0.744 OA
ENDBRANCH  65  68
ENDBRANCH  47  61
BRANCH  48  72
ATOM     72  C   UNL A   1      45.069  27.492  29.416  1.00  0.00     0.023 A 
ATOM     73  C   UNL A   1      45.395  26.167  29.801  1.00  0.00     0.012 A 
ATOM     74  C   UNL A   1      44.910  27.779  28.048  1.00  0.00     0.148 A 
ATOM     75  C   UNL A   1      45.407  25.130  28.868  1.00  0.00     0.002 A 
ATOM     76  C   UNL A   1      44.928  26.736  27.123  1.00  0.00     0.091 A 
ATOM     77  F   UNL A   1      44.657  29.043  27.684  1.00  0.00    -0.205 F 
ATOM     78  C   UNL A   1      45.133  25.408  27.536  1.00  0.00     0.022 A 
BRANCH  76  79
ATOM     79  S   UNL A   1      44.550  27.011  25.386  1.00  0.00     0.127 S 
ATOM     80  O   UNL A   1      45.817  27.541  24.892  1.00  0.00    -0.237 OA
ATOM     81  O   UNL A   1      44.225  25.663  24.920  1.00  0.00    -0.237 OA
ATOM     82  O   UNL A   1      43.421  27.929  25.393  1.00  0.00    -0.744 OA
ENDBRANCH  76  79
ENDBRANCH  48  72
BRANCH  60  83
ATOM     83  C   UNL A   1      43.396  34.446  30.443  1.00  0.00     0.023 A 
ATOM     84  C   UNL A   1      43.843  35.403  31.372  1.00  0.00     0.012 A 
ATOM     85  C   UNL A   1      43.384  34.830  29.076  1.00  0.00     0.148 A 
ATOM     86  C   UNL A   1      44.217  36.691  30.975  1.00  0.00     0.002 A 
ATOM     87  C   UNL A   1      43.866  36.072  28.677  1.00  0.00     0.091 A 
ATOM     88  F   UNL A   1      42.889  33.993  28.153  1.00  0.00    -0.205 F 
ATOM     89  C   UNL A   1      44.256  37.018  29.625  1.00  0.00     0.022 A 
BRANCH  87  90
ATOM     90  S   UNL A   1      44.162  36.423  26.937  1.00  0.00     0.127 S 
ATOM     91  O   UNL A   1      44.770  37.750  26.992  1.00  0.00    -0.237 OA
ATOM     92  O   UNL A   1      45.079  35.350  26.547  1.00  0.00    -0.237 OA
ATOM     93  O   UNL A   1      42.849  36.340  26.311  1.00  0.00    -0.744 OA
ENDBRANCH  87  90
ENDBRANCH  60  83
ENDBRANCH  34  35
ENDBRANCH  26  29
ENDBRANCH  24  25
ENDBRANCH   1  24
TORSDOF 16
ENDMDL
MODEL 2
REMARK VINA RESULT:     -12.8      1.609      1.924
REMARK SMILES Cc1ccc(CNc2ccc(C(=O)NCCCNC(=O)c3ccc(-c4c5nc(c(-c6cccc(S(=O)(=O)[O-])c6F)c6ccc([nH]6)c(-c6cccc(S(=O)(=O)[O-])c6F)c6nc(c(-c7cccc(S(=O)(=O)[O-])c7F)c7ccc4[nH]7)C=C6)C=C5)cc3)cc2Br)cc1
REMARK SMILES IDX 16 1 15 2 14 3 12 4 13 5 11 7 8 8 9 9 85 10 10 11 84 12
REMARK SMILES IDX 86 13 7 14 6 16 5 17 1 18 2 19 3 20 88 21 4 22 87 23 17 24
REMARK SMILES IDX 18 25 19 26 20 28 21 29 22 30 83 31 23 32 82 33 24 34 25 35
REMARK SMILES IDX 26 36 76 37 27 38 81 39 75 40 77 41 28 42 80 43 74 44 73 45
REMARK SMILES IDX 29 47 61 48 41 49 60 50 42 51 45 52 59 53 78 54 43 55 44 56
REMARK SMILES IDX 58 58 79 59 46 60 30 61 31 62 39 63 32 64 34 65 40 66 33 67
REMARK SMILES IDX 35 68 36 69 37 70 38 71 62 72 63 73 71 74 64 75 66 76 72 77
REMARK SMILES IDX 65 78 67 79 68 80 69 81 70 82 47 83 48 84 56 85 49 86 51 87
REMARK SMILES IDX 57 88 50 89 52 90 53 91 54 92 55 93
REMARK H PARENT 14 6 7 15 18 27 77 46 45 57
REMARK Flexibility Score: inf
ROOT
ATOM      1  C   UNL A   1      37.547  21.453  25.237  1.00  0.00     0.042 C 
ENDROOT
BRANCH   1   2
ATOM      2  C   UNL A   1      36.130  21.409  25.807  1.00  0.00     0.118 C 
BRANCH   2   3
ATOM      3  N   UNL A   1      35.364  20.287  25.287  1.00  0.00    -0.352 N 
ATOM      4  C   UNL A   1      34.136  20.195  24.673  1.00  0.00     0.251 C 
ATOM      5  O   UNL A   1      33.802  19.089  24.243  1.00  0.00    -0.269 OA
ATOM      6  H   UNL A   1      35.814  19.418  25.397  1.00  0.00     0.163 HD
BRANCH   4   7
ATOM      7  C   UNL A   1      33.190  21.340  24.481  1.00  0.00     0.041 A 
ATOM      8  C   UNL A   1      31.301  23.465  24.261  1.00  0.00     0.049 A 
ATOM      9  C   UNL A   1      32.233  23.215  23.259  1.00  0.00     0.028 A 
ATOM     10  C   UNL A   1      31.373  22.674  25.419  1.00  0.00     0.041 A 
ATOM     11  C   UNL A   1      33.142  22.166  23.361  1.00  0.00     0.016 A 
ATOM     12  C   UNL A   1      32.303  21.629  25.529  1.00  0.00     0.031 A 
ATOM     13  Br  UNL A   1      30.167  22.954  26.864  1.00  0.00    -0.049 Br
BRANCH   8  14
ATOM     14  N   UNL A   1      30.306  24.412  24.066  1.00  0.00    -0.380 N 
ATOM     15  H   UNL A   1      29.381  24.222  24.346  1.00  0.00     0.160 HD
BRANCH  14  16
ATOM     16  C   UNL A   1      30.633  25.688  23.448  1.00  0.00     0.148 C 
BRANCH  16  17
ATOM     17  C   UNL A   1      31.443  26.514  24.413  1.00  0.00    -0.029 A 
ATOM     18  C   UNL A   1      33.814  28.727  27.248  1.00  0.00     0.044 C 
ATOM     19  C   UNL A   1      32.978  27.989  26.247  1.00  0.00    -0.051 A 
ATOM     20  C   UNL A   1      31.775  27.402  26.649  1.00  0.00     0.004 A 
ATOM     21  C   UNL A   1      33.394  27.859  24.917  1.00  0.00     0.004 A 
ATOM     22  C   UNL A   1      31.009  26.678  25.738  1.00  0.00     0.006 A 
ATOM     23  C   UNL A   1      32.632  27.127  24.005  1.00  0.00     0.006 A 
ENDBRANCH  16  17
ENDBRANCH  14  16
ENDBRANCH   8  14
ENDBRANCH   4   7
ENDBRANCH   2   3
ENDBRANCH   1   2
BRANCH   1  24
ATOM     24  C   UNL A   1      38.302  22.722  25.570  1.00  0.00     0.118 C 
BRANCH  24  25
ATOM     25  N   UNL A   1      39.481  22.492  26.395  1.00  0.00    -0.352 N 
ATOM     26  C   UNL A   1      40.256  23.427  27.056  1.00  0.00     0.251 C 
ATOM     27  H   UNL A   1      39.760  21.554  26.496  1.00  0.00     0.163 HD
ATOM     28  O   UNL A   1      41.323  23.087  27.565  1.00  0.00    -0.269 OA
BRANCH  26  29
ATOM     29  C   UNL A   1      39.717  24.793  27.226  1.00  0.00     0.039 A 
ATOM     30  C   UNL A   1      40.295  25.816  26.468  1.00  0.00     0.014 A 
ATOM     31  C   UNL A   1      38.902  25.089  28.316  1.00  0.00     0.014 A 
ATOM     32  C   UNL A   1      40.274  27.118  26.954  1.00  0.00     0.010 A 
ATOM     33  C   UNL A   1      38.969  26.352  28.856  1.00  0.00     0.010 A 
ATOM     34  C   UNL A   1      39.706  27.346  28.202  1.00  0.00    -0.014 A 
BRANCH  34  35
ATOM     35  C   UNL A   1      39.820  28.589  28.939  1.00  0.00     0.031 A 
ATOM     36  C   UNL A   1      38.837  29.658  28.698  1.00  0.00     0.074 A 
ATOM     37  C   UNL A   1      40.692  28.655  29.968  1.00  0.00     0.049 A 
ATOM     38  N   UNL A   1      39.024  30.896  29.002  1.00  0.00    -0.248 NA
ATOM     39  C   UNL A   1      37.551  29.393  28.064  1.00  0.00     0.031 C 
ATOM     40  C   UNL A   1      40.686  29.607  31.069  1.00  0.00     0.029 A 
ATOM     41  N   UNL A   1      41.899  27.962  30.115  1.00  0.00    -0.354 N 
ATOM     42  C   UNL A   1      37.807  31.528  28.865  1.00  0.00     0.074 A 
ATOM     43  C   UNL A   1      36.943  30.572  28.211  1.00  0.00     0.031 C 
ATOM     44  C   UNL A   1      41.912  29.640  31.615  1.00  0.00     0.029 A 
ATOM     45  C   UNL A   1      42.781  28.847  30.760  1.00  0.00     0.049 A 
ATOM     46  H   UNL A   1      42.091  27.041  29.826  1.00  0.00     0.167 HD
ATOM     47  C   UNL A   1      37.597  32.727  29.474  1.00  0.00     0.034 A 
ATOM     48  C   UNL A   1      43.955  29.275  30.210  1.00  0.00     0.034 A 
ATOM     49  C   UNL A   1      38.792  33.161  30.204  1.00  0.00     0.049 A 
ATOM     50  C   UNL A   1      44.008  30.784  30.035  1.00  0.00     0.074 A 
ATOM     51  C   UNL A   1      39.191  32.995  31.520  1.00  0.00     0.029 A 
ATOM     52  N   UNL A   1      39.920  33.559  29.501  1.00  0.00    -0.354 N 
ATOM     53  N   UNL A   1      42.995  31.579  30.250  1.00  0.00    -0.248 NA
ATOM     54  C   UNL A   1      45.186  31.517  29.575  1.00  0.00     0.031 C 
ATOM     55  C   UNL A   1      40.595  33.195  31.583  1.00  0.00     0.029 A 
ATOM     56  C   UNL A   1      41.044  33.516  30.314  1.00  0.00     0.049 A 
ATOM     57  H   UNL A   1      39.923  33.834  28.555  1.00  0.00     0.167 HD
ATOM     58  C   UNL A   1      43.303  32.850  29.848  1.00  0.00     0.074 A 
ATOM     59  C   UNL A   1      44.714  32.775  29.508  1.00  0.00     0.031 C 
ATOM     60  C   UNL A   1      42.358  33.836  29.766  1.00  0.00     0.034 A 
BRANCH  47  61
ATOM     61  C   UNL A   1      36.207  33.274  29.711  1.00  0.00     0.023 A 
ATOM     62  C   UNL A   1      35.532  33.848  28.612  1.00  0.00     0.012 A 
ATOM     63  C   UNL A   1      35.547  33.333  30.959  1.00  0.00     0.148 A 
ATOM     64  C   UNL A   1      34.326  34.541  28.756  1.00  0.00     0.002 A 
ATOM     65  C   UNL A   1      34.382  34.091  31.118  1.00  0.00     0.091 A 
ATOM     66  F   UNL A   1      36.017  32.614  31.987  1.00  0.00    -0.205 F 
ATOM     67  C   UNL A   1      33.771  34.698  30.016  1.00  0.00     0.022 A 
BRANCH  65  68
ATOM     68  S   UNL A   1      33.686  34.449  32.741  1.00  0.00     0.127 S 
ATOM     69  O   UNL A   1      33.351  33.113  33.242  1.00  0.00    -0.237 OA
ATOM     70  O   UNL A   1      34.801  35.092  33.429  1.00  0.00    -0.237 OA
ATOM     71  O   UNL A   1      32.521  35.288  32.487  1.00  0.00    -0.744 OA
ENDBRANCH  65  68
ENDBRANCH  47  61
BRANCH  48  72
ATOM     72  C   UNL A   1      44.590  28.263  29.314  1.00  0.00     0.023 A 
ATOM     73  C   UNL A   1      44.911  27.015  29.903  1.00  0.00     0.012 A 
ATOM     74  C   UNL A   1      44.484  28.345  27.914  1.00  0.00     0.148 A 
ATOM     75  C   UNL A   1      44.967  25.852  29.135  1.00  0.00     0.002 A 
ATOM     76  C   UNL A   1      44.547  27.176  27.154  1.00  0.00     0.091 A 
ATOM     77  F   UNL A   1      44.236  29.537  27.357  1.00  0.00    -0.205 F 
ATOM     78  C   UNL A   1      44.745  25.927  27.766  1.00  0.00     0.022 A 
BRANCH  76  79
ATOM     79  S   UNL A   1      44.236  27.187  25.383  1.00  0.00     0.127 S 
ATOM     80  O   UNL A   1      45.424  27.872  24.882  1.00  0.00    -0.237 OA
ATOM     81  O   UNL A   1      44.172  25.760  25.068  1.00  0.00    -0.237 OA
ATOM     82  O   UNL A   1      42.970  27.889  25.232  1.00  0.00    -0.744 OA
ENDBRANCH  76  79
ENDBRANCH  48  72
BRANCH  60  83
ATOM     83  C   UNL A   1      42.561  35.196  29.134  1.00  0.00     0.023 A 
ATOM     84  C   UNL A   1      41.823  35.621  28.014  1.00  0.00     0.012 A 
ATOM     85  C   UNL A   1      43.383  36.164  29.769  1.00  0.00     0.148 A 
ATOM     86  C   UNL A   1      41.928  36.925  27.518  1.00  0.00     0.002 A 
ATOM     87  C   UNL A   1      43.393  37.488  29.343  1.00  0.00     0.091 A 
ATOM     88  F   UNL A   1      44.174  35.800  30.789  1.00  0.00    -0.205 F 
ATOM     89  C   UNL A   1      42.690  37.867  28.199  1.00  0.00     0.022 A 
BRANCH  87  90
ATOM     90  S   UNL A   1      44.163  38.768  30.345  1.00  0.00     0.127 S 
ATOM     91  O   UNL A   1      43.745  38.395  31.693  1.00  0.00    -0.237 OA
ATOM     92  O   UNL A   1      45.588  38.570  30.073  1.00  0.00    -0.237 OA
ATOM     93  O   UNL A   1      43.628  40.020  29.826  1.00  0.00    -0.744 OA
ENDBRANCH  87  90
ENDBRANCH  60  83
ENDBRANCH  34  35
ENDBRANCH  26  29
ENDBRANCH  24  25
ENDBRANCH   1  24
TORSDOF 16
ENDMDL
MODEL 3
REMARK VINA RESULT:     -12.7      4.068      9.372
REMARK SMILES Cc1ccc(CNc2ccc(C(=O)NCCCNC(=O)c3ccc(-c4c5nc(c(-c6cccc(S(=O)(=O)[O-])c6F)c6ccc([nH]6)c(-c6cccc(S(=O)(=O)[O-])c6F)c6nc(c(-c7cccc(S(=O)(=O)[O-])c7F)c7ccc4[nH]7)C=C6)C=C5)cc3)cc2Br)cc1
REMARK SMILES IDX 16 1 15 2 14 3 12 4 13 5 11 7 8 8 9 9 85 10 10 11 84 12
REMARK SMILES IDX 86 13 7 14 6 16 5 17 1 18 2 19 3 20 88 21 4 22 87 23 17 24
REMARK SMILES IDX 18 25 19 26 20 28 21 29 22 30 83 31 23 32 82 33 24 34 25 35
REMARK SMILES IDX 26 36 76 37 27 38 81 39 75 40 77 41 28 42 80 43 74 44 73 45
REMARK SMILES IDX 29 47 61 48 41 49 60 50 42 51 45 52 59 53 78 54 43 55 44 56
REMARK SMILES IDX 58 58 79 59 46 60 30 61 31 62 39 63 32 64 34 65 40 66 33 67
REMARK SMILES IDX 35 68 36 69 37 70 38 71 62 72 63 73 71 74 64 75 66 76 72 77
REMARK SMILES IDX 65 78 67 79 68 80 69 81 70 82 47 83 48 84 56 85 49 86 51 87
REMARK SMILES IDX 57 88 50 89 52 90 53 91 54 92 55 93
REMARK H PARENT 14 6 7 15 18 27 77 46 45 57
REMARK Flexibility Score: inf
ROOT
ATOM      1  C   UNL A   1      33.003  30.134  26.159  1.00  0.00     0.042 C 
ENDROOT
BRANCH   1   2
ATOM      2  C   UNL A   1      31.516  29.803  26.034  1.00  0.00     0.118 C 
BRANCH   2   3
ATOM      3  N   UNL A   1      30.980  30.168  24.731  1.00  0.00    -0.352 N 
ATOM      4  C   UNL A   1      30.560  29.427  23.651  1.00  0.00     0.251 C 
ATOM      5  O   UNL A   1      30.047  30.041  22.713  1.00  0.00    -0.269 OA
ATOM      6  H   UNL A   1      30.903  31.140  24.595  1.00  0.00     0.163 HD
BRANCH   4   7
ATOM      7  C   UNL A   1      30.670  27.938  23.542  1.00  0.00     0.041 A 
ATOM      8  C   UNL A   1      30.961  25.125  23.176  1.00  0.00     0.049 A 
ATOM      9  C   UNL A   1      30.207  25.647  24.222  1.00  0.00     0.028 A 
ATOM     10  C   UNL A   1      31.634  26.038  22.348  1.00  0.00     0.041 A 
ATOM     11  C   UNL A   1      30.052  27.021  24.387  1.00  0.00     0.016 A 
ATOM     12  C   UNL A   1      31.493  27.423  22.528  1.00  0.00     0.031 A 
ATOM     13  Br  UNL A   1      32.720  25.429  20.910  1.00  0.00    -0.049 Br
BRANCH   8  14
ATOM     14  N   UNL A   1      30.971  23.757  22.939  1.00  0.00    -0.380 N 
ATOM     15  H   UNL A   1      30.713  23.407  22.056  1.00  0.00     0.160 HD
BRANCH  14  16
ATOM     16  C   UNL A   1      31.364  22.842  24.000  1.00  0.00     0.148 C 
BRANCH  16  17
ATOM     17  C   UNL A   1      32.816  23.064  24.334  1.00  0.00    -0.029 A 
ATOM     18  C   UNL A   1      36.967  23.838  25.185  1.00  0.00     0.044 C 
ATOM     19  C   UNL A   1      35.524  23.538  24.911  1.00  0.00    -0.051 A 
ATOM     20  C   UNL A   1      35.153  22.994  23.678  1.00  0.00     0.004 A 
ATOM     21  C   UNL A   1      34.537  23.817  25.862  1.00  0.00     0.004 A 
ATOM     22  C   UNL A   1      33.811  22.750  23.395  1.00  0.00     0.006 A 
ATOM     23  C   UNL A   1      33.192  23.581  25.577  1.00  0.00     0.006 A 
ENDBRANCH  16  17
ENDBRANCH  14  16
ENDBRANCH   8  14
ENDBRANCH   4   7
ENDBRANCH   2   3
ENDBRANCH   1   2
BRANCH   1  24
ATOM     24  C   UNL A   1      33.560  29.937  27.552  1.00  0.00     0.118 C 
BRANCH  24  25
ATOM     25  N   UNL A   1      34.178  31.137  28.102  1.00  0.00    -0.352 N 
ATOM     26  C   UNL A   1      35.385  31.249  28.767  1.00  0.00     0.251 C 
ATOM     27  H   UNL A   1      33.672  31.974  27.985  1.00  0.00     0.163 HD
ATOM     28  O   UNL A   1      35.680  32.304  29.325  1.00  0.00    -0.269 OA
BRANCH  26  29
ATOM     29  C   UNL A   1      36.337  30.121  28.687  1.00  0.00     0.039 A 
ATOM     30  C   UNL A   1      36.699  29.495  29.884  1.00  0.00     0.014 A 
ATOM     31  C   UNL A   1      37.074  29.913  27.524  1.00  0.00     0.014 A 
ATOM     32  C   UNL A   1      37.940  28.875  29.979  1.00  0.00     0.010 A 
ATOM     33  C   UNL A   1      38.343  29.398  27.641  1.00  0.00     0.010 A 
ATOM     34  C   UNL A   1      38.793  28.937  28.883  1.00  0.00    -0.014 A 
BRANCH  34  35
ATOM     35  C   UNL A   1      40.191  28.553  28.909  1.00  0.00     0.031 A 
ATOM     36  C   UNL A   1      40.553  27.147  28.671  1.00  0.00     0.074 A 
ATOM     37  C   UNL A   1      41.128  29.524  28.946  1.00  0.00     0.049 A 
ATOM     38  N   UNL A   1      41.677  26.620  29.012  1.00  0.00    -0.248 NA
ATOM     39  C   UNL A   1      39.633  26.213  28.030  1.00  0.00     0.031 C 
ATOM     40  C   UNL A   1      42.531  29.409  28.574  1.00  0.00     0.029 A 
ATOM     41  N   UNL A   1      41.026  30.794  29.523  1.00  0.00    -0.354 N 
ATOM     42  C   UNL A   1      41.741  25.386  28.402  1.00  0.00     0.074 A 
ATOM     43  C   UNL A   1      40.421  25.148  27.865  1.00  0.00     0.031 C 
ATOM     44  C   UNL A   1      43.212  30.411  29.152  1.00  0.00     0.029 A 
ATOM     45  C   UNL A   1      42.294  31.085  30.056  1.00  0.00     0.049 A 
ATOM     46  H   UNL A   1      40.227  31.369  29.550  1.00  0.00     0.167 HD
ATOM     47  C   UNL A   1      42.945  24.767  28.255  1.00  0.00     0.034 A 
ATOM     48  C   UNL A   1      42.519  31.318  31.383  1.00  0.00     0.034 A 
ATOM     49  C   UNL A   1      44.025  25.578  28.824  1.00  0.00     0.049 A 
ATOM     50  C   UNL A   1      43.488  30.323  32.000  1.00  0.00     0.074 A 
ATOM     51  C   UNL A   1      44.874  26.521  28.268  1.00  0.00     0.029 A 
ATOM     52  N   UNL A   1      44.116  25.734  30.200  1.00  0.00    -0.354 N 
ATOM     53  N   UNL A   1      43.949  29.273  31.378  1.00  0.00    -0.248 NA
ATOM     54  C   UNL A   1      43.990  30.407  33.371  1.00  0.00     0.031 C 
ATOM     55  C   UNL A   1      45.397  27.317  29.320  1.00  0.00     0.029 A 
ATOM     56  C   UNL A   1      44.895  26.838  30.518  1.00  0.00     0.049 A 
ATOM     57  H   UNL A   1      43.687  25.142  30.861  1.00  0.00     0.167 HD
ATOM     58  C   UNL A   1      44.661  28.489  32.244  1.00  0.00     0.074 A 
ATOM     59  C   UNL A   1      44.725  29.284  33.459  1.00  0.00     0.031 C 
ATOM     60  C   UNL A   1      45.079  27.229  31.911  1.00  0.00     0.034 A 
BRANCH  47  61
ATOM     61  C   UNL A   1      43.153  23.642  27.266  1.00  0.00     0.023 A 
ATOM     62  C   UNL A   1      43.806  23.947  26.053  1.00  0.00     0.012 A 
ATOM     63  C   UNL A   1      42.683  22.318  27.414  1.00  0.00     0.148 A 
ATOM     64  C   UNL A   1      43.891  23.032  24.999  1.00  0.00     0.002 A 
ATOM     65  C   UNL A   1      42.696  21.428  26.334  1.00  0.00     0.091 A 
ATOM     66  F   UNL A   1      42.264  21.898  28.615  1.00  0.00    -0.205 F 
ATOM     67  C   UNL A   1      43.299  21.785  25.124  1.00  0.00     0.022 A 
BRANCH  65  68
ATOM     68  S   UNL A   1      41.829  19.849  26.383  1.00  0.00     0.127 S 
ATOM     69  O   UNL A   1      42.314  19.186  25.168  1.00  0.00    -0.237 OA
ATOM     70  O   UNL A   1      42.311  19.260  27.628  1.00  0.00    -0.237 OA
ATOM     71  O   UNL A   1      40.410  20.185  26.340  1.00  0.00    -0.744 OA
ENDBRANCH  65  68
ENDBRANCH  47  61
BRANCH  48  72
ATOM     72  C   UNL A   1      41.362  31.962  32.073  1.00  0.00     0.023 A 
ATOM     73  C   UNL A   1      40.977  33.240  31.596  1.00  0.00     0.012 A 
ATOM     74  C   UNL A   1      40.439  31.214  32.824  1.00  0.00     0.148 A 
ATOM     75  C   UNL A   1      39.664  33.691  31.727  1.00  0.00     0.002 A 
ATOM     76  C   UNL A   1      39.129  31.675  32.955  1.00  0.00     0.091 A 
ATOM     77  F   UNL A   1      40.824  30.031  33.321  1.00  0.00    -0.205 F 
ATOM     78  C   UNL A   1      38.730  32.890  32.371  1.00  0.00     0.022 A 
BRANCH  76  79
ATOM     79  S   UNL A   1      37.854  30.682  33.744  1.00  0.00     0.127 S 
ATOM     80  O   UNL A   1      36.664  31.097  33.009  1.00  0.00    -0.237 OA
ATOM     81  O   UNL A   1      38.303  29.318  33.466  1.00  0.00    -0.237 OA
ATOM     82  O   UNL A   1      37.912  31.054  35.150  1.00  0.00    -0.744 OA
ENDBRANCH  76  79
ENDBRANCH  48  72
BRANCH  60  83
ATOM     83  C   UNL A   1      45.676  26.220  32.868  1.00  0.00     0.023 A 
ATOM     84  C   UNL A   1      47.065  26.076  33.036  1.00  0.00     0.012 A 
ATOM     85  C   UNL A   1      44.840  25.507  33.768  1.00  0.00     0.148 A 
ATOM     86  C   UNL A   1      47.602  25.233  34.016  1.00  0.00     0.002 A 
ATOM     87  C   UNL A   1      45.380  24.764  34.812  1.00  0.00     0.091 A 
ATOM     88  F   UNL A   1      43.509  25.536  33.606  1.00  0.00    -0.205 F 
ATOM     89  C   UNL A   1      46.761  24.599  34.922  1.00  0.00     0.022 A 
BRANCH  87  90
ATOM     90  S   UNL A   1      44.330  24.146  36.136  1.00  0.00     0.127 S 
ATOM     91  O   UNL A   1      45.296  23.484  37.009  1.00  0.00    -0.237 OA
ATOM     92  O   UNL A   1      43.756  25.375  36.686  1.00  0.00    -0.237 OA
ATOM     93  O   UNL A   1      43.362  23.283  35.472  1.00  0.00    -0.744 OA
ENDBRANCH  87  90
ENDBRANCH  60  83
ENDBRANCH  34  35
ENDBRANCH  26  29
ENDBRANCH  24  25
ENDBRANCH   1  24
TORSDOF 16
ENDMDL
