MODEL 1
REMARK VINA RESULT:     -12.6      0.000      0.000
REMARK SMILES O=C(NCCCNC(=O)[C@H]1CCCC[N@H+]1Cc1ccc(F)cc1Cl)c1ccc(-c2c3nc(c(-c4cccc(S(=O)(=O)[O-])c4F)c4ccc([nH]4)c(-c4cccc(S(=O)(=O)[O-])c4F)c4nc(c(-c5cccc(S(=O)(=O)[O-])c5F)c5ccc2[nH]5)C=C4)C=C3)cc1
REMARK SMILES IDX 4 1 3 2 1 3 2 4 25 6 26 7 87 8 27 9 86 10 28 11 29 12 30 13
REMARK SMILES IDX 80 14 31 15 85 16 79 17 81 18 32 19 84 20 78 21 77 22 33 24
REMARK SMILES IDX 65 25 45 26 64 27 46 28 49 29 63 30 82 31 47 32 48 33 62 35
REMARK SMILES IDX 83 36 50 37 34 38 35 39 43 40 36 41 38 42 44 43 37 44 39 45
REMARK SMILES IDX 40 46 41 47 42 48 66 49 67 50 75 51 68 52 70 53 76 54 69 55
REMARK SMILES IDX 71 56 72 57 73 58 74 59 51 60 52 61 60 62 53 63 55 64 61 65
REMARK SMILES IDX 54 66 56 67 57 68 58 69 59 70 5 71 6 72 7 73 8 74 9 76 10 77
REMARK SMILES IDX 11 78 15 79 12 80 14 81 13 83 16 84 17 85 18 86 23 87 19 88
REMARK SMILES IDX 22 89 24 90 20 91 21 92
REMARK H PARENT 3 5 81 23 49 34 7 75 15 82
REMARK Flexibility Score: inf
ROOT
ATOM      1  C   UNL A   1      35.523  22.141  26.531  1.00  0.00     0.118 C 
ENDROOT
BRANCH   1   2
ATOM      2  N   UNL A   1      36.426  21.160  25.942  1.00  0.00    -0.352 N 
ATOM      3  O   UNL A   1      38.265  20.349  24.939  1.00  0.00    -0.269 OA
ATOM      4  C   UNL A   1      37.769  21.228  25.645  1.00  0.00     0.251 C 
ATOM      5  H   UNL A   1      36.002  20.300  25.717  1.00  0.00     0.163 HD
BRANCH   4   6
ATOM      6  C   UNL A   1      38.605  22.353  26.128  1.00  0.00     0.039 A 
ATOM      7  C   UNL A   1      38.186  23.667  25.965  1.00  0.00     0.014 A 
ATOM      8  C   UNL A   1      39.809  22.101  26.798  1.00  0.00     0.014 A 
ATOM      9  C   UNL A   1      39.044  24.715  26.251  1.00  0.00     0.010 A 
ATOM     10  C   UNL A   1      40.602  23.169  27.246  1.00  0.00     0.010 A 
ATOM     11  C   UNL A   1      40.241  24.490  26.948  1.00  0.00    -0.014 A 
BRANCH  11  12
ATOM     12  C   UNL A   1      40.992  25.682  27.432  1.00  0.00     0.031 A 
ATOM     13  C   UNL A   1      42.399  25.976  26.993  1.00  0.00     0.074 A 
ATOM     14  C   UNL A   1      40.337  26.556  28.228  1.00  0.00     0.049 A 
ATOM     15  N   UNL A   1      43.129  27.032  27.247  1.00  0.00    -0.248 NA
ATOM     16  C   UNL A   1      43.087  24.959  26.182  1.00  0.00     0.031 C 
ATOM     17  C   UNL A   1      38.991  26.346  28.774  1.00  0.00     0.029 A 
ATOM     18  N   UNL A   1      40.680  27.803  28.683  1.00  0.00    -0.354 N 
ATOM     19  C   UNL A   1      44.369  26.795  26.666  1.00  0.00     0.074 A 
ATOM     20  C   UNL A   1      44.297  25.488  26.049  1.00  0.00     0.031 C 
ATOM     21  C   UNL A   1      38.589  27.454  29.406  1.00  0.00     0.029 A 
ATOM     22  C   UNL A   1      39.676  28.422  29.395  1.00  0.00     0.049 A 
ATOM     23  H   UNL A   1      41.558  28.216  28.517  1.00  0.00     0.167 HD
ATOM     24  C   UNL A   1      45.458  27.600  26.639  1.00  0.00     0.034 A 
ATOM     25  C   UNL A   1      39.632  29.630  29.988  1.00  0.00     0.034 A 
ATOM     26  C   UNL A   1      45.506  28.915  27.224  1.00  0.00     0.049 A 
ATOM     27  C   UNL A   1      40.832  30.521  29.883  1.00  0.00     0.074 A 
ATOM     28  C   UNL A   1      46.556  29.819  27.225  1.00  0.00     0.029 A 
ATOM     29  N   UNL A   1      44.462  29.521  27.906  1.00  0.00    -0.354 N 
ATOM     30  N   UNL A   1      41.959  30.310  29.246  1.00  0.00    -0.248 NA
ATOM     31  C   UNL A   1      40.755  31.820  30.562  1.00  0.00     0.031 C 
ATOM     32  C   UNL A   1      46.148  30.965  27.915  1.00  0.00     0.029 A 
ATOM     33  C   UNL A   1      44.839  30.785  28.329  1.00  0.00     0.049 A 
ATOM     34  H   UNL A   1      43.580  29.113  28.066  1.00  0.00     0.167 HD
ATOM     35  C   UNL A   1      42.726  31.448  29.449  1.00  0.00     0.074 A 
ATOM     36  C   UNL A   1      41.912  32.367  30.220  1.00  0.00     0.031 C 
ATOM     37  C   UNL A   1      44.001  31.698  29.065  1.00  0.00     0.034 A 
BRANCH  24  38
ATOM     38  C   UNL A   1      46.685  27.105  25.915  1.00  0.00     0.023 A 
ATOM     39  C   UNL A   1      47.487  26.112  26.511  1.00  0.00     0.012 A 
ATOM     40  C   UNL A   1      46.996  27.555  24.616  1.00  0.00     0.148 A 
ATOM     41  C   UNL A   1      48.590  25.588  25.836  1.00  0.00     0.002 A 
ATOM     42  C   UNL A   1      48.074  27.000  23.933  1.00  0.00     0.091 A 
ATOM     43  F   UNL A   1      46.232  28.512  24.071  1.00  0.00    -0.205 F 
ATOM     44  C   UNL A   1      48.876  26.022  24.546  1.00  0.00     0.022 A 
BRANCH  42  45
ATOM     45  S   UNL A   1      48.485  27.438  22.240  1.00  0.00     0.127 S 
ATOM     46  O   UNL A   1      49.687  28.248  22.429  1.00  0.00    -0.237 OA
ATOM     47  O   UNL A   1      48.723  26.127  21.632  1.00  0.00    -0.237 OA
ATOM     48  O   UNL A   1      47.329  28.151  21.716  1.00  0.00    -0.744 OA
ENDBRANCH  42  45
ENDBRANCH  24  38
BRANCH  25  49
ATOM     49  C   UNL A   1      38.401  30.057  30.713  1.00  0.00     0.023 A 
ATOM     50  C   UNL A   1      38.244  29.745  32.077  1.00  0.00     0.012 A 
ATOM     51  C   UNL A   1      37.408  30.819  30.067  1.00  0.00     0.148 A 
ATOM     52  C   UNL A   1      37.110  30.165  32.776  1.00  0.00     0.002 A 
ATOM     53  C   UNL A   1      36.320  31.297  30.787  1.00  0.00     0.091 A 
ATOM     54  F   UNL A   1      37.557  31.086  28.761  1.00  0.00    -0.205 F 
ATOM     55  C   UNL A   1      36.157  30.955  32.136  1.00  0.00     0.022 A 
BRANCH  53  56
ATOM     56  S   UNL A   1      35.160  32.463  30.064  1.00  0.00     0.127 S 
ATOM     57  O   UNL A   1      34.259  32.724  31.182  1.00  0.00    -0.237 OA
ATOM     58  O   UNL A   1      36.030  33.581  29.697  1.00  0.00    -0.237 OA
ATOM     59  O   UNL A   1      34.585  31.763  28.922  1.00  0.00    -0.744 OA
ENDBRANCH  53  56
ENDBRANCH  25  49
BRANCH  37  60
ATOM     60  C   UNL A   1      44.587  33.020  29.479  1.00  0.00     0.023 A 
ATOM     61  C   UNL A   1      45.319  33.106  30.681  1.00  0.00     0.012 A 
ATOM     62  C   UNL A   1      44.439  34.164  28.673  1.00  0.00     0.148 A 
ATOM     63  C   UNL A   1      45.857  34.323  31.097  1.00  0.00     0.002 A 
ATOM     64  C   UNL A   1      45.018  35.362  29.071  1.00  0.00     0.091 A 
ATOM     65  F   UNL A   1      43.720  34.066  27.546  1.00  0.00    -0.205 F 
ATOM     66  C   UNL A   1      45.715  35.447  30.287  1.00  0.00     0.022 A 
BRANCH  64  67
ATOM     67  S   UNL A   1      44.955  36.838  28.049  1.00  0.00     0.127 S 
ATOM     68  O   UNL A   1      45.932  37.701  28.709  1.00  0.00    -0.237 OA
ATOM     69  O   UNL A   1      45.374  36.331  26.740  1.00  0.00    -0.237 OA
ATOM     70  O   UNL A   1      43.573  37.295  28.100  1.00  0.00    -0.744 OA
ENDBRANCH  64  67
ENDBRANCH  37  60
ENDBRANCH  11  12
ENDBRANCH   4   6
ENDBRANCH   1   2
BRANCH   1  71
ATOM     71  C   UNL A   1      34.377  21.494  27.295  1.00  0.00     0.042 C 
BRANCH  71  72
ATOM     72  C   UNL A   1      33.495  22.519  27.997  1.00  0.00     0.118 C 
BRANCH  72  73
ATOM     73  N   UNL A   1      32.191  22.634  27.367  1.00  0.00    -0.351 N 
ATOM     74  C   UNL A   1      31.813  23.679  26.577  1.00  0.00     0.278 C 
ATOM     75  H   UNL A   1      31.540  21.912  27.521  1.00  0.00     0.163 HD
ATOM     76  O   UNL A   1      30.914  24.414  26.999  1.00  0.00    -0.268 OA
BRANCH  74  77
ATOM     77  C   UNL A   1      32.380  23.853  25.152  1.00  0.00     0.274 C 
ATOM     78  C   UNL A   1      31.728  22.989  24.060  1.00  0.00     0.076 C 
ATOM     79  N   UNL A   1      32.513  25.261  24.730  1.00  0.00    -0.321 N 
ATOM     80  C   UNL A   1      30.568  23.633  23.299  1.00  0.00     0.012 C 
ATOM     81  C   UNL A   1      31.309  25.874  24.206  1.00  0.00     0.263 C 
ATOM     82  H   UNL A   1      33.085  25.137  23.894  1.00  0.00     0.349 HD
ATOM     83  C   UNL A   1      30.814  25.098  22.989  1.00  0.00     0.062 C 
BRANCH  79  84
ATOM     84  C   UNL A   1      33.453  26.131  25.444  1.00  0.00     0.301 C 
BRANCH  84  85
ATOM     85  C   UNL A   1      33.012  27.539  25.803  1.00  0.00     0.025 A 
ATOM     86  C   UNL A   1      32.435  27.763  27.069  1.00  0.00     0.014 A 
ATOM     87  C   UNL A   1      33.192  28.657  24.967  1.00  0.00     0.052 A 
ATOM     88  C   UNL A   1      31.955  29.018  27.442  1.00  0.00     0.040 A 
ATOM     89  C   UNL A   1      32.712  29.918  25.341  1.00  0.00     0.060 A 
ATOM     90  Cl  UNL A   1      34.080  28.590  23.486  1.00  0.00    -0.084 Cl
ATOM     91  C   UNL A   1      32.084  30.081  26.566  1.00  0.00     0.124 A 
ATOM     92  F   UNL A   1      31.620  31.288  26.915  1.00  0.00    -0.207 F 
ENDBRANCH  84  85
ENDBRANCH  79  84
ENDBRANCH  74  77
ENDBRANCH  72  73
ENDBRANCH  71  72
ENDBRANCH   1  71
TORSDOF 15
ENDMDL
MODEL 2
REMARK VINA RESULT:     -12.5      5.477     10.085
REMARK SMILES O=C(NCCCNC(=O)[C@H]1CCCC[N@H+]1Cc1ccc(F)cc1Cl)c1ccc(-c2c3nc(c(-c4cccc(S(=O)(=O)[O-])c4F)c4ccc([nH]4)c(-c4cccc(S(=O)(=O)[O-])c4F)c4nc(c(-c5cccc(S(=O)(=O)[O-])c5F)c5ccc2[nH]5)C=C4)C=C3)cc1
REMARK SMILES IDX 4 1 3 2 1 3 2 4 25 6 26 7 87 8 27 9 86 10 28 11 29 12 30 13
REMARK SMILES IDX 80 14 31 15 85 16 79 17 81 18 32 19 84 20 78 21 77 22 33 24
REMARK SMILES IDX 65 25 45 26 64 27 46 28 49 29 63 30 82 31 47 32 48 33 62 35
REMARK SMILES IDX 83 36 50 37 34 38 35 39 43 40 36 41 38 42 44 43 37 44 39 45
REMARK SMILES IDX 40 46 41 47 42 48 66 49 67 50 75 51 68 52 70 53 76 54 69 55
REMARK SMILES IDX 71 56 72 57 73 58 74 59 51 60 52 61 60 62 53 63 55 64 61 65
REMARK SMILES IDX 54 66 56 67 57 68 58 69 59 70 5 71 6 72 7 73 8 74 9 76 10 77
REMARK SMILES IDX 11 78 15 79 12 80 14 81 13 83 16 84 17 85 18 86 23 87 19 88
REMARK SMILES IDX 22 89 24 90 20 91 21 92
REMARK H PARENT 3 5 81 23 49 34 7 75 15 82
REMARK Flexibility Score: inf
ROOT
ATOM      1  C   UNL A   1      33.676  29.190  24.775  1.00  0.00     0.118 C 
ENDROOT
BRANCH   1   2
ATOM      2  N   UNL A   1      32.908  30.230  25.448  1.00  0.00    -0.352 N 
ATOM      3  O   UNL A   1      32.190  31.544  27.122  1.00  0.00    -0.269 OA
ATOM      4  C   UNL A   1      33.102  30.858  26.659  1.00  0.00     0.251 C 
ATOM      5  H   UNL A   1      32.114  30.535  24.953  1.00  0.00     0.163 HD
BRANCH   4   6
ATOM      6  C   UNL A   1      34.363  30.687  27.418  1.00  0.00     0.039 A 
ATOM      7  C   UNL A   1      34.739  29.437  27.894  1.00  0.00     0.014 A 
ATOM      8  C   UNL A   1      35.215  31.779  27.626  1.00  0.00     0.014 A 
ATOM      9  C   UNL A   1      35.819  29.312  28.752  1.00  0.00     0.010 A 
ATOM     10  C   UNL A   1      36.405  31.615  28.353  1.00  0.00     0.010 A 
ATOM     11  C   UNL A   1      36.704  30.383  28.951  1.00  0.00    -0.014 A 
BRANCH  11  12
ATOM     12  C   UNL A   1      37.967  30.106  29.690  1.00  0.00     0.031 A 
ATOM     13  C   UNL A   1      38.202  30.599  31.090  1.00  0.00     0.074 A 
ATOM     14  C   UNL A   1      38.884  29.316  29.090  1.00  0.00     0.049 A 
ATOM     15  N   UNL A   1      39.205  30.338  31.889  1.00  0.00    -0.248 NA
ATOM     16  C   UNL A   1      37.201  31.509  31.670  1.00  0.00     0.031 C 
ATOM     17  C   UNL A   1      38.797  28.831  27.708  1.00  0.00     0.029 A 
ATOM     18  N   UNL A   1      40.038  28.744  29.561  1.00  0.00    -0.354 N 
ATOM     19  C   UNL A   1      38.982  31.078  33.045  1.00  0.00     0.074 A 
ATOM     20  C   UNL A   1      37.748  31.806  32.842  1.00  0.00     0.031 C 
ATOM     21  C   UNL A   1      39.794  27.969  27.474  1.00  0.00     0.029 A 
ATOM     22  C   UNL A   1      40.646  27.906  28.653  1.00  0.00     0.049 A 
ATOM     23  H   UNL A   1      40.397  28.916  30.461  1.00  0.00     0.167 HD
ATOM     24  C   UNL A   1      39.731  31.131  34.173  1.00  0.00     0.034 A 
ATOM     25  C   UNL A   1      41.771  27.174  28.745  1.00  0.00     0.034 A 
ATOM     26  C   UNL A   1      40.937  30.372  34.378  1.00  0.00     0.049 A 
ATOM     27  C   UNL A   1      42.540  27.206  30.030  1.00  0.00     0.074 A 
ATOM     28  C   UNL A   1      41.752  30.337  35.498  1.00  0.00     0.029 A 
ATOM     29  N   UNL A   1      41.503  29.510  33.450  1.00  0.00    -0.354 N 
ATOM     30  N   UNL A   1      42.256  27.841  31.142  1.00  0.00    -0.248 NA
ATOM     31  C   UNL A   1      43.775  26.413  30.084  1.00  0.00     0.031 C 
ATOM     32  C   UNL A   1      42.813  29.462  35.242  1.00  0.00     0.029 A 
ATOM     33  C   UNL A   1      42.651  28.936  33.971  1.00  0.00     0.049 A 
ATOM     34  H   UNL A   1      41.140  29.330  32.553  1.00  0.00     0.167 HD
ATOM     35  C   UNL A   1      43.277  27.526  32.028  1.00  0.00     0.074 A 
ATOM     36  C   UNL A   1      44.155  26.599  31.340  1.00  0.00     0.031 C 
ATOM     37  C   UNL A   1      43.491  27.989  33.283  1.00  0.00     0.034 A 
BRANCH  24  38
ATOM     38  C   UNL A   1      39.248  32.008  35.300  1.00  0.00     0.023 A 
ATOM     39  C   UNL A   1      38.343  31.485  36.246  1.00  0.00     0.012 A 
ATOM     40  C   UNL A   1      39.752  33.312  35.475  1.00  0.00     0.148 A 
ATOM     41  C   UNL A   1      37.932  32.252  37.336  1.00  0.00     0.002 A 
ATOM     42  C   UNL A   1      39.368  34.057  36.586  1.00  0.00     0.091 A 
ATOM     43  F   UNL A   1      40.599  33.799  34.557  1.00  0.00    -0.205 F 
ATOM     44  C   UNL A   1      38.451  33.531  37.512  1.00  0.00     0.022 A 
BRANCH  42  45
ATOM     45  S   UNL A   1      40.033  35.687  36.945  1.00  0.00     0.127 S 
ATOM     46  O   UNL A   1      39.648  36.432  35.747  1.00  0.00    -0.237 OA
ATOM     47  O   UNL A   1      39.300  36.059  38.156  1.00  0.00    -0.237 OA
ATOM     48  O   UNL A   1      41.465  35.505  37.132  1.00  0.00    -0.744 OA
ENDBRANCH  42  45
ENDBRANCH  24  38
BRANCH  25  49
ATOM     49  C   UNL A   1      42.215  26.344  27.588  1.00  0.00     0.023 A 
ATOM     50  C   UNL A   1      43.083  26.890  26.623  1.00  0.00     0.012 A 
ATOM     51  C   UNL A   1      41.821  24.997  27.469  1.00  0.00     0.148 A 
ATOM     52  C   UNL A   1      43.530  26.115  25.550  1.00  0.00     0.002 A 
ATOM     53  C   UNL A   1      42.329  24.212  26.442  1.00  0.00     0.091 A 
ATOM     54  F   UNL A   1      40.972  24.498  28.380  1.00  0.00    -0.205 F 
ATOM     55  C   UNL A   1      43.168  24.772  25.470  1.00  0.00     0.022 A 
BRANCH  53  56
ATOM     56  S   UNL A   1      42.042  22.439  26.391  1.00  0.00     0.127 S 
ATOM     57  O   UNL A   1      40.596  22.374  26.203  1.00  0.00    -0.237 OA
ATOM     58  O   UNL A   1      42.834  22.028  25.231  1.00  0.00    -0.237 OA
ATOM     59  O   UNL A   1      42.550  21.938  27.662  1.00  0.00    -0.744 OA
ENDBRANCH  53  56
ENDBRANCH  25  49
BRANCH  37  60
ATOM     60  C   UNL A   1      44.725  27.495  33.986  1.00  0.00     0.023 A 
ATOM     61  C   UNL A   1      45.927  28.224  33.868  1.00  0.00     0.012 A 
ATOM     62  C   UNL A   1      44.693  26.334  34.780  1.00  0.00     0.148 A 
ATOM     63  C   UNL A   1      47.090  27.779  34.494  1.00  0.00     0.002 A 
ATOM     64  C   UNL A   1      45.845  25.923  35.440  1.00  0.00     0.091 A 
ATOM     65  F   UNL A   1      43.548  25.644  34.861  1.00  0.00    -0.205 F 
ATOM     66  C   UNL A   1      47.046  26.635  35.288  1.00  0.00     0.022 A 
BRANCH  64  67
ATOM     67  S   UNL A   1      45.856  24.509  36.548  1.00  0.00     0.127 S 
ATOM     68  O   UNL A   1      45.316  23.455  35.692  1.00  0.00    -0.237 OA
ATOM     69  O   UNL A   1      47.279  24.369  36.864  1.00  0.00    -0.237 OA
ATOM     70  O   UNL A   1      45.024  24.890  37.681  1.00  0.00    -0.744 OA
ENDBRANCH  64  67
ENDBRANCH  37  60
ENDBRANCH  11  12
ENDBRANCH   4   6
ENDBRANCH   1   2
BRANCH   1  71
ATOM     71  C   UNL A   1      33.207  28.953  23.346  1.00  0.00     0.042 C 
BRANCH  71  72
ATOM     72  C   UNL A   1      31.882  28.204  23.286  1.00  0.00     0.118 C 
BRANCH  72  73
ATOM     73  N   UNL A   1      32.021  26.905  22.650  1.00  0.00    -0.351 N 
ATOM     74  C   UNL A   1      33.032  26.029  22.915  1.00  0.00     0.278 C 
ATOM     75  H   UNL A   1      31.344  26.642  21.987  1.00  0.00     0.163 HD
ATOM     76  O   UNL A   1      33.837  25.797  22.006  1.00  0.00    -0.268 OA
BRANCH  74  77
ATOM     77  C   UNL A   1      33.088  25.247  24.245  1.00  0.00     0.274 C 
ATOM     78  C   UNL A   1      32.537  25.981  25.478  1.00  0.00     0.076 C 
ATOM     79  N   UNL A   1      32.568  23.869  24.149  1.00  0.00    -0.321 N 
ATOM     80  C   UNL A   1      31.061  25.735  25.800  1.00  0.00     0.012 C 
ATOM     81  C   UNL A   1      31.129  23.733  24.258  1.00  0.00     0.263 C 
ATOM     82  H   UNL A   1      32.897  23.499  25.042  1.00  0.00     0.349 HD
ATOM     83  C   UNL A   1      30.651  24.289  25.596  1.00  0.00     0.062 C 
BRANCH  79  84
ATOM     84  C   UNL A   1      33.272  22.902  23.301  1.00  0.00     0.301 C 
BRANCH  84  85
ATOM     85  C   UNL A   1      34.566  22.293  23.812  1.00  0.00     0.025 A 
ATOM     86  C   UNL A   1      35.782  22.934  23.502  1.00  0.00     0.014 A 
ATOM     87  C   UNL A   1      34.629  21.148  24.628  1.00  0.00     0.052 A 
ATOM     88  C   UNL A   1      37.010  22.399  23.889  1.00  0.00     0.040 A 
ATOM     89  C   UNL A   1      35.860  20.610  25.019  1.00  0.00     0.060 A 
ATOM     90  Cl  UNL A   1      33.224  20.379  25.278  1.00  0.00    -0.084 Cl
ATOM     91  C   UNL A   1      37.038  21.231  24.630  1.00  0.00     0.124 A 
ATOM     92  F   UNL A   1      38.214  20.708  25.001  1.00  0.00    -0.207 F 
ENDBRANCH  84  85
ENDBRANCH  79  84
ENDBRANCH  74  77
ENDBRANCH  72  73
ENDBRANCH  71  72
ENDBRANCH   1  71
TORSDOF 15
ENDMDL
MODEL 3
REMARK VINA RESULT:     -12.5      5.573     10.106
REMARK SMILES O=C(NCCCNC(=O)[C@H]1CCCC[N@H+]1Cc1ccc(F)cc1Cl)c1ccc(-c2c3nc(c(-c4cccc(S(=O)(=O)[O-])c4F)c4ccc([nH]4)c(-c4cccc(S(=O)(=O)[O-])c4F)c4nc(c(-c5cccc(S(=O)(=O)[O-])c5F)c5ccc2[nH]5)C=C4)C=C3)cc1
REMARK SMILES IDX 4 1 3 2 1 3 2 4 25 6 26 7 87 8 27 9 86 10 28 11 29 12 30 13
REMARK SMILES IDX 80 14 31 15 85 16 79 17 81 18 32 19 84 20 78 21 77 22 33 24
REMARK SMILES IDX 65 25 45 26 64 27 46 28 49 29 63 30 82 31 47 32 48 33 62 35
REMARK SMILES IDX 83 36 50 37 34 38 35 39 43 40 36 41 38 42 44 43 37 44 39 45
REMARK SMILES IDX 40 46 41 47 42 48 66 49 67 50 75 51 68 52 70 53 76 54 69 55
REMARK SMILES IDX 71 56 72 57 73 58 74 59 51 60 52 61 60 62 53 63 55 64 61 65
REMARK SMILES IDX 54 66 56 67 57 68 58 69 59 70 5 71 6 72 7 73 8 74 9 76 10 77
REMARK SMILES IDX 11 78 15 79 12 80 14 81 13 83 16 84 17 85 18 86 23 87 19 88
REMARK SMILES IDX 22 89 24 90 20 91 21 92
REMARK H PARENT 3 5 81 23 49 34 7 75 15 82
REMARK Flexibility Score: inf
ROOT
ATOM      1  C   UNL A   1      33.486  28.901  25.046  1.00  0.00     0.118 C 
ENDROOT
BRANCH   1   2
ATOM      2  N   UNL A   1      32.799  30.060  25.603  1.00  0.00    -0.352 N 
ATOM      3  O   UNL A   1      32.214  31.616  27.113  1.00  0.00    -0.269 OA
ATOM      4  C   UNL A   1      33.070  30.826  26.715  1.00  0.00     0.251 C 
ATOM      5  H   UNL A   1      32.003  30.343  25.097  1.00  0.00     0.163 HD
BRANCH   4   6
ATOM      6  C   UNL A   1      34.349  30.684  27.450  1.00  0.00     0.039 A 
ATOM      7  C   UNL A   1      34.765  29.442  27.914  1.00  0.00     0.014 A 
ATOM      8  C   UNL A   1      35.178  31.796  27.647  1.00  0.00     0.014 A 
ATOM      9  C   UNL A   1      35.863  29.340  28.752  1.00  0.00     0.010 A 
ATOM     10  C   UNL A   1      36.385  31.659  28.351  1.00  0.00     0.010 A 
ATOM     11  C   UNL A   1      36.724  30.433  28.939  1.00  0.00    -0.014 A 
BRANCH  11  12
ATOM     12  C   UNL A   1      38.007  30.184  29.653  1.00  0.00     0.031 A 
ATOM     13  C   UNL A   1      38.250  30.664  31.056  1.00  0.00     0.074 A 
ATOM     14  C   UNL A   1      38.939  29.431  29.027  1.00  0.00     0.049 A 
ATOM     15  N   UNL A   1      39.274  30.423  31.835  1.00  0.00    -0.248 NA
ATOM     16  C   UNL A   1      37.232  31.536  31.665  1.00  0.00     0.031 C 
ATOM     17  C   UNL A   1      38.843  28.963  27.639  1.00  0.00     0.029 A 
ATOM     18  N   UNL A   1      40.117  28.889  29.471  1.00  0.00    -0.354 N 
ATOM     19  C   UNL A   1      39.048  31.140  33.004  1.00  0.00     0.074 A 
ATOM     20  C   UNL A   1      37.789  31.833  32.832  1.00  0.00     0.031 C 
ATOM     21  C   UNL A   1      39.862  28.136  27.377  1.00  0.00     0.029 A 
ATOM     22  C   UNL A   1      40.735  28.082  28.541  1.00  0.00     0.049 A 
ATOM     23  H   UNL A   1      40.486  29.059  30.368  1.00  0.00     0.167 HD
ATOM     24  C   UNL A   1      39.813  31.200  34.121  1.00  0.00     0.034 A 
ATOM     25  C   UNL A   1      41.883  27.384  28.605  1.00  0.00     0.034 A 
ATOM     26  C   UNL A   1      41.045  30.476  34.296  1.00  0.00     0.049 A 
ATOM     27  C   UNL A   1      42.673  27.422  29.878  1.00  0.00     0.074 A 
ATOM     28  C   UNL A   1      41.879  30.450  35.402  1.00  0.00     0.029 A 
ATOM     29  N   UNL A   1      41.622  29.644  33.347  1.00  0.00    -0.354 N 
ATOM     30  N   UNL A   1      42.387  28.032  31.003  1.00  0.00    -0.248 NA
ATOM     31  C   UNL A   1      43.931  26.666  29.900  1.00  0.00     0.031 C 
ATOM     32  C   UNL A   1      42.962  29.612  35.117  1.00  0.00     0.029 A 
ATOM     33  C   UNL A   1      42.796  29.099  33.841  1.00  0.00     0.049 A 
ATOM     34  H   UNL A   1      41.250  29.467  32.453  1.00  0.00     0.167 HD
ATOM     35  C   UNL A   1      43.432  27.736  31.868  1.00  0.00     0.074 A 
ATOM     36  C   UNL A   1      44.326  26.846  31.153  1.00  0.00     0.031 C 
ATOM     37  C   UNL A   1      43.652  28.188  33.126  1.00  0.00     0.034 A 
BRANCH  24  38
ATOM     38  C   UNL A   1      39.323  32.046  35.269  1.00  0.00     0.023 A 
ATOM     39  C   UNL A   1      38.449  31.483  36.220  1.00  0.00     0.012 A 
ATOM     40  C   UNL A   1      39.791  33.362  35.456  1.00  0.00     0.148 A 
ATOM     41  C   UNL A   1      38.032  32.221  37.328  1.00  0.00     0.002 A 
ATOM     42  C   UNL A   1      39.402  34.079  36.583  1.00  0.00     0.091 A 
ATOM     43  F   UNL A   1      40.608  33.887  34.532  1.00  0.00    -0.205 F 
ATOM     44  C   UNL A   1      38.516  33.512  37.515  1.00  0.00     0.022 A 
BRANCH  42  45
ATOM     45  S   UNL A   1      40.024  35.723  36.956  1.00  0.00     0.127 S 
ATOM     46  O   UNL A   1      41.463  35.477  37.050  1.00  0.00    -0.237 OA
ATOM     47  O   UNL A   1      39.612  36.483  35.775  1.00  0.00    -0.237 OA
ATOM     48  O   UNL A   1      39.378  36.127  38.196  1.00  0.00    -0.744 OA
ENDBRANCH  42  45
ENDBRANCH  24  38
BRANCH  25  49
ATOM     49  C   UNL A   1      42.333  26.585  27.428  1.00  0.00     0.023 A 
ATOM     50  C   UNL A   1      43.172  27.169  26.460  1.00  0.00     0.012 A 
ATOM     51  C   UNL A   1      41.975  25.229  27.295  1.00  0.00     0.148 A 
ATOM     52  C   UNL A   1      43.625  26.423  25.369  1.00  0.00     0.002 A 
ATOM     53  C   UNL A   1      42.490  24.474  26.248  1.00  0.00     0.091 A 
ATOM     54  F   UNL A   1      41.154  24.692  28.209  1.00  0.00    -0.205 F 
ATOM     55  C   UNL A   1      43.298  25.072  25.273  1.00  0.00     0.022 A 
BRANCH  53  56
ATOM     56  S   UNL A   1      42.251  22.695  26.174  1.00  0.00     0.127 S 
ATOM     57  O   UNL A   1      42.945  22.349  24.937  1.00  0.00    -0.237 OA
ATOM     58  O   UNL A   1      42.909  22.241  27.399  1.00  0.00    -0.237 OA
ATOM     59  O   UNL A   1      40.805  22.508  26.176  1.00  0.00    -0.744 OA
ENDBRANCH  53  56
ENDBRANCH  25  49
BRANCH  37  60
ATOM     60  C   UNL A   1      44.912  27.723  33.802  1.00  0.00     0.023 A 
ATOM     61  C   UNL A   1      46.085  28.498  33.687  1.00  0.00     0.012 A 
ATOM     62  C   UNL A   1      44.933  26.542  34.567  1.00  0.00     0.148 A 
ATOM     63  C   UNL A   1      47.272  28.081  34.289  1.00  0.00     0.002 A 
ATOM     64  C   UNL A   1      46.107  26.157  35.202  1.00  0.00     0.091 A 
ATOM     65  F   UNL A   1      43.815  25.808  34.643  1.00  0.00    -0.205 F 
ATOM     66  C   UNL A   1      47.280  26.917  35.054  1.00  0.00     0.022 A 
BRANCH  64  67
ATOM     67  S   UNL A   1      46.184  24.718  36.273  1.00  0.00     0.127 S 
ATOM     68  O   UNL A   1      45.869  23.636  35.343  1.00  0.00    -0.237 OA
ATOM     69  O   UNL A   1      47.573  24.742  36.734  1.00  0.00    -0.237 OA
ATOM     70  O   UNL A   1      45.200  24.953  37.322  1.00  0.00    -0.744 OA
ENDBRANCH  64  67
ENDBRANCH  37  60
ENDBRANCH  11  12
ENDBRANCH   4   6
ENDBRANCH   1   2
BRANCH   1  71
ATOM     71  C   UNL A   1      32.781  27.593  25.373  1.00  0.00     0.042 C 
BRANCH  71  72
ATOM     72  C   UNL A   1      33.664  26.378  25.121  1.00  0.00     0.118 C 
BRANCH  72  73
ATOM     73  N   UNL A   1      33.292  25.253  25.962  1.00  0.00    -0.351 N 
ATOM     74  C   UNL A   1      32.079  24.631  25.914  1.00  0.00     0.278 C 
ATOM     75  H   UNL A   1      33.956  24.919  26.606  1.00  0.00     0.163 HD
ATOM     76  O   UNL A   1      31.349  24.733  26.905  1.00  0.00    -0.268 OA
BRANCH  74  77
ATOM     77  C   UNL A   1      31.693  23.717  24.732  1.00  0.00     0.274 C 
ATOM     78  C   UNL A   1      31.146  24.428  23.484  1.00  0.00     0.076 C 
ATOM     79  N   UNL A   1      32.724  22.719  24.387  1.00  0.00    -0.321 N 
ATOM     80  C   UNL A   1      32.177  24.789  22.412  1.00  0.00     0.012 C 
ATOM     81  C   UNL A   1      33.790  23.194  23.527  1.00  0.00     0.263 C 
ATOM     82  H   UNL A   1      32.182  22.120  23.763  1.00  0.00     0.349 HD
ATOM     83  C   UNL A   1      33.213  23.700  22.209  1.00  0.00     0.062 C 
BRANCH  79  84
ATOM     84  C   UNL A   1      33.061  21.679  25.363  1.00  0.00     0.301 C 
BRANCH  84  85
ATOM     85  C   UNL A   1      33.380  20.283  24.857  1.00  0.00     0.025 A 
ATOM     86  C   UNL A   1      32.336  19.506  24.319  1.00  0.00     0.014 A 
ATOM     87  C   UNL A   1      34.673  19.728  24.842  1.00  0.00     0.052 A 
ATOM     88  C   UNL A   1      32.545  18.195  23.889  1.00  0.00     0.040 A 
ATOM     89  C   UNL A   1      34.886  18.413  24.410  1.00  0.00     0.060 A 
ATOM     90  Cl  UNL A   1      36.088  20.630  25.257  1.00  0.00    -0.084 Cl
ATOM     91  C   UNL A   1      33.818  17.656  23.955  1.00  0.00     0.124 A 
ATOM     92  F   UNL A   1      34.026  16.396  23.550  1.00  0.00    -0.207 F 
ENDBRANCH  84  85
ENDBRANCH  79  84
ENDBRANCH  74  77
ENDBRANCH  72  73
ENDBRANCH  71  72
ENDBRANCH   1  71
TORSDOF 15
ENDMDL
