MODEL 1
REMARK VINA RESULT:     -11.8      0.000      0.000
REMARK SMILES C[NH2+][C@]1(C(=O)NCCCNC(=O)c2ccc(-c3c4nc(c(-c5cccc(S(=O)(=O)[O-])c5F)c5ccc([nH]5)c(-c5cccc(S(=O)(=O)[O-])c5F)c5nc(c(-c6cccc(S(=O)(=O)[O-])c6F)c6ccc3[nH]6)C=C5)C=C4)cc2)CCC[C@@H]1CCSc1cccc(Cl)c1
REMARK SMILES IDX 7 1 6 2 4 3 5 4 3 6 76 7 79 8 77 9 78 10 2 11 1 12 80 15
REMARK SMILES IDX 81 16 82 17 83 18 84 19 89 20 85 21 87 22 86 23 88 24 8 25
REMARK SMILES IDX 9 26 10 27 11 28 12 30 13 31 14 32 75 33 15 34 74 35 16 36
REMARK SMILES IDX 17 37 18 38 68 39 19 40 73 41 67 42 69 43 20 44 72 45 66 46
REMARK SMILES IDX 65 47 21 49 53 50 33 51 52 52 34 53 37 54 51 55 70 56 35 57
REMARK SMILES IDX 36 58 50 60 71 61 38 62 22 63 23 64 31 65 24 66 26 67 32 68
REMARK SMILES IDX 25 69 27 70 28 71 29 72 30 73 54 74 55 75 63 76 56 77 58 78
REMARK SMILES IDX 64 79 57 80 59 81 60 82 61 83 62 84 39 85 40 86 48 87 41 88
REMARK SMILES IDX 43 89 49 90 42 91 44 92 45 93 46 94 47 95
REMARK H PARENT 6 5 2 13 2 14 10 29 69 48 37 59
REMARK Flexibility Score: inf
ROOT
ATOM      1  C   UNL A   1      32.445  26.559  26.438  1.00  0.00     0.118 C 
ENDROOT
BRANCH   1   2
ATOM      2  N   UNL A   1      31.391  25.623  26.774  1.00  0.00    -0.351 N 
ATOM      3  C   UNL A   1      31.207  24.312  26.474  1.00  0.00     0.281 C 
ATOM      4  O   UNL A   1      30.315  23.740  27.120  1.00  0.00    -0.268 OA
ATOM      5  H   UNL A   1      30.672  26.013  27.321  1.00  0.00     0.163 HD
BRANCH   3   6
ATOM      6  C   UNL A   1      32.087  23.509  25.455  1.00  0.00     0.178 C 
ATOM      7  C   UNL A   1      31.930  21.976  25.475  1.00  0.00     0.079 C 
ATOM      8  C   UNL A   1      31.650  23.835  23.998  1.00  0.00     0.061 C 
ATOM      9  C   UNL A   1      32.390  21.500  24.098  1.00  0.00     0.008 C 
ATOM     10  C   UNL A   1      32.232  22.691  23.154  1.00  0.00     0.011 C 
BRANCH   6  11
ATOM     11  N   UNL A   1      33.523  23.906  25.633  1.00  0.00    -0.336 N 
ATOM     12  C   UNL A   1      34.193  23.200  26.727  1.00  0.00     0.331 C 
ATOM     13  H   UNL A   1      34.022  23.705  24.766  1.00  0.00     0.346 HD
ATOM     14  H   UNL A   1      33.533  24.898  25.865  1.00  0.00     0.346 HD
ENDBRANCH   6  11
BRANCH   8  15
ATOM     15  C   UNL A   1      31.994  25.230  23.457  1.00  0.00     0.022 C 
BRANCH  15  16
ATOM     16  C   UNL A   1      30.767  26.123  23.215  1.00  0.00     0.075 C 
BRANCH  16  17
ATOM     17  S   UNL A   1      31.157  27.857  22.751  1.00  0.00    -0.126 SA
BRANCH  17  18
ATOM     18  C   UNL A   1      29.630  28.773  22.892  1.00  0.00     0.009 A 
ATOM     19  C   UNL A   1      28.353  28.210  22.979  1.00  0.00     0.015 A 
ATOM     20  C   UNL A   1      29.738  30.169  22.881  1.00  0.00     0.035 A 
ATOM     21  C   UNL A   1      27.221  29.017  23.157  1.00  0.00     0.003 A 
ATOM     22  C   UNL A   1      28.604  30.972  23.000  1.00  0.00     0.042 A 
ATOM     23  C   UNL A   1      27.347  30.404  23.175  1.00  0.00     0.020 A 
ATOM     24  Cl  UNL A   1      28.781  32.678  22.931  1.00  0.00    -0.084 Cl
ENDBRANCH  17  18
ENDBRANCH  16  17
ENDBRANCH  15  16
ENDBRANCH   8  15
ENDBRANCH   3   6
ENDBRANCH   1   2
BRANCH   1  25
ATOM     25  C   UNL A   1      32.091  28.001  26.754  1.00  0.00     0.042 C 
BRANCH  25  26
ATOM     26  C   UNL A   1      32.850  29.001  25.898  1.00  0.00     0.118 C 
BRANCH  26  27
ATOM     27  N   UNL A   1      32.463  30.384  26.168  1.00  0.00    -0.352 N 
ATOM     28  C   UNL A   1      33.048  31.317  26.985  1.00  0.00     0.251 C 
ATOM     29  H   UNL A   1      31.659  30.693  25.691  1.00  0.00     0.163 HD
ATOM     30  O   UNL A   1      32.491  32.392  27.198  1.00  0.00    -0.269 OA
BRANCH  28  31
ATOM     31  C   UNL A   1      34.336  31.037  27.633  1.00  0.00     0.039 A 
ATOM     32  C   UNL A   1      35.274  32.070  27.729  1.00  0.00     0.014 A 
ATOM     33  C   UNL A   1      34.628  29.764  28.124  1.00  0.00     0.014 A 
ATOM     34  C   UNL A   1      36.484  31.837  28.374  1.00  0.00     0.010 A 
ATOM     35  C   UNL A   1      35.788  29.563  28.856  1.00  0.00     0.010 A 
ATOM     36  C   UNL A   1      36.732  30.593  28.973  1.00  0.00    -0.014 A 
BRANCH  36  37
ATOM     37  C   UNL A   1      37.981  30.338  29.721  1.00  0.00     0.031 A 
ATOM     38  C   UNL A   1      39.043  29.465  29.117  1.00  0.00     0.074 A 
ATOM     39  C   UNL A   1      38.105  30.821  30.971  1.00  0.00     0.049 A 
ATOM     40  N   UNL A   1      40.165  29.053  29.643  1.00  0.00    -0.248 NA
ATOM     41  C   UNL A   1      38.797  28.957  27.756  1.00  0.00     0.031 C 
ATOM     42  C   UNL A   1      37.096  31.619  31.673  1.00  0.00     0.029 A 
ATOM     43  N   UNL A   1      39.118  30.691  31.884  1.00  0.00    -0.354 N 
ATOM     44  C   UNL A   1      40.736  28.207  28.700  1.00  0.00     0.074 A 
ATOM     45  C   UNL A   1      39.819  28.133  27.585  1.00  0.00     0.031 C 
ATOM     46  C   UNL A   1      37.544  31.913  32.903  1.00  0.00     0.029 A 
ATOM     47  C   UNL A   1      38.850  31.291  33.091  1.00  0.00     0.049 A 
ATOM     48  H   UNL A   1      39.956  30.212  31.694  1.00  0.00     0.167 HD
ATOM     49  C   UNL A   1      41.929  27.571  28.750  1.00  0.00     0.034 A 
ATOM     50  C   UNL A   1      39.573  31.323  34.226  1.00  0.00     0.034 A 
ATOM     51  C   UNL A   1      42.843  27.688  29.854  1.00  0.00     0.049 A 
ATOM     52  C   UNL A   1      40.912  30.639  34.241  1.00  0.00     0.074 A 
ATOM     53  C   UNL A   1      44.115  27.161  29.977  1.00  0.00     0.029 A 
ATOM     54  N   UNL A   1      42.575  28.373  31.030  1.00  0.00    -0.354 N 
ATOM     55  N   UNL A   1      41.503  29.963  33.285  1.00  0.00    -0.248 NA
ATOM     56  C   UNL A   1      41.698  30.748  35.476  1.00  0.00     0.031 C 
ATOM     57  C   UNL A   1      44.602  27.497  31.243  1.00  0.00     0.029 A 
ATOM     58  C   UNL A   1      43.651  28.270  31.892  1.00  0.00     0.049 A 
ATOM     59  H   UNL A   1      41.742  28.861  31.222  1.00  0.00     0.167 HD
ATOM     60  C   UNL A   1      42.744  29.596  33.789  1.00  0.00     0.074 A 
ATOM     61  C   UNL A   1      42.826  30.145  35.128  1.00  0.00     0.031 C 
ATOM     62  C   UNL A   1      43.724  28.862  33.204  1.00  0.00     0.034 A 
BRANCH  49  63
ATOM     63  C   UNL A   1      42.321  26.722  27.569  1.00  0.00     0.023 A 
ATOM     64  C   UNL A   1      43.009  27.304  26.483  1.00  0.00     0.012 A 
ATOM     65  C   UNL A   1      42.043  25.342  27.549  1.00  0.00     0.148 A 
ATOM     66  C   UNL A   1      43.376  26.536  25.379  1.00  0.00     0.002 A 
ATOM     67  C   UNL A   1      42.458  24.573  26.467  1.00  0.00     0.091 A 
ATOM     68  F   UNL A   1      41.368  24.809  28.577  1.00  0.00    -0.205 F 
ATOM     69  C   UNL A   1      43.110  25.171  25.376  1.00  0.00     0.022 A 
BRANCH  67  70
ATOM     70  S   UNL A   1      42.237  22.792  26.403  1.00  0.00     0.127 S 
ATOM     71  O   UNL A   1      42.645  22.493  25.030  1.00  0.00    -0.237 OA
ATOM     72  O   UNL A   1      43.171  22.331  27.430  1.00  0.00    -0.237 OA
ATOM     73  O   UNL A   1      40.834  22.548  26.703  1.00  0.00    -0.744 OA
ENDBRANCH  67  70
ENDBRANCH  49  63
BRANCH  50  74
ATOM     74  C   UNL A   1      39.071  32.075  35.410  1.00  0.00     0.023 A 
ATOM     75  C   UNL A   1      39.188  33.478  35.440  1.00  0.00     0.012 A 
ATOM     76  C   UNL A   1      38.443  31.414  36.483  1.00  0.00     0.148 A 
ATOM     77  C   UNL A   1      38.720  34.207  36.535  1.00  0.00     0.002 A 
ATOM     78  C   UNL A   1      37.928  32.151  37.543  1.00  0.00     0.091 A 
ATOM     79  F   UNL A   1      38.344  30.078  36.436  1.00  0.00    -0.205 F 
ATOM     80  C   UNL A   1      38.082  33.546  37.580  1.00  0.00     0.022 A 
BRANCH  78  81
ATOM     81  S   UNL A   1      36.972  31.400  38.866  1.00  0.00     0.127 S 
ATOM     82  O   UNL A   1      36.818  30.030  38.383  1.00  0.00    -0.237 OA
ATOM     83  O   UNL A   1      37.870  31.553  40.011  1.00  0.00    -0.237 OA
ATOM     84  O   UNL A   1      35.745  32.179  38.958  1.00  0.00    -0.744 OA
ENDBRANCH  78  81
ENDBRANCH  50  74
BRANCH  62  85
ATOM     85  C   UNL A   1      44.988  28.643  33.993  1.00  0.00     0.023 A 
ATOM     86  C   UNL A   1      46.050  29.561  33.891  1.00  0.00     0.012 A 
ATOM     87  C   UNL A   1      45.087  27.562  34.890  1.00  0.00     0.148 A 
ATOM     88  C   UNL A   1      47.209  29.386  34.645  1.00  0.00     0.002 A 
ATOM     89  C   UNL A   1      46.221  27.425  35.679  1.00  0.00     0.091 A 
ATOM     90  F   UNL A   1      44.071  26.691  34.958  1.00  0.00    -0.205 F 
ATOM     91  C   UNL A   1      47.290  28.328  35.547  1.00  0.00     0.022 A 
BRANCH  89  92
ATOM     92  S   UNL A   1      46.371  26.156  36.940  1.00  0.00     0.127 S 
ATOM     93  O   UNL A   1      47.710  26.416  37.467  1.00  0.00    -0.237 OA
ATOM     94  O   UNL A   1      45.279  26.497  37.852  1.00  0.00    -0.237 OA
ATOM     95  O   UNL A   1      46.209  24.883  36.251  1.00  0.00    -0.744 OA
ENDBRANCH  89  92
ENDBRANCH  62  85
ENDBRANCH  36  37
ENDBRANCH  28  31
ENDBRANCH  26  27
ENDBRANCH  25  26
ENDBRANCH   1  25
TORSDOF 18
ENDMDL
MODEL 2
REMARK VINA RESULT:     -11.7      2.795      4.385
REMARK SMILES C[NH2+][C@]1(C(=O)NCCCNC(=O)c2ccc(-c3c4nc(c(-c5cccc(S(=O)(=O)[O-])c5F)c5ccc([nH]5)c(-c5cccc(S(=O)(=O)[O-])c5F)c5nc(c(-c6cccc(S(=O)(=O)[O-])c6F)c6ccc3[nH]6)C=C5)C=C4)cc2)CCC[C@@H]1CCSc1cccc(Cl)c1
REMARK SMILES IDX 7 1 6 2 4 3 5 4 3 6 76 7 79 8 77 9 78 10 2 11 1 12 80 15
REMARK SMILES IDX 81 16 82 17 83 18 84 19 89 20 85 21 87 22 86 23 88 24 8 25
REMARK SMILES IDX 9 26 10 27 11 28 12 30 13 31 14 32 75 33 15 34 74 35 16 36
REMARK SMILES IDX 17 37 18 38 68 39 19 40 73 41 67 42 69 43 20 44 72 45 66 46
REMARK SMILES IDX 65 47 21 49 53 50 33 51 52 52 34 53 37 54 51 55 70 56 35 57
REMARK SMILES IDX 36 58 50 60 71 61 38 62 22 63 23 64 31 65 24 66 26 67 32 68
REMARK SMILES IDX 25 69 27 70 28 71 29 72 30 73 54 74 55 75 63 76 56 77 58 78
REMARK SMILES IDX 64 79 57 80 59 81 60 82 61 83 62 84 39 85 40 86 48 87 41 88
REMARK SMILES IDX 43 89 49 90 42 91 44 92 45 93 46 94 47 95
REMARK H PARENT 6 5 2 13 2 14 10 29 69 48 37 59
REMARK Flexibility Score: inf
ROOT
ATOM      1  C   UNL A   1      31.821  30.786  26.242  1.00  0.00     0.118 C 
ENDROOT
BRANCH   1   2
ATOM      2  N   UNL A   1      31.161  30.423  25.004  1.00  0.00    -0.351 N 
ATOM      3  C   UNL A   1      30.935  29.223  24.409  1.00  0.00     0.281 C 
ATOM      4  O   UNL A   1      30.127  29.241  23.468  1.00  0.00    -0.268 OA
ATOM      5  H   UNL A   1      30.811  31.192  24.499  1.00  0.00     0.163 HD
BRANCH   3   6
ATOM      6  C   UNL A   1      31.560  27.868  24.892  1.00  0.00     0.178 C 
ATOM      7  C   UNL A   1      31.421  27.548  26.393  1.00  0.00     0.079 C 
ATOM      8  C   UNL A   1      30.795  26.671  24.259  1.00  0.00     0.061 C 
ATOM      9  C   UNL A   1      31.552  26.030  26.501  1.00  0.00     0.008 C 
ATOM     10  C   UNL A   1      31.172  25.465  25.133  1.00  0.00     0.011 C 
BRANCH   6  11
ATOM     11  N   UNL A   1      32.996  27.812  24.459  1.00  0.00    -0.336 N 
ATOM     12  C   UNL A   1      33.333  28.792  23.425  1.00  0.00     0.331 C 
ATOM     13  H   UNL A   1      33.585  27.987  25.274  1.00  0.00     0.346 HD
ATOM     14  H   UNL A   1      33.152  26.888  24.059  1.00  0.00     0.346 HD
ENDBRANCH   6  11
BRANCH   8  15
ATOM     15  C   UNL A   1      30.995  26.424  22.757  1.00  0.00     0.022 C 
BRANCH  15  16
ATOM     16  C   UNL A   1      31.407  24.983  22.413  1.00  0.00     0.075 C 
BRANCH  16  17
ATOM     17  S   UNL A   1      33.188  24.765  22.021  1.00  0.00    -0.126 SA
BRANCH  17  18
ATOM     18  C   UNL A   1      33.814  23.552  23.173  1.00  0.00     0.009 A 
ATOM     19  C   UNL A   1      34.990  23.676  23.919  1.00  0.00     0.015 A 
ATOM     20  C   UNL A   1      33.069  22.373  23.302  1.00  0.00     0.035 A 
ATOM     21  C   UNL A   1      35.358  22.695  24.850  1.00  0.00     0.003 A 
ATOM     22  C   UNL A   1      33.468  21.372  24.187  1.00  0.00     0.042 A 
ATOM     23  C   UNL A   1      34.590  21.541  24.990  1.00  0.00     0.020 A 
ATOM     24  Cl  UNL A   1      32.550  19.924  24.274  1.00  0.00    -0.084 Cl
ENDBRANCH  17  18
ENDBRANCH  16  17
ENDBRANCH  15  16
ENDBRANCH   8  15
ENDBRANCH   3   6
ENDBRANCH   1   2
BRANCH   1  25
ATOM     25  C   UNL A   1      31.576  32.226  26.653  1.00  0.00     0.042 C 
BRANCH  25  26
ATOM     26  C   UNL A   1      32.776  32.863  27.333  1.00  0.00     0.118 C 
BRANCH  26  27
ATOM     27  N   UNL A   1      32.517  34.232  27.771  1.00  0.00    -0.352 N 
ATOM     28  C   UNL A   1      33.096  34.957  28.782  1.00  0.00     0.251 C 
ATOM     29  H   UNL A   1      31.820  34.707  27.264  1.00  0.00     0.163 HD
ATOM     30  O   UNL A   1      32.641  36.054  29.098  1.00  0.00    -0.269 OA
BRANCH  28  31
ATOM     31  C   UNL A   1      34.252  34.423  29.514  1.00  0.00     0.039 A 
ATOM     32  C   UNL A   1      34.030  33.767  30.728  1.00  0.00     0.014 A 
ATOM     33  C   UNL A   1      35.548  34.587  29.020  1.00  0.00     0.014 A 
ATOM     34  C   UNL A   1      35.107  33.221  31.418  1.00  0.00     0.010 A 
ATOM     35  C   UNL A   1      36.605  33.953  29.654  1.00  0.00     0.010 A 
ATOM     36  C   UNL A   1      36.396  33.280  30.866  1.00  0.00    -0.014 A 
BRANCH  36  37
ATOM     37  C   UNL A   1      37.549  32.651  31.545  1.00  0.00     0.031 A 
ATOM     38  C   UNL A   1      38.271  31.514  30.882  1.00  0.00     0.074 A 
ATOM     39  C   UNL A   1      37.873  33.050  32.788  1.00  0.00     0.049 A 
ATOM     40  N   UNL A   1      39.245  30.777  31.345  1.00  0.00    -0.248 NA
ATOM     41  C   UNL A   1      37.817  31.129  29.534  1.00  0.00     0.031 C 
ATOM     42  C   UNL A   1      37.183  34.098  33.547  1.00  0.00     0.029 A 
ATOM     43  N   UNL A   1      38.846  32.607  33.645  1.00  0.00    -0.354 N 
ATOM     44  C   UNL A   1      39.489  29.819  30.369  1.00  0.00     0.074 A 
ATOM     45  C   UNL A   1      38.538  30.043  29.305  1.00  0.00     0.031 C 
ATOM     46  C   UNL A   1      37.760  34.221  34.752  1.00  0.00     0.029 A 
ATOM     47  C   UNL A   1      38.829  33.236  34.867  1.00  0.00     0.049 A 
ATOM     48  H   UNL A   1      39.493  31.904  33.409  1.00  0.00     0.167 HD
ATOM     49  C   UNL A   1      40.440  28.856  30.352  1.00  0.00     0.034 A 
ATOM     50  C   UNL A   1      39.585  33.029  35.962  1.00  0.00     0.034 A 
ATOM     51  C   UNL A   1      41.402  28.674  31.405  1.00  0.00     0.049 A 
ATOM     52  C   UNL A   1      40.658  31.977  35.902  1.00  0.00     0.074 A 
ATOM     53  C   UNL A   1      42.463  27.791  31.458  1.00  0.00     0.029 A 
ATOM     54  N   UNL A   1      41.409  29.385  32.597  1.00  0.00    -0.354 N 
ATOM     55  N   UNL A   1      40.973  31.176  34.913  1.00  0.00    -0.248 NA
ATOM     56  C   UNL A   1      41.502  31.823  37.093  1.00  0.00     0.031 C 
ATOM     57  C   UNL A   1      43.092  27.942  32.698  1.00  0.00     0.029 A 
ATOM     58  C   UNL A   1      42.448  28.950  33.400  1.00  0.00     0.049 A 
ATOM     59  H   UNL A   1      40.770  30.094  32.836  1.00  0.00     0.167 HD
ATOM     60  C   UNL A   1      42.072  30.447  35.348  1.00  0.00     0.074 A 
ATOM     61  C   UNL A   1      42.381  30.919  36.683  1.00  0.00     0.031 C 
ATOM     62  C   UNL A   1      42.759  29.467  34.708  1.00  0.00     0.034 A 
BRANCH  49  63
ATOM     63  C   UNL A   1      40.502  27.953  29.148  1.00  0.00     0.023 A 
ATOM     64  C   UNL A   1      39.610  26.865  29.039  1.00  0.00     0.012 A 
ATOM     65  C   UNL A   1      41.416  28.201  28.105  1.00  0.00     0.148 A 
ATOM     66  C   UNL A   1      39.655  26.015  27.935  1.00  0.00     0.002 A 
ATOM     67  C   UNL A   1      41.420  27.380  26.984  1.00  0.00     0.091 A 
ATOM     68  F   UNL A   1      42.272  29.224  28.235  1.00  0.00    -0.205 F 
ATOM     69  C   UNL A   1      40.551  26.278  26.904  1.00  0.00     0.022 A 
BRANCH  67  70
ATOM     70  S   UNL A   1      42.479  27.681  25.565  1.00  0.00     0.127 S 
ATOM     71  O   UNL A   1      43.803  27.707  26.185  1.00  0.00    -0.237 OA
ATOM     72  O   UNL A   1      42.218  26.507  24.734  1.00  0.00    -0.237 OA
ATOM     73  O   UNL A   1      42.034  28.944  24.992  1.00  0.00    -0.744 OA
ENDBRANCH  67  70
ENDBRANCH  49  63
BRANCH  50  74
ATOM     74  C   UNL A   1      39.389  33.872  37.174  1.00  0.00     0.023 A 
ATOM     75  C   UNL A   1      39.810  35.216  37.159  1.00  0.00     0.012 A 
ATOM     76  C   UNL A   1      38.753  33.364  38.324  1.00  0.00     0.148 A 
ATOM     77  C   UNL A   1      39.633  36.029  38.279  1.00  0.00     0.002 A 
ATOM     78  C   UNL A   1      38.529  34.195  39.414  1.00  0.00     0.091 A 
ATOM     79  F   UNL A   1      38.364  32.081  38.319  1.00  0.00    -0.205 F 
ATOM     80  C   UNL A   1      38.984  35.523  39.402  1.00  0.00     0.022 A 
BRANCH  78  81
ATOM     81  S   UNL A   1      37.583  33.670  40.848  1.00  0.00     0.127 S 
ATOM     82  O   UNL A   1      38.508  32.743  41.494  1.00  0.00    -0.237 OA
ATOM     83  O   UNL A   1      37.382  34.935  41.556  1.00  0.00    -0.237 OA
ATOM     84  O   UNL A   1      36.361  33.078  40.320  1.00  0.00    -0.744 OA
ENDBRANCH  78  81
ENDBRANCH  50  74
BRANCH  62  85
ATOM     85  C   UNL A   1      43.938  28.866  35.427  1.00  0.00     0.023 A 
ATOM     86  C   UNL A   1      45.214  29.447  35.295  1.00  0.00     0.012 A 
ATOM     87  C   UNL A   1      43.760  27.769  36.291  1.00  0.00     0.148 A 
ATOM     88  C   UNL A   1      46.304  28.920  35.985  1.00  0.00     0.002 A 
ATOM     89  C   UNL A   1      44.839  27.284  37.019  1.00  0.00     0.091 A 
ATOM     90  F   UNL A   1      42.540  27.222  36.388  1.00  0.00    -0.205 F 
ATOM     91  C   UNL A   1      46.115  27.850  36.856  1.00  0.00     0.022 A 
BRANCH  89  92
ATOM     92  S   UNL A   1      44.669  25.978  38.239  1.00  0.00     0.127 S 
ATOM     93  O   UNL A   1      46.052  25.806  38.683  1.00  0.00    -0.237 OA
ATOM     94  O   UNL A   1      43.783  26.592  39.227  1.00  0.00    -0.237 OA
ATOM     95  O   UNL A   1      44.095  24.841  37.533  1.00  0.00    -0.744 OA
ENDBRANCH  89  92
ENDBRANCH  62  85
ENDBRANCH  36  37
ENDBRANCH  28  31
ENDBRANCH  26  27
ENDBRANCH  25  26
ENDBRANCH   1  25
TORSDOF 18
ENDMDL
MODEL 3
REMARK VINA RESULT:     -11.7      3.260      8.774
REMARK SMILES C[NH2+][C@]1(C(=O)NCCCNC(=O)c2ccc(-c3c4nc(c(-c5cccc(S(=O)(=O)[O-])c5F)c5ccc([nH]5)c(-c5cccc(S(=O)(=O)[O-])c5F)c5nc(c(-c6cccc(S(=O)(=O)[O-])c6F)c6ccc3[nH]6)C=C5)C=C4)cc2)CCC[C@@H]1CCSc1cccc(Cl)c1
REMARK SMILES IDX 7 1 6 2 4 3 5 4 3 6 76 7 79 8 77 9 78 10 2 11 1 12 80 15
REMARK SMILES IDX 81 16 82 17 83 18 84 19 89 20 85 21 87 22 86 23 88 24 8 25
REMARK SMILES IDX 9 26 10 27 11 28 12 30 13 31 14 32 75 33 15 34 74 35 16 36
REMARK SMILES IDX 17 37 18 38 68 39 19 40 73 41 67 42 69 43 20 44 72 45 66 46
REMARK SMILES IDX 65 47 21 49 53 50 33 51 52 52 34 53 37 54 51 55 70 56 35 57
REMARK SMILES IDX 36 58 50 60 71 61 38 62 22 63 23 64 31 65 24 66 26 67 32 68
REMARK SMILES IDX 25 69 27 70 28 71 29 72 30 73 54 74 55 75 63 76 56 77 58 78
REMARK SMILES IDX 64 79 57 80 59 81 60 82 61 83 62 84 39 85 40 86 48 87 41 88
REMARK SMILES IDX 43 89 49 90 42 91 44 92 45 93 46 94 47 95
REMARK H PARENT 6 5 2 13 2 14 10 29 69 48 37 59
REMARK Flexibility Score: inf
ROOT
ATOM      1  C   UNL A   1      31.944  28.209  27.258  1.00  0.00     0.118 C 
ENDROOT
BRANCH   1   2
ATOM      2  N   UNL A   1      31.152  27.009  27.074  1.00  0.00    -0.351 N 
ATOM      3  C   UNL A   1      30.703  26.375  25.960  1.00  0.00     0.281 C 
ATOM      4  O   UNL A   1      30.251  25.235  26.144  1.00  0.00    -0.268 OA
ATOM      5  H   UNL A   1      30.889  26.573  27.916  1.00  0.00     0.163 HD
BRANCH   3   6
ATOM      6  C   UNL A   1      30.804  26.964  24.511  1.00  0.00     0.178 C 
ATOM      7  C   UNL A   1      30.854  28.500  24.398  1.00  0.00     0.079 C 
ATOM      8  C   UNL A   1      32.165  26.573  23.868  1.00  0.00     0.061 C 
ATOM      9  C   UNL A   1      31.513  28.790  23.051  1.00  0.00     0.008 C 
ATOM     10  C   UNL A   1      32.336  27.553  22.697  1.00  0.00     0.011 C 
BRANCH   6  11
ATOM     11  N   UNL A   1      29.692  26.399  23.677  1.00  0.00    -0.336 N 
ATOM     12  C   UNL A   1      28.445  27.162  23.769  1.00  0.00     0.331 C 
ATOM     13  H   UNL A   1      29.993  26.389  22.702  1.00  0.00     0.346 HD
ATOM     14  H   UNL A   1      29.497  25.463  24.031  1.00  0.00     0.346 HD
ENDBRANCH   6  11
BRANCH   8  15
ATOM     15  C   UNL A   1      32.357  25.103  23.467  1.00  0.00     0.022 C 
BRANCH  15  16
ATOM     16  C   UNL A   1      33.596  24.444  24.094  1.00  0.00     0.075 C 
BRANCH  16  17
ATOM     17  S   UNL A   1      33.307  22.770  24.791  1.00  0.00    -0.126 SA
BRANCH  17  18
ATOM     18  C   UNL A   1      34.918  22.036  25.025  1.00  0.00     0.009 A 
ATOM     19  C   UNL A   1      35.209  20.672  24.924  1.00  0.00     0.015 A 
ATOM     20  C   UNL A   1      35.957  22.910  25.369  1.00  0.00     0.035 A 
ATOM     21  C   UNL A   1      36.523  20.204  25.058  1.00  0.00     0.003 A 
ATOM     22  C   UNL A   1      37.255  22.435  25.558  1.00  0.00     0.042 A 
ATOM     23  C   UNL A   1      37.552  21.090  25.369  1.00  0.00     0.020 A 
ATOM     24  Cl  UNL A   1      38.484  23.537  26.027  1.00  0.00    -0.084 Cl
ENDBRANCH  17  18
ENDBRANCH  16  17
ENDBRANCH  15  16
ENDBRANCH   8  15
ENDBRANCH   3   6
ENDBRANCH   1   2
BRANCH   1  25
ATOM     25  C   UNL A   1      33.425  27.994  27.005  1.00  0.00     0.042 C 
BRANCH  25  26
ATOM     26  C   UNL A   1      34.063  29.124  26.215  1.00  0.00     0.118 C 
BRANCH  26  27
ATOM     27  N   UNL A   1      33.919  30.423  26.869  1.00  0.00    -0.352 N 
ATOM     28  C   UNL A   1      34.678  31.000  27.855  1.00  0.00     0.251 C 
ATOM     29  H   UNL A   1      33.161  30.967  26.554  1.00  0.00     0.163 HD
ATOM     30  O   UNL A   1      34.314  32.047  28.386  1.00  0.00    -0.269 OA
BRANCH  28  31
ATOM     31  C   UNL A   1      35.925  30.365  28.304  1.00  0.00     0.039 A 
ATOM     32  C   UNL A   1      37.067  30.499  27.509  1.00  0.00     0.014 A 
ATOM     33  C   UNL A   1      35.964  29.627  29.488  1.00  0.00     0.014 A 
ATOM     34  C   UNL A   1      38.266  29.939  27.936  1.00  0.00     0.010 A 
ATOM     35  C   UNL A   1      37.180  29.160  29.962  1.00  0.00     0.010 A 
ATOM     36  C   UNL A   1      38.337  29.298  29.182  1.00  0.00    -0.014 A 
BRANCH  36  37
ATOM     37  C   UNL A   1      39.613  28.751  29.691  1.00  0.00     0.031 A 
ATOM     38  C   UNL A   1      40.326  29.451  30.812  1.00  0.00     0.074 A 
ATOM     39  C   UNL A   1      40.158  27.685  29.077  1.00  0.00     0.049 A 
ATOM     40  N   UNL A   1      41.490  29.182  31.339  1.00  0.00    -0.248 NA
ATOM     41  C   UNL A   1      39.662  30.631  31.393  1.00  0.00     0.031 C 
ATOM     42  C   UNL A   1      39.577  26.980  27.931  1.00  0.00     0.029 A 
ATOM     43  N   UNL A   1      41.335  27.023  29.311  1.00  0.00    -0.354 N 
ATOM     44  C   UNL A   1      41.717  30.179  32.280  1.00  0.00     0.074 A 
ATOM     45  C   UNL A   1      40.588  31.081  32.225  1.00  0.00     0.031 C 
ATOM     46  C   UNL A   1      40.396  25.980  27.568  1.00  0.00     0.029 A 
ATOM     47  C   UNL A   1      41.575  26.000  28.425  1.00  0.00     0.049 A 
ATOM     48  H   UNL A   1      41.950  27.260  30.042  1.00  0.00     0.167 HD
ATOM     49  C   UNL A   1      42.760  30.314  33.130  1.00  0.00     0.034 A 
ATOM     50  C   UNL A   1      42.636  25.179  28.311  1.00  0.00     0.034 A 
ATOM     51  C   UNL A   1      43.855  29.385  33.195  1.00  0.00     0.049 A 
ATOM     52  C   UNL A   1      43.765  25.329  29.293  1.00  0.00     0.074 A 
ATOM     53  C   UNL A   1      44.922  29.372  34.073  1.00  0.00     0.029 A 
ATOM     54  N   UNL A   1      44.027  28.310  32.336  1.00  0.00    -0.354 N 
ATOM     55  N   UNL A   1      43.895  26.189  30.274  1.00  0.00    -0.248 NA
ATOM     56  C   UNL A   1      44.876  24.377  29.176  1.00  0.00     0.031 C 
ATOM     57  C   UNL A   1      45.759  28.308  33.723  1.00  0.00     0.029 A 
ATOM     58  C   UNL A   1      45.191  27.633  32.653  1.00  0.00     0.049 A 
ATOM     59  H   UNL A   1      43.412  28.064  31.609  1.00  0.00     0.167 HD
ATOM     60  C   UNL A   1      45.084  25.860  30.914  1.00  0.00     0.074 A 
ATOM     61  C   UNL A   1      45.623  24.708  30.220  1.00  0.00     0.031 C 
ATOM     62  C   UNL A   1      45.684  26.462  31.972  1.00  0.00     0.034 A 
BRANCH  49  63
ATOM     63  C   UNL A   1      42.747  31.488  34.075  1.00  0.00     0.023 A 
ATOM     64  C   UNL A   1      43.351  32.705  33.692  1.00  0.00     0.012 A 
ATOM     65  C   UNL A   1      42.106  31.402  35.325  1.00  0.00     0.148 A 
ATOM     66  C   UNL A   1      43.354  33.801  34.553  1.00  0.00     0.002 A 
ATOM     67  C   UNL A   1      42.068  32.515  36.158  1.00  0.00     0.091 A 
ATOM     68  F   UNL A   1      41.558  30.233  35.684  1.00  0.00    -0.205 F 
ATOM     69  C   UNL A   1      42.704  33.709  35.780  1.00  0.00     0.022 A 
BRANCH  67  70
ATOM     70  S   UNL A   1      41.187  32.526  37.723  1.00  0.00     0.127 S 
ATOM     71  O   UNL A   1      42.083  31.740  38.571  1.00  0.00    -0.237 OA
ATOM     72  O   UNL A   1      41.144  33.953  38.039  1.00  0.00    -0.237 OA
ATOM     73  O   UNL A   1      39.889  31.922  37.458  1.00  0.00    -0.744 OA
ENDBRANCH  67  70
ENDBRANCH  49  63
BRANCH  50  74
ATOM     74  C   UNL A   1      42.648  24.116  27.269  1.00  0.00     0.023 A 
ATOM     75  C   UNL A   1      43.259  24.370  26.026  1.00  0.00     0.012 A 
ATOM     76  C   UNL A   1      42.095  22.844  27.514  1.00  0.00     0.148 A 
ATOM     77  C   UNL A   1      43.288  23.390  25.033  1.00  0.00     0.002 A 
ATOM     78  C   UNL A   1      42.179  21.854  26.544  1.00  0.00     0.091 A 
ATOM     79  F   UNL A   1      41.515  22.623  28.703  1.00  0.00    -0.205 F 
ATOM     80  C   UNL A   1      42.758  22.130  25.295  1.00  0.00     0.022 A 
BRANCH  78  81
ATOM     81  S   UNL A   1      41.646  20.164  26.841  1.00  0.00     0.127 S 
ATOM     82  O   UNL A   1      41.328  19.708  25.489  1.00  0.00    -0.237 OA
ATOM     83  O   UNL A   1      42.847  19.568  27.426  1.00  0.00    -0.237 OA
ATOM     84  O   UNL A   1      40.517  20.262  27.756  1.00  0.00    -0.744 OA
ENDBRANCH  78  81
ENDBRANCH  50  74
BRANCH  62  85
ATOM     85  C   UNL A   1      46.971  25.863  32.470  1.00  0.00     0.023 A 
ATOM     86  C   UNL A   1      46.960  24.988  33.574  1.00  0.00     0.012 A 
ATOM     87  C   UNL A   1      48.181  26.112  31.793  1.00  0.00     0.148 A 
ATOM     88  C   UNL A   1      48.142  24.399  34.020  1.00  0.00     0.002 A 
ATOM     89  C   UNL A   1      49.344  25.478  32.208  1.00  0.00     0.091 A 
ATOM     90  F   UNL A   1      48.170  26.961  30.756  1.00  0.00    -0.205 F 
ATOM     91  C   UNL A   1      49.330  24.633  33.331  1.00  0.00     0.022 A 
BRANCH  89  92
ATOM     92  S   UNL A   1      50.897  25.637  31.321  1.00  0.00     0.127 S 
ATOM     93  O   UNL A   1      51.211  27.051  31.522  1.00  0.00    -0.237 OA
ATOM     94  O   UNL A   1      51.764  24.710  32.047  1.00  0.00    -0.237 OA
ATOM     95  O   UNL A   1      50.615  25.252  29.945  1.00  0.00    -0.744 OA
ENDBRANCH  89  92
ENDBRANCH  62  85
ENDBRANCH  36  37
ENDBRANCH  28  31
ENDBRANCH  26  27
ENDBRANCH  25  26
ENDBRANCH   1  25
TORSDOF 18
ENDMDL
