MODEL 1
REMARK VINA RESULT:     -12.3      0.000      0.000
REMARK SMILES C#CCNC(=O)N[C@@]1(C(=O)NCCCNC(=O)c2ccc(-c3c4nc(c(-c5cccc(S(=O)(=O)[O-])c5F)c5ccc([nH]5)c(-c5cccc(S(=O)(=O)[O-])c5F)c5nc(c(-c6cccc(S(=O)(=O)[O-])c6F)c6ccc3[nH]6)C=C5)C=C4)cc2)CCc2ccccc21
REMARK SMILES IDX 13 1 12 2 11 3 9 4 10 5 8 7 81 8 88 9 82 10 83 11 87 12
REMARK SMILES IDX 84 13 86 14 85 15 7 16 4 17 5 18 6 20 3 22 2 23 1 24 14 25
REMARK SMILES IDX 15 26 16 27 17 29 18 30 19 31 80 32 20 33 79 34 21 35 22 36
REMARK SMILES IDX 23 37 73 38 24 39 78 40 72 41 74 42 25 43 77 44 71 45 70 46
REMARK SMILES IDX 26 48 58 49 38 50 57 51 39 52 42 53 56 54 75 55 40 56 41 57
REMARK SMILES IDX 55 59 76 60 43 61 27 62 28 63 36 64 29 65 31 66 37 67 30 68
REMARK SMILES IDX 32 69 33 70 34 71 35 72 59 73 60 74 68 75 61 76 63 77 69 78
REMARK SMILES IDX 62 79 64 80 65 81 66 82 67 83 44 84 45 85 53 86 46 87 48 88
REMARK SMILES IDX 54 89 47 90 49 91 50 92 51 93 52 94
REMARK H PARENT 11 6 4 19 7 21 15 28 74 47 42 58
REMARK Flexibility Score: inf
ROOT
ATOM      1  C   UNL A   1      33.298  29.268  24.293  1.00  0.00     0.042 C 
ENDROOT
BRANCH   1   2
ATOM      2  C   UNL A   1      33.828  27.859  23.884  1.00  0.00     0.117 C 
BRANCH   2   3
ATOM      3  N   UNL A   1      33.022  27.028  22.950  1.00  0.00    -0.354 N 
ATOM      4  C   UNL A   1      31.712  26.625  22.736  1.00  0.00     0.250 C 
ATOM      5  O   UNL A   1      31.562  26.019  21.660  1.00  0.00    -0.272 OA
ATOM      6  H   UNL A   1      33.608  26.637  22.263  1.00  0.00     0.163 HD
BRANCH   4   7
ATOM      7  C   UNL A   1      30.426  26.874  23.675  1.00  0.00     0.146 C 
ATOM      8  C   UNL A   1      29.142  25.993  23.461  1.00  0.00     0.048 C 
ATOM      9  C   UNL A   1      29.694  28.213  23.295  1.00  0.00    -0.010 A 
ATOM     10  C   UNL A   1      27.922  26.759  23.942  1.00  0.00     0.039 C 
ATOM     11  C   UNL A   1      28.288  28.070  23.378  1.00  0.00    -0.042 A 
ATOM     12  C   UNL A   1      30.172  29.346  22.649  1.00  0.00     0.007 A 
ATOM     13  C   UNL A   1      27.370  28.957  22.834  1.00  0.00     0.004 A 
ATOM     14  C   UNL A   1      29.251  30.251  22.070  1.00  0.00     0.000 A 
ATOM     15  C   UNL A   1      27.863  30.050  22.148  1.00  0.00     0.000 A 
BRANCH   7  16
ATOM     16  N   UNL A   1      30.808  26.709  25.050  1.00  0.00    -0.320 N 
ATOM     17  N   UNL A   1      31.167  24.340  25.117  1.00  0.00    -0.327 N 
ATOM     18  C   UNL A   1      31.118  25.563  25.686  1.00  0.00     0.316 C 
ATOM     19  H   UNL A   1      31.513  23.699  25.779  1.00  0.00     0.166 HD
ATOM     20  O   UNL A   1      31.436  25.656  26.874  1.00  0.00    -0.249 OA
ATOM     21  H   UNL A   1      30.848  27.531  25.591  1.00  0.00     0.166 HD
BRANCH  17  22
ATOM     22  C   UNL A   1      30.889  23.617  23.855  1.00  0.00     0.207 C 
BRANCH  22  23
ATOM     23  C   UNL A   1      31.966  22.864  23.210  1.00  0.00    -0.085 C 
ATOM     24  C   UNL A   1      32.960  22.250  22.909  1.00  0.00     0.006 C 
ENDBRANCH  22  23
ENDBRANCH  17  22
ENDBRANCH   7  16
ENDBRANCH   4   7
ENDBRANCH   2   3
ENDBRANCH   1   2
BRANCH   1  25
ATOM     25  C   UNL A   1      32.634  29.432  25.670  1.00  0.00     0.118 C 
BRANCH  25  26
ATOM     26  N   UNL A   1      32.439  30.837  26.000  1.00  0.00    -0.352 N 
ATOM     27  C   UNL A   1      33.033  31.623  26.959  1.00  0.00     0.251 C 
ATOM     28  H   UNL A   1      31.773  31.300  25.444  1.00  0.00     0.163 HD
ATOM     29  O   UNL A   1      32.451  32.655  27.296  1.00  0.00    -0.269 OA
BRANCH  27  30
ATOM     30  C   UNL A   1      34.346  31.298  27.586  1.00  0.00     0.039 A 
ATOM     31  C   UNL A   1      34.556  29.985  28.026  1.00  0.00     0.014 A 
ATOM     32  C   UNL A   1      35.315  32.267  27.873  1.00  0.00     0.014 A 
ATOM     33  C   UNL A   1      35.711  29.648  28.740  1.00  0.00     0.010 A 
ATOM     34  C   UNL A   1      36.506  31.911  28.527  1.00  0.00     0.010 A 
ATOM     35  C   UNL A   1      36.710  30.603  28.990  1.00  0.00    -0.014 A 
BRANCH  35  36
ATOM     36  C   UNL A   1      37.946  30.207  29.727  1.00  0.00     0.031 A 
ATOM     37  C   UNL A   1      38.205  30.668  31.140  1.00  0.00     0.074 A 
ATOM     38  C   UNL A   1      38.846  29.406  29.120  1.00  0.00     0.049 A 
ATOM     39  N   UNL A   1      39.174  30.329  31.953  1.00  0.00    -0.248 NA
ATOM     40  C   UNL A   1      37.267  31.647  31.711  1.00  0.00     0.031 C 
ATOM     41  C   UNL A   1      38.756  28.945  27.732  1.00  0.00     0.029 A 
ATOM     42  N   UNL A   1      40.007  28.834  29.583  1.00  0.00    -0.354 N 
ATOM     43  C   UNL A   1      38.980  31.067  33.116  1.00  0.00     0.074 A 
ATOM     44  C   UNL A   1      37.817  31.897  32.891  1.00  0.00     0.031 C 
ATOM     45  C   UNL A   1      39.795  28.138  27.467  1.00  0.00     0.029 A 
ATOM     46  C   UNL A   1      40.648  28.054  28.649  1.00  0.00     0.049 A 
ATOM     47  H   UNL A   1      40.346  28.971  30.496  1.00  0.00     0.167 HD
ATOM     48  C   UNL A   1      39.689  31.042  34.272  1.00  0.00     0.034 A 
ATOM     49  C   UNL A   1      41.795  27.351  28.727  1.00  0.00     0.034 A 
ATOM     50  C   UNL A   1      40.840  30.207  34.498  1.00  0.00     0.049 A 
ATOM     51  C   UNL A   1      42.548  27.321  30.026  1.00  0.00     0.074 A 
ATOM     52  C   UNL A   1      41.578  30.053  35.659  1.00  0.00     0.029 A 
ATOM     53  N   UNL A   1      41.440  29.406  33.539  1.00  0.00    -0.354 N 
ATOM     54  N   UNL A   1      42.257  27.907  31.162  1.00  0.00    -0.248 NA
ATOM     55  C   UNL A   1      43.766  26.501  30.067  1.00  0.00     0.031 C 
ATOM     56  C   UNL A   1      42.656  29.204  35.386  1.00  0.00     0.029 A 
ATOM     57  C   UNL A   1      42.554  28.776  34.072  1.00  0.00     0.049 A 
ATOM     58  H   UNL A   1      41.122  29.300  32.613  1.00  0.00     0.167 HD
ATOM     59  C   UNL A   1      43.238  27.504  32.061  1.00  0.00     0.074 A 
ATOM     60  C   UNL A   1      44.111  26.597  31.343  1.00  0.00     0.031 C 
ATOM     61  C   UNL A   1      43.407  27.860  33.358  1.00  0.00     0.034 A 
BRANCH  48  62
ATOM     62  C   UNL A   1      39.232  31.941  35.399  1.00  0.00     0.023 A 
ATOM     63  C   UNL A   1      38.344  31.451  36.379  1.00  0.00     0.012 A 
ATOM     64  C   UNL A   1      39.729  33.254  35.517  1.00  0.00     0.148 A 
ATOM     65  C   UNL A   1      37.926  32.265  37.432  1.00  0.00     0.002 A 
ATOM     66  C   UNL A   1      39.348  34.043  36.598  1.00  0.00     0.091 A 
ATOM     67  F   UNL A   1      40.560  33.711  34.570  1.00  0.00    -0.205 F 
ATOM     68  C   UNL A   1      38.434  33.555  37.547  1.00  0.00     0.022 A 
BRANCH  66  69
ATOM     69  S   UNL A   1      40.010  35.688  36.881  1.00  0.00     0.127 S 
ATOM     70  O   UNL A   1      39.362  36.054  38.139  1.00  0.00    -0.237 OA
ATOM     71  O   UNL A   1      41.445  35.425  36.988  1.00  0.00    -0.237 OA
ATOM     72  O   UNL A   1      39.621  36.485  35.725  1.00  0.00    -0.744 OA
ENDBRANCH  66  69
ENDBRANCH  48  62
BRANCH  49  73
ATOM     73  C   UNL A   1      42.283  26.593  27.539  1.00  0.00     0.023 A 
ATOM     74  C   UNL A   1      43.062  27.239  26.558  1.00  0.00     0.012 A 
ATOM     75  C   UNL A   1      41.993  25.224  27.393  1.00  0.00     0.148 A 
ATOM     76  C   UNL A   1      43.513  26.540  25.437  1.00  0.00     0.002 A 
ATOM     77  C   UNL A   1      42.498  24.519  26.308  1.00  0.00     0.091 A 
ATOM     78  F   UNL A   1      41.241  24.631  28.332  1.00  0.00    -0.205 F 
ATOM     79  C   UNL A   1      43.241  25.180  25.318  1.00  0.00     0.022 A 
BRANCH  77  80
ATOM     80  S   UNL A   1      42.312  22.741  26.146  1.00  0.00     0.127 S 
ATOM     81  O   UNL A   1      40.862  22.584  26.208  1.00  0.00    -0.237 OA
ATOM     82  O   UNL A   1      42.906  22.497  24.831  1.00  0.00    -0.237 OA
ATOM     83  O   UNL A   1      43.056  22.161  27.257  1.00  0.00    -0.744 OA
ENDBRANCH  77  80
ENDBRANCH  49  73
BRANCH  61  84
ATOM     84  C   UNL A   1      44.562  27.235  34.101  1.00  0.00     0.023 A 
ATOM     85  C   UNL A   1      45.839  27.833  34.063  1.00  0.00     0.012 A 
ATOM     86  C   UNL A   1      44.373  26.063  34.860  1.00  0.00     0.148 A 
ATOM     87  C   UNL A   1      46.920  27.240  34.716  1.00  0.00     0.002 A 
ATOM     88  C   UNL A   1      45.441  25.512  35.558  1.00  0.00     0.091 A 
ATOM     89  F   UNL A   1      43.157  25.499  34.875  1.00  0.00    -0.205 F 
ATOM     90  C   UNL A   1      46.720  26.086  35.469  1.00  0.00     0.022 A 
BRANCH  88  91
ATOM     91  S   UNL A   1      45.255  24.086  36.633  1.00  0.00     0.127 S 
ATOM     92  O   UNL A   1      46.637  23.839  37.041  1.00  0.00    -0.237 OA
ATOM     93  O   UNL A   1      44.390  24.609  37.691  1.00  0.00    -0.237 OA
ATOM     94  O   UNL A   1      44.649  23.043  35.818  1.00  0.00    -0.744 OA
ENDBRANCH  88  91
ENDBRANCH  61  84
ENDBRANCH  35  36
ENDBRANCH  27  30
ENDBRANCH  25  26
ENDBRANCH   1  25
TORSDOF 16
ENDMDL
MODEL 2
REMARK VINA RESULT:     -11.9      1.152      1.997
REMARK SMILES C#CCNC(=O)N[C@@]1(C(=O)NCCCNC(=O)c2ccc(-c3c4nc(c(-c5cccc(S(=O)(=O)[O-])c5F)c5ccc([nH]5)c(-c5cccc(S(=O)(=O)[O-])c5F)c5nc(c(-c6cccc(S(=O)(=O)[O-])c6F)c6ccc3[nH]6)C=C5)C=C4)cc2)CCc2ccccc21
REMARK SMILES IDX 13 1 12 2 11 3 9 4 10 5 8 7 81 8 88 9 82 10 83 11 87 12
REMARK SMILES IDX 84 13 86 14 85 15 7 16 4 17 5 18 6 20 3 22 2 23 1 24 14 25
REMARK SMILES IDX 15 26 16 27 17 29 18 30 19 31 80 32 20 33 79 34 21 35 22 36
REMARK SMILES IDX 23 37 73 38 24 39 78 40 72 41 74 42 25 43 77 44 71 45 70 46
REMARK SMILES IDX 26 48 58 49 38 50 57 51 39 52 42 53 56 54 75 55 40 56 41 57
REMARK SMILES IDX 55 59 76 60 43 61 27 62 28 63 36 64 29 65 31 66 37 67 30 68
REMARK SMILES IDX 32 69 33 70 34 71 35 72 59 73 60 74 68 75 61 76 63 77 69 78
REMARK SMILES IDX 62 79 64 80 65 81 66 82 67 83 44 84 45 85 53 86 46 87 48 88
REMARK SMILES IDX 54 89 47 90 49 91 50 92 51 93 52 94
REMARK H PARENT 11 6 4 19 7 21 15 28 74 47 42 58
REMARK Flexibility Score: inf
ROOT
ATOM      1  C   UNL A   1      31.762  28.468  25.948  1.00  0.00     0.042 C 
ENDROOT
BRANCH   1   2
ATOM      2  C   UNL A   1      32.090  27.329  26.963  1.00  0.00     0.117 C 
BRANCH   2   3
ATOM      3  N   UNL A   1      31.437  26.003  26.796  1.00  0.00    -0.354 N 
ATOM      4  C   UNL A   1      31.208  25.038  25.826  1.00  0.00     0.250 C 
ATOM      5  O   UNL A   1      30.714  23.995  26.288  1.00  0.00    -0.272 OA
ATOM      6  H   UNL A   1      31.040  25.718  27.650  1.00  0.00     0.163 HD
BRANCH   4   7
ATOM      7  C   UNL A   1      31.525  25.117  24.248  1.00  0.00     0.146 C 
ATOM      8  C   UNL A   1      32.862  25.789  23.769  1.00  0.00     0.048 C 
ATOM      9  C   UNL A   1      30.616  26.186  23.538  1.00  0.00    -0.010 A 
ATOM     10  C   UNL A   1      32.680  26.322  22.359  1.00  0.00     0.039 C 
ATOM     11  C   UNL A   1      31.335  26.894  22.545  1.00  0.00    -0.042 A 
ATOM     12  C   UNL A   1      29.385  26.710  23.913  1.00  0.00     0.007 A 
ATOM     13  C   UNL A   1      30.914  28.078  21.956  1.00  0.00     0.004 A 
ATOM     14  C   UNL A   1      28.948  27.928  23.338  1.00  0.00     0.000 A 
ATOM     15  C   UNL A   1      29.713  28.613  22.380  1.00  0.00     0.000 A 
BRANCH   7  16
ATOM     16  N   UNL A   1      31.517  23.790  23.698  1.00  0.00    -0.320 N 
ATOM     17  N   UNL A   1      33.447  22.865  24.779  1.00  0.00    -0.327 N 
ATOM     18  C   UNL A   1      32.399  22.799  23.932  1.00  0.00     0.316 C 
ATOM     19  H   UNL A   1      33.866  21.976  24.833  1.00  0.00     0.166 HD
ATOM     20  O   UNL A   1      32.190  21.724  23.362  1.00  0.00    -0.249 OA
ATOM     21  H   UNL A   1      30.782  23.580  23.079  1.00  0.00     0.166 HD
BRANCH  17  22
ATOM     22  C   UNL A   1      34.194  23.797  25.656  1.00  0.00     0.207 C 
BRANCH  22  23
ATOM     23  C   UNL A   1      35.650  23.879  25.536  1.00  0.00    -0.085 C 
ATOM     24  C   UNL A   1      36.848  23.731  25.572  1.00  0.00     0.006 C 
ENDBRANCH  22  23
ENDBRANCH  17  22
ENDBRANCH   7  16
ENDBRANCH   4   7
ENDBRANCH   2   3
ENDBRANCH   1   2
BRANCH   1  25
ATOM     25  C   UNL A   1      32.895  29.408  25.508  1.00  0.00     0.118 C 
BRANCH  25  26
ATOM     26  N   UNL A   1      32.643  30.777  25.935  1.00  0.00    -0.352 N 
ATOM     27  C   UNL A   1      33.193  31.512  26.959  1.00  0.00     0.251 C 
ATOM     28  H   UNL A   1      31.969  31.255  25.403  1.00  0.00     0.163 HD
ATOM     29  O   UNL A   1      32.569  32.495  27.359  1.00  0.00    -0.269 OA
BRANCH  27  30
ATOM     30  C   UNL A   1      34.508  31.190  27.584  1.00  0.00     0.039 A 
ATOM     31  C   UNL A   1      34.698  29.894  28.082  1.00  0.00     0.014 A 
ATOM     32  C   UNL A   1      35.499  32.150  27.813  1.00  0.00     0.014 A 
ATOM     33  C   UNL A   1      35.856  29.567  28.795  1.00  0.00     0.010 A 
ATOM     34  C   UNL A   1      36.693  31.801  28.468  1.00  0.00     0.010 A 
ATOM     35  C   UNL A   1      36.877  30.512  28.988  1.00  0.00    -0.014 A 
BRANCH  35  36
ATOM     36  C   UNL A   1      38.115  30.125  29.727  1.00  0.00     0.031 A 
ATOM     37  C   UNL A   1      38.388  30.623  31.125  1.00  0.00     0.074 A 
ATOM     38  C   UNL A   1      39.003  29.300  29.136  1.00  0.00     0.049 A 
ATOM     39  N   UNL A   1      39.360  30.297  31.940  1.00  0.00    -0.248 NA
ATOM     40  C   UNL A   1      37.463  31.625  31.675  1.00  0.00     0.031 C 
ATOM     41  C   UNL A   1      38.900  28.802  27.762  1.00  0.00     0.029 A 
ATOM     42  N   UNL A   1      40.162  28.731  29.606  1.00  0.00    -0.354 N 
ATOM     43  C   UNL A   1      39.181  31.069  33.084  1.00  0.00     0.074 A 
ATOM     44  C   UNL A   1      38.023  31.902  32.844  1.00  0.00     0.031 C 
ATOM     45  C   UNL A   1      39.929  27.979  27.512  1.00  0.00     0.029 A 
ATOM     46  C   UNL A   1      40.790  27.920  28.689  1.00  0.00     0.049 A 
ATOM     47  H   UNL A   1      40.510  28.890  30.513  1.00  0.00     0.167 HD
ATOM     48  C   UNL A   1      39.898  31.069  34.236  1.00  0.00     0.034 A 
ATOM     49  C   UNL A   1      41.932  27.210  28.778  1.00  0.00     0.034 A 
ATOM     50  C   UNL A   1      41.044  30.230  34.476  1.00  0.00     0.049 A 
ATOM     51  C   UNL A   1      42.694  27.208  30.073  1.00  0.00     0.074 A 
ATOM     52  C   UNL A   1      41.788  30.101  35.636  1.00  0.00     0.029 A 
ATOM     53  N   UNL A   1      41.630  29.397  33.535  1.00  0.00    -0.354 N 
ATOM     54  N   UNL A   1      42.416  27.828  31.194  1.00  0.00    -0.248 NA
ATOM     55  C   UNL A   1      43.905  26.379  30.127  1.00  0.00     0.031 C 
ATOM     56  C   UNL A   1      42.857  29.236  35.378  1.00  0.00     0.029 A 
ATOM     57  C   UNL A   1      42.741  28.772  34.077  1.00  0.00     0.049 A 
ATOM     58  H   UNL A   1      41.304  29.269  32.615  1.00  0.00     0.167 HD
ATOM     59  C   UNL A   1      43.401  27.440  32.096  1.00  0.00     0.074 A 
ATOM     60  C   UNL A   1      44.260  26.507  31.397  1.00  0.00     0.031 C 
ATOM     61  C   UNL A   1      43.581  27.830  33.383  1.00  0.00     0.034 A 
BRANCH  48  62
ATOM     62  C   UNL A   1      39.457  32.002  35.340  1.00  0.00     0.023 A 
ATOM     63  C   UNL A   1      38.524  31.566  36.304  1.00  0.00     0.012 A 
ATOM     64  C   UNL A   1      40.012  33.292  35.456  1.00  0.00     0.148 A 
ATOM     65  C   UNL A   1      38.119  32.412  37.337  1.00  0.00     0.002 A 
ATOM     66  C   UNL A   1      39.643  34.111  36.518  1.00  0.00     0.091 A 
ATOM     67  F   UNL A   1      40.887  33.698  34.524  1.00  0.00    -0.205 F 
ATOM     68  C   UNL A   1      38.685  33.679  37.450  1.00  0.00     0.022 A 
BRANCH  66  69
ATOM     69  S   UNL A   1      40.374  35.727  36.798  1.00  0.00     0.127 S 
ATOM     70  O   UNL A   1      41.773  35.482  36.451  1.00  0.00    -0.237 OA
ATOM     71  O   UNL A   1      39.647  36.561  35.840  1.00  0.00    -0.237 OA
ATOM     72  O   UNL A   1      40.126  36.047  38.197  1.00  0.00    -0.744 OA
ENDBRANCH  66  69
ENDBRANCH  48  62
BRANCH  49  73
ATOM     73  C   UNL A   1      42.404  26.415  27.608  1.00  0.00     0.023 A 
ATOM     74  C   UNL A   1      43.258  27.002  26.653  1.00  0.00     0.012 A 
ATOM     75  C   UNL A   1      42.025  25.069  27.454  1.00  0.00     0.148 A 
ATOM     76  C   UNL A   1      43.696  26.269  25.548  1.00  0.00     0.002 A 
ATOM     77  C   UNL A   1      42.515  24.327  26.388  1.00  0.00     0.091 A 
ATOM     78  F   UNL A   1      41.204  24.533  28.369  1.00  0.00    -0.205 F 
ATOM     79  C   UNL A   1      43.335  24.930  25.422  1.00  0.00     0.022 A 
BRANCH  77  80
ATOM     80  S   UNL A   1      42.212  22.565  26.223  1.00  0.00     0.127 S 
ATOM     81  O   UNL A   1      42.964  22.244  25.012  1.00  0.00    -0.237 OA
ATOM     82  O   UNL A   1      42.787  22.045  27.464  1.00  0.00    -0.237 OA
ATOM     83  O   UNL A   1      40.766  22.418  26.123  1.00  0.00    -0.744 OA
ENDBRANCH  77  80
ENDBRANCH  49  73
BRANCH  61  84
ATOM     84  C   UNL A   1      44.737  27.216  34.134  1.00  0.00     0.023 A 
ATOM     85  C   UNL A   1      46.014  27.813  34.087  1.00  0.00     0.012 A 
ATOM     86  C   UNL A   1      44.547  26.054  34.910  1.00  0.00     0.148 A 
ATOM     87  C   UNL A   1      47.095  27.229  34.748  1.00  0.00     0.002 A 
ATOM     88  C   UNL A   1      45.615  25.513  35.615  1.00  0.00     0.091 A 
ATOM     89  F   UNL A   1      43.331  25.491  34.932  1.00  0.00    -0.205 F 
ATOM     90  C   UNL A   1      46.894  26.086  35.518  1.00  0.00     0.022 A 
BRANCH  88  91
ATOM     91  S   UNL A   1      45.430  24.103  36.710  1.00  0.00     0.127 S 
ATOM     92  O   UNL A   1      44.915  23.083  35.798  1.00  0.00    -0.237 OA
ATOM     93  O   UNL A   1      46.804  23.881  37.163  1.00  0.00    -0.237 OA
ATOM     94  O   UNL A   1      44.510  24.525  37.758  1.00  0.00    -0.744 OA
ENDBRANCH  88  91
ENDBRANCH  61  84
ENDBRANCH  35  36
ENDBRANCH  27  30
ENDBRANCH  25  26
ENDBRANCH   1  25
TORSDOF 16
ENDMDL
MODEL 3
REMARK VINA RESULT:     -11.9      4.831     10.105
REMARK SMILES C#CCNC(=O)N[C@@]1(C(=O)NCCCNC(=O)c2ccc(-c3c4nc(c(-c5cccc(S(=O)(=O)[O-])c5F)c5ccc([nH]5)c(-c5cccc(S(=O)(=O)[O-])c5F)c5nc(c(-c6cccc(S(=O)(=O)[O-])c6F)c6ccc3[nH]6)C=C5)C=C4)cc2)CCc2ccccc21
REMARK SMILES IDX 13 1 12 2 11 3 9 4 10 5 8 7 81 8 88 9 82 10 83 11 87 12
REMARK SMILES IDX 84 13 86 14 85 15 7 16 4 17 5 18 6 20 3 22 2 23 1 24 14 25
REMARK SMILES IDX 15 26 16 27 17 29 18 30 19 31 80 32 20 33 79 34 21 35 22 36
REMARK SMILES IDX 23 37 73 38 24 39 78 40 72 41 74 42 25 43 77 44 71 45 70 46
REMARK SMILES IDX 26 48 58 49 38 50 57 51 39 52 42 53 56 54 75 55 40 56 41 57
REMARK SMILES IDX 55 59 76 60 43 61 27 62 28 63 36 64 29 65 31 66 37 67 30 68
REMARK SMILES IDX 32 69 33 70 34 71 35 72 59 73 60 74 68 75 61 76 63 77 69 78
REMARK SMILES IDX 62 79 64 80 65 81 66 82 67 83 44 84 45 85 53 86 46 87 48 88
REMARK SMILES IDX 54 89 47 90 49 91 50 92 51 93 52 94
REMARK H PARENT 11 6 4 19 7 21 15 28 74 47 42 58
REMARK Flexibility Score: inf
ROOT
ATOM      1  C   UNL A   1      35.912  22.473  24.144  1.00  0.00     0.042 C 
ENDROOT
BRANCH   1   2
ATOM      2  C   UNL A   1      35.660  23.988  23.875  1.00  0.00     0.117 C 
BRANCH   2   3
ATOM      3  N   UNL A   1      34.336  24.418  23.350  1.00  0.00    -0.354 N 
ATOM      4  C   UNL A   1      32.992  24.395  23.691  1.00  0.00     0.250 C 
ATOM      5  O   UNL A   1      32.285  25.069  22.920  1.00  0.00    -0.272 OA
ATOM      6  H   UNL A   1      34.452  24.864  22.480  1.00  0.00     0.163 HD
BRANCH   4   7
ATOM      7  C   UNL A   1      32.291  23.644  24.933  1.00  0.00     0.146 C 
ATOM      8  C   UNL A   1      33.047  23.577  26.309  1.00  0.00     0.048 C 
ATOM      9  C   UNL A   1      32.304  22.084  24.735  1.00  0.00    -0.010 A 
ATOM     10  C   UNL A   1      32.570  22.362  27.085  1.00  0.00     0.039 C 
ATOM     11  C   UNL A   1      32.548  21.414  25.958  1.00  0.00    -0.042 A 
ATOM     12  C   UNL A   1      32.399  21.326  23.575  1.00  0.00     0.007 A 
ATOM     13  C   UNL A   1      32.907  20.078  26.069  1.00  0.00     0.004 A 
ATOM     14  C   UNL A   1      32.784  19.967  23.668  1.00  0.00     0.000 A 
ATOM     15  C   UNL A   1      33.050  19.353  24.902  1.00  0.00     0.000 A 
BRANCH   7  16
ATOM     16  N   UNL A   1      31.019  24.256  25.197  1.00  0.00    -0.320 N 
ATOM     17  N   UNL A   1      31.730  26.407  25.982  1.00  0.00    -0.327 N 
ATOM     18  C   UNL A   1      30.786  25.489  25.686  1.00  0.00     0.316 C 
ATOM     19  H   UNL A   1      31.284  27.250  26.226  1.00  0.00     0.166 HD
ATOM     20  O   UNL A   1      29.604  25.819  25.820  1.00  0.00    -0.249 OA
ATOM     21  H   UNL A   1      30.225  23.711  24.997  1.00  0.00     0.166 HD
BRANCH  17  22
ATOM     22  C   UNL A   1      33.196  26.601  26.069  1.00  0.00     0.207 C 
BRANCH  22  23
ATOM     23  C   UNL A   1      33.723  27.925  26.403  1.00  0.00    -0.085 C 
ATOM     24  C   UNL A   1      34.383  28.899  26.669  1.00  0.00     0.006 C 
ENDBRANCH  22  23
ENDBRANCH  17  22
ENDBRANCH   7  16
ENDBRANCH   4   7
ENDBRANCH   2   3
ENDBRANCH   1   2
BRANCH   1  25
ATOM     25  C   UNL A   1      36.130  22.011  25.594  1.00  0.00     0.118 C 
BRANCH  25  26
ATOM     26  N   UNL A   1      37.160  20.984  25.673  1.00  0.00    -0.352 N 
ATOM     27  C   UNL A   1      38.524  21.092  25.819  1.00  0.00     0.251 C 
ATOM     28  H   UNL A   1      36.825  20.062  25.613  1.00  0.00     0.163 HD
ATOM     29  O   UNL A   1      39.213  20.127  25.486  1.00  0.00    -0.269 OA
BRANCH  27  30
ATOM     30  C   UNL A   1      39.195  22.300  26.378  1.00  0.00     0.039 A 
ATOM     31  C   UNL A   1      38.827  23.551  25.864  1.00  0.00     0.014 A 
ATOM     32  C   UNL A   1      40.259  22.231  27.284  1.00  0.00     0.014 A 
ATOM     33  C   UNL A   1      39.511  24.708  26.250  1.00  0.00     0.010 A 
ATOM     34  C   UNL A   1      40.897  23.402  27.724  1.00  0.00     0.010 A 
ATOM     35  C   UNL A   1      40.548  24.654  27.196  1.00  0.00    -0.014 A 
BRANCH  35  36
ATOM     36  C   UNL A   1      41.239  25.910  27.611  1.00  0.00     0.031 A 
ATOM     37  C   UNL A   1      42.661  26.201  27.202  1.00  0.00     0.074 A 
ATOM     38  C   UNL A   1      40.571  26.812  28.359  1.00  0.00     0.049 A 
ATOM     39  N   UNL A   1      43.367  27.288  27.391  1.00  0.00    -0.248 NA
ATOM     40  C   UNL A   1      43.393  25.133  26.506  1.00  0.00     0.031 C 
ATOM     41  C   UNL A   1      39.216  26.626  28.885  1.00  0.00     0.029 A 
ATOM     42  N   UNL A   1      40.929  28.061  28.805  1.00  0.00    -0.354 N 
ATOM     43  C   UNL A   1      44.628  27.028  26.863  1.00  0.00     0.074 A 
ATOM     44  C   UNL A   1      44.599  25.667  26.374  1.00  0.00     0.031 C 
ATOM     45  C   UNL A   1      38.846  27.730  29.552  1.00  0.00     0.029 A 
ATOM     46  C   UNL A   1      39.948  28.687  29.539  1.00  0.00     0.049 A 
ATOM     47  H   UNL A   1      41.805  28.469  28.618  1.00  0.00     0.167 HD
ATOM     48  C   UNL A   1      45.703  27.850  26.772  1.00  0.00     0.034 A 
ATOM     49  C   UNL A   1      39.932  29.894  30.139  1.00  0.00     0.034 A 
ATOM     50  C   UNL A   1      45.725  29.209  27.250  1.00  0.00     0.049 A 
ATOM     51  C   UNL A   1      41.126  30.795  30.002  1.00  0.00     0.074 A 
ATOM     52  C   UNL A   1      46.738  30.146  27.135  1.00  0.00     0.029 A 
ATOM     53  N   UNL A   1      44.701  29.819  27.958  1.00  0.00    -0.354 N 
ATOM     54  N   UNL A   1      42.250  30.583  29.363  1.00  0.00    -0.248 NA
ATOM     55  C   UNL A   1      41.034  32.116  30.637  1.00  0.00     0.031 C 
ATOM     56  C   UNL A   1      46.349  31.301  27.823  1.00  0.00     0.029 A 
ATOM     57  C   UNL A   1      45.066  31.108  28.310  1.00  0.00     0.049 A 
ATOM     58  H   UNL A   1      43.839  29.397  28.179  1.00  0.00     0.167 HD
ATOM     59  C   UNL A   1      42.988  31.755  29.493  1.00  0.00     0.074 A 
ATOM     60  C   UNL A   1      42.167  32.681  30.244  1.00  0.00     0.031 C 
ATOM     61  C   UNL A   1      44.236  32.033  29.040  1.00  0.00     0.034 A 
BRANCH  48  62
ATOM     62  C   UNL A   1      46.952  27.307  26.117  1.00  0.00     0.023 A 
ATOM     63  C   UNL A   1      47.167  27.499  24.736  1.00  0.00     0.012 A 
ATOM     64  C   UNL A   1      47.941  26.658  26.882  1.00  0.00     0.148 A 
ATOM     65  C   UNL A   1      48.322  27.016  24.121  1.00  0.00     0.002 A 
ATOM     66  C   UNL A   1      49.114  26.226  26.272  1.00  0.00     0.091 A 
ATOM     67  F   UNL A   1      47.717  26.471  28.191  1.00  0.00    -0.205 F 
ATOM     68  C   UNL A   1      49.299  26.389  24.890  1.00  0.00     0.022 A 
BRANCH  66  69
ATOM     69  S   UNL A   1      50.467  25.481  27.188  1.00  0.00     0.127 S 
ATOM     70  O   UNL A   1      49.837  24.272  27.716  1.00  0.00    -0.237 OA
ATOM     71  O   UNL A   1      51.455  25.243  26.134  1.00  0.00    -0.237 OA
ATOM     72  O   UNL A   1      50.868  26.461  28.188  1.00  0.00    -0.744 OA
ENDBRANCH  66  69
ENDBRANCH  48  62
BRANCH  49  73
ATOM     73  C   UNL A   1      38.725  30.329  30.898  1.00  0.00     0.023 A 
ATOM     74  C   UNL A   1      38.622  30.059  32.278  1.00  0.00     0.012 A 
ATOM     75  C   UNL A   1      37.687  31.030  30.257  1.00  0.00     0.148 A 
ATOM     76  C   UNL A   1      37.491  30.452  32.995  1.00  0.00     0.002 A 
ATOM     77  C   UNL A   1      36.594  31.474  30.989  1.00  0.00     0.091 A 
ATOM     78  F   UNL A   1      37.800  31.268  28.943  1.00  0.00    -0.205 F 
ATOM     79  C   UNL A   1      36.483  31.168  32.355  1.00  0.00     0.022 A 
BRANCH  77  80
ATOM     80  S   UNL A   1      35.319  32.519  30.277  1.00  0.00     0.127 S 
ATOM     81  O   UNL A   1      34.862  31.708  29.151  1.00  0.00    -0.237 OA
ATOM     82  O   UNL A   1      34.370  32.631  31.384  1.00  0.00    -0.237 OA
ATOM     83  O   UNL A   1      35.981  33.769  29.925  1.00  0.00    -0.744 OA
ENDBRANCH  77  80
ENDBRANCH  49  73
BRANCH  61  84
ATOM     84  C   UNL A   1      44.777  33.415  29.313  1.00  0.00     0.023 A 
ATOM     85  C   UNL A   1      45.450  33.690  30.522  1.00  0.00     0.012 A 
ATOM     86  C   UNL A   1      44.638  34.438  28.354  1.00  0.00     0.148 A 
ATOM     87  C   UNL A   1      45.918  34.975  30.797  1.00  0.00     0.002 A 
ATOM     88  C   UNL A   1      45.162  35.699  28.609  1.00  0.00     0.091 A 
ATOM     89  F   UNL A   1      43.984  34.164  27.216  1.00  0.00    -0.205 F 
ATOM     90  C   UNL A   1      45.783  35.976  29.838  1.00  0.00     0.022 A 
BRANCH  88  91
ATOM     91  S   UNL A   1      45.123  37.022  27.395  1.00  0.00     0.127 S 
ATOM     92  O   UNL A   1      45.701  38.133  28.147  1.00  0.00    -0.237 OA
ATOM     93  O   UNL A   1      45.979  36.490  26.334  1.00  0.00    -0.237 OA
ATOM     94  O   UNL A   1      43.725  37.182  27.020  1.00  0.00    -0.744 OA
ENDBRANCH  88  91
ENDBRANCH  61  84
ENDBRANCH  35  36
ENDBRANCH  27  30
ENDBRANCH  25  26
ENDBRANCH   1  25
TORSDOF 16
ENDMDL
