MODEL 1
REMARK VINA RESULT:     -11.7      0.000      0.000
REMARK SMILES Cc1cccc([C@H]([NH3+])[C@H](O)C(=O)NCCCNC(=O)c2ccc(-c3c4nc(c(-c5cccc(S(=O)(=O)[O-])c5F)c5ccc([nH]5)c(-c5cccc(S(=O)(=O)[O-])c5F)c5nc(c(-c6cccc(S(=O)(=O)[O-])c6F)c6ccc3[nH]6)C=C5)C=C4)cc2)c1
REMARK SMILES IDX 15 1 14 2 13 3 11 4 12 5 9 7 7 8 6 9 1 10 2 11 3 12 83 13
REMARK SMILES IDX 4 14 5 15 8 16 10 20 16 22 17 23 18 24 19 26 20 27 21 28
REMARK SMILES IDX 82 29 22 30 81 31 23 32 24 33 25 34 75 35 26 36 80 37 74 38
REMARK SMILES IDX 76 39 27 40 79 41 73 42 72 43 28 45 60 46 40 47 59 48 41 49
REMARK SMILES IDX 44 50 58 51 77 52 42 53 43 54 57 56 78 57 45 58 29 59 30 60
REMARK SMILES IDX 38 61 31 62 33 63 39 64 32 65 34 66 35 67 36 68 37 69 61 70
REMARK SMILES IDX 62 71 70 72 63 73 65 74 71 75 64 76 66 77 67 78 68 79 69 80
REMARK SMILES IDX 46 81 47 82 55 83 48 84 50 85 56 86 49 87 51 88 52 89 53 90
REMARK SMILES IDX 54 91
REMARK H PARENT 13 6 8 17 8 18 8 19 10 21 17 25 76 44 44 55
REMARK Flexibility Score: inf
ROOT
ATOM      1  C   UNL A   1      32.373  30.834  26.746  1.00  0.00     0.042 C 
ENDROOT
BRANCH   1   2
ATOM      2  C   UNL A   1      31.795  30.015  25.607  1.00  0.00     0.117 C 
BRANCH   2   3
ATOM      3  N   UNL A   1      32.790  29.675  24.608  1.00  0.00    -0.354 N 
ATOM      4  C   UNL A   1      32.696  29.199  23.342  1.00  0.00     0.255 C 
ATOM      5  O   UNL A   1      33.768  29.078  22.731  1.00  0.00    -0.272 OA
ATOM      6  H   UNL A   1      33.717  29.816  24.910  1.00  0.00     0.163 HD
BRANCH   4   7
ATOM      7  C   UNL A   1      31.387  28.766  22.626  1.00  0.00     0.266 C 
BRANCH   7   8
ATOM      8  C   UNL A   1      31.186  27.256  22.264  1.00  0.00     0.250 C 
BRANCH   8   9
ATOM      9  C   UNL A   1      31.051  26.198  23.368  1.00  0.00     0.013 A 
ATOM     10  C   UNL A   1      31.783  22.444  23.659  1.00  0.00     0.044 C 
ATOM     11  C   UNL A   1      31.327  23.831  23.994  1.00  0.00    -0.051 A 
ATOM     12  C   UNL A   1      30.735  24.085  25.231  1.00  0.00     0.003 A 
ATOM     13  C   UNL A   1      31.467  24.882  23.074  1.00  0.00     0.013 A 
ATOM     14  C   UNL A   1      30.352  25.379  25.562  1.00  0.00     0.001 A 
ATOM     15  C   UNL A   1      30.535  26.425  24.651  1.00  0.00     0.010 A 
ENDBRANCH   8   9
BRANCH   8  16
ATOM     16  N   UNL A   1      32.269  26.800  21.351  1.00  0.00    -0.349 N 
ATOM     17  H   UNL A   1      32.323  27.425  20.546  1.00  0.00     0.345 HD
ATOM     18  H   UNL A   1      32.067  25.852  21.030  1.00  0.00     0.345 HD
ATOM     19  H   UNL A   1      33.159  26.807  21.848  1.00  0.00     0.345 HD
ENDBRANCH   8  16
ENDBRANCH   7   8
BRANCH   7  20
ATOM     20  O   UNL A   1      30.962  29.678  21.617  1.00  0.00    -0.378 OA
ATOM     21  H   UNL A   1      31.557  29.614  20.853  1.00  0.00     0.211 HD
ENDBRANCH   7  20
ENDBRANCH   4   7
ENDBRANCH   2   3
ENDBRANCH   1   2
BRANCH   1  22
ATOM     22  C   UNL A   1      33.785  30.436  27.128  1.00  0.00     0.118 C 
BRANCH  22  23
ATOM     23  N   UNL A   1      34.551  31.540  27.700  1.00  0.00    -0.352 N 
ATOM     24  C   UNL A   1      35.742  31.514  28.400  1.00  0.00     0.251 C 
ATOM     25  H   UNL A   1      34.161  32.434  27.569  1.00  0.00     0.163 HD
ATOM     26  O   UNL A   1      36.154  32.550  28.921  1.00  0.00    -0.269 OA
BRANCH  24  27
ATOM     27  C   UNL A   1      36.564  30.282  28.382  1.00  0.00     0.039 A 
ATOM     28  C   UNL A   1      36.806  29.652  29.609  1.00  0.00     0.014 A 
ATOM     29  C   UNL A   1      37.313  29.950  27.259  1.00  0.00     0.014 A 
ATOM     30  C   UNL A   1      37.981  28.928  29.779  1.00  0.00     0.010 A 
ATOM     31  C   UNL A   1      38.524  29.326  27.447  1.00  0.00     0.010 A 
ATOM     32  C   UNL A   1      38.888  28.896  28.727  1.00  0.00    -0.014 A 
BRANCH  32  33
ATOM     33  C   UNL A   1      40.278  28.489  28.845  1.00  0.00     0.031 A 
ATOM     34  C   UNL A   1      40.630  27.069  28.701  1.00  0.00     0.074 A 
ATOM     35  C   UNL A   1      41.219  29.458  28.840  1.00  0.00     0.049 A 
ATOM     36  N   UNL A   1      41.796  26.578  28.932  1.00  0.00    -0.248 NA
ATOM     37  C   UNL A   1      39.644  26.073  28.307  1.00  0.00     0.031 C 
ATOM     38  C   UNL A   1      42.630  29.329  28.504  1.00  0.00     0.029 A 
ATOM     39  N   UNL A   1      41.113  30.749  29.370  1.00  0.00    -0.354 N 
ATOM     40  C   UNL A   1      41.801  25.286  28.450  1.00  0.00     0.074 A 
ATOM     41  C   UNL A   1      40.416  24.993  28.174  1.00  0.00     0.031 C 
ATOM     42  C   UNL A   1      43.302  30.343  29.072  1.00  0.00     0.029 A 
ATOM     43  C   UNL A   1      42.365  31.013  29.958  1.00  0.00     0.049 A 
ATOM     44  H   UNL A   1      40.331  31.346  29.339  1.00  0.00     0.167 HD
ATOM     45  C   UNL A   1      43.003  24.689  28.206  1.00  0.00     0.034 A 
ATOM     46  C   UNL A   1      42.540  31.184  31.303  1.00  0.00     0.034 A 
ATOM     47  C   UNL A   1      44.101  25.512  28.740  1.00  0.00     0.049 A 
ATOM     48  C   UNL A   1      43.542  30.209  31.906  1.00  0.00     0.074 A 
ATOM     49  C   UNL A   1      44.976  26.420  28.167  1.00  0.00     0.029 A 
ATOM     50  N   UNL A   1      44.210  25.680  30.116  1.00  0.00    -0.354 N 
ATOM     51  N   UNL A   1      44.019  29.167  31.284  1.00  0.00    -0.248 NA
ATOM     52  C   UNL A   1      44.064  30.321  33.266  1.00  0.00     0.031 C 
ATOM     53  C   UNL A   1      45.528  27.214  29.212  1.00  0.00     0.029 A 
ATOM     54  C   UNL A   1      45.022  26.762  30.418  1.00  0.00     0.049 A 
ATOM     55  H   UNL A   1      43.770  25.107  30.786  1.00  0.00     0.167 HD
ATOM     56  C   UNL A   1      44.773  28.412  32.143  1.00  0.00     0.074 A 
ATOM     57  C   UNL A   1      44.838  29.223  33.348  1.00  0.00     0.031 C 
ATOM     58  C   UNL A   1      45.218  27.159  31.812  1.00  0.00     0.034 A 
BRANCH  45  59
ATOM     59  C   UNL A   1      43.237  23.523  27.250  1.00  0.00     0.023 A 
ATOM     60  C   UNL A   1      43.987  23.792  26.079  1.00  0.00     0.012 A 
ATOM     61  C   UNL A   1      42.715  22.211  27.344  1.00  0.00     0.148 A 
ATOM     62  C   UNL A   1      44.130  22.863  25.040  1.00  0.00     0.002 A 
ATOM     63  C   UNL A   1      42.816  21.295  26.290  1.00  0.00     0.091 A 
ATOM     64  F   UNL A   1      42.161  21.789  28.478  1.00  0.00    -0.205 F 
ATOM     65  C   UNL A   1      43.518  21.622  25.130  1.00  0.00     0.022 A 
BRANCH  63  66
ATOM     66  S   UNL A   1      42.009  19.682  26.329  1.00  0.00     0.127 S 
ATOM     67  O   UNL A   1      40.594  20.043  26.216  1.00  0.00    -0.237 OA
ATOM     68  O   UNL A   1      42.563  19.025  25.147  1.00  0.00    -0.237 OA
ATOM     69  O   UNL A   1      42.366  19.072  27.604  1.00  0.00    -0.744 OA
ENDBRANCH  63  66
ENDBRANCH  45  59
BRANCH  46  70
ATOM     70  C   UNL A   1      41.327  31.710  32.005  1.00  0.00     0.023 A 
ATOM     71  C   UNL A   1      40.849  32.981  31.597  1.00  0.00     0.012 A 
ATOM     72  C   UNL A   1      40.458  30.859  32.710  1.00  0.00     0.148 A 
ATOM     73  C   UNL A   1      39.503  33.321  31.737  1.00  0.00     0.002 A 
ATOM     74  C   UNL A   1      39.118  31.214  32.862  1.00  0.00     0.091 A 
ATOM     75  F   UNL A   1      40.928  29.687  33.158  1.00  0.00    -0.205 F 
ATOM     76  C   UNL A   1      38.629  32.420  32.334  1.00  0.00     0.022 A 
BRANCH  74  77
ATOM     77  S   UNL A   1      37.934  30.090  33.618  1.00  0.00     0.127 S 
ATOM     78  O   UNL A   1      36.669  30.611  33.108  1.00  0.00    -0.237 OA
ATOM     79  O   UNL A   1      38.331  28.793  33.071  1.00  0.00    -0.237 OA
ATOM     80  O   UNL A   1      38.164  30.225  35.049  1.00  0.00    -0.744 OA
ENDBRANCH  74  77
ENDBRANCH  46  70
BRANCH  58  81
ATOM     81  C   UNL A   1      45.845  26.161  32.771  1.00  0.00     0.023 A 
ATOM     82  C   UNL A   1      47.233  26.103  32.999  1.00  0.00     0.012 A 
ATOM     83  C   UNL A   1      45.031  25.351  33.606  1.00  0.00     0.148 A 
ATOM     84  C   UNL A   1      47.792  25.253  33.960  1.00  0.00     0.002 A 
ATOM     85  C   UNL A   1      45.582  24.596  34.638  1.00  0.00     0.091 A 
ATOM     86  F   UNL A   1      43.706  25.292  33.396  1.00  0.00    -0.205 F 
ATOM     87  C   UNL A   1      46.966  24.518  34.800  1.00  0.00     0.022 A 
BRANCH  85  88
ATOM     88  S   UNL A   1      44.531  23.844  35.892  1.00  0.00     0.127 S 
ATOM     89  O   UNL A   1      45.510  23.216  36.777  1.00  0.00    -0.237 OA
ATOM     90  O   UNL A   1      43.845  25.002  36.469  1.00  0.00    -0.237 OA
ATOM     91  O   UNL A   1      43.657  22.943  35.153  1.00  0.00    -0.744 OA
ENDBRANCH  85  88
ENDBRANCH  58  81
ENDBRANCH  32  33
ENDBRANCH  24  27
ENDBRANCH  22  23
ENDBRANCH   1  22
TORSDOF 17
ENDMDL
MODEL 2
REMARK VINA RESULT:     -11.6      1.496      2.302
REMARK SMILES Cc1cccc([C@H]([NH3+])[C@H](O)C(=O)NCCCNC(=O)c2ccc(-c3c4nc(c(-c5cccc(S(=O)(=O)[O-])c5F)c5ccc([nH]5)c(-c5cccc(S(=O)(=O)[O-])c5F)c5nc(c(-c6cccc(S(=O)(=O)[O-])c6F)c6ccc3[nH]6)C=C5)C=C4)cc2)c1
REMARK SMILES IDX 15 1 14 2 13 3 11 4 12 5 9 7 7 8 6 9 1 10 2 11 3 12 83 13
REMARK SMILES IDX 4 14 5 15 8 16 10 20 16 22 17 23 18 24 19 26 20 27 21 28
REMARK SMILES IDX 82 29 22 30 81 31 23 32 24 33 25 34 75 35 26 36 80 37 74 38
REMARK SMILES IDX 76 39 27 40 79 41 73 42 72 43 28 45 60 46 40 47 59 48 41 49
REMARK SMILES IDX 44 50 58 51 77 52 42 53 43 54 57 56 78 57 45 58 29 59 30 60
REMARK SMILES IDX 38 61 31 62 33 63 39 64 32 65 34 66 35 67 36 68 37 69 61 70
REMARK SMILES IDX 62 71 70 72 63 73 65 74 71 75 64 76 66 77 67 78 68 79 69 80
REMARK SMILES IDX 46 81 47 82 55 83 48 84 50 85 56 86 49 87 51 88 52 89 53 90
REMARK SMILES IDX 54 91
REMARK H PARENT 13 6 8 17 8 18 8 19 10 21 17 25 76 44 44 55
REMARK Flexibility Score: inf
ROOT
ATOM      1  C   UNL A   1      32.229  30.957  26.883  1.00  0.00     0.042 C 
ENDROOT
BRANCH   1   2
ATOM      2  C   UNL A   1      31.760  30.321  25.588  1.00  0.00     0.117 C 
BRANCH   2   3
ATOM      3  N   UNL A   1      32.862  29.830  24.781  1.00  0.00    -0.354 N 
ATOM      4  C   UNL A   1      33.099  28.641  24.176  1.00  0.00     0.255 C 
ATOM      5  O   UNL A   1      34.134  28.580  23.496  1.00  0.00    -0.272 OA
ATOM      6  H   UNL A   1      33.580  30.492  24.648  1.00  0.00     0.163 HD
BRANCH   4   7
ATOM      7  C   UNL A   1      32.219  27.366  24.295  1.00  0.00     0.266 C 
BRANCH   7   8
ATOM      8  C   UNL A   1      31.187  27.050  23.160  1.00  0.00     0.250 C 
BRANCH   8   9
ATOM      9  C   UNL A   1      29.877  27.841  23.052  1.00  0.00     0.013 A 
ATOM     10  C   UNL A   1      28.901  31.364  21.887  1.00  0.00     0.044 C 
ATOM     11  C   UNL A   1      28.808  29.978  22.450  1.00  0.00    -0.051 A 
ATOM     12  C   UNL A   1      27.584  29.503  22.920  1.00  0.00     0.003 A 
ATOM     13  C   UNL A   1      29.940  29.152  22.532  1.00  0.00     0.013 A 
ATOM     14  C   UNL A   1      27.485  28.203  23.401  1.00  0.00     0.001 A 
ATOM     15  C   UNL A   1      28.613  27.376  23.439  1.00  0.00     0.010 A 
ENDBRANCH   8   9
BRANCH   8  16
ATOM     16  N   UNL A   1      30.827  25.606  23.182  1.00  0.00    -0.349 N 
ATOM     17  H   UNL A   1      30.924  25.245  24.131  1.00  0.00     0.345 HD
ATOM     18  H   UNL A   1      31.450  25.091  22.558  1.00  0.00     0.345 HD
ATOM     19  H   UNL A   1      29.863  25.491  22.870  1.00  0.00     0.345 HD
ENDBRANCH   8  16
ENDBRANCH   7   8
BRANCH   7  20
ATOM     20  O   UNL A   1      31.738  27.128  25.615  1.00  0.00    -0.378 OA
ATOM     21  H   UNL A   1      31.422  27.962  25.999  1.00  0.00     0.211 HD
ENDBRANCH   7  20
ENDBRANCH   4   7
ENDBRANCH   2   3
ENDBRANCH   1   2
BRANCH   1  22
ATOM     22  C   UNL A   1      33.594  30.481  27.338  1.00  0.00     0.118 C 
BRANCH  22  23
ATOM     23  N   UNL A   1      34.442  31.566  27.824  1.00  0.00    -0.352 N 
ATOM     24  C   UNL A   1      35.665  31.508  28.464  1.00  0.00     0.251 C 
ATOM     25  H   UNL A   1      34.090  32.474  27.674  1.00  0.00     0.163 HD
ATOM     26  O   UNL A   1      36.153  32.542  28.918  1.00  0.00    -0.269 OA
BRANCH  24  27
ATOM     27  C   UNL A   1      36.424  30.237  28.458  1.00  0.00     0.039 A 
ATOM     28  C   UNL A   1      36.693  29.642  29.697  1.00  0.00     0.014 A 
ATOM     29  C   UNL A   1      37.102  29.826  27.316  1.00  0.00     0.014 A 
ATOM     30  C   UNL A   1      37.838  28.866  29.841  1.00  0.00     0.010 A 
ATOM     31  C   UNL A   1      38.288  29.148  27.473  1.00  0.00     0.010 A 
ATOM     32  C   UNL A   1      38.691  28.749  28.752  1.00  0.00    -0.014 A 
BRANCH  32  33
ATOM     33  C   UNL A   1      40.063  28.277  28.823  1.00  0.00     0.031 A 
ATOM     34  C   UNL A   1      40.338  26.835  28.727  1.00  0.00     0.074 A 
ATOM     35  C   UNL A   1      41.049  29.195  28.729  1.00  0.00     0.049 A 
ATOM     36  N   UNL A   1      41.488  26.296  28.925  1.00  0.00    -0.248 NA
ATOM     37  C   UNL A   1      39.286  25.876  28.426  1.00  0.00     0.031 C 
ATOM     38  C   UNL A   1      42.435  28.979  28.333  1.00  0.00     0.029 A 
ATOM     39  N   UNL A   1      41.034  30.512  29.204  1.00  0.00    -0.354 N 
ATOM     40  C   UNL A   1      41.406  24.986  28.503  1.00  0.00     0.074 A 
ATOM     41  C   UNL A   1      39.997  24.753  28.305  1.00  0.00     0.031 C 
ATOM     42  C   UNL A   1      43.183  29.981  28.823  1.00  0.00     0.029 A 
ATOM     43  C   UNL A   1      42.324  30.736  29.720  1.00  0.00     0.049 A 
ATOM     44  H   UNL A   1      40.281  31.146  29.183  1.00  0.00     0.167 HD
ATOM     45  C   UNL A   1      42.563  24.318  28.229  1.00  0.00     0.034 A 
ATOM     46  C   UNL A   1      42.574  30.956  31.047  1.00  0.00     0.034 A 
ATOM     47  C   UNL A   1      43.726  25.106  28.673  1.00  0.00     0.049 A 
ATOM     48  C   UNL A   1      43.555  29.958  31.645  1.00  0.00     0.074 A 
ATOM     49  C   UNL A   1      44.615  25.943  28.019  1.00  0.00     0.029 A 
ATOM     50  N   UNL A   1      43.911  25.327  30.034  1.00  0.00    -0.354 N 
ATOM     51  N   UNL A   1      43.949  28.867  31.049  1.00  0.00    -0.248 NA
ATOM     52  C   UNL A   1      44.148  30.101  32.972  1.00  0.00     0.031 C 
ATOM     53  C   UNL A   1      45.257  26.751  28.999  1.00  0.00     0.029 A 
ATOM     54  C   UNL A   1      44.789  26.378  30.248  1.00  0.00     0.049 A 
ATOM     55  H   UNL A   1      43.477  24.807  30.749  1.00  0.00     0.167 HD
ATOM     56  C   UNL A   1      44.707  28.112  31.905  1.00  0.00     0.074 A 
ATOM     57  C   UNL A   1      44.871  28.970  33.067  1.00  0.00     0.031 C 
ATOM     58  C   UNL A   1      45.072  26.825  31.611  1.00  0.00     0.034 A 
BRANCH  45  59
ATOM     59  C   UNL A   1      42.693  23.101  27.317  1.00  0.00     0.023 A 
ATOM     60  C   UNL A   1      41.962  21.945  27.680  1.00  0.00     0.012 A 
ATOM     61  C   UNL A   1      43.535  22.954  26.190  1.00  0.00     0.148 A 
ATOM     62  C   UNL A   1      42.122  20.712  27.035  1.00  0.00     0.002 A 
ATOM     63  C   UNL A   1      43.733  21.715  25.569  1.00  0.00     0.091 A 
ATOM     64  F   UNL A   1      44.119  24.018  25.644  1.00  0.00    -0.205 F 
ATOM     65  C   UNL A   1      43.032  20.587  25.996  1.00  0.00     0.022 A 
BRANCH  63  66
ATOM     66  S   UNL A   1      44.932  21.478  24.241  1.00  0.00     0.127 S 
ATOM     67  O   UNL A   1      46.196  21.798  24.907  1.00  0.00    -0.237 OA
ATOM     68  O   UNL A   1      44.760  20.064  23.913  1.00  0.00    -0.237 OA
ATOM     69  O   UNL A   1      44.564  22.410  23.182  1.00  0.00    -0.744 OA
ENDBRANCH  63  66
ENDBRANCH  45  59
BRANCH  46  70
ATOM     70  C   UNL A   1      41.424  31.573  31.780  1.00  0.00     0.023 A 
ATOM     71  C   UNL A   1      41.002  32.856  31.349  1.00  0.00     0.012 A 
ATOM     72  C   UNL A   1      40.540  30.796  32.549  1.00  0.00     0.148 A 
ATOM     73  C   UNL A   1      39.684  33.277  31.534  1.00  0.00     0.002 A 
ATOM     74  C   UNL A   1      39.230  31.233  32.744  1.00  0.00     0.091 A 
ATOM     75  F   UNL A   1      40.962  29.614  33.016  1.00  0.00    -0.205 F 
ATOM     76  C   UNL A   1      38.787  32.448  32.197  1.00  0.00     0.022 A 
BRANCH  74  77
ATOM     77  S   UNL A   1      38.018  30.203  33.587  1.00  0.00     0.127 S 
ATOM     78  O   UNL A   1      36.765  30.755  33.082  1.00  0.00    -0.237 OA
ATOM     79  O   UNL A   1      38.344  28.863  33.099  1.00  0.00    -0.237 OA
ATOM     80  O   UNL A   1      38.292  30.401  35.003  1.00  0.00    -0.744 OA
ENDBRANCH  74  77
ENDBRANCH  46  70
BRANCH  58  81
ATOM     81  C   UNL A   1      45.696  25.838  32.583  1.00  0.00     0.023 A 
ATOM     82  C   UNL A   1      47.090  25.690  32.719  1.00  0.00     0.012 A 
ATOM     83  C   UNL A   1      44.890  25.138  33.521  1.00  0.00     0.148 A 
ATOM     84  C   UNL A   1      47.656  24.856  33.690  1.00  0.00     0.002 A 
ATOM     85  C   UNL A   1      45.461  24.403  34.557  1.00  0.00     0.091 A 
ATOM     86  F   UNL A   1      43.553  25.165  33.406  1.00  0.00    -0.205 F 
ATOM     87  C   UNL A   1      46.844  24.233  34.628  1.00  0.00     0.022 A 
BRANCH  85  88
ATOM     88  S   UNL A   1      44.454  23.802  35.923  1.00  0.00     0.127 S 
ATOM     89  O   UNL A   1      43.468  22.972  35.235  1.00  0.00    -0.237 OA
ATOM     90  O   UNL A   1      45.423  23.053  36.726  1.00  0.00    -0.237 OA
ATOM     91  O   UNL A   1      43.949  25.005  36.571  1.00  0.00    -0.744 OA
ENDBRANCH  85  88
ENDBRANCH  58  81
ENDBRANCH  32  33
ENDBRANCH  24  27
ENDBRANCH  22  23
ENDBRANCH   1  22
TORSDOF 17
ENDMDL
MODEL 3
REMARK VINA RESULT:     -11.6      5.337     11.298
REMARK SMILES Cc1cccc([C@H]([NH3+])[C@H](O)C(=O)NCCCNC(=O)c2ccc(-c3c4nc(c(-c5cccc(S(=O)(=O)[O-])c5F)c5ccc([nH]5)c(-c5cccc(S(=O)(=O)[O-])c5F)c5nc(c(-c6cccc(S(=O)(=O)[O-])c6F)c6ccc3[nH]6)C=C5)C=C4)cc2)c1
REMARK SMILES IDX 15 1 14 2 13 3 11 4 12 5 9 7 7 8 6 9 1 10 2 11 3 12 83 13
REMARK SMILES IDX 4 14 5 15 8 16 10 20 16 22 17 23 18 24 19 26 20 27 21 28
REMARK SMILES IDX 82 29 22 30 81 31 23 32 24 33 25 34 75 35 26 36 80 37 74 38
REMARK SMILES IDX 76 39 27 40 79 41 73 42 72 43 28 45 60 46 40 47 59 48 41 49
REMARK SMILES IDX 44 50 58 51 77 52 42 53 43 54 57 56 78 57 45 58 29 59 30 60
REMARK SMILES IDX 38 61 31 62 33 63 39 64 32 65 34 66 35 67 36 68 37 69 61 70
REMARK SMILES IDX 62 71 70 72 63 73 65 74 71 75 64 76 66 77 67 78 68 79 69 80
REMARK SMILES IDX 46 81 47 82 55 83 48 84 50 85 56 86 49 87 51 88 52 89 53 90
REMARK SMILES IDX 54 91
REMARK H PARENT 13 6 8 17 8 18 8 19 10 21 17 25 76 44 44 55
REMARK Flexibility Score: inf
ROOT
ATOM      1  C   UNL A   1      43.600  24.207  28.466  1.00  0.00     0.042 C 
ENDROOT
BRANCH   1   2
ATOM      2  C   UNL A   1      44.910  23.561  28.878  1.00  0.00     0.117 C 
BRANCH   2   3
ATOM      3  N   UNL A   1      45.939  23.700  27.864  1.00  0.00    -0.354 N 
ATOM      4  C   UNL A   1      45.892  23.761  26.511  1.00  0.00     0.255 C 
ATOM      5  O   UNL A   1      46.978  23.951  25.943  1.00  0.00    -0.272 OA
ATOM      6  H   UNL A   1      46.850  23.761  28.232  1.00  0.00     0.163 HD
BRANCH   4   7
ATOM      7  C   UNL A   1      44.623  23.576  25.633  1.00  0.00     0.266 C 
BRANCH   7   8
ATOM      8  C   UNL A   1      44.624  22.470  24.525  1.00  0.00     0.250 C 
BRANCH   8   9
ATOM      9  C   UNL A   1      44.844  20.996  24.891  1.00  0.00     0.013 A 
ATOM     10  C   UNL A   1      42.635  18.149  26.207  1.00  0.00     0.044 C 
ATOM     11  C   UNL A   1      43.837  18.918  25.749  1.00  0.00    -0.051 A 
ATOM     12  C   UNL A   1      45.091  18.307  25.754  1.00  0.00     0.003 A 
ATOM     13  C   UNL A   1      43.728  20.253  25.332  1.00  0.00     0.013 A 
ATOM     14  C   UNL A   1      46.200  19.002  25.288  1.00  0.00     0.001 A 
ATOM     15  C   UNL A   1      46.070  20.320  24.837  1.00  0.00     0.010 A 
ENDBRANCH   8   9
BRANCH   8  16
ATOM     16  N   UNL A   1      45.610  22.810  23.462  1.00  0.00    -0.349 N 
ATOM     17  H   UNL A   1      45.179  23.440  22.786  1.00  0.00     0.345 HD
ATOM     18  H   UNL A   1      45.907  21.956  22.989  1.00  0.00     0.345 HD
ATOM     19  H   UNL A   1      46.420  23.264  23.883  1.00  0.00     0.345 HD
ENDBRANCH   8  16
ENDBRANCH   7   8
BRANCH   7  20
ATOM     20  O   UNL A   1      44.019  24.806  25.242  1.00  0.00    -0.378 OA
ATOM     21  H   UNL A   1      44.668  25.524  25.319  1.00  0.00     0.211 HD
ENDBRANCH   7  20
ENDBRANCH   4   7
ENDBRANCH   2   3
ENDBRANCH   1   2
BRANCH   1  22
ATOM     22  C   UNL A   1      42.381  23.357  28.762  1.00  0.00     0.118 C 
BRANCH  22  23
ATOM     23  N   UNL A   1      41.790  22.774  27.562  1.00  0.00    -0.352 N 
ATOM     24  C   UNL A   1      40.718  23.211  26.808  1.00  0.00     0.251 C 
ATOM     25  H   UNL A   1      42.217  21.947  27.242  1.00  0.00     0.163 HD
ATOM     26  O   UNL A   1      40.288  22.495  25.905  1.00  0.00    -0.269 OA
BRANCH  24  27
ATOM     27  C   UNL A   1      40.208  24.588  27.006  1.00  0.00     0.039 A 
ATOM     28  C   UNL A   1      40.891  25.626  26.361  1.00  0.00     0.014 A 
ATOM     29  C   UNL A   1      39.301  24.865  28.023  1.00  0.00     0.014 A 
ATOM     30  C   UNL A   1      40.895  26.893  26.934  1.00  0.00     0.010 A 
ATOM     31  C   UNL A   1      39.384  26.084  28.652  1.00  0.00     0.010 A 
ATOM     32  C   UNL A   1      40.249  27.063  28.152  1.00  0.00    -0.014 A 
BRANCH  32  33
ATOM     33  C   UNL A   1      40.439  28.198  29.038  1.00  0.00     0.031 A 
ATOM     34  C   UNL A   1      39.525  29.347  28.947  1.00  0.00     0.074 A 
ATOM     35  C   UNL A   1      41.294  28.052  30.073  1.00  0.00     0.049 A 
ATOM     36  N   UNL A   1      39.687  30.460  29.571  1.00  0.00    -0.248 NA
ATOM     37  C   UNL A   1      38.351  29.323  28.087  1.00  0.00     0.031 C 
ATOM     38  C   UNL A   1      41.334  28.817  31.312  1.00  0.00     0.029 A 
ATOM     39  N   UNL A   1      42.471  27.295  30.104  1.00  0.00    -0.354 N 
ATOM     40  C   UNL A   1      38.518  31.179  29.436  1.00  0.00     0.074 A 
ATOM     41  C   UNL A   1      37.771  30.477  28.422  1.00  0.00     0.031 C 
ATOM     42  C   UNL A   1      42.566  28.719  31.838  1.00  0.00     0.029 A 
ATOM     43  C   UNL A   1      43.392  28.069  30.834  1.00  0.00     0.049 A 
ATOM     44  H   UNL A   1      42.623  26.410  29.700  1.00  0.00     0.167 HD
ATOM     45  C   UNL A   1      38.274  32.192  30.316  1.00  0.00     0.034 A 
ATOM     46  C   UNL A   1      44.527  28.601  30.286  1.00  0.00     0.034 A 
ATOM     47  C   UNL A   1      39.470  32.462  31.131  1.00  0.00     0.049 A 
ATOM     48  C   UNL A   1      44.608  30.114  30.428  1.00  0.00     0.074 A 
ATOM     49  C   UNL A   1      39.856  32.087  32.408  1.00  0.00     0.029 A 
ATOM     50  N   UNL A   1      40.608  32.970  30.513  1.00  0.00    -0.354 N 
ATOM     51  N   UNL A   1      43.618  30.871  30.813  1.00  0.00    -0.248 NA
ATOM     52  C   UNL A   1      45.805  30.893  30.121  1.00  0.00     0.031 C 
ATOM     53  C   UNL A   1      41.264  32.271  32.511  1.00  0.00     0.029 A 
ATOM     54  C   UNL A   1      41.725  32.795  31.315  1.00  0.00     0.049 A 
ATOM     55  H   UNL A   1      40.618  33.397  29.626  1.00  0.00     0.167 HD
ATOM     56  C   UNL A   1      43.962  32.191  30.691  1.00  0.00     0.074 A 
ATOM     57  C   UNL A   1      45.371  32.149  30.334  1.00  0.00     0.031 C 
ATOM     58  C   UNL A   1      43.042  33.198  30.826  1.00  0.00     0.034 A 
BRANCH  45  59
ATOM     59  C   UNL A   1      36.899  32.761  30.658  1.00  0.00     0.023 A 
ATOM     60  C   UNL A   1      36.341  32.386  31.903  1.00  0.00     0.012 A 
ATOM     61  C   UNL A   1      36.064  33.553  29.835  1.00  0.00     0.148 A 
ATOM     62  C   UNL A   1      35.023  32.692  32.267  1.00  0.00     0.002 A 
ATOM     63  C   UNL A   1      34.733  33.824  30.173  1.00  0.00     0.091 A 
ATOM     64  F   UNL A   1      36.549  34.121  28.734  1.00  0.00    -0.205 F 
ATOM     65  C   UNL A   1      34.206  33.387  31.389  1.00  0.00     0.022 A 
BRANCH  63  66
ATOM     66  S   UNL A   1      33.607  34.686  29.057  1.00  0.00     0.127 S 
ATOM     67  O   UNL A   1      33.267  33.637  28.094  1.00  0.00    -0.237 OA
ATOM     68  O   UNL A   1      32.514  35.068  29.949  1.00  0.00    -0.237 OA
ATOM     69  O   UNL A   1      34.361  35.796  28.486  1.00  0.00    -0.744 OA
ENDBRANCH  63  66
ENDBRANCH  45  59
BRANCH  46  70
ATOM     70  C   UNL A   1      45.055  27.818  29.124  1.00  0.00     0.023 A 
ATOM     71  C   UNL A   1      44.416  28.013  27.874  1.00  0.00     0.012 A 
ATOM     72  C   UNL A   1      46.344  27.256  29.141  1.00  0.00     0.148 A 
ATOM     73  C   UNL A   1      45.104  27.814  26.677  1.00  0.00     0.002 A 
ATOM     74  C   UNL A   1      47.019  27.043  27.939  1.00  0.00     0.091 A 
ATOM     75  F   UNL A   1      46.922  27.006  30.323  1.00  0.00    -0.205 F 
ATOM     76  C   UNL A   1      46.420  27.366  26.711  1.00  0.00     0.022 A 
BRANCH  74  77
ATOM     77  S   UNL A   1      48.726  26.474  27.915  1.00  0.00     0.127 S 
ATOM     78  O   UNL A   1      49.380  27.476  28.750  1.00  0.00    -0.237 OA
ATOM     79  O   UNL A   1      48.626  25.143  28.512  1.00  0.00    -0.237 OA
ATOM     80  O   UNL A   1      49.088  26.465  26.504  1.00  0.00    -0.744 OA
ENDBRANCH  74  77
ENDBRANCH  46  70
BRANCH  58  81
ATOM     81  C   UNL A   1      43.272  34.659  30.475  1.00  0.00     0.023 A 
ATOM     82  C   UNL A   1      43.664  35.613  31.433  1.00  0.00     0.012 A 
ATOM     83  C   UNL A   1      43.260  35.087  29.121  1.00  0.00     0.148 A 
ATOM     84  C   UNL A   1      43.974  36.932  31.082  1.00  0.00     0.002 A 
ATOM     85  C   UNL A   1      43.682  36.366  28.765  1.00  0.00     0.091 A 
ATOM     86  F   UNL A   1      42.821  34.259  28.160  1.00  0.00    -0.205 F 
ATOM     87  C   UNL A   1      44.010  37.303  29.745  1.00  0.00     0.022 A 
BRANCH  85  88
ATOM     88  S   UNL A   1      43.981  36.790  27.041  1.00  0.00     0.127 S 
ATOM     89  O   UNL A   1      44.656  35.593  26.543  1.00  0.00    -0.237 OA
ATOM     90  O   UNL A   1      42.626  36.983  26.521  1.00  0.00    -0.237 OA
ATOM     91  O   UNL A   1      44.778  38.008  27.090  1.00  0.00    -0.744 OA
ENDBRANCH  85  88
ENDBRANCH  58  81
ENDBRANCH  32  33
ENDBRANCH  24  27
ENDBRANCH  22  23
ENDBRANCH   1  22
TORSDOF 17
ENDMDL
