MODEL 1
REMARK VINA RESULT:     -11.5      0.000      0.000
REMARK SMILES CC(C)(C)OC(=O)N[C@@H](CC(=O)NCCCNC(=O)c1ccc(-c2c3nc(c(-c4cccc(S(=O)(=O)[O-])c4F)c4ccc([nH]4)c(-c4cccc(S(=O)(=O)[O-])c4F)c4nc(c(-c5cccc(S(=O)(=O)[O-])c5F)c5ccc2[nH]5)C=C4)C=C3)cc1)c1cccnc1
REMARK SMILES IDX 14 1 13 2 11 3 12 4 10 6 9 7 8 8 6 9 7 10 5 12 2 13 1 14
REMARK SMILES IDX 3 15 4 16 83 17 84 18 88 19 85 20 87 21 86 22 15 23 16 24
REMARK SMILES IDX 17 25 18 26 19 28 20 29 21 30 82 31 22 32 81 33 23 34 24 35
REMARK SMILES IDX 25 36 75 37 26 38 80 39 74 40 76 41 27 42 79 43 73 44 72 45
REMARK SMILES IDX 28 47 60 48 40 49 59 50 41 51 44 52 58 53 77 54 42 55 43 56
REMARK SMILES IDX 57 58 78 59 45 60 29 61 30 62 38 63 31 64 33 65 39 66 32 67
REMARK SMILES IDX 34 68 35 69 36 70 37 71 61 72 62 73 70 74 63 75 65 76 71 77
REMARK SMILES IDX 64 78 66 79 67 80 68 81 69 82 46 83 47 84 55 85 48 86 50 87
REMARK SMILES IDX 56 88 49 89 51 90 52 91 53 92 54 93
REMARK H PARENT 13 5 8 11 17 27 76 46 44 57
REMARK Flexibility Score: inf
ROOT
ATOM      1  C   UNL A   1      31.086  30.565  25.668  1.00  0.00     0.117 C 
ENDROOT
BRANCH   1   2
ATOM      2  N   UNL A   1      32.356  30.106  25.132  1.00  0.00    -0.356 N 
ATOM      3  C   UNL A   1      32.698  28.928  24.549  1.00  0.00     0.222 C 
ATOM      4  O   UNL A   1      33.795  28.885  23.980  1.00  0.00    -0.275 OA
ATOM      5  H   UNL A   1      33.090  30.758  25.201  1.00  0.00     0.163 HD
BRANCH   3   6
ATOM      6  C   UNL A   1      31.790  27.711  24.551  1.00  0.00     0.130 C 
BRANCH   6   7
ATOM      7  C   UNL A   1      31.024  27.334  23.262  1.00  0.00     0.126 C 
BRANCH   7   8
ATOM      8  N   UNL A   1      31.916  27.138  22.138  1.00  0.00    -0.314 N 
ATOM      9  C   UNL A   1      32.523  26.015  21.677  1.00  0.00     0.408 C 
ATOM     10  O   UNL A   1      33.452  26.114  20.888  1.00  0.00    -0.225 OA
ATOM     11  H   UNL A   1      32.114  27.953  21.622  1.00  0.00     0.167 HD
BRANCH   9  12
ATOM     12  O   UNL A   1      32.002  24.859  22.148  1.00  0.00    -0.444 OA
BRANCH  12  13
ATOM     13  C   UNL A   1      32.764  24.110  23.140  1.00  0.00     0.106 C 
ATOM     14  C   UNL A   1      34.021  24.951  23.413  1.00  0.00     0.056 C 
ATOM     15  C   UNL A   1      33.190  22.753  22.569  1.00  0.00     0.056 C 
ATOM     16  C   UNL A   1      32.015  23.949  24.476  1.00  0.00     0.056 C 
ENDBRANCH  12  13
ENDBRANCH   9  12
ENDBRANCH   7   8
BRANCH   7  17
ATOM     17  C   UNL A   1      29.882  28.214  22.786  1.00  0.00    -0.007 A 
ATOM     18  C   UNL A   1      28.557  28.142  23.224  1.00  0.00     0.009 A 
ATOM     19  C   UNL A   1      30.188  29.294  21.952  1.00  0.00     0.116 A 
ATOM     20  C   UNL A   1      27.626  29.104  22.831  1.00  0.00     0.020 A 
ATOM     21  N   UNL A   1      29.305  30.234  21.540  1.00  0.00    -0.264 NA
ATOM     22  C   UNL A   1      28.045  30.126  22.002  1.00  0.00     0.111 A 
ENDBRANCH   7  17
ENDBRANCH   6   7
ENDBRANCH   3   6
ENDBRANCH   1   2
BRANCH   1  23
ATOM     23  C   UNL A   1      31.161  31.977  26.241  1.00  0.00     0.042 C 
BRANCH  23  24
ATOM     24  C   UNL A   1      32.458  32.316  26.957  1.00  0.00     0.118 C 
BRANCH  24  25
ATOM     25  N   UNL A   1      32.508  33.702  27.385  1.00  0.00    -0.352 N 
ATOM     26  C   UNL A   1      33.277  34.308  28.350  1.00  0.00     0.251 C 
ATOM     27  H   UNL A   1      31.893  34.304  26.908  1.00  0.00     0.163 HD
ATOM     28  O   UNL A   1      32.981  35.444  28.711  1.00  0.00    -0.269 OA
BRANCH  26  29
ATOM     29  C   UNL A   1      34.440  33.619  28.965  1.00  0.00     0.039 A 
ATOM     30  C   UNL A   1      34.203  32.569  29.859  1.00  0.00     0.014 A 
ATOM     31  C   UNL A   1      35.753  34.031  28.730  1.00  0.00     0.014 A 
ATOM     32  C   UNL A   1      35.275  31.912  30.474  1.00  0.00     0.010 A 
ATOM     33  C   UNL A   1      36.823  33.311  29.262  1.00  0.00     0.010 A 
ATOM     34  C   UNL A   1      36.599  32.259  30.160  1.00  0.00    -0.014 A 
BRANCH  34  35
ATOM     35  C   UNL A   1      37.757  31.551  30.775  1.00  0.00     0.031 A 
ATOM     36  C   UNL A   1      38.142  31.822  32.209  1.00  0.00     0.074 A 
ATOM     37  C   UNL A   1      38.511  30.722  30.025  1.00  0.00     0.049 A 
ATOM     38  N   UNL A   1      39.147  31.345  32.899  1.00  0.00    -0.248 NA
ATOM     39  C   UNL A   1      37.307  32.777  32.958  1.00  0.00     0.031 C 
ATOM     40  C   UNL A   1      38.292  30.430  28.607  1.00  0.00     0.029 A 
ATOM     41  N   UNL A   1      39.629  29.992  30.345  1.00  0.00    -0.354 N 
ATOM     42  C   UNL A   1      39.092  31.973  34.137  1.00  0.00     0.074 A 
ATOM     43  C   UNL A   1      37.975  32.889  34.097  1.00  0.00     0.031 C 
ATOM     44  C   UNL A   1      39.235  29.573  28.183  1.00  0.00     0.029 A 
ATOM     45  C   UNL A   1      40.148  29.284  29.284  1.00  0.00     0.049 A 
ATOM     46  H   UNL A   1      40.022  29.976  31.247  1.00  0.00     0.167 HD
ATOM     47  C   UNL A   1      39.882  31.786  35.223  1.00  0.00     0.034 A 
ATOM     48  C   UNL A   1      41.239  28.496  29.206  1.00  0.00     0.034 A 
ATOM     49  C   UNL A   1      40.959  30.835  35.280  1.00  0.00     0.049 A 
ATOM     50  C   UNL A   1      42.074  28.275  30.438  1.00  0.00     0.074 A 
ATOM     51  C   UNL A   1      41.750  30.497  36.364  1.00  0.00     0.029 A 
ATOM     52  N   UNL A   1      41.406  30.079  34.208  1.00  0.00    -0.354 N 
ATOM     53  N   UNL A   1      41.908  28.754  31.646  1.00  0.00    -0.248 NA
ATOM     54  C   UNL A   1      43.231  27.377  30.303  1.00  0.00     0.031 C 
ATOM     55  C   UNL A   1      42.697  29.560  35.939  1.00  0.00     0.029 A 
ATOM     56  C   UNL A   1      42.472  29.287  34.599  1.00  0.00     0.049 A 
ATOM     57  H   UNL A   1      41.021  30.101  33.303  1.00  0.00     0.167 HD
ATOM     58  C   UNL A   1      42.910  28.185  32.424  1.00  0.00     0.074 A 
ATOM     59  C   UNL A   1      43.668  27.311  31.553  1.00  0.00     0.031 C 
ATOM     60  C   UNL A   1      43.185  28.380  33.737  1.00  0.00     0.034 A 
BRANCH  47  61
ATOM     61  C   UNL A   1      39.583  32.596  36.460  1.00  0.00     0.023 A 
ATOM     62  C   UNL A   1      40.227  33.835  36.658  1.00  0.00     0.012 A 
ATOM     63  C   UNL A   1      38.622  32.161  37.394  1.00  0.00     0.148 A 
ATOM     64  C   UNL A   1      39.949  34.609  37.785  1.00  0.00     0.002 A 
ATOM     65  C   UNL A   1      38.315  32.961  38.489  1.00  0.00     0.091 A 
ATOM     66  F   UNL A   1      38.033  30.973  37.200  1.00  0.00    -0.205 F 
ATOM     67  C   UNL A   1      38.987  34.177  38.693  1.00  0.00     0.022 A 
BRANCH  65  68
ATOM     68  S   UNL A   1      37.032  32.535  39.672  1.00  0.00     0.127 S 
ATOM     69  O   UNL A   1      37.538  31.275  40.215  1.00  0.00    -0.237 OA
ATOM     70  O   UNL A   1      37.085  33.663  40.603  1.00  0.00    -0.237 OA
ATOM     71  O   UNL A   1      35.797  32.435  38.908  1.00  0.00    -0.744 OA
ENDBRANCH  65  68
ENDBRANCH  47  61
BRANCH  48  72
ATOM     72  C   UNL A   1      41.566  27.801  27.928  1.00  0.00     0.023 A 
ATOM     73  C   UNL A   1      42.004  28.558  26.824  1.00  0.00     0.012 A 
ATOM     74  C   UNL A   1      41.466  26.402  27.803  1.00  0.00     0.148 A 
ATOM     75  C   UNL A   1      42.304  27.941  25.609  1.00  0.00     0.002 A 
ATOM     76  C   UNL A   1      41.819  25.786  26.607  1.00  0.00     0.091 A 
ATOM     77  F   UNL A   1      41.037  25.700  28.861  1.00  0.00    -0.205 F 
ATOM     78  C   UNL A   1      42.221  26.555  25.503  1.00  0.00     0.022 A 
BRANCH  76  79
ATOM     79  S   UNL A   1      41.864  24.001  26.415  1.00  0.00     0.127 S 
ATOM     80  O   UNL A   1      42.660  23.596  27.570  1.00  0.00    -0.237 OA
ATOM     81  O   UNL A   1      40.444  23.653  26.493  1.00  0.00    -0.237 OA
ATOM     82  O   UNL A   1      42.471  23.759  25.113  1.00  0.00    -0.744 OA
ENDBRANCH  76  79
ENDBRANCH  48  72
BRANCH  60  83
ATOM     83  C   UNL A   1      44.329  27.603  34.337  1.00  0.00     0.023 A 
ATOM     84  C   UNL A   1      45.617  28.172  34.390  1.00  0.00     0.012 A 
ATOM     85  C   UNL A   1      44.108  26.337  34.916  1.00  0.00     0.148 A 
ATOM     86  C   UNL A   1      46.674  27.479  34.979  1.00  0.00     0.002 A 
ATOM     87  C   UNL A   1      45.154  25.675  35.547  1.00  0.00     0.091 A 
ATOM     88  F   UNL A   1      42.880  25.805  34.841  1.00  0.00    -0.205 F 
ATOM     89  C   UNL A   1      46.441  26.238  35.567  1.00  0.00     0.022 A 
BRANCH  87  90
ATOM     90  S   UNL A   1      44.924  24.122  36.420  1.00  0.00     0.127 S 
ATOM     91  O   UNL A   1      43.834  23.512  35.660  1.00  0.00    -0.237 OA
ATOM     92  O   UNL A   1      46.225  23.474  36.245  1.00  0.00    -0.237 OA
ATOM     93  O   UNL A   1      44.605  24.476  37.796  1.00  0.00    -0.744 OA
ENDBRANCH  87  90
ENDBRANCH  60  83
ENDBRANCH  34  35
ENDBRANCH  26  29
ENDBRANCH  24  25
ENDBRANCH  23  24
ENDBRANCH   1  23
TORSDOF 18
ENDMDL
MODEL 2
REMARK VINA RESULT:     -11.5      1.823      7.839
REMARK SMILES CC(C)(C)OC(=O)N[C@@H](CC(=O)NCCCNC(=O)c1ccc(-c2c3nc(c(-c4cccc(S(=O)(=O)[O-])c4F)c4ccc([nH]4)c(-c4cccc(S(=O)(=O)[O-])c4F)c4nc(c(-c5cccc(S(=O)(=O)[O-])c5F)c5ccc2[nH]5)C=C4)C=C3)cc1)c1cccnc1
REMARK SMILES IDX 14 1 13 2 11 3 12 4 10 6 9 7 8 8 6 9 7 10 5 12 2 13 1 14
REMARK SMILES IDX 3 15 4 16 83 17 84 18 88 19 85 20 87 21 86 22 15 23 16 24
REMARK SMILES IDX 17 25 18 26 19 28 20 29 21 30 82 31 22 32 81 33 23 34 24 35
REMARK SMILES IDX 25 36 75 37 26 38 80 39 74 40 76 41 27 42 79 43 73 44 72 45
REMARK SMILES IDX 28 47 60 48 40 49 59 50 41 51 44 52 58 53 77 54 42 55 43 56
REMARK SMILES IDX 57 58 78 59 45 60 29 61 30 62 38 63 31 64 33 65 39 66 32 67
REMARK SMILES IDX 34 68 35 69 36 70 37 71 61 72 62 73 70 74 63 75 65 76 71 77
REMARK SMILES IDX 64 78 66 79 67 80 68 81 69 82 46 83 47 84 55 85 48 86 50 87
REMARK SMILES IDX 56 88 49 89 51 90 52 91 53 92 54 93
REMARK H PARENT 13 5 8 11 17 27 76 46 44 57
REMARK Flexibility Score: inf
ROOT
ATOM      1  C   UNL A   1      31.242  30.722  26.101  1.00  0.00     0.117 C 
ENDROOT
BRANCH   1   2
ATOM      2  N   UNL A   1      32.448  30.201  25.480  1.00  0.00    -0.356 N 
ATOM      3  C   UNL A   1      32.666  29.047  24.799  1.00  0.00     0.222 C 
ATOM      4  O   UNL A   1      33.735  28.956  24.184  1.00  0.00    -0.275 OA
ATOM      5  H   UNL A   1      33.238  30.781  25.568  1.00  0.00     0.163 HD
BRANCH   3   6
ATOM      6  C   UNL A   1      31.656  27.915  24.747  1.00  0.00     0.130 C 
BRANCH   6   7
ATOM      7  C   UNL A   1      31.037  27.511  23.389  1.00  0.00     0.126 C 
BRANCH   7   8
ATOM      8  N   UNL A   1      32.042  27.366  22.356  1.00  0.00    -0.314 N 
ATOM      9  C   UNL A   1      32.690  26.264  21.902  1.00  0.00     0.408 C 
ATOM     10  O   UNL A   1      33.697  26.397  21.221  1.00  0.00    -0.225 OA
ATOM     11  H   UNL A   1      32.295  28.206  21.909  1.00  0.00     0.167 HD
BRANCH   9  12
ATOM     12  O   UNL A   1      32.118  25.089  22.252  1.00  0.00    -0.444 OA
BRANCH  12  13
ATOM     13  C   UNL A   1      32.737  24.310  23.318  1.00  0.00     0.106 C 
ATOM     14  C   UNL A   1      33.282  23.045  22.638  1.00  0.00     0.056 C 
ATOM     15  C   UNL A   1      31.685  23.901  24.355  1.00  0.00     0.056 C 
ATOM     16  C   UNL A   1      33.927  25.032  23.976  1.00  0.00     0.056 C 
ENDBRANCH  12  13
ENDBRANCH   9  12
ENDBRANCH   7   8
BRANCH   7  17
ATOM     17  C   UNL A   1      29.904  28.339  22.807  1.00  0.00    -0.007 A 
ATOM     18  C   UNL A   1      28.557  28.247  23.166  1.00  0.00     0.009 A 
ATOM     19  C   UNL A   1      30.234  29.392  21.949  1.00  0.00     0.116 A 
ATOM     20  C   UNL A   1      27.628  29.166  22.677  1.00  0.00     0.020 A 
ATOM     21  N   UNL A   1      29.354  30.289  21.444  1.00  0.00    -0.264 NA
ATOM     22  C   UNL A   1      28.072  30.165  21.833  1.00  0.00     0.111 A 
ENDBRANCH   7  17
ENDBRANCH   6   7
ENDBRANCH   3   6
ENDBRANCH   1   2
BRANCH   1  23
ATOM     23  C   UNL A   1      31.353  32.201  26.460  1.00  0.00     0.042 C 
BRANCH  23  24
ATOM     24  C   UNL A   1      32.613  32.591  27.213  1.00  0.00     0.118 C 
BRANCH  24  25
ATOM     25  N   UNL A   1      32.590  33.974  27.653  1.00  0.00    -0.352 N 
ATOM     26  C   UNL A   1      33.270  34.593  28.675  1.00  0.00     0.251 C 
ATOM     27  H   UNL A   1      31.992  34.561  27.138  1.00  0.00     0.163 HD
ATOM     28  O   UNL A   1      32.914  35.717  29.022  1.00  0.00    -0.269 OA
BRANCH  26  29
ATOM     29  C   UNL A   1      34.408  33.935  29.365  1.00  0.00     0.039 A 
ATOM     30  C   UNL A   1      35.711  34.288  28.998  1.00  0.00     0.014 A 
ATOM     31  C   UNL A   1      34.216  32.930  30.316  1.00  0.00     0.014 A 
ATOM     32  C   UNL A   1      36.807  33.671  29.611  1.00  0.00     0.010 A 
ATOM     33  C   UNL A   1      35.306  32.390  30.999  1.00  0.00     0.010 A 
ATOM     34  C   UNL A   1      36.615  32.734  30.639  1.00  0.00    -0.014 A 
BRANCH  34  35
ATOM     35  C   UNL A   1      37.766  32.090  31.332  1.00  0.00     0.031 A 
ATOM     36  C   UNL A   1      38.524  30.967  30.667  1.00  0.00     0.074 A 
ATOM     37  C   UNL A   1      38.085  32.459  32.588  1.00  0.00     0.049 A 
ATOM     38  N   UNL A   1      39.516  30.250  31.132  1.00  0.00    -0.248 NA
ATOM     39  C   UNL A   1      38.094  30.576  29.313  1.00  0.00     0.031 C 
ATOM     40  C   UNL A   1      37.387  33.480  33.373  1.00  0.00     0.029 A 
ATOM     41  N   UNL A   1      39.064  32.002  33.437  1.00  0.00    -0.354 N 
ATOM     42  C   UNL A   1      39.794  29.301  30.156  1.00  0.00     0.074 A 
ATOM     43  C   UNL A   1      38.847  29.511  29.084  1.00  0.00     0.031 C 
ATOM     44  C   UNL A   1      37.966  33.581  34.580  1.00  0.00     0.029 A 
ATOM     45  C   UNL A   1      39.051  32.609  34.673  1.00  0.00     0.049 A 
ATOM     46  H   UNL A   1      39.712  31.306  33.185  1.00  0.00     0.167 HD
ATOM     47  C   UNL A   1      40.765  28.357  30.136  1.00  0.00     0.034 A 
ATOM     48  C   UNL A   1      39.820  32.402  35.759  1.00  0.00     0.034 A 
ATOM     49  C   UNL A   1      41.740  28.185  31.179  1.00  0.00     0.049 A 
ATOM     50  C   UNL A   1      40.918  31.374  35.696  1.00  0.00     0.074 A 
ATOM     51  C   UNL A   1      42.827  27.328  31.207  1.00  0.00     0.029 A 
ATOM     52  N   UNL A   1      41.743  28.872  32.382  1.00  0.00    -0.354 N 
ATOM     53  N   UNL A   1      41.267  30.599  34.699  1.00  0.00    -0.248 NA
ATOM     54  C   UNL A   1      41.750  31.217  36.898  1.00  0.00     0.031 C 
ATOM     55  C   UNL A   1      43.467  27.473  32.442  1.00  0.00     0.029 A 
ATOM     56  C   UNL A   1      42.801  28.448  33.168  1.00  0.00     0.049 A 
ATOM     57  H   UNL A   1      41.089  29.560  32.640  1.00  0.00     0.167 HD
ATOM     58  C   UNL A   1      42.382  29.892  35.136  1.00  0.00     0.074 A 
ATOM     59  C   UNL A   1      42.661  30.346  36.483  1.00  0.00     0.031 C 
ATOM     60  C   UNL A   1      43.102  28.945  34.486  1.00  0.00     0.034 A 
BRANCH  47  61
ATOM     61  C   UNL A   1      40.854  27.461  28.926  1.00  0.00     0.023 A 
ATOM     62  C   UNL A   1      39.964  26.376  28.791  1.00  0.00     0.012 A 
ATOM     63  C   UNL A   1      41.776  27.729  27.895  1.00  0.00     0.148 A 
ATOM     64  C   UNL A   1      40.016  25.548  27.670  1.00  0.00     0.002 A 
ATOM     65  C   UNL A   1      41.789  26.928  26.757  1.00  0.00     0.091 A 
ATOM     66  F   UNL A   1      42.627  28.754  28.047  1.00  0.00    -0.205 F 
ATOM     67  C   UNL A   1      40.920  25.831  26.650  1.00  0.00     0.022 A 
BRANCH  65  68
ATOM     68  S   UNL A   1      42.857  27.258  25.352  1.00  0.00     0.127 S 
ATOM     69  O   UNL A   1      44.140  27.506  26.007  1.00  0.00    -0.237 OA
ATOM     70  O   UNL A   1      42.785  25.998  24.609  1.00  0.00    -0.237 OA
ATOM     71  O   UNL A   1      42.276  28.402  24.664  1.00  0.00    -0.744 OA
ENDBRANCH  65  68
ENDBRANCH  47  61
BRANCH  48  72
ATOM     72  C   UNL A   1      39.625  33.233  36.982  1.00  0.00     0.023 A 
ATOM     73  C   UNL A   1      38.563  32.932  37.858  1.00  0.00     0.012 A 
ATOM     74  C   UNL A   1      40.488  34.302  37.292  1.00  0.00     0.148 A 
ATOM     75  C   UNL A   1      38.343  33.700  39.002  1.00  0.00     0.002 A 
ATOM     76  C   UNL A   1      40.297  35.029  38.462  1.00  0.00     0.091 A 
ATOM     77  F   UNL A   1      41.485  34.580  36.441  1.00  0.00    -0.205 F 
ATOM     78  C   UNL A   1      39.215  34.741  39.309  1.00  0.00     0.022 A 
BRANCH  76  79
ATOM     79  S   UNL A   1      41.439  36.305  39.005  1.00  0.00     0.127 S 
ATOM     80  O   UNL A   1      40.772  37.519  38.544  1.00  0.00    -0.237 OA
ATOM     81  O   UNL A   1      41.438  36.114  40.456  1.00  0.00    -0.237 OA
ATOM     82  O   UNL A   1      42.709  35.997  38.360  1.00  0.00    -0.744 OA
ENDBRANCH  76  79
ENDBRANCH  48  72
BRANCH  60  83
ATOM     83  C   UNL A   1      44.293  28.357  35.198  1.00  0.00     0.023 A 
ATOM     84  C   UNL A   1      45.567  28.939  35.038  1.00  0.00     0.012 A 
ATOM     85  C   UNL A   1      44.134  27.272  36.083  1.00  0.00     0.148 A 
ATOM     86  C   UNL A   1      46.669  28.428  35.723  1.00  0.00     0.002 A 
ATOM     87  C   UNL A   1      45.227  26.803  36.802  1.00  0.00     0.091 A 
ATOM     88  F   UNL A   1      42.918  26.722  36.208  1.00  0.00    -0.205 F 
ATOM     89  C   UNL A   1      46.498  27.369  36.613  1.00  0.00     0.022 A 
BRANCH  87  90
ATOM     90  S   UNL A   1      45.081  25.512  38.042  1.00  0.00     0.127 S 
ATOM     91  O   UNL A   1      44.499  24.417  37.267  1.00  0.00    -0.237 OA
ATOM     92  O   UNL A   1      46.474  25.305  38.439  1.00  0.00    -0.237 OA
ATOM     93  O   UNL A   1      44.228  26.056  39.091  1.00  0.00    -0.744 OA
ENDBRANCH  87  90
ENDBRANCH  60  83
ENDBRANCH  34  35
ENDBRANCH  26  29
ENDBRANCH  24  25
ENDBRANCH  23  24
ENDBRANCH   1  23
TORSDOF 18
ENDMDL
MODEL 3
REMARK VINA RESULT:     -11.3      6.041     11.384
REMARK SMILES CC(C)(C)OC(=O)N[C@@H](CC(=O)NCCCNC(=O)c1ccc(-c2c3nc(c(-c4cccc(S(=O)(=O)[O-])c4F)c4ccc([nH]4)c(-c4cccc(S(=O)(=O)[O-])c4F)c4nc(c(-c5cccc(S(=O)(=O)[O-])c5F)c5ccc2[nH]5)C=C4)C=C3)cc1)c1cccnc1
REMARK SMILES IDX 14 1 13 2 11 3 12 4 10 6 9 7 8 8 6 9 7 10 5 12 2 13 1 14
REMARK SMILES IDX 3 15 4 16 83 17 84 18 88 19 85 20 87 21 86 22 15 23 16 24
REMARK SMILES IDX 17 25 18 26 19 28 20 29 21 30 82 31 22 32 81 33 23 34 24 35
REMARK SMILES IDX 25 36 75 37 26 38 80 39 74 40 76 41 27 42 79 43 73 44 72 45
REMARK SMILES IDX 28 47 60 48 40 49 59 50 41 51 44 52 58 53 77 54 42 55 43 56
REMARK SMILES IDX 57 58 78 59 45 60 29 61 30 62 38 63 31 64 33 65 39 66 32 67
REMARK SMILES IDX 34 68 35 69 36 70 37 71 61 72 62 73 70 74 63 75 65 76 71 77
REMARK SMILES IDX 64 78 66 79 67 80 68 81 69 82 46 83 47 84 55 85 48 86 50 87
REMARK SMILES IDX 56 88 49 89 51 90 52 91 53 92 54 93
REMARK H PARENT 13 5 8 11 17 27 76 46 44 57
REMARK Flexibility Score: inf
ROOT
ATOM      1  C   UNL A   1      36.915  20.393  24.592  1.00  0.00     0.117 C 
ENDROOT
BRANCH   1   2
ATOM      2  N   UNL A   1      36.559  21.390  25.588  1.00  0.00    -0.356 N 
ATOM      3  C   UNL A   1      35.477  22.206  25.677  1.00  0.00     0.222 C 
ATOM      4  O   UNL A   1      35.316  22.802  26.748  1.00  0.00    -0.275 OA
ATOM      5  H   UNL A   1      37.210  21.489  26.319  1.00  0.00     0.163 HD
BRANCH   3   6
ATOM      6  C   UNL A   1      34.478  22.379  24.548  1.00  0.00     0.130 C 
BRANCH   6   7
ATOM      7  C   UNL A   1      33.069  21.754  24.678  1.00  0.00     0.126 C 
BRANCH   7   8
ATOM      8  N   UNL A   1      32.504  21.961  25.996  1.00  0.00    -0.314 N 
ATOM      9  C   UNL A   1      31.560  22.836  26.424  1.00  0.00     0.408 C 
ATOM     10  O   UNL A   1      31.426  23.037  27.623  1.00  0.00    -0.225 OA
ATOM     11  H   UNL A   1      32.863  21.368  26.695  1.00  0.00     0.167 HD
BRANCH   9  12
ATOM     12  O   UNL A   1      30.826  23.402  25.438  1.00  0.00    -0.444 OA
BRANCH  12  13
ATOM     13  C   UNL A   1      31.070  24.802  25.112  1.00  0.00     0.106 C 
ATOM     14  C   UNL A   1      29.912  25.582  25.753  1.00  0.00     0.056 C 
ATOM     15  C   UNL A   1      31.027  25.008  23.594  1.00  0.00     0.056 C 
ATOM     16  C   UNL A   1      32.381  25.340  25.717  1.00  0.00     0.056 C 
ENDBRANCH  12  13
ENDBRANCH   9  12
ENDBRANCH   7   8
BRANCH   7  17
ATOM     17  C   UNL A   1      32.863  20.293  24.321  1.00  0.00    -0.007 A 
ATOM     18  C   UNL A   1      32.360  19.811  23.109  1.00  0.00     0.009 A 
ATOM     19  C   UNL A   1      33.352  19.325  25.203  1.00  0.00     0.116 A 
ATOM     20  C   UNL A   1      32.360  18.443  22.835  1.00  0.00     0.020 A 
ATOM     21  N   UNL A   1      33.351  17.990  24.974  1.00  0.00    -0.264 NA
ATOM     22  C   UNL A   1      32.869  17.580  23.786  1.00  0.00     0.111 A 
ENDBRANCH   7  17
ENDBRANCH   6   7
ENDBRANCH   3   6
ENDBRANCH   1   2
BRANCH   1  23
ATOM     23  C   UNL A   1      38.147  19.581  24.982  1.00  0.00     0.042 C 
BRANCH  23  24
ATOM     24  C   UNL A   1      39.125  20.291  25.902  1.00  0.00     0.118 C 
BRANCH  24  25
ATOM     25  N   UNL A   1      40.327  19.512  26.141  1.00  0.00    -0.352 N 
ATOM     26  C   UNL A   1      41.617  19.919  26.382  1.00  0.00     0.251 C 
ATOM     27  H   UNL A   1      40.196  18.537  26.127  1.00  0.00     0.163 HD
ATOM     28  O   UNL A   1      42.519  19.087  26.314  1.00  0.00    -0.269 OA
BRANCH  26  29
ATOM     29  C   UNL A   1      41.940  21.331  26.712  1.00  0.00     0.039 A 
ATOM     30  C   UNL A   1      41.977  22.271  25.676  1.00  0.00     0.014 A 
ATOM     31  C   UNL A   1      42.271  21.731  28.008  1.00  0.00     0.014 A 
ATOM     32  C   UNL A   1      42.300  23.605  25.948  1.00  0.00     0.010 A 
ATOM     33  C   UNL A   1      42.492  23.078  28.294  1.00  0.00     0.010 A 
ATOM     34  C   UNL A   1      42.534  24.029  27.266  1.00  0.00    -0.014 A 
BRANCH  34  35
ATOM     35  C   UNL A   1      42.844  25.451  27.584  1.00  0.00     0.031 A 
ATOM     36  C   UNL A   1      44.245  25.983  27.406  1.00  0.00     0.074 A 
ATOM     37  C   UNL A   1      41.888  26.245  28.106  1.00  0.00     0.049 A 
ATOM     38  N   UNL A   1      44.718  27.173  27.680  1.00  0.00    -0.248 NA
ATOM     39  C   UNL A   1      45.256  25.050  26.879  1.00  0.00     0.031 C 
ATOM     40  C   UNL A   1      40.513  25.835  28.397  1.00  0.00     0.029 A 
ATOM     41  N   UNL A   1      41.933  27.558  28.507  1.00  0.00    -0.354 N 
ATOM     42  C   UNL A   1      46.079  27.116  27.406  1.00  0.00     0.074 A 
ATOM     43  C   UNL A   1      46.366  25.767  26.974  1.00  0.00     0.031 C 
ATOM     44  C   UNL A   1      39.843  26.876  28.916  1.00  0.00     0.029 A 
ATOM     45  C   UNL A   1      40.746  28.016  29.032  1.00  0.00     0.049 A 
ATOM     46  H   UNL A   1      42.739  28.118  28.427  1.00  0.00     0.167 HD
ATOM     47  C   UNL A   1      47.005  28.102  27.479  1.00  0.00     0.034 A 
ATOM     48  C   UNL A   1      40.423  29.216  29.553  1.00  0.00     0.034 A 
ATOM     49  C   UNL A   1      46.709  29.458  27.857  1.00  0.00     0.049 A 
ATOM     50  C   UNL A   1      41.461  30.306  29.585  1.00  0.00     0.074 A 
ATOM     51  C   UNL A   1      47.554  30.553  27.862  1.00  0.00     0.029 A 
ATOM     52  N   UNL A   1      45.476  29.903  28.308  1.00  0.00    -0.354 N 
ATOM     53  N   UNL A   1      42.702  30.276  29.167  1.00  0.00    -0.248 NA
ATOM     54  C   UNL A   1      41.042  31.606  30.129  1.00  0.00     0.031 C 
ATOM     55  C   UNL A   1      46.841  31.654  28.348  1.00  0.00     0.029 A 
ATOM     56  C   UNL A   1      45.541  31.252  28.610  1.00  0.00     0.049 A 
ATOM     57  H   UNL A   1      44.673  29.342  28.399  1.00  0.00     0.167 HD
ATOM     58  C   UNL A   1      43.201  31.561  29.359  1.00  0.00     0.074 A 
ATOM     59  C   UNL A   1      42.119  32.348  29.914  1.00  0.00     0.031 C 
ATOM     60  C   UNL A   1      44.444  32.040  29.111  1.00  0.00     0.034 A 
BRANCH  47  61
ATOM     61  C   UNL A   1      48.425  27.766  27.099  1.00  0.00     0.023 A 
ATOM     62  C   UNL A   1      49.331  27.330  28.087  1.00  0.00     0.012 A 
ATOM     63  C   UNL A   1      48.847  27.822  25.755  1.00  0.00     0.148 A 
ATOM     64  C   UNL A   1      50.642  26.993  27.754  1.00  0.00     0.002 A 
ATOM     65  C   UNL A   1      50.142  27.439  25.423  1.00  0.00     0.091 A 
ATOM     66  F   UNL A   1      47.979  28.257  24.830  1.00  0.00    -0.205 F 
ATOM     67  C   UNL A   1      51.044  27.038  26.422  1.00  0.00     0.022 A 
BRANCH  65  68
ATOM     68  S   UNL A   1      50.731  27.382  23.727  1.00  0.00     0.127 S 
ATOM     69  O   UNL A   1      50.902  28.802  23.426  1.00  0.00    -0.237 OA
ATOM     70  O   UNL A   1      51.982  26.633  23.862  1.00  0.00    -0.237 OA
ATOM     71  O   UNL A   1      49.695  26.702  22.964  1.00  0.00    -0.744 OA
ENDBRANCH  65  68
ENDBRANCH  47  61
BRANCH  48  72
ATOM     72  C   UNL A   1      39.032  29.474  30.026  1.00  0.00     0.023 A 
ATOM     73  C   UNL A   1      38.665  29.089  31.330  1.00  0.00     0.012 A 
ATOM     74  C   UNL A   1      38.081  30.111  29.206  1.00  0.00     0.148 A 
ATOM     75  C   UNL A   1      37.368  29.302  31.798  1.00  0.00     0.002 A 
ATOM     76  C   UNL A   1      36.806  30.371  29.697  1.00  0.00     0.091 A 
ATOM     77  F   UNL A   1      38.446  30.460  27.964  1.00  0.00    -0.205 F 
ATOM     78  C   UNL A   1      36.442  29.951  30.986  1.00  0.00     0.022 A 
BRANCH  76  79
ATOM     79  S   UNL A   1      35.587  31.311  28.772  1.00  0.00     0.127 S 
ATOM     80  O   UNL A   1      34.930  30.264  27.994  1.00  0.00    -0.237 OA
ATOM     81  O   UNL A   1      34.772  31.885  29.844  1.00  0.00    -0.237 OA
ATOM     82  O   UNL A   1      36.344  32.290  28.003  1.00  0.00    -0.744 OA
ENDBRANCH  76  79
ENDBRANCH  48  72
BRANCH  60  83
ATOM     83  C   UNL A   1      44.704  33.497  29.393  1.00  0.00     0.023 A 
ATOM     84  C   UNL A   1      45.199  33.895  30.651  1.00  0.00     0.012 A 
ATOM     85  C   UNL A   1      44.527  34.463  28.382  1.00  0.00     0.148 A 
ATOM     86  C   UNL A   1      45.481  35.236  30.909  1.00  0.00     0.002 A 
ATOM     87  C   UNL A   1      44.860  35.790  28.630  1.00  0.00     0.091 A 
ATOM     88  F   UNL A   1      44.039  34.068  27.197  1.00  0.00    -0.205 F 
ATOM     89  C   UNL A   1      45.323  36.181  29.897  1.00  0.00     0.022 A 
BRANCH  87  90
ATOM     90  S   UNL A   1      44.786  37.055  27.358  1.00  0.00     0.127 S 
ATOM     91  O   UNL A   1      45.772  36.568  26.394  1.00  0.00    -0.237 OA
ATOM     92  O   UNL A   1      43.397  36.961  26.907  1.00  0.00    -0.237 OA
ATOM     93  O   UNL A   1      45.124  38.309  28.016  1.00  0.00    -0.744 OA
ENDBRANCH  87  90
ENDBRANCH  60  83
ENDBRANCH  34  35
ENDBRANCH  26  29
ENDBRANCH  24  25
ENDBRANCH  23  24
ENDBRANCH   1  23
TORSDOF 18
ENDMDL
