MODEL 1
REMARK VINA RESULT:     -13.9      0.000      0.000
REMARK SMILES Cc1ccc(C(=O)NC2(CC(=O)NCCCNC(=O)c3ccc(-c4c5nc(c(-c6cccc(S(=O)(=O)[O-])c6F)c6ccc([nH]6)c(-c6cccc(S(=O)(=O)[O-])c6F)c6nc(c(-c7cccc(S(=O)(=O)[O-])c7F)c7ccc4[nH]7)C=C6)C=C5)cc3)CCC2)cc1
REMARK SMILES IDX 15 1 14 2 13 3 11 4 12 5 10 7 9 8 83 9 85 10 84 11 8 12 6 13
REMARK SMILES IDX 7 14 5 16 1 17 2 18 3 19 87 20 4 21 86 22 16 23 17 24 18 25
REMARK SMILES IDX 19 27 20 28 21 29 82 30 22 31 81 32 23 33 24 34 25 35 75 36
REMARK SMILES IDX 26 37 80 38 74 39 76 40 27 41 79 42 73 43 72 44 28 46 60 47
REMARK SMILES IDX 40 48 59 49 41 50 44 51 58 52 77 53 42 54 43 55 57 57 78 58
REMARK SMILES IDX 45 59 29 60 30 61 38 62 31 63 33 64 39 65 32 66 34 67 35 68
REMARK SMILES IDX 36 69 37 70 61 71 62 72 70 73 63 74 65 75 71 76 64 77 66 78
REMARK SMILES IDX 67 79 68 80 69 81 46 82 47 83 55 84 48 85 50 86 56 87 49 88
REMARK SMILES IDX 51 89 52 90 53 91 54 92
REMARK H PARENT 13 6 8 15 17 26 76 45 44 56
REMARK Flexibility Score: inf
ROOT
ATOM      1  C   UNL A   1      37.627  21.063  25.401  1.00  0.00     0.042 C 
ENDROOT
BRANCH   1   2
ATOM      2  C   UNL A   1      36.295  21.292  24.664  1.00  0.00     0.117 C 
BRANCH   2   3
ATOM      3  N   UNL A   1      35.104  20.096  24.882  1.00  0.00    -0.356 N 
ATOM      4  C   UNL A   1      33.125  19.991  24.857  1.00  0.00     0.222 C 
ATOM      5  O   UNL A   1      32.349  19.062  24.514  1.00  0.00    -0.275 OA
ATOM      6  H   UNL A   1      35.507  19.219  25.071  1.00  0.00     0.163 HD
BRANCH   4   7
ATOM      7  C   UNL A   1      32.009  21.389  25.480  1.00  0.00     0.128 C 
BRANCH   7   8
ATOM      8  C   UNL A   1      32.417  22.451  26.721  1.00  0.00     0.049 C 
ATOM      9  C   UNL A   1      33.565  23.481  26.425  1.00  0.00     0.029 C 
ATOM     10  C   UNL A   1      33.234  22.384  28.205  1.00  0.00     0.029 C 
ATOM     11  C   UNL A   1      34.487  22.771  27.464  1.00  0.00     0.005 C 
BRANCH   8  12
ATOM     12  N   UNL A   1      31.132  22.912  27.214  1.00  0.00    -0.346 N 
ATOM     13  C   UNL A   1      30.624  23.994  26.547  1.00  0.00     0.251 C 
ATOM     14  O   UNL A   1      29.494  24.416  26.735  1.00  0.00    -0.269 OA
ATOM     15  H   UNL A   1      30.663  22.481  27.965  1.00  0.00     0.164 HD
BRANCH  13  16
ATOM     16  C   UNL A   1      31.658  24.731  25.730  1.00  0.00     0.039 A 
ATOM     17  C   UNL A   1      33.636  27.505  22.080  1.00  0.00     0.044 C 
ATOM     18  C   UNL A   1      32.647  27.113  23.160  1.00  0.00    -0.051 A 
ATOM     19  C   UNL A   1      31.673  25.657  22.732  1.00  0.00     0.004 A 
ATOM     20  C   UNL A   1      33.080  27.496  24.871  1.00  0.00     0.004 A 
ATOM     21  C   UNL A   1      31.180  24.493  24.000  1.00  0.00     0.014 A 
ATOM     22  C   UNL A   1      32.670  26.266  26.192  1.00  0.00     0.014 A 
ENDBRANCH  13  16
ENDBRANCH   8  12
ENDBRANCH   7   8
ENDBRANCH   4   7
ENDBRANCH   2   3
ENDBRANCH   1   2
BRANCH   1  23
ATOM     23  C   UNL A   1      38.126  22.384  25.835  1.00  0.00     0.118 C 
BRANCH  23  24
ATOM     24  N   UNL A   1      39.290  22.219  26.713  1.00  0.00    -0.352 N 
ATOM     25  C   UNL A   1      40.290  23.123  26.996  1.00  0.00     0.251 C 
ATOM     26  H   UNL A   1      39.367  21.345  27.161  1.00  0.00     0.163 HD
ATOM     27  O   UNL A   1      41.388  22.712  27.338  1.00  0.00    -0.269 OA
BRANCH  25  28
ATOM     28  C   UNL A   1      39.897  24.542  27.032  1.00  0.00     0.039 A 
ATOM     29  C   UNL A   1      40.413  25.481  26.159  1.00  0.00     0.014 A 
ATOM     30  C   UNL A   1      39.427  24.988  28.261  1.00  0.00     0.014 A 
ATOM     31  C   UNL A   1      40.678  26.733  26.705  1.00  0.00     0.010 A 
ATOM     32  C   UNL A   1      39.204  26.265  28.552  1.00  0.00     0.010 A 
ATOM     33  C   UNL A   1      40.210  27.000  27.987  1.00  0.00    -0.014 A 
BRANCH  33  34
ATOM     34  C   UNL A   1      40.544  28.086  28.861  1.00  0.00     0.031 A 
ATOM     35  C   UNL A   1      39.576  29.168  28.717  1.00  0.00     0.074 A 
ATOM     36  C   UNL A   1      41.338  27.783  29.926  1.00  0.00     0.049 A 
ATOM     37  N   UNL A   1      39.800  30.382  29.038  1.00  0.00    -0.248 NA
ATOM     38  C   UNL A   1      38.260  28.963  28.084  1.00  0.00     0.031 C 
ATOM     39  C   UNL A   1      41.313  28.327  31.280  1.00  0.00     0.029 A 
ATOM     40  N   UNL A   1      42.401  26.861  29.982  1.00  0.00    -0.354 N 
ATOM     41  C   UNL A   1      38.558  30.974  29.062  1.00  0.00     0.074 A 
ATOM     42  C   UNL A   1      37.696  30.156  28.257  1.00  0.00     0.031 C 
ATOM     43  C   UNL A   1      42.446  27.978  31.925  1.00  0.00     0.029 A 
ATOM     44  C   UNL A   1      43.309  27.309  30.966  1.00  0.00     0.049 A 
ATOM     45  H   UNL A   1      42.495  26.049  29.433  1.00  0.00     0.167 HD
ATOM     46  C   UNL A   1      38.322  31.905  30.019  1.00  0.00     0.034 A 
ATOM     47  C   UNL A   1      44.550  27.758  30.590  1.00  0.00     0.034 A 
ATOM     48  C   UNL A   1      39.504  32.007  30.893  1.00  0.00     0.049 A 
ATOM     49  C   UNL A   1      44.665  29.270  30.684  1.00  0.00     0.074 A 
ATOM     50  C   UNL A   1      39.813  31.449  32.124  1.00  0.00     0.029 A 
ATOM     51  N   UNL A   1      40.715  32.394  30.332  1.00  0.00    -0.354 N 
ATOM     52  N   UNL A   1      43.655  30.066  30.902  1.00  0.00    -0.248 NA
ATOM     53  C   UNL A   1      45.920  30.003  30.544  1.00  0.00     0.031 C 
ATOM     54  C   UNL A   1      41.228  31.490  32.282  1.00  0.00     0.029 A 
ATOM     55  C   UNL A   1      41.780  32.069  31.153  1.00  0.00     0.049 A 
ATOM     56  H   UNL A   1      40.803  32.843  29.461  1.00  0.00     0.167 HD
ATOM     57  C   UNL A   1      44.046  31.370  30.774  1.00  0.00     0.074 A 
ATOM     58  C   UNL A   1      45.491  31.275  30.636  1.00  0.00     0.031 C 
ATOM     59  C   UNL A   1      43.141  32.399  30.736  1.00  0.00     0.034 A 
BRANCH  46  60
ATOM     60  C   UNL A   1      36.959  32.440  30.382  1.00  0.00     0.023 A 
ATOM     61  C   UNL A   1      36.498  32.135  31.679  1.00  0.00     0.012 A 
ATOM     62  C   UNL A   1      36.104  33.235  29.579  1.00  0.00     0.148 A 
ATOM     63  C   UNL A   1      35.252  32.543  32.149  1.00  0.00     0.002 A 
ATOM     64  C   UNL A   1      34.832  33.603  30.030  1.00  0.00     0.091 A 
ATOM     65  F   UNL A   1      36.533  33.710  28.406  1.00  0.00    -0.205 F 
ATOM     66  C   UNL A   1      34.409  33.262  31.318  1.00  0.00     0.022 A 
BRANCH  64  67
ATOM     67  S   UNL A   1      33.646  34.497  29.009  1.00  0.00     0.127 S 
ATOM     68  O   UNL A   1      34.461  35.593  28.479  1.00  0.00    -0.237 OA
ATOM     69  O   UNL A   1      33.268  33.493  28.017  1.00  0.00    -0.237 OA
ATOM     70  O   UNL A   1      32.581  34.931  29.905  1.00  0.00    -0.744 OA
ENDBRANCH  64  67
ENDBRANCH  46  60
BRANCH  47  71
ATOM     71  C   UNL A   1      45.116  26.927  29.477  1.00  0.00     0.023 A 
ATOM     72  C   UNL A   1      45.286  25.544  29.733  1.00  0.00     0.012 A 
ATOM     73  C   UNL A   1      44.959  27.356  28.149  1.00  0.00     0.148 A 
ATOM     74  C   UNL A   1      45.049  24.604  28.726  1.00  0.00     0.002 A 
ATOM     75  C   UNL A   1      44.725  26.415  27.152  1.00  0.00     0.091 A 
ATOM     76  F   UNL A   1      44.953  28.672  27.898  1.00  0.00    -0.205 F 
ATOM     77  C   UNL A   1      44.700  25.042  27.451  1.00  0.00     0.022 A 
BRANCH  75  78
ATOM     78  S   UNL A   1      44.334  26.931  25.479  1.00  0.00     0.127 S 
ATOM     79  O   UNL A   1      45.662  27.219  24.944  1.00  0.00    -0.237 OA
ATOM     80  O   UNL A   1      43.701  25.741  24.915  1.00  0.00    -0.237 OA
ATOM     81  O   UNL A   1      43.446  28.073  25.629  1.00  0.00    -0.744 OA
ENDBRANCH  75  78
ENDBRANCH  47  71
BRANCH  59  82
ATOM     82  C   UNL A   1      43.444  33.828  30.302  1.00  0.00     0.023 A 
ATOM     83  C   UNL A   1      43.720  34.852  31.225  1.00  0.00     0.012 A 
ATOM     84  C   UNL A   1      43.582  34.171  28.928  1.00  0.00     0.148 A 
ATOM     85  C   UNL A   1      44.005  36.160  30.819  1.00  0.00     0.002 A 
ATOM     86  C   UNL A   1      44.014  35.431  28.534  1.00  0.00     0.091 A 
ATOM     87  F   UNL A   1      43.255  33.291  27.972  1.00  0.00    -0.205 F 
ATOM     88  C   UNL A   1      44.174  36.446  29.473  1.00  0.00     0.022 A 
BRANCH  86  89
ATOM     89  S   UNL A   1      44.505  35.772  26.838  1.00  0.00     0.127 S 
ATOM     90  O   UNL A   1      45.040  37.126  26.951  1.00  0.00    -0.237 OA
ATOM     91  O   UNL A   1      45.512  34.736  26.597  1.00  0.00    -0.237 OA
ATOM     92  O   UNL A   1      43.296  35.626  26.042  1.00  0.00    -0.744 OA
ENDBRANCH  86  89
ENDBRANCH  59  82
ENDBRANCH  33  34
ENDBRANCH  25  28
ENDBRANCH  23  24
ENDBRANCH   1  23
TORSDOF 16
ENDMDL
MODEL 2
REMARK VINA RESULT:     -13.9      4.073      9.284
REMARK SMILES Cc1ccc(C(=O)NC2(CC(=O)NCCCNC(=O)c3ccc(-c4c5nc(c(-c6cccc(S(=O)(=O)[O-])c6F)c6ccc([nH]6)c(-c6cccc(S(=O)(=O)[O-])c6F)c6nc(c(-c7cccc(S(=O)(=O)[O-])c7F)c7ccc4[nH]7)C=C6)C=C5)cc3)CCC2)cc1
REMARK SMILES IDX 15 1 14 2 13 3 11 4 12 5 10 7 9 8 83 9 85 10 84 11 8 12 6 13
REMARK SMILES IDX 7 14 5 16 1 17 2 18 3 19 87 20 4 21 86 22 16 23 17 24 18 25
REMARK SMILES IDX 19 27 20 28 21 29 82 30 22 31 81 32 23 33 24 34 25 35 75 36
REMARK SMILES IDX 26 37 80 38 74 39 76 40 27 41 79 42 73 43 72 44 28 46 60 47
REMARK SMILES IDX 40 48 59 49 41 50 44 51 58 52 77 53 42 54 43 55 57 57 78 58
REMARK SMILES IDX 45 59 29 60 30 61 38 62 31 63 33 64 39 65 32 66 34 67 35 68
REMARK SMILES IDX 36 69 37 70 61 71 62 72 70 73 63 74 65 75 71 76 64 77 66 78
REMARK SMILES IDX 67 79 68 80 69 81 46 82 47 83 55 84 48 85 50 86 56 87 49 88
REMARK SMILES IDX 51 89 52 90 53 91 54 92
REMARK H PARENT 13 6 8 15 17 26 76 45 44 56
REMARK Flexibility Score: inf
ROOT
ATOM      1  C   UNL A   1      32.506  31.077  26.905  1.00  0.00     0.042 C 
ENDROOT
BRANCH   1   2
ATOM      2  C   UNL A   1      31.714  29.909  26.291  1.00  0.00     0.117 C 
BRANCH   2   3
ATOM      3  N   UNL A   1      30.878  30.247  24.848  1.00  0.00    -0.356 N 
ATOM      4  C   UNL A   1      30.203  29.233  23.285  1.00  0.00     0.222 C 
ATOM      5  O   UNL A   1      29.196  29.415  22.552  1.00  0.00    -0.275 OA
ATOM      6  H   UNL A   1      30.675  31.207  24.767  1.00  0.00     0.163 HD
BRANCH   4   7
ATOM      7  C   UNL A   1      31.108  27.738  22.554  1.00  0.00     0.128 C 
BRANCH   7   8
ATOM      8  C   UNL A   1      32.781  27.549  22.549  1.00  0.00     0.049 C 
ATOM      9  C   UNL A   1      33.463  27.232  23.928  1.00  0.00     0.029 C 
ATOM     10  C   UNL A   1      34.150  28.539  22.411  1.00  0.00     0.029 C 
ATOM     11  C   UNL A   1      34.166  28.624  23.914  1.00  0.00     0.005 C 
BRANCH   8  12
ATOM     12  N   UNL A   1      33.025  26.697  21.400  1.00  0.00    -0.346 N 
ATOM     13  C   UNL A   1      32.990  25.355  21.671  1.00  0.00     0.251 C 
ATOM     14  O   UNL A   1      33.029  24.503  20.798  1.00  0.00    -0.269 OA
ATOM     15  H   UNL A   1      33.202  27.053  20.499  1.00  0.00     0.164 HD
BRANCH  13  16
ATOM     16  C   UNL A   1      33.114  25.041  23.143  1.00  0.00     0.039 A 
ATOM     17  C   UNL A   1      32.548  22.635  27.481  1.00  0.00     0.044 C 
ATOM     18  C   UNL A   1      32.835  22.804  26.002  1.00  0.00    -0.051 A 
ATOM     19  C   UNL A   1      31.374  23.252  25.046  1.00  0.00     0.004 A 
ATOM     20  C   UNL A   1      34.487  23.358  25.528  1.00  0.00     0.004 A 
ATOM     21  C   UNL A   1      31.516  24.344  23.634  1.00  0.00     0.014 A 
ATOM     22  C   UNL A   1      34.658  24.564  24.135  1.00  0.00     0.014 A 
ENDBRANCH  13  16
ENDBRANCH   8  12
ENDBRANCH   7   8
ENDBRANCH   4   7
ENDBRANCH   2   3
ENDBRANCH   1   2
BRANCH   1  23
ATOM     23  C   UNL A   1      33.780  30.530  27.414  1.00  0.00     0.118 C 
BRANCH  23  24
ATOM     24  N   UNL A   1      34.791  31.591  27.488  1.00  0.00    -0.352 N 
ATOM     25  C   UNL A   1      35.964  31.613  28.209  1.00  0.00     0.251 C 
ATOM     26  H   UNL A   1      34.606  32.395  26.950  1.00  0.00     0.163 HD
ATOM     27  O   UNL A   1      36.441  32.688  28.542  1.00  0.00    -0.269 OA
BRANCH  25  28
ATOM     28  C   UNL A   1      36.655  30.323  28.374  1.00  0.00     0.039 A 
ATOM     29  C   UNL A   1      36.611  29.598  29.550  1.00  0.00     0.014 A 
ATOM     30  C   UNL A   1      37.745  30.131  27.535  1.00  0.00     0.014 A 
ATOM     31  C   UNL A   1      37.795  28.968  29.917  1.00  0.00     0.010 A 
ATOM     32  C   UNL A   1      38.607  29.127  27.655  1.00  0.00     0.010 A 
ATOM     33  C   UNL A   1      38.832  28.932  28.991  1.00  0.00    -0.014 A 
BRANCH  33  34
ATOM     34  C   UNL A   1      40.206  28.575  29.187  1.00  0.00     0.031 A 
ATOM     35  C   UNL A   1      40.405  27.156  28.915  1.00  0.00     0.074 A 
ATOM     36  C   UNL A   1      41.108  29.594  29.129  1.00  0.00     0.049 A 
ATOM     37  N   UNL A   1      41.379  26.467  29.364  1.00  0.00    -0.248 NA
ATOM     38  C   UNL A   1      39.422  26.358  28.160  1.00  0.00     0.031 C 
ATOM     39  C   UNL A   1      42.468  29.592  28.600  1.00  0.00     0.029 A 
ATOM     40  N   UNL A   1      40.954  30.919  29.579  1.00  0.00    -0.354 N 
ATOM     41  C   UNL A   1      41.369  25.313  28.614  1.00  0.00     0.074 A 
ATOM     42  C   UNL A   1      40.045  25.185  28.073  1.00  0.00     0.031 C 
ATOM     43  C   UNL A   1      43.110  30.708  29.005  1.00  0.00     0.029 A 
ATOM     44  C   UNL A   1      42.231  31.410  29.926  1.00  0.00     0.049 A 
ATOM     45  H   UNL A   1      40.105  31.416  29.641  1.00  0.00     0.167 HD
ATOM     46  C   UNL A   1      42.564  24.773  28.272  1.00  0.00     0.034 A 
ATOM     47  C   UNL A   1      42.526  31.665  31.241  1.00  0.00     0.034 A 
ATOM     48  C   UNL A   1      43.645  25.648  28.760  1.00  0.00     0.049 A 
ATOM     49  C   UNL A   1      43.451  30.616  31.834  1.00  0.00     0.074 A 
ATOM     50  C   UNL A   1      44.405  26.633  28.149  1.00  0.00     0.029 A 
ATOM     51  N   UNL A   1      43.751  25.875  30.127  1.00  0.00    -0.354 N 
ATOM     52  N   UNL A   1      43.771  29.502  31.236  1.00  0.00    -0.248 NA
ATOM     53  C   UNL A   1      44.091  30.738  33.142  1.00  0.00     0.031 C 
ATOM     54  C   UNL A   1      44.952  27.463  29.168  1.00  0.00     0.029 A 
ATOM     55  C   UNL A   1      44.525  26.989  30.397  1.00  0.00     0.049 A 
ATOM     56  H   UNL A   1      43.329  25.312  30.816  1.00  0.00     0.167 HD
ATOM     57  C   UNL A   1      44.485  28.700  32.082  1.00  0.00     0.074 A 
ATOM     58  C   UNL A   1      44.732  29.558  33.230  1.00  0.00     0.031 C 
ATOM     59  C   UNL A   1      44.757  27.390  31.783  1.00  0.00     0.034 A 
BRANCH  46  60
ATOM     60  C   UNL A   1      42.758  23.700  27.229  1.00  0.00     0.023 A 
ATOM     61  C   UNL A   1      43.448  24.085  26.063  1.00  0.00     0.012 A 
ATOM     62  C   UNL A   1      42.349  22.345  27.303  1.00  0.00     0.148 A 
ATOM     63  C   UNL A   1      43.686  23.209  25.006  1.00  0.00     0.002 A 
ATOM     64  C   UNL A   1      42.541  21.477  26.223  1.00  0.00     0.091 A 
ATOM     65  F   UNL A   1      41.842  21.856  28.439  1.00  0.00    -0.205 F 
ATOM     66  C   UNL A   1      43.215  21.909  25.077  1.00  0.00     0.022 A 
BRANCH  64  67
ATOM     67  S   UNL A   1      41.926  19.783  26.199  1.00  0.00     0.127 S 
ATOM     68  O   UNL A   1      42.627  19.218  25.043  1.00  0.00    -0.237 OA
ATOM     69  O   UNL A   1      42.378  19.268  27.489  1.00  0.00    -0.237 OA
ATOM     70  O   UNL A   1      40.481  19.876  26.028  1.00  0.00    -0.744 OA
ENDBRANCH  64  67
ENDBRANCH  46  60
BRANCH  47  71
ATOM     71  C   UNL A   1      41.354  32.270  31.956  1.00  0.00     0.023 A 
ATOM     72  C   UNL A   1      40.828  33.470  31.418  1.00  0.00     0.012 A 
ATOM     73  C   UNL A   1      40.515  31.445  32.722  1.00  0.00     0.148 A 
ATOM     74  C   UNL A   1      39.450  33.707  31.432  1.00  0.00     0.002 A 
ATOM     75  C   UNL A   1      39.145  31.688  32.733  1.00  0.00     0.091 A 
ATOM     76  F   UNL A   1      41.053  30.394  33.354  1.00  0.00    -0.205 F 
ATOM     77  C   UNL A   1      38.603  32.778  32.031  1.00  0.00     0.022 A 
BRANCH  75  78
ATOM     78  S   UNL A   1      38.020  30.553  33.546  1.00  0.00     0.127 S 
ATOM     79  O   UNL A   1      38.102  31.001  34.933  1.00  0.00    -0.237 OA
ATOM     80  O   UNL A   1      36.745  30.841  32.893  1.00  0.00    -0.237 OA
ATOM     81  O   UNL A   1      38.552  29.226  33.272  1.00  0.00    -0.744 OA
ENDBRANCH  75  78
ENDBRANCH  47  71
BRANCH  59  82
ATOM     82  C   UNL A   1      45.272  26.347  32.766  1.00  0.00     0.023 A 
ATOM     83  C   UNL A   1      46.617  25.937  32.793  1.00  0.00     0.012 A 
ATOM     84  C   UNL A   1      44.439  25.821  33.793  1.00  0.00     0.148 A 
ATOM     85  C   UNL A   1      47.085  24.985  33.705  1.00  0.00     0.002 A 
ATOM     86  C   UNL A   1      44.944  24.994  34.787  1.00  0.00     0.091 A 
ATOM     87  F   UNL A   1      43.124  26.081  33.800  1.00  0.00    -0.205 F 
ATOM     88  C   UNL A   1      46.255  24.528  34.717  1.00  0.00     0.022 A 
BRANCH  86  89
ATOM     89  S   UNL A   1      43.990  24.596  36.258  1.00  0.00     0.127 S 
ATOM     90  O   UNL A   1      43.683  25.925  36.782  1.00  0.00    -0.237 OA
ATOM     91  O   UNL A   1      42.842  23.882  35.694  1.00  0.00    -0.237 OA
ATOM     92  O   UNL A   1      44.862  23.770  37.081  1.00  0.00    -0.744 OA
ENDBRANCH  86  89
ENDBRANCH  59  82
ENDBRANCH  33  34
ENDBRANCH  25  28
ENDBRANCH  23  24
ENDBRANCH   1  23
TORSDOF 16
ENDMDL
MODEL 3
REMARK VINA RESULT:     -13.4      4.279      9.529
REMARK SMILES Cc1ccc(C(=O)NC2(CC(=O)NCCCNC(=O)c3ccc(-c4c5nc(c(-c6cccc(S(=O)(=O)[O-])c6F)c6ccc([nH]6)c(-c6cccc(S(=O)(=O)[O-])c6F)c6nc(c(-c7cccc(S(=O)(=O)[O-])c7F)c7ccc4[nH]7)C=C6)C=C5)cc3)CCC2)cc1
REMARK SMILES IDX 15 1 14 2 13 3 11 4 12 5 10 7 9 8 83 9 85 10 84 11 8 12 6 13
REMARK SMILES IDX 7 14 5 16 1 17 2 18 3 19 87 20 4 21 86 22 16 23 17 24 18 25
REMARK SMILES IDX 19 27 20 28 21 29 82 30 22 31 81 32 23 33 24 34 25 35 75 36
REMARK SMILES IDX 26 37 80 38 74 39 76 40 27 41 79 42 73 43 72 44 28 46 60 47
REMARK SMILES IDX 40 48 59 49 41 50 44 51 58 52 77 53 42 54 43 55 57 57 78 58
REMARK SMILES IDX 45 59 29 60 30 61 38 62 31 63 33 64 39 65 32 66 34 67 35 68
REMARK SMILES IDX 36 69 37 70 61 71 62 72 70 73 63 74 65 75 71 76 64 77 66 78
REMARK SMILES IDX 67 79 68 80 69 81 46 82 47 83 55 84 48 85 50 86 56 87 49 88
REMARK SMILES IDX 51 89 52 90 53 91 54 92
REMARK H PARENT 13 6 8 15 17 26 76 45 44 56
REMARK Flexibility Score: inf
ROOT
ATOM      1  C   UNL A   1      35.346  30.074  28.373  1.00  0.00     0.042 C 
ENDROOT
BRANCH   1   2
ATOM      2  C   UNL A   1      35.296  29.102  27.180  1.00  0.00     0.117 C 
BRANCH   2   3
ATOM      3  N   UNL A   1      34.094  29.408  26.015  1.00  0.00    -0.356 N 
ATOM      4  C   UNL A   1      32.179  28.971  25.750  1.00  0.00     0.222 C 
ATOM      5  O   UNL A   1      31.253  29.614  25.192  1.00  0.00    -0.275 OA
ATOM      6  H   UNL A   1      34.445  29.949  25.272  1.00  0.00     0.163 HD
BRANCH   4   7
ATOM      7  C   UNL A   1      31.412  27.325  26.287  1.00  0.00     0.128 C 
BRANCH   7   8
ATOM      8  C   UNL A   1      30.454  26.355  25.299  1.00  0.00     0.049 C 
ATOM      9  C   UNL A   1      31.068  25.921  23.920  1.00  0.00     0.029 C 
ATOM     10  C   UNL A   1      29.083  26.539  24.318  1.00  0.00     0.029 C 
ATOM     11  C   UNL A   1      30.017  26.790  23.164  1.00  0.00     0.005 C 
BRANCH   8  12
ATOM     12  N   UNL A   1      29.924  25.357  26.209  1.00  0.00    -0.346 N 
ATOM     13  C   UNL A   1      30.751  24.286  26.420  1.00  0.00     0.251 C 
ATOM     14  O   UNL A   1      30.526  23.433  27.264  1.00  0.00    -0.269 OA
ATOM     15  H   UNL A   1      29.042  25.441  26.640  1.00  0.00     0.164 HD
BRANCH  13  16
ATOM     16  C   UNL A   1      31.835  24.154  25.377  1.00  0.00     0.039 A 
ATOM     17  C   UNL A   1      36.252  23.055  23.327  1.00  0.00     0.044 C 
ATOM     18  C   UNL A   1      35.005  22.841  24.162  1.00  0.00    -0.051 A 
ATOM     19  C   UNL A   1      34.950  23.884  25.631  1.00  0.00     0.004 A 
ATOM     20  C   UNL A   1      33.500  22.330  23.304  1.00  0.00     0.004 A 
ATOM     21  C   UNL A   1      33.388  24.520  26.233  1.00  0.00     0.014 A 
ATOM     22  C   UNL A   1      31.881  23.047  23.839  1.00  0.00     0.014 A 
ENDBRANCH  13  16
ENDBRANCH   8  12
ENDBRANCH   7   8
ENDBRANCH   4   7
ENDBRANCH   2   3
ENDBRANCH   1   2
BRANCH   1  23
ATOM     23  C   UNL A   1      35.780  31.388  27.857  1.00  0.00     0.118 C 
BRANCH  23  24
ATOM     24  N   UNL A   1      34.828  32.429  28.262  1.00  0.00    -0.352 N 
ATOM     25  C   UNL A   1      34.760  33.115  29.454  1.00  0.00     0.251 C 
ATOM     26  H   UNL A   1      34.148  32.669  27.592  1.00  0.00     0.163 HD
ATOM     27  O   UNL A   1      33.688  33.576  29.817  1.00  0.00    -0.269 OA
BRANCH  25  28
ATOM     28  C   UNL A   1      36.041  33.394  30.124  1.00  0.00     0.039 A 
ATOM     29  C   UNL A   1      37.096  34.018  29.485  1.00  0.00     0.014 A 
ATOM     30  C   UNL A   1      36.334  32.562  31.197  1.00  0.00     0.014 A 
ATOM     31  C   UNL A   1      38.362  33.530  29.791  1.00  0.00     0.010 A 
ATOM     32  C   UNL A   1      37.513  32.525  31.809  1.00  0.00     0.010 A 
ATOM     33  C   UNL A   1      38.481  32.633  30.848  1.00  0.00    -0.014 A 
BRANCH  33  34
ATOM     34  C   UNL A   1      39.595  31.808  31.211  1.00  0.00     0.031 A 
ATOM     35  C   UNL A   1      39.618  30.599  30.396  1.00  0.00     0.074 A 
ATOM     36  C   UNL A   1      40.625  32.432  31.850  1.00  0.00     0.049 A 
ATOM     37  N   UNL A   1      40.214  29.521  30.723  1.00  0.00    -0.248 NA
ATOM     38  C   UNL A   1      38.856  30.488  29.138  1.00  0.00     0.031 C 
ATOM     39  C   UNL A   1      42.059  32.183  31.746  1.00  0.00     0.029 A 
ATOM     40  N   UNL A   1      40.559  33.480  32.787  1.00  0.00    -0.354 N 
ATOM     41  C   UNL A   1      40.272  28.784  29.562  1.00  0.00     0.074 A 
ATOM     42  C   UNL A   1      39.242  29.292  28.701  1.00  0.00     0.031 C 
ATOM     43  C   UNL A   1      42.698  32.808  32.757  1.00  0.00     0.029 A 
ATOM     44  C   UNL A   1      41.684  33.373  33.633  1.00  0.00     0.049 A 
ATOM     45  H   UNL A   1      39.854  34.165  32.843  1.00  0.00     0.167 HD
ATOM     46  C   UNL A   1      41.389  28.049  29.337  1.00  0.00     0.034 A 
ATOM     47  C   UNL A   1      41.514  33.029  34.950  1.00  0.00     0.034 A 
ATOM     48  C   UNL A   1      42.353  28.292  30.425  1.00  0.00     0.049 A 
ATOM     49  C   UNL A   1      41.946  31.599  35.228  1.00  0.00     0.074 A 
ATOM     50  C   UNL A   1      43.450  29.132  30.537  1.00  0.00     0.029 A 
ATOM     51  N   UNL A   1      41.985  27.965  31.725  1.00  0.00    -0.354 N 
ATOM     52  N   UNL A   1      42.255  30.737  34.300  1.00  0.00    -0.248 NA
ATOM     53  C   UNL A   1      42.068  31.030  36.567  1.00  0.00     0.031 C 
ATOM     54  C   UNL A   1      43.723  29.316  31.923  1.00  0.00     0.029 A 
ATOM     55  C   UNL A   1      42.794  28.595  32.653  1.00  0.00     0.049 A 
ATOM     56  H   UNL A   1      41.244  27.360  31.955  1.00  0.00     0.167 HD
ATOM     57  C   UNL A   1      42.447  29.499  34.851  1.00  0.00     0.074 A 
ATOM     58  C   UNL A   1      42.404  29.759  36.281  1.00  0.00     0.031 C 
ATOM     59  C   UNL A   1      42.566  28.373  34.079  1.00  0.00     0.034 A 
BRANCH  46  60
ATOM     60  C   UNL A   1      41.754  27.423  28.014  1.00  0.00     0.023 A 
ATOM     61  C   UNL A   1      41.695  28.270  26.889  1.00  0.00     0.012 A 
ATOM     62  C   UNL A   1      42.177  26.091  27.781  1.00  0.00     0.148 A 
ATOM     63  C   UNL A   1      41.986  27.828  25.600  1.00  0.00     0.002 A 
ATOM     64  C   UNL A   1      42.420  25.632  26.482  1.00  0.00     0.091 A 
ATOM     65  F   UNL A   1      42.423  25.273  28.809  1.00  0.00    -0.205 F 
ATOM     66  C   UNL A   1      42.331  26.503  25.393  1.00  0.00     0.022 A 
BRANCH  64  67
ATOM     67  S   UNL A   1      42.828  23.917  26.104  1.00  0.00     0.127 S 
ATOM     68  O   UNL A   1      41.574  23.227  26.418  1.00  0.00    -0.237 OA
ATOM     69  O   UNL A   1      43.142  23.977  24.678  1.00  0.00    -0.237 OA
ATOM     70  O   UNL A   1      43.936  23.558  26.980  1.00  0.00    -0.744 OA
ENDBRANCH  64  67
ENDBRANCH  46  60
BRANCH  47  71
ATOM     71  C   UNL A   1      40.292  33.679  35.530  1.00  0.00     0.023 A 
ATOM     72  C   UNL A   1      39.094  32.924  35.504  1.00  0.00     0.012 A 
ATOM     73  C   UNL A   1      40.441  34.681  36.501  1.00  0.00     0.148 A 
ATOM     74  C   UNL A   1      38.190  32.996  36.568  1.00  0.00     0.002 A 
ATOM     75  C   UNL A   1      39.537  34.748  37.556  1.00  0.00     0.091 A 
ATOM     76  F   UNL A   1      41.505  35.492  36.427  1.00  0.00    -0.205 F 
ATOM     77  C   UNL A   1      38.450  33.861  37.628  1.00  0.00     0.022 A 
BRANCH  75  78
ATOM     78  S   UNL A   1      39.796  35.891  38.914  1.00  0.00     0.127 S 
ATOM     79  O   UNL A   1      41.181  35.605  39.276  1.00  0.00    -0.237 OA
ATOM     80  O   UNL A   1      39.593  37.193  38.282  1.00  0.00    -0.237 OA
ATOM     81  O   UNL A   1      38.792  35.539  39.906  1.00  0.00    -0.744 OA
ENDBRANCH  75  78
ENDBRANCH  47  71
BRANCH  59  82
ATOM     82  C   UNL A   1      42.482  26.940  34.589  1.00  0.00     0.023 A 
ATOM     83  C   UNL A   1      41.318  26.417  35.178  1.00  0.00     0.012 A 
ATOM     84  C   UNL A   1      43.545  26.017  34.382  1.00  0.00     0.148 A 
ATOM     85  C   UNL A   1      41.246  25.097  35.636  1.00  0.00     0.002 A 
ATOM     86  C   UNL A   1      43.412  24.671  34.700  1.00  0.00     0.091 A 
ATOM     87  F   UNL A   1      44.727  26.436  33.910  1.00  0.00    -0.205 F 
ATOM     88  C   UNL A   1      42.284  24.217  35.379  1.00  0.00     0.022 A 
BRANCH  86  89
ATOM     89  S   UNL A   1      44.608  23.448  34.147  1.00  0.00     0.127 S 
ATOM     90  O   UNL A   1      44.056  22.218  34.710  1.00  0.00    -0.237 OA
ATOM     91  O   UNL A   1      44.502  23.553  32.690  1.00  0.00    -0.237 OA
ATOM     92  O   UNL A   1      45.889  23.878  34.686  1.00  0.00    -0.744 OA
ENDBRANCH  86  89
ENDBRANCH  59  82
ENDBRANCH  33  34
ENDBRANCH  25  28
ENDBRANCH  23  24
ENDBRANCH   1  23
TORSDOF 16
ENDMDL
