MODEL 1
REMARK VINA RESULT:     -12.4      0.000      0.000
REMARK SMILES C[C@@H](C(=O)NCCCNC(=O)c1ccc(-c2c3nc(c(-c4cccc(S(=O)(=O)[O-])c4F)c4ccc([nH]4)c(-c4cccc(S(=O)(=O)[O-])c4F)c4nc(c(-c5cccc(S(=O)(=O)[O-])c5F)c5ccc2[nH]5)C=C4)C=C3)cc1)c1ccc(-c2ccccc2)c(F)c1
REMARK SMILES IDX 7 1 6 2 5 3 3 4 4 5 2 7 1 8 75 9 76 10 87 11 77 12 85 13
REMARK SMILES IDX 78 14 86 15 79 16 80 17 84 18 81 19 83 20 82 21 8 22 9 23
REMARK SMILES IDX 10 24 11 26 12 27 13 28 74 29 14 30 73 31 15 32 16 33 17 34
REMARK SMILES IDX 67 35 18 36 72 37 66 38 68 39 19 40 71 41 65 42 64 43 20 45
REMARK SMILES IDX 52 46 32 47 51 48 33 49 36 50 50 51 69 52 34 53 35 54 49 56
REMARK SMILES IDX 70 57 37 58 21 59 22 60 30 61 23 62 25 63 31 64 24 65 26 66
REMARK SMILES IDX 27 67 28 68 29 69 53 70 54 71 62 72 55 73 57 74 63 75 56 76
REMARK SMILES IDX 58 77 59 78 60 79 61 80 38 81 39 82 47 83 40 84 42 85 48 86
REMARK SMILES IDX 41 87 43 88 44 89 45 90 46 91
REMARK H PARENT 5 6 9 25 68 44 36 55
REMARK Flexibility Score: inf
ROOT
ATOM      1  C   UNL A   1      31.811  31.340  26.586  1.00  0.00     0.042 C 
ENDROOT
BRANCH   1   2
ATOM      2  C   UNL A   1      32.155  29.903  26.207  1.00  0.00     0.117 C 
BRANCH   2   3
ATOM      3  N   UNL A   1      31.447  29.474  25.016  1.00  0.00    -0.356 N 
ATOM      4  C   UNL A   1      31.878  28.778  23.926  1.00  0.00     0.227 C 
ATOM      5  O   UNL A   1      31.045  28.594  23.037  1.00  0.00    -0.274 OA
ATOM      6  H   UNL A   1      30.496  29.728  24.991  1.00  0.00     0.163 HD
BRANCH   4   7
ATOM      7  C   UNL A   1      33.317  28.232  23.869  1.00  0.00     0.105 C 
ATOM      8  C   UNL A   1      34.043  28.628  22.582  1.00  0.00     0.023 C 
BRANCH   7   9
ATOM      9  C   UNL A   1      33.378  26.715  24.025  1.00  0.00    -0.033 A 
ATOM     10  C   UNL A   1      33.718  25.889  22.943  1.00  0.00     0.005 A 
ATOM     11  C   UNL A   1      33.127  26.115  25.265  1.00  0.00     0.044 A 
ATOM     12  C   UNL A   1      33.792  24.503  23.092  1.00  0.00     0.012 A 
ATOM     13  C   UNL A   1      33.209  24.728  25.406  1.00  0.00     0.131 A 
ATOM     14  C   UNL A   1      33.543  23.891  24.331  1.00  0.00     0.017 A 
ATOM     15  F   UNL A   1      32.966  24.205  26.619  1.00  0.00    -0.206 F 
BRANCH  14  16
ATOM     16  C   UNL A   1      33.631  22.428  24.464  1.00  0.00    -0.015 A 
ATOM     17  C   UNL A   1      34.841  21.811  24.827  1.00  0.00     0.009 A 
ATOM     18  C   UNL A   1      32.526  21.604  24.199  1.00  0.00     0.009 A 
ATOM     19  C   UNL A   1      34.946  20.421  24.910  1.00  0.00     0.001 A 
ATOM     20  C   UNL A   1      32.629  20.213  24.282  1.00  0.00     0.001 A 
ATOM     21  C   UNL A   1      33.840  19.622  24.634  1.00  0.00     0.000 A 
ENDBRANCH  14  16
ENDBRANCH   7   9
ENDBRANCH   4   7
ENDBRANCH   2   3
ENDBRANCH   1   2
BRANCH   1  22
ATOM     22  C   UNL A   1      32.952  32.105  27.250  1.00  0.00     0.118 C 
BRANCH  22  23
ATOM     23  N   UNL A   1      32.610  33.491  27.542  1.00  0.00    -0.352 N 
ATOM     24  C   UNL A   1      33.146  34.337  28.483  1.00  0.00     0.251 C 
ATOM     25  H   UNL A   1      31.893  33.875  26.986  1.00  0.00     0.163 HD
ATOM     26  O   UNL A   1      32.621  35.425  28.701  1.00  0.00    -0.269 OA
BRANCH  24  27
ATOM     27  C   UNL A   1      34.342  33.922  29.246  1.00  0.00     0.039 A 
ATOM     28  C   UNL A   1      34.189  33.089  30.358  1.00  0.00     0.014 A 
ATOM     29  C   UNL A   1      35.613  34.345  28.852  1.00  0.00     0.014 A 
ATOM     30  C   UNL A   1      35.320  32.620  31.033  1.00  0.00     0.010 A 
ATOM     31  C   UNL A   1      36.737  33.821  29.478  1.00  0.00     0.010 A 
ATOM     32  C   UNL A   1      36.603  32.955  30.575  1.00  0.00    -0.014 A 
BRANCH  32  33
ATOM     33  C   UNL A   1      37.836  32.423  31.210  1.00  0.00     0.031 A 
ATOM     34  C   UNL A   1      38.562  31.274  30.569  1.00  0.00     0.074 A 
ATOM     35  C   UNL A   1      38.209  32.865  32.426  1.00  0.00     0.049 A 
ATOM     36  N   UNL A   1      39.526  30.534  31.049  1.00  0.00    -0.248 NA
ATOM     37  C   UNL A   1      38.113  30.880  29.223  1.00  0.00     0.031 C 
ATOM     38  C   UNL A   1      37.543  33.927  33.181  1.00  0.00     0.029 A 
ATOM     39  N   UNL A   1      39.209  32.436  33.264  1.00  0.00    -0.354 N 
ATOM     40  C   UNL A   1      39.758  29.552  30.094  1.00  0.00     0.074 A 
ATOM     41  C   UNL A   1      38.819  29.780  29.015  1.00  0.00     0.031 C 
ATOM     42  C   UNL A   1      38.132  34.049  34.381  1.00  0.00     0.029 A 
ATOM     43  C   UNL A   1      39.194  33.052  34.495  1.00  0.00     0.049 A 
ATOM     44  H   UNL A   1      39.873  31.755  33.010  1.00  0.00     0.167 HD
ATOM     45  C   UNL A   1      40.683  28.564  30.100  1.00  0.00     0.034 A 
ATOM     46  C   UNL A   1      39.930  32.822  35.601  1.00  0.00     0.034 A 
ATOM     47  C   UNL A   1      41.649  28.378  31.148  1.00  0.00     0.049 A 
ATOM     48  C   UNL A   1      40.994  31.760  35.566  1.00  0.00     0.074 A 
ATOM     49  C   UNL A   1      42.693  27.471  31.205  1.00  0.00     0.029 A 
ATOM     50  N   UNL A   1      41.689  29.111  32.324  1.00  0.00    -0.354 N 
ATOM     51  N   UNL A   1      41.301  30.936  34.593  1.00  0.00    -0.248 NA
ATOM     52  C   UNL A   1      41.838  31.617  36.762  1.00  0.00     0.031 C 
ATOM     53  C   UNL A   1      43.356  27.649  32.424  1.00  0.00     0.029 A 
ATOM     54  C   UNL A   1      42.737  28.679  33.116  1.00  0.00     0.049 A 
ATOM     55  H   UNL A   1      41.064  29.833  32.561  1.00  0.00     0.167 HD
ATOM     56  C   UNL A   1      42.393  30.204  35.042  1.00  0.00     0.074 A 
ATOM     57  C   UNL A   1      42.702  30.687  36.373  1.00  0.00     0.031 C 
ATOM     58  C   UNL A   1      43.072  29.214  34.412  1.00  0.00     0.034 A 
BRANCH  45  59
ATOM     59  C   UNL A   1      40.721  27.639  28.912  1.00  0.00     0.023 A 
ATOM     60  C   UNL A   1      39.776  26.596  28.812  1.00  0.00     0.012 A 
ATOM     61  C   UNL A   1      41.670  27.810  27.886  1.00  0.00     0.148 A 
ATOM     62  C   UNL A   1      39.805  25.711  27.735  1.00  0.00     0.002 A 
ATOM     63  C   UNL A   1      41.663  26.950  26.792  1.00  0.00     0.091 A 
ATOM     64  F   UNL A   1      42.578  28.789  28.007  1.00  0.00    -0.205 F 
ATOM     65  C   UNL A   1      40.742  25.893  26.722  1.00  0.00     0.022 A 
BRANCH  63  66
ATOM     66  S   UNL A   1      42.782  27.165  25.403  1.00  0.00     0.127 S 
ATOM     67  O   UNL A   1      44.066  27.332  26.081  1.00  0.00    -0.237 OA
ATOM     68  O   UNL A   1      42.634  25.898  24.683  1.00  0.00    -0.237 OA
ATOM     69  O   UNL A   1      42.290  28.327  24.678  1.00  0.00    -0.744 OA
ENDBRANCH  63  66
ENDBRANCH  45  59
BRANCH  46  70
ATOM     70  C   UNL A   1      39.712  33.666  36.810  1.00  0.00     0.023 A 
ATOM     71  C   UNL A   1      40.133  35.009  36.797  1.00  0.00     0.012 A 
ATOM     72  C   UNL A   1      39.024  33.170  37.934  1.00  0.00     0.148 A 
ATOM     73  C   UNL A   1      39.886  35.841  37.890  1.00  0.00     0.002 A 
ATOM     74  C   UNL A   1      38.735  34.018  38.998  1.00  0.00     0.091 A 
ATOM     75  F   UNL A   1      38.638  31.886  37.927  1.00  0.00    -0.205 F 
ATOM     76  C   UNL A   1      39.178  35.349  38.984  1.00  0.00     0.022 A 
BRANCH  74  77
ATOM     77  S   UNL A   1      37.709  33.517  40.385  1.00  0.00     0.127 S 
ATOM     78  O   UNL A   1      38.528  32.479  41.005  1.00  0.00    -0.237 OA
ATOM     79  O   UNL A   1      37.607  34.761  41.148  1.00  0.00    -0.237 OA
ATOM     80  O   UNL A   1      36.451  33.065  39.804  1.00  0.00    -0.744 OA
ENDBRANCH  74  77
ENDBRANCH  46  70
BRANCH  58  81
ATOM     81  C   UNL A   1      44.254  28.605  35.118  1.00  0.00     0.023 A 
ATOM     82  C   UNL A   1      45.543  29.130  34.907  1.00  0.00     0.012 A 
ATOM     83  C   UNL A   1      44.064  27.594  36.083  1.00  0.00     0.148 A 
ATOM     84  C   UNL A   1      46.630  28.648  35.638  1.00  0.00     0.002 A 
ATOM     85  C   UNL A   1      45.143  27.151  36.837  1.00  0.00     0.091 A 
ATOM     86  F   UNL A   1      42.829  27.098  36.252  1.00  0.00    -0.205 F 
ATOM     87  C   UNL A   1      46.428  27.671  36.611  1.00  0.00     0.022 A 
BRANCH  85  88
ATOM     88  S   UNL A   1      44.962  25.968  38.177  1.00  0.00     0.127 S 
ATOM     89  O   UNL A   1      43.994  26.642  39.040  1.00  0.00    -0.237 OA
ATOM     90  O   UNL A   1      44.444  24.789  37.482  1.00  0.00    -0.237 OA
ATOM     91  O   UNL A   1      46.293  25.799  38.747  1.00  0.00    -0.744 OA
ENDBRANCH  85  88
ENDBRANCH  58  81
ENDBRANCH  32  33
ENDBRANCH  24  27
ENDBRANCH  22  23
ENDBRANCH   1  22
TORSDOF 15
ENDMDL
MODEL 2
REMARK VINA RESULT:     -12.3      4.425     10.704
REMARK SMILES C[C@@H](C(=O)NCCCNC(=O)c1ccc(-c2c3nc(c(-c4cccc(S(=O)(=O)[O-])c4F)c4ccc([nH]4)c(-c4cccc(S(=O)(=O)[O-])c4F)c4nc(c(-c5cccc(S(=O)(=O)[O-])c5F)c5ccc2[nH]5)C=C4)C=C3)cc1)c1ccc(-c2ccccc2)c(F)c1
REMARK SMILES IDX 7 1 6 2 5 3 3 4 4 5 2 7 1 8 75 9 76 10 87 11 77 12 85 13
REMARK SMILES IDX 78 14 86 15 79 16 80 17 84 18 81 19 83 20 82 21 8 22 9 23
REMARK SMILES IDX 10 24 11 26 12 27 13 28 74 29 14 30 73 31 15 32 16 33 17 34
REMARK SMILES IDX 67 35 18 36 72 37 66 38 68 39 19 40 71 41 65 42 64 43 20 45
REMARK SMILES IDX 52 46 32 47 51 48 33 49 36 50 50 51 69 52 34 53 35 54 49 56
REMARK SMILES IDX 70 57 37 58 21 59 22 60 30 61 23 62 25 63 31 64 24 65 26 66
REMARK SMILES IDX 27 67 28 68 29 69 53 70 54 71 62 72 55 73 57 74 63 75 56 76
REMARK SMILES IDX 58 77 59 78 60 79 61 80 38 81 39 82 47 83 40 84 42 85 48 86
REMARK SMILES IDX 41 87 43 88 44 89 45 90 46 91
REMARK H PARENT 5 6 9 25 68 44 36 55
REMARK Flexibility Score: inf
ROOT
ATOM      1  C   UNL A   1      33.663  33.944  28.782  1.00  0.00     0.042 C 
ENDROOT
BRANCH   1   2
ATOM      2  C   UNL A   1      34.372  35.202  29.273  1.00  0.00     0.117 C 
BRANCH   2   3
ATOM      3  N   UNL A   1      34.311  35.328  30.716  1.00  0.00    -0.356 N 
ATOM      4  C   UNL A   1      34.748  34.495  31.703  1.00  0.00     0.227 C 
ATOM      5  O   UNL A   1      34.515  34.855  32.859  1.00  0.00    -0.274 OA
ATOM      6  H   UNL A   1      33.882  36.154  31.037  1.00  0.00     0.163 HD
BRANCH   4   7
ATOM      7  C   UNL A   1      35.524  33.212  31.352  1.00  0.00     0.105 C 
ATOM      8  C   UNL A   1      35.533  32.201  32.501  1.00  0.00     0.023 C 
BRANCH   7   9
ATOM      9  C   UNL A   1      36.962  33.490  30.926  1.00  0.00    -0.033 A 
ATOM     10  C   UNL A   1      37.394  33.225  29.618  1.00  0.00     0.005 A 
ATOM     11  C   UNL A   1      37.877  34.050  31.826  1.00  0.00     0.044 A 
ATOM     12  C   UNL A   1      38.705  33.498  29.224  1.00  0.00     0.012 A 
ATOM     13  C   UNL A   1      39.186  34.325  31.421  1.00  0.00     0.131 A 
ATOM     14  C   UNL A   1      39.630  34.059  30.118  1.00  0.00     0.017 A 
ATOM     15  F   UNL A   1      40.020  34.869  32.323  1.00  0.00    -0.206 F 
BRANCH  14  16
ATOM     16  C   UNL A   1      41.006  34.342  29.678  1.00  0.00    -0.015 A 
ATOM     17  C   UNL A   1      42.060  33.472  30.013  1.00  0.00     0.009 A 
ATOM     18  C   UNL A   1      41.315  35.500  28.948  1.00  0.00     0.009 A 
ATOM     19  C   UNL A   1      43.375  33.756  29.640  1.00  0.00     0.001 A 
ATOM     20  C   UNL A   1      42.631  35.786  28.575  1.00  0.00     0.001 A 
ATOM     21  C   UNL A   1      43.661  34.915  28.924  1.00  0.00     0.000 A 
ENDBRANCH  14  16
ENDBRANCH   7   9
ENDBRANCH   4   7
ENDBRANCH   2   3
ENDBRANCH   1   2
BRANCH   1  22
ATOM     22  C   UNL A   1      34.559  32.976  28.015  1.00  0.00     0.118 C 
BRANCH  22  23
ATOM     23  N   UNL A   1      33.850  31.787  27.560  1.00  0.00    -0.352 N 
ATOM     24  C   UNL A   1      34.288  30.485  27.502  1.00  0.00     0.251 C 
ATOM     25  H   UNL A   1      32.927  31.938  27.251  1.00  0.00     0.163 HD
ATOM     26  O   UNL A   1      33.609  29.634  26.935  1.00  0.00    -0.269 OA
BRANCH  24  27
ATOM     27  C   UNL A   1      35.586  30.121  28.106  1.00  0.00     0.039 A 
ATOM     28  C   UNL A   1      35.627  29.698  29.438  1.00  0.00     0.014 A 
ATOM     29  C   UNL A   1      36.759  30.185  27.351  1.00  0.00     0.014 A 
ATOM     30  C   UNL A   1      36.837  29.268  29.992  1.00  0.00     0.010 A 
ATOM     31  C   UNL A   1      37.945  29.689  27.879  1.00  0.00     0.010 A 
ATOM     32  C   UNL A   1      37.997  29.228  29.204  1.00  0.00    -0.014 A 
BRANCH  32  33
ATOM     33  C   UNL A   1      39.290  28.710  29.721  1.00  0.00     0.031 A 
ATOM     34  C   UNL A   1      40.000  29.454  30.816  1.00  0.00     0.074 A 
ATOM     35  C   UNL A   1      39.891  27.673  29.107  1.00  0.00     0.049 A 
ATOM     36  N   UNL A   1      41.216  29.296  31.269  1.00  0.00    -0.248 NA
ATOM     37  C   UNL A   1      39.255  30.550  31.459  1.00  0.00     0.031 C 
ATOM     38  C   UNL A   1      39.333  26.915  27.986  1.00  0.00     0.029 A 
ATOM     39  N   UNL A   1      41.130  27.114  29.305  1.00  0.00    -0.354 N 
ATOM     40  C   UNL A   1      41.404  30.307  32.204  1.00  0.00     0.074 A 
ATOM     41  C   UNL A   1      40.183  31.084  32.238  1.00  0.00     0.031 C 
ATOM     42  C   UNL A   1      40.235  26.009  27.577  1.00  0.00     0.029 A 
ATOM     43  C   UNL A   1      41.447  26.146  28.380  1.00  0.00     0.049 A 
ATOM     44  H   UNL A   1      41.733  27.380  30.036  1.00  0.00     0.167 HD
ATOM     45  C   UNL A   1      42.484  30.553  32.982  1.00  0.00     0.034 A 
ATOM     46  C   UNL A   1      42.593  25.463  28.181  1.00  0.00     0.034 A 
ATOM     47  C   UNL A   1      43.671  29.743  32.983  1.00  0.00     0.049 A 
ATOM     48  C   UNL A   1      43.761  25.710  29.096  1.00  0.00     0.074 A 
ATOM     49  C   UNL A   1      44.782  29.846  33.801  1.00  0.00     0.029 A 
ATOM     50  N   UNL A   1      43.904  28.682  32.122  1.00  0.00    -0.354 N 
ATOM     51  N   UNL A   1      43.868  26.572  30.078  1.00  0.00    -0.248 NA
ATOM     52  C   UNL A   1      44.952  24.869  28.903  1.00  0.00     0.031 C 
ATOM     53  C   UNL A   1      45.693  28.852  33.425  1.00  0.00     0.029 A 
ATOM     54  C   UNL A   1      45.140  28.120  32.386  1.00  0.00     0.049 A 
ATOM     55  H   UNL A   1      43.281  28.373  31.425  1.00  0.00     0.167 HD
ATOM     56  C   UNL A   1      45.119  26.354  30.644  1.00  0.00     0.074 A 
ATOM     57  C   UNL A   1      45.731  25.272  29.900  1.00  0.00     0.031 C 
ATOM     58  C   UNL A   1      45.709  27.000  31.679  1.00  0.00     0.034 A 
BRANCH  45  59
ATOM     59  C   UNL A   1      42.407  31.721  33.929  1.00  0.00     0.023 A 
ATOM     60  C   UNL A   1      42.811  33.000  33.491  1.00  0.00     0.012 A 
ATOM     61  C   UNL A   1      41.917  31.565  35.240  1.00  0.00     0.148 A 
ATOM     62  C   UNL A   1      42.773  34.093  34.355  1.00  0.00     0.002 A 
ATOM     63  C   UNL A   1      41.840  32.670  36.081  1.00  0.00     0.091 A 
ATOM     64  F   UNL A   1      41.562  30.340  35.651  1.00  0.00    -0.205 F 
ATOM     65  C   UNL A   1      42.280  33.930  35.646  1.00  0.00     0.022 A 
BRANCH  63  66
ATOM     66  S   UNL A   1      41.140  32.564  37.733  1.00  0.00     0.127 S 
ATOM     67  O   UNL A   1      39.794  32.067  37.452  1.00  0.00    -0.237 OA
ATOM     68  O   UNL A   1      42.022  31.595  38.386  1.00  0.00    -0.237 OA
ATOM     69  O   UNL A   1      41.218  33.910  38.280  1.00  0.00    -0.744 OA
ENDBRANCH  63  66
ENDBRANCH  45  59
BRANCH  46  70
ATOM     70  C   UNL A   1      42.654  24.440  27.100  1.00  0.00     0.023 A 
ATOM     71  C   UNL A   1      43.354  24.733  25.914  1.00  0.00     0.012 A 
ATOM     72  C   UNL A   1      42.094  23.159  27.271  1.00  0.00     0.148 A 
ATOM     73  C   UNL A   1      43.482  23.773  24.909  1.00  0.00     0.002 A 
ATOM     74  C   UNL A   1      42.271  22.191  26.289  1.00  0.00     0.091 A 
ATOM     75  F   UNL A   1      41.428  22.904  28.405  1.00  0.00    -0.205 F 
ATOM     76  C   UNL A   1      42.952  22.500  25.101  1.00  0.00     0.022 A 
BRANCH  74  77
ATOM     77  S   UNL A   1      41.749  20.485  26.505  1.00  0.00     0.127 S 
ATOM     78  O   UNL A   1      40.295  20.605  26.434  1.00  0.00    -0.237 OA
ATOM     79  O   UNL A   1      42.371  19.832  25.354  1.00  0.00    -0.237 OA
ATOM     80  O   UNL A   1      42.285  20.068  27.795  1.00  0.00    -0.744 OA
ENDBRANCH  74  77
ENDBRANCH  46  70
BRANCH  58  81
ATOM     81  C   UNL A   1      47.072  26.535  32.119  1.00  0.00     0.023 A 
ATOM     82  C   UNL A   1      47.190  25.597  33.162  1.00  0.00     0.012 A 
ATOM     83  C   UNL A   1      48.224  26.939  31.413  1.00  0.00     0.148 A 
ATOM     84  C   UNL A   1      48.437  25.076  33.505  1.00  0.00     0.002 A 
ATOM     85  C   UNL A   1      49.456  26.382  31.731  1.00  0.00     0.091 A 
ATOM     86  F   UNL A   1      48.088  27.847  30.436  1.00  0.00    -0.205 F 
ATOM     87  C   UNL A   1      49.567  25.457  32.782  1.00  0.00     0.022 A 
BRANCH  85  88
ATOM     88  S   UNL A   1      50.947  26.738  30.793  1.00  0.00     0.127 S 
ATOM     89  O   UNL A   1      51.937  25.913  31.483  1.00  0.00    -0.237 OA
ATOM     90  O   UNL A   1      50.589  26.270  29.454  1.00  0.00    -0.237 OA
ATOM     91  O   UNL A   1      51.154  28.176  30.896  1.00  0.00    -0.744 OA
ENDBRANCH  85  88
ENDBRANCH  58  81
ENDBRANCH  32  33
ENDBRANCH  24  27
ENDBRANCH  22  23
ENDBRANCH   1  22
TORSDOF 15
ENDMDL
MODEL 3
REMARK VINA RESULT:     -12.3      3.354      8.673
REMARK SMILES C[C@@H](C(=O)NCCCNC(=O)c1ccc(-c2c3nc(c(-c4cccc(S(=O)(=O)[O-])c4F)c4ccc([nH]4)c(-c4cccc(S(=O)(=O)[O-])c4F)c4nc(c(-c5cccc(S(=O)(=O)[O-])c5F)c5ccc2[nH]5)C=C4)C=C3)cc1)c1ccc(-c2ccccc2)c(F)c1
REMARK SMILES IDX 7 1 6 2 5 3 3 4 4 5 2 7 1 8 75 9 76 10 87 11 77 12 85 13
REMARK SMILES IDX 78 14 86 15 79 16 80 17 84 18 81 19 83 20 82 21 8 22 9 23
REMARK SMILES IDX 10 24 11 26 12 27 13 28 74 29 14 30 73 31 15 32 16 33 17 34
REMARK SMILES IDX 67 35 18 36 72 37 66 38 68 39 19 40 71 41 65 42 64 43 20 45
REMARK SMILES IDX 52 46 32 47 51 48 33 49 36 50 50 51 69 52 34 53 35 54 49 56
REMARK SMILES IDX 70 57 37 58 21 59 22 60 30 61 23 62 25 63 31 64 24 65 26 66
REMARK SMILES IDX 27 67 28 68 29 69 53 70 54 71 62 72 55 73 57 74 63 75 56 76
REMARK SMILES IDX 58 77 59 78 60 79 61 80 38 81 39 82 47 83 40 84 42 85 48 86
REMARK SMILES IDX 41 87 43 88 44 89 45 90 46 91
REMARK H PARENT 5 6 9 25 68 44 36 55
REMARK Flexibility Score: inf
ROOT
ATOM      1  C   UNL A   1      33.248  28.225  27.195  1.00  0.00     0.042 C 
ENDROOT
BRANCH   1   2
ATOM      2  C   UNL A   1      31.782  27.908  26.914  1.00  0.00     0.117 C 
BRANCH   2   3
ATOM      3  N   UNL A   1      31.412  28.229  25.549  1.00  0.00    -0.356 N 
ATOM      4  C   UNL A   1      31.047  27.423  24.512  1.00  0.00     0.227 C 
ATOM      5  O   UNL A   1      30.826  27.988  23.438  1.00  0.00    -0.274 OA
ATOM      6  H   UNL A   1      31.427  29.190  25.336  1.00  0.00     0.163 HD
BRANCH   4   7
ATOM      7  C   UNL A   1      30.887  25.906  24.723  1.00  0.00     0.105 C 
ATOM      8  C   UNL A   1      29.990  25.572  25.917  1.00  0.00     0.023 C 
BRANCH   7   9
ATOM      9  C   UNL A   1      32.223  25.190  24.891  1.00  0.00    -0.033 A 
ATOM     10  C   UNL A   1      33.252  25.347  23.951  1.00  0.00     0.005 A 
ATOM     11  C   UNL A   1      32.464  24.383  26.010  1.00  0.00     0.044 A 
ATOM     12  C   UNL A   1      34.482  24.706  24.116  1.00  0.00     0.012 A 
ATOM     13  C   UNL A   1      33.699  23.751  26.170  1.00  0.00     0.131 A 
ATOM     14  C   UNL A   1      34.734  23.896  25.234  1.00  0.00     0.017 A 
ATOM     15  F   UNL A   1      33.879  22.995  27.266  1.00  0.00    -0.206 F 
BRANCH  14  16
ATOM     16  C   UNL A   1      36.039  23.233  25.389  1.00  0.00    -0.015 A 
ATOM     17  C   UNL A   1      36.226  21.906  24.963  1.00  0.00     0.009 A 
ATOM     18  C   UNL A   1      37.122  23.888  25.997  1.00  0.00     0.009 A 
ATOM     19  C   UNL A   1      37.447  21.254  25.148  1.00  0.00     0.001 A 
ATOM     20  C   UNL A   1      38.344  23.237  26.184  1.00  0.00     0.001 A 
ATOM     21  C   UNL A   1      38.505  21.919  25.762  1.00  0.00     0.000 A 
ENDBRANCH  14  16
ENDBRANCH   7   9
ENDBRANCH   4   7
ENDBRANCH   2   3
ENDBRANCH   1   2
BRANCH   1  22
ATOM     22  C   UNL A   1      33.869  29.230  26.231  1.00  0.00     0.118 C 
BRANCH  22  23
ATOM     23  N   UNL A   1      33.878  30.589  26.756  1.00  0.00    -0.352 N 
ATOM     24  C   UNL A   1      34.726  31.158  27.677  1.00  0.00     0.251 C 
ATOM     25  H   UNL A   1      33.178  31.184  26.401  1.00  0.00     0.163 HD
ATOM     26  O   UNL A   1      34.483  32.274  28.128  1.00  0.00    -0.269 OA
BRANCH  24  27
ATOM     27  C   UNL A   1      35.915  30.412  28.138  1.00  0.00     0.039 A 
ATOM     28  C   UNL A   1      37.079  30.435  27.364  1.00  0.00     0.014 A 
ATOM     29  C   UNL A   1      35.882  29.701  29.340  1.00  0.00     0.014 A 
ATOM     30  C   UNL A   1      38.236  29.806  27.833  1.00  0.00     0.010 A 
ATOM     31  C   UNL A   1      37.050  29.139  29.839  1.00  0.00     0.010 A 
ATOM     32  C   UNL A   1      38.238  29.183  29.091  1.00  0.00    -0.014 A 
BRANCH  32  33
ATOM     33  C   UNL A   1      39.459  28.565  29.669  1.00  0.00     0.031 A 
ATOM     34  C   UNL A   1      40.200  29.277  30.765  1.00  0.00     0.074 A 
ATOM     35  C   UNL A   1      39.980  27.457  29.108  1.00  0.00     0.049 A 
ATOM     36  N   UNL A   1      41.381  29.023  31.266  1.00  0.00    -0.248 NA
ATOM     37  C   UNL A   1      39.540  30.458  31.347  1.00  0.00     0.031 C 
ATOM     38  C   UNL A   1      39.391  26.716  27.992  1.00  0.00     0.029 A 
ATOM     39  N   UNL A   1      41.154  26.793  29.367  1.00  0.00    -0.354 N 
ATOM     40  C   UNL A   1      41.631  30.042  32.175  1.00  0.00     0.074 A 
ATOM     41  C   UNL A   1      40.488  30.930  32.142  1.00  0.00     0.031 C 
ATOM     42  C   UNL A   1      40.216  25.718  27.643  1.00  0.00     0.029 A 
ATOM     43  C   UNL A   1      41.410  25.768  28.484  1.00  0.00     0.049 A 
ATOM     44  H   UNL A   1      41.755  27.026  30.110  1.00  0.00     0.167 HD
ATOM     45  C   UNL A   1      42.704  30.214  32.983  1.00  0.00     0.034 A 
ATOM     46  C   UNL A   1      42.492  24.977  28.347  1.00  0.00     0.034 A 
ATOM     47  C   UNL A   1      43.810  29.298  33.051  1.00  0.00     0.049 A 
ATOM     48  C   UNL A   1      43.648  25.145  29.295  1.00  0.00     0.074 A 
ATOM     49  C   UNL A   1      44.898  29.325  33.905  1.00  0.00     0.029 A 
ATOM     50  N   UNL A   1      43.970  28.191  32.232  1.00  0.00    -0.354 N 
ATOM     51  N   UNL A   1      43.803  26.026  30.253  1.00  0.00    -0.248 NA
ATOM     52  C   UNL A   1      44.761  24.192  29.170  1.00  0.00     0.031 C 
ATOM     53  C   UNL A   1      45.723  28.240  33.591  1.00  0.00     0.029 A 
ATOM     54  C   UNL A   1      45.138  27.526  32.556  1.00  0.00     0.049 A 
ATOM     55  H   UNL A   1      43.344  27.918  31.523  1.00  0.00     0.167 HD
ATOM     56  C   UNL A   1      45.009  25.713  30.869  1.00  0.00     0.074 A 
ATOM     57  C   UNL A   1      45.541  24.554  30.181  1.00  0.00     0.031 C 
ATOM     58  C   UNL A   1      45.623  26.336  31.905  1.00  0.00     0.034 A 
BRANCH  45  59
ATOM     59  C   UNL A   1      42.706  31.415  33.891  1.00  0.00     0.023 A 
ATOM     60  C   UNL A   1      43.236  32.637  33.426  1.00  0.00     0.012 A 
ATOM     61  C   UNL A   1      42.167  31.348  35.190  1.00  0.00     0.148 A 
ATOM     62  C   UNL A   1      43.272  33.758  34.255  1.00  0.00     0.002 A 
ATOM     63  C   UNL A   1      42.166  32.483  35.994  1.00  0.00     0.091 A 
ATOM     64  F   UNL A   1      41.690  30.174  35.627  1.00  0.00    -0.205 F 
ATOM     65  C   UNL A   1      42.730  33.683  35.534  1.00  0.00     0.022 A 
BRANCH  63  66
ATOM     66  S   UNL A   1      41.412  32.495  37.625  1.00  0.00     0.127 S 
ATOM     67  O   UNL A   1      41.523  33.905  37.992  1.00  0.00    -0.237 OA
ATOM     68  O   UNL A   1      40.047  32.046  37.343  1.00  0.00    -0.237 OA
ATOM     69  O   UNL A   1      42.195  31.567  38.427  1.00  0.00    -0.744 OA
ENDBRANCH  63  66
ENDBRANCH  45  59
BRANCH  46  70
ATOM     70  C   UNL A   1      42.493  23.917  27.300  1.00  0.00     0.023 A 
ATOM     71  C   UNL A   1      43.098  24.178  26.056  1.00  0.00     0.012 A 
ATOM     72  C   UNL A   1      41.971  22.634  27.556  1.00  0.00     0.148 A 
ATOM     73  C   UNL A   1      43.170  23.185  25.078  1.00  0.00     0.002 A 
ATOM     74  C   UNL A   1      42.093  21.634  26.598  1.00  0.00     0.091 A 
ATOM     75  F   UNL A   1      41.395  22.409  28.745  1.00  0.00    -0.205 F 
ATOM     76  C   UNL A   1      42.679  21.911  25.353  1.00  0.00     0.022 A 
BRANCH  74  77
ATOM     77  S   UNL A   1      41.620  19.929  26.912  1.00  0.00     0.127 S 
ATOM     78  O   UNL A   1      40.644  20.082  27.987  1.00  0.00    -0.237 OA
ATOM     79  O   UNL A   1      41.058  19.530  25.621  1.00  0.00    -0.237 OA
ATOM     80  O   UNL A   1      42.851  19.236  27.271  1.00  0.00    -0.744 OA
ENDBRANCH  74  77
ENDBRANCH  46  70
BRANCH  58  81
ATOM     81  C   UNL A   1      46.922  25.762  32.407  1.00  0.00     0.023 A 
ATOM     82  C   UNL A   1      48.142  26.219  31.873  1.00  0.00     0.012 A 
ATOM     83  C   UNL A   1      46.931  24.863  33.493  1.00  0.00     0.148 A 
ATOM     84  C   UNL A   1      49.354  25.778  32.404  1.00  0.00     0.002 A 
ATOM     85  C   UNL A   1      48.141  24.463  34.045  1.00  0.00     0.091 A 
ATOM     86  F   UNL A   1      45.756  24.430  33.972  1.00  0.00    -0.205 F 
ATOM     87  C   UNL A   1      49.354  24.913  33.498  1.00  0.00     0.022 A 
BRANCH  85  88
ATOM     88  S   UNL A   1      48.238  23.431  35.512  1.00  0.00     0.127 S 
ATOM     89  O   UNL A   1      47.492  24.227  36.486  1.00  0.00    -0.237 OA
ATOM     90  O   UNL A   1      47.561  22.209  35.077  1.00  0.00    -0.237 OA
ATOM     91  O   UNL A   1      49.657  23.268  35.797  1.00  0.00    -0.744 OA
ENDBRANCH  85  88
ENDBRANCH  58  81
ENDBRANCH  32  33
ENDBRANCH  24  27
ENDBRANCH  22  23
ENDBRANCH   1  22
TORSDOF 15
ENDMDL
