MODEL 1
REMARK VINA RESULT:     -13.4      0.000      0.000
REMARK SMILES O=C(NCCCNC(=O)c1ccccc1/N=C/c1coc2ccccc2c1=O)c1ccc(-c2c3nc(c(-c4cccc(S(=O)(=O)[O-])c4F)c4ccc([nH]4)c(-c4cccc(S(=O)(=O)[O-])c4F)c4nc(c(-c5cccc(S(=O)(=O)[O-])c5F)c5ccc2[nH]5)C=C4)C=C3)cc1
REMARK SMILES IDX 4 1 3 2 1 3 2 4 29 6 30 7 91 8 31 9 90 10 32 11 33 12 34 13
REMARK SMILES IDX 84 14 35 15 89 16 83 17 85 18 36 19 88 20 82 21 81 22 37 24
REMARK SMILES IDX 69 25 49 26 68 27 50 28 53 29 67 30 86 31 51 32 52 33 66 35
REMARK SMILES IDX 87 36 54 37 38 38 39 39 47 40 40 41 42 42 48 43 41 44 43 45
REMARK SMILES IDX 44 46 45 47 46 48 70 49 71 50 79 51 72 52 74 53 80 54 73 55
REMARK SMILES IDX 75 56 76 57 77 58 78 59 55 60 56 61 64 62 57 63 59 64 65 65
REMARK SMILES IDX 58 66 60 67 61 68 62 69 63 70 5 71 6 72 7 73 8 74 9 76 10 77
REMARK SMILES IDX 11 78 15 79 12 80 14 81 13 82 16 83 17 84 18 85 19 86 27 87
REMARK SMILES IDX 20 88 26 89 28 90 21 91 25 92 22 93 24 94 23 95
REMARK H PARENT 3 5 85 23 53 34 7 75
REMARK Flexibility Score: inf
ROOT
ATOM      1  C   UNL A   1      32.639  30.141  26.475  1.00  0.00     0.118 C 
ENDROOT
BRANCH   1   2
ATOM      2  N   UNL A   1      32.482  31.504  26.956  1.00  0.00    -0.352 N 
ATOM      3  O   UNL A   1      33.119  33.470  27.889  1.00  0.00    -0.269 OA
ATOM      4  C   UNL A   1      33.411  32.318  27.575  1.00  0.00     0.251 C 
ATOM      5  H   UNL A   1      31.591  31.902  26.822  1.00  0.00     0.163 HD
BRANCH   4   6
ATOM      6  C   UNL A   1      34.746  31.787  27.948  1.00  0.00     0.039 A 
ATOM      7  C   UNL A   1      34.943  30.449  28.289  1.00  0.00     0.014 A 
ATOM      8  C   UNL A   1      35.825  32.678  28.000  1.00  0.00     0.014 A 
ATOM      9  C   UNL A   1      36.146  30.054  28.869  1.00  0.00     0.010 A 
ATOM     10  C   UNL A   1      37.062  32.257  28.500  1.00  0.00     0.010 A 
ATOM     11  C   UNL A   1      37.214  30.959  29.004  1.00  0.00    -0.014 A 
BRANCH  11  12
ATOM     12  C   UNL A   1      38.460  30.514  29.686  1.00  0.00     0.031 A 
ATOM     13  C   UNL A   1      38.748  30.896  31.115  1.00  0.00     0.074 A 
ATOM     14  C   UNL A   1      39.302  29.690  29.034  1.00  0.00     0.049 A 
ATOM     15  N   UNL A   1      39.714  30.480  31.895  1.00  0.00    -0.248 NA
ATOM     16  C   UNL A   1      37.848  31.872  31.753  1.00  0.00     0.031 C 
ATOM     17  C   UNL A   1      39.162  29.285  27.634  1.00  0.00     0.029 A 
ATOM     18  N   UNL A   1      40.414  29.011  29.467  1.00  0.00    -0.354 N 
ATOM     19  C   UNL A   1      39.566  31.170  33.092  1.00  0.00     0.074 A 
ATOM     20  C   UNL A   1      38.416  32.036  32.940  1.00  0.00     0.031 C 
ATOM     21  C   UNL A   1      40.095  28.367  27.347  1.00  0.00     0.029 A 
ATOM     22  C   UNL A   1      40.920  28.140  28.531  1.00  0.00     0.049 A 
ATOM     23  H   UNL A   1      40.810  29.136  30.359  1.00  0.00     0.167 HD
ATOM     24  C   UNL A   1      40.302  31.078  34.225  1.00  0.00     0.034 A 
ATOM     25  C   UNL A   1      41.913  27.234  28.621  1.00  0.00     0.034 A 
ATOM     26  C   UNL A   1      41.401  30.167  34.408  1.00  0.00     0.049 A 
ATOM     27  C   UNL A   1      42.652  27.080  29.919  1.00  0.00     0.074 A 
ATOM     28  C   UNL A   1      42.186  29.981  35.533  1.00  0.00     0.029 A 
ATOM     29  N   UNL A   1      41.857  29.277  33.450  1.00  0.00    -0.354 N 
ATOM     30  N   UNL A   1      42.432  27.675  31.066  1.00  0.00    -0.248 NA
ATOM     31  C   UNL A   1      43.767  26.121  29.940  1.00  0.00     0.031 C 
ATOM     32  C   UNL A   1      43.106  28.962  35.260  1.00  0.00     0.029 A 
ATOM     33  C   UNL A   1      42.904  28.530  33.960  1.00  0.00     0.049 A 
ATOM     34  H   UNL A   1      41.490  29.188  32.542  1.00  0.00     0.167 HD
ATOM     35  C   UNL A   1      43.385  27.171  31.943  1.00  0.00     0.074 A 
ATOM     36  C   UNL A   1      44.154  26.187  31.208  1.00  0.00     0.031 C 
ATOM     37  C   UNL A   1      43.627  27.522  33.229  1.00  0.00     0.034 A 
BRANCH  24  38
ATOM     38  C   UNL A   1      39.899  31.934  35.393  1.00  0.00     0.023 A 
ATOM     39  C   UNL A   1      40.409  33.243  35.482  1.00  0.00     0.012 A 
ATOM     40  C   UNL A   1      38.978  31.480  36.355  1.00  0.00     0.148 A 
ATOM     41  C   UNL A   1      40.012  34.089  36.518  1.00  0.00     0.002 A 
ATOM     42  C   UNL A   1      38.572  32.336  37.374  1.00  0.00     0.091 A 
ATOM     43  F   UNL A   1      38.529  30.219  36.273  1.00  0.00    -0.205 F 
ATOM     44  C   UNL A   1      39.088  33.640  37.458  1.00  0.00     0.022 A 
BRANCH  42  45
ATOM     45  S   UNL A   1      37.347  31.839  38.592  1.00  0.00     0.127 S 
ATOM     46  O   UNL A   1      38.066  32.063  39.844  1.00  0.00    -0.237 OA
ATOM     47  O   UNL A   1      36.251  32.778  38.346  1.00  0.00    -0.237 OA
ATOM     48  O   UNL A   1      37.029  30.454  38.275  1.00  0.00    -0.744 OA
ENDBRANCH  42  45
ENDBRANCH  24  38
BRANCH  25  49
ATOM     49  C   UNL A   1      42.178  26.329  27.470  1.00  0.00     0.023 A 
ATOM     50  C   UNL A   1      43.010  26.776  26.426  1.00  0.00     0.012 A 
ATOM     51  C   UNL A   1      41.701  25.008  27.445  1.00  0.00     0.148 A 
ATOM     52  C   UNL A   1      43.358  25.922  25.377  1.00  0.00     0.002 A 
ATOM     53  C   UNL A   1      42.096  24.146  26.426  1.00  0.00     0.091 A 
ATOM     54  F   UNL A   1      40.901  24.589  28.438  1.00  0.00    -0.205 F 
ATOM     55  C   UNL A   1      42.914  24.601  25.384  1.00  0.00     0.022 A 
BRANCH  53  56
ATOM     56  S   UNL A   1      41.654  22.409  26.518  1.00  0.00     0.127 S 
ATOM     57  O   UNL A   1      40.200  22.446  26.405  1.00  0.00    -0.237 OA
ATOM     58  O   UNL A   1      42.340  21.828  25.362  1.00  0.00    -0.237 OA
ATOM     59  O   UNL A   1      42.204  21.992  27.804  1.00  0.00    -0.744 OA
ENDBRANCH  53  56
ENDBRANCH  25  49
BRANCH  37  60
ATOM     60  C   UNL A   1      44.795  26.870  33.911  1.00  0.00     0.023 A 
ATOM     61  C   UNL A   1      46.077  27.427  33.730  1.00  0.00     0.012 A 
ATOM     62  C   UNL A   1      44.633  25.767  34.767  1.00  0.00     0.148 A 
ATOM     63  C   UNL A   1      47.183  26.886  34.382  1.00  0.00     0.002 A 
ATOM     64  C   UNL A   1      45.740  25.246  35.431  1.00  0.00     0.091 A 
ATOM     65  F   UNL A   1      43.412  25.234  34.916  1.00  0.00    -0.205 F 
ATOM     66  C   UNL A   1      47.015  25.799  35.239  1.00  0.00     0.022 A 
BRANCH  64  67
ATOM     67  S   UNL A   1      45.544  23.880  36.582  1.00  0.00     0.127 S 
ATOM     68  O   UNL A   1      44.978  22.837  35.730  1.00  0.00    -0.237 OA
ATOM     69  O   UNL A   1      46.914  23.619  37.026  1.00  0.00    -0.237 OA
ATOM     70  O   UNL A   1      44.672  24.410  37.623  1.00  0.00    -0.744 OA
ENDBRANCH  64  67
ENDBRANCH  37  60
ENDBRANCH  11  12
ENDBRANCH   4   6
ENDBRANCH   1   2
BRANCH   1  71
ATOM     71  C   UNL A   1      31.832  29.076  27.207  1.00  0.00     0.042 C 
BRANCH  71  72
ATOM     72  C   UNL A   1      32.219  27.630  26.942  1.00  0.00     0.118 C 
BRANCH  72  73
ATOM     73  N   UNL A   1      33.000  27.423  25.735  1.00  0.00    -0.352 N 
ATOM     74  C   UNL A   1      32.543  27.350  24.442  1.00  0.00     0.253 C 
ATOM     75  H   UNL A   1      33.972  27.323  25.858  1.00  0.00     0.163 HD
ATOM     76  O   UNL A   1      33.323  27.262  23.501  1.00  0.00    -0.269 OA
BRANCH  74  77
ATOM     77  C   UNL A   1      31.095  27.345  24.169  1.00  0.00     0.065 A 
ATOM     78  C   UNL A   1      30.552  28.530  23.648  1.00  0.00     0.016 A 
ATOM     79  C   UNL A   1      30.282  26.229  24.394  1.00  0.00     0.076 A 
ATOM     80  C   UNL A   1      29.201  28.593  23.301  1.00  0.00     0.001 A 
ATOM     81  C   UNL A   1      28.926  26.319  24.041  1.00  0.00     0.029 A 
ATOM     82  C   UNL A   1      28.387  27.483  23.496  1.00  0.00     0.002 A 
BRANCH  79  83
ATOM     83  N   UNL A   1      30.694  24.950  24.752  1.00  0.00    -0.255 NA
ATOM     84  C   UNL A   1      30.632  24.432  25.936  1.00  0.00     0.127 C 
BRANCH  84  85
ATOM     85  C   UNL A   1      31.184  23.059  26.030  1.00  0.00     0.076 A 
ATOM     86  C   UNL A   1      31.146  22.442  24.835  1.00  0.00     0.209 A 
ATOM     87  C   UNL A   1      32.459  22.896  26.778  1.00  0.00     0.201 A 
ATOM     88  O   UNL A   1      32.246  21.819  24.259  1.00  0.00    -0.463 OA
ATOM     89  C   UNL A   1      33.638  22.905  25.898  1.00  0.00     0.065 A 
ATOM     90  O   UNL A   1      32.519  22.938  27.998  1.00  0.00    -0.288 OA
ATOM     91  C   UNL A   1      33.449  22.403  24.608  1.00  0.00     0.137 A 
ATOM     92  C   UNL A   1      34.797  23.596  26.245  1.00  0.00     0.016 A 
ATOM     93  C   UNL A   1      34.427  22.593  23.639  1.00  0.00     0.048 A 
ATOM     94  C   UNL A   1      35.763  23.815  25.264  1.00  0.00     0.001 A 
ATOM     95  C   UNL A   1      35.576  23.321  23.967  1.00  0.00     0.004 A 
ENDBRANCH  84  85
ENDBRANCH  79  83
ENDBRANCH  74  77
ENDBRANCH  72  73
ENDBRANCH  71  72
ENDBRANCH   1  71
TORSDOF 15
ENDMDL
MODEL 2
REMARK VINA RESULT:     -13.4      1.573      1.851
REMARK SMILES O=C(NCCCNC(=O)c1ccccc1/N=C/c1coc2ccccc2c1=O)c1ccc(-c2c3nc(c(-c4cccc(S(=O)(=O)[O-])c4F)c4ccc([nH]4)c(-c4cccc(S(=O)(=O)[O-])c4F)c4nc(c(-c5cccc(S(=O)(=O)[O-])c5F)c5ccc2[nH]5)C=C4)C=C3)cc1
REMARK SMILES IDX 4 1 3 2 1 3 2 4 29 6 30 7 91 8 31 9 90 10 32 11 33 12 34 13
REMARK SMILES IDX 84 14 35 15 89 16 83 17 85 18 36 19 88 20 82 21 81 22 37 24
REMARK SMILES IDX 69 25 49 26 68 27 50 28 53 29 67 30 86 31 51 32 52 33 66 35
REMARK SMILES IDX 87 36 54 37 38 38 39 39 47 40 40 41 42 42 48 43 41 44 43 45
REMARK SMILES IDX 44 46 45 47 46 48 70 49 71 50 79 51 72 52 74 53 80 54 73 55
REMARK SMILES IDX 75 56 76 57 77 58 78 59 55 60 56 61 64 62 57 63 59 64 65 65
REMARK SMILES IDX 58 66 60 67 61 68 62 69 63 70 5 71 6 72 7 73 8 74 9 76 10 77
REMARK SMILES IDX 11 78 15 79 12 80 14 81 13 82 16 83 17 84 18 85 19 86 27 87
REMARK SMILES IDX 20 88 26 89 28 90 21 91 25 92 22 93 24 94 23 95
REMARK H PARENT 3 5 85 23 53 34 7 75
REMARK Flexibility Score: inf
ROOT
ATOM      1  C   UNL A   1      32.293  30.252  26.324  1.00  0.00     0.118 C 
ENDROOT
BRANCH   1   2
ATOM      2  N   UNL A   1      32.087  31.615  26.787  1.00  0.00    -0.352 N 
ATOM      3  O   UNL A   1      32.652  33.610  27.703  1.00  0.00    -0.269 OA
ATOM      4  C   UNL A   1      32.984  32.464  27.407  1.00  0.00     0.251 C 
ATOM      5  H   UNL A   1      31.186  31.983  26.638  1.00  0.00     0.163 HD
BRANCH   4   6
ATOM      6  C   UNL A   1      34.331  31.980  27.801  1.00  0.00     0.039 A 
ATOM      7  C   UNL A   1      34.583  30.637  28.080  1.00  0.00     0.014 A 
ATOM      8  C   UNL A   1      35.361  32.918  27.937  1.00  0.00     0.014 A 
ATOM      9  C   UNL A   1      35.784  30.272  28.684  1.00  0.00     0.010 A 
ATOM     10  C   UNL A   1      36.600  32.533  28.459  1.00  0.00     0.010 A 
ATOM     11  C   UNL A   1      36.800  31.219  28.902  1.00  0.00    -0.014 A 
BRANCH  11  12
ATOM     12  C   UNL A   1      38.043  30.800  29.606  1.00  0.00     0.031 A 
ATOM     13  C   UNL A   1      38.297  31.185  31.040  1.00  0.00     0.074 A 
ATOM     14  C   UNL A   1      38.914  29.995  28.968  1.00  0.00     0.049 A 
ATOM     15  N   UNL A   1      39.258  30.789  31.837  1.00  0.00    -0.248 NA
ATOM     16  C   UNL A   1      37.365  32.140  31.664  1.00  0.00     0.031 C 
ATOM     17  C   UNL A   1      38.808  29.590  27.565  1.00  0.00     0.029 A 
ATOM     18  N   UNL A   1      40.033  29.340  29.420  1.00  0.00    -0.354 N 
ATOM     19  C   UNL A   1      39.073  31.474  33.032  1.00  0.00     0.074 A 
ATOM     20  C   UNL A   1      37.907  32.314  32.861  1.00  0.00     0.031 C 
ATOM     21  C   UNL A   1      39.766  28.693  27.294  1.00  0.00     0.029 A 
ATOM     22  C   UNL A   1      40.575  28.483  28.491  1.00  0.00     0.049 A 
ATOM     23  H   UNL A   1      40.410  29.472  30.319  1.00  0.00     0.167 HD
ATOM     24  C   UNL A   1      39.791  31.395  34.178  1.00  0.00     0.034 A 
ATOM     25  C   UNL A   1      41.585  27.598  28.598  1.00  0.00     0.034 A 
ATOM     26  C   UNL A   1      40.906  30.508  34.380  1.00  0.00     0.049 A 
ATOM     27  C   UNL A   1      42.304  27.457  29.909  1.00  0.00     0.074 A 
ATOM     28  C   UNL A   1      41.675  30.337  35.518  1.00  0.00     0.029 A 
ATOM     29  N   UNL A   1      41.399  29.630  33.429  1.00  0.00    -0.354 N 
ATOM     30  N   UNL A   1      42.051  28.045  31.053  1.00  0.00    -0.248 NA
ATOM     31  C   UNL A   1      43.439  26.523  29.949  1.00  0.00     0.031 C 
ATOM     32  C   UNL A   1      42.622  29.339  35.260  1.00  0.00     0.029 A 
ATOM     33  C   UNL A   1      42.453  28.904  33.956  1.00  0.00     0.049 A 
ATOM     34  H   UNL A   1      41.049  29.535  32.513  1.00  0.00     0.167 HD
ATOM     35  C   UNL A   1      42.998  27.561  31.946  1.00  0.00     0.074 A 
ATOM     36  C   UNL A   1      43.802  26.595  31.223  1.00  0.00     0.031 C 
ATOM     37  C   UNL A   1      43.209  27.914  33.237  1.00  0.00     0.034 A 
BRANCH  24  38
ATOM     38  C   UNL A   1      39.349  32.240  35.340  1.00  0.00     0.023 A 
ATOM     39  C   UNL A   1      38.479  31.679  36.294  1.00  0.00     0.012 A 
ATOM     40  C   UNL A   1      39.834  33.548  35.527  1.00  0.00     0.148 A 
ATOM     41  C   UNL A   1      38.093  32.410  37.418  1.00  0.00     0.002 A 
ATOM     42  C   UNL A   1      39.460  34.264  36.659  1.00  0.00     0.091 A 
ATOM     43  F   UNL A   1      40.634  34.077  34.590  1.00  0.00    -0.205 F 
ATOM     44  C   UNL A   1      38.589  33.698  37.605  1.00  0.00     0.022 A 
BRANCH  42  45
ATOM     45  S   UNL A   1      40.101  35.910  36.989  1.00  0.00     0.127 S 
ATOM     46  O   UNL A   1      39.419  36.249  38.236  1.00  0.00    -0.237 OA
ATOM     47  O   UNL A   1      41.538  35.673  37.128  1.00  0.00    -0.237 OA
ATOM     48  O   UNL A   1      39.737  36.705  35.824  1.00  0.00    -0.744 OA
ENDBRANCH  42  45
ENDBRANCH  24  38
BRANCH  25  49
ATOM     49  C   UNL A   1      41.891  26.701  27.451  1.00  0.00     0.023 A 
ATOM     50  C   UNL A   1      42.700  27.181  26.404  1.00  0.00     0.012 A 
ATOM     51  C   UNL A   1      41.474  25.359  27.432  1.00  0.00     0.148 A 
ATOM     52  C   UNL A   1      43.086  26.339  25.359  1.00  0.00     0.002 A 
ATOM     53  C   UNL A   1      41.907  24.512  26.415  1.00  0.00     0.091 A 
ATOM     54  F   UNL A   1      40.694  24.909  28.427  1.00  0.00    -0.205 F 
ATOM     55  C   UNL A   1      42.703  25.000  25.371  1.00  0.00     0.022 A 
BRANCH  53  56
ATOM     56  S   UNL A   1      41.544  22.757  26.515  1.00  0.00     0.127 S 
ATOM     57  O   UNL A   1      40.088  22.729  26.432  1.00  0.00    -0.237 OA
ATOM     58  O   UNL A   1      42.232  22.207  25.345  1.00  0.00    -0.237 OA
ATOM     59  O   UNL A   1      42.138  22.366  27.790  1.00  0.00    -0.744 OA
ENDBRANCH  53  56
ENDBRANCH  25  49
BRANCH  37  60
ATOM     60  C   UNL A   1      44.380  27.287  33.939  1.00  0.00     0.023 A 
ATOM     61  C   UNL A   1      45.657  27.854  33.756  1.00  0.00     0.012 A 
ATOM     62  C   UNL A   1      44.223  26.198  34.813  1.00  0.00     0.148 A 
ATOM     63  C   UNL A   1      46.764  27.335  34.426  1.00  0.00     0.002 A 
ATOM     64  C   UNL A   1      45.330  25.699  35.494  1.00  0.00     0.091 A 
ATOM     65  F   UNL A   1      43.006  25.654  34.963  1.00  0.00    -0.205 F 
ATOM     66  C   UNL A   1      46.601  26.263  35.301  1.00  0.00     0.022 A 
BRANCH  64  67
ATOM     67  S   UNL A   1      45.139  24.353  36.667  1.00  0.00     0.127 S 
ATOM     68  O   UNL A   1      44.669  23.264  35.814  1.00  0.00    -0.237 OA
ATOM     69  O   UNL A   1      46.495  24.170  37.188  1.00  0.00    -0.237 OA
ATOM     70  O   UNL A   1      44.190  24.862  37.648  1.00  0.00    -0.744 OA
ENDBRANCH  64  67
ENDBRANCH  37  60
ENDBRANCH  11  12
ENDBRANCH   4   6
ENDBRANCH   1   2
BRANCH   1  71
ATOM     71  C   UNL A   1      31.792  29.149  27.249  1.00  0.00     0.042 C 
BRANCH  71  72
ATOM     72  C   UNL A   1      32.025  27.719  26.788  1.00  0.00     0.118 C 
BRANCH  72  73
ATOM     73  N   UNL A   1      30.908  26.819  27.016  1.00  0.00    -0.352 N 
ATOM     74  C   UNL A   1      30.308  25.980  26.109  1.00  0.00     0.253 C 
ATOM     75  H   UNL A   1      30.536  26.811  27.928  1.00  0.00     0.163 HD
ATOM     76  O   UNL A   1      29.426  25.203  26.457  1.00  0.00    -0.269 OA
BRANCH  74  77
ATOM     77  C   UNL A   1      30.697  26.027  24.689  1.00  0.00     0.065 A 
ATOM     78  C   UNL A   1      30.351  27.190  23.983  1.00  0.00     0.016 A 
ATOM     79  C   UNL A   1      31.388  24.989  24.055  1.00  0.00     0.076 A 
ATOM     80  C   UNL A   1      30.735  27.345  22.650  1.00  0.00     0.001 A 
ATOM     81  C   UNL A   1      31.761  25.169  22.713  1.00  0.00     0.029 A 
ATOM     82  C   UNL A   1      31.445  26.333  22.014  1.00  0.00     0.002 A 
BRANCH  79  83
ATOM     83  N   UNL A   1      31.934  23.858  24.651  1.00  0.00    -0.255 NA
ATOM     84  C   UNL A   1      31.298  22.773  24.955  1.00  0.00     0.127 C 
BRANCH  84  85
ATOM     85  C   UNL A   1      32.131  21.744  25.622  1.00  0.00     0.076 A 
ATOM     86  C   UNL A   1      32.649  20.888  24.723  1.00  0.00     0.209 A 
ATOM     87  C   UNL A   1      33.087  22.219  26.657  1.00  0.00     0.201 A 
ATOM     88  O   UNL A   1      34.000  20.570  24.657  1.00  0.00    -0.463 OA
ATOM     89  C   UNL A   1      34.442  22.429  26.123  1.00  0.00     0.065 A 
ATOM     90  O   UNL A   1      32.733  22.568  27.773  1.00  0.00    -0.288 OA
ATOM     91  C   UNL A   1      34.823  21.602  25.064  1.00  0.00     0.137 A 
ATOM     92  C   UNL A   1      35.199  23.543  26.483  1.00  0.00     0.016 A 
ATOM     93  C   UNL A   1      35.977  21.885  24.343  1.00  0.00     0.048 A 
ATOM     94  C   UNL A   1      36.337  23.845  25.738  1.00  0.00     0.001 A 
ATOM     95  C   UNL A   1      36.721  23.024  24.670  1.00  0.00     0.004 A 
ENDBRANCH  84  85
ENDBRANCH  79  83
ENDBRANCH  74  77
ENDBRANCH  72  73
ENDBRANCH  71  72
ENDBRANCH   1  71
TORSDOF 15
ENDMDL
MODEL 3
REMARK VINA RESULT:     -13.1      5.048     10.091
REMARK SMILES O=C(NCCCNC(=O)c1ccccc1/N=C/c1coc2ccccc2c1=O)c1ccc(-c2c3nc(c(-c4cccc(S(=O)(=O)[O-])c4F)c4ccc([nH]4)c(-c4cccc(S(=O)(=O)[O-])c4F)c4nc(c(-c5cccc(S(=O)(=O)[O-])c5F)c5ccc2[nH]5)C=C4)C=C3)cc1
REMARK SMILES IDX 4 1 3 2 1 3 2 4 29 6 30 7 91 8 31 9 90 10 32 11 33 12 34 13
REMARK SMILES IDX 84 14 35 15 89 16 83 17 85 18 36 19 88 20 82 21 81 22 37 24
REMARK SMILES IDX 69 25 49 26 68 27 50 28 53 29 67 30 86 31 51 32 52 33 66 35
REMARK SMILES IDX 87 36 54 37 38 38 39 39 47 40 40 41 42 42 48 43 41 44 43 45
REMARK SMILES IDX 44 46 45 47 46 48 70 49 71 50 79 51 72 52 74 53 80 54 73 55
REMARK SMILES IDX 75 56 76 57 77 58 78 59 55 60 56 61 64 62 57 63 59 64 65 65
REMARK SMILES IDX 58 66 60 67 61 68 62 69 63 70 5 71 6 72 7 73 8 74 9 76 10 77
REMARK SMILES IDX 11 78 15 79 12 80 14 81 13 82 16 83 17 84 18 85 19 86 27 87
REMARK SMILES IDX 20 88 26 89 28 90 21 91 25 92 22 93 24 94 23 95
REMARK H PARENT 3 5 85 23 53 34 7 75
REMARK Flexibility Score: inf
ROOT
ATOM      1  C   UNL A   1      37.308  22.743  24.561  1.00  0.00     0.118 C 
ENDROOT
BRANCH   1   2
ATOM      2  N   UNL A   1      38.124  21.608  24.966  1.00  0.00    -0.352 N 
ATOM      3  O   UNL A   1      39.667  20.484  26.187  1.00  0.00    -0.269 OA
ATOM      4  C   UNL A   1      39.093  21.544  25.948  1.00  0.00     0.251 C 
ATOM      5  H   UNL A   1      37.962  20.772  24.472  1.00  0.00     0.163 HD
BRANCH   4   6
ATOM      6  C   UNL A   1      39.516  22.770  26.671  1.00  0.00     0.039 A 
ATOM      7  C   UNL A   1      38.937  24.014  26.421  1.00  0.00     0.014 A 
ATOM      8  C   UNL A   1      40.560  22.669  27.598  1.00  0.00     0.014 A 
ATOM      9  C   UNL A   1      39.530  25.166  26.932  1.00  0.00     0.010 A 
ATOM     10  C   UNL A   1      41.097  23.821  28.182  1.00  0.00     0.010 A 
ATOM     11  C   UNL A   1      40.633  25.086  27.802  1.00  0.00    -0.014 A 
BRANCH  11  12
ATOM     12  C   UNL A   1      41.274  26.342  28.276  1.00  0.00     0.031 A 
ATOM     13  C   UNL A   1      42.680  26.703  27.871  1.00  0.00     0.074 A 
ATOM     14  C   UNL A   1      40.552  27.206  29.015  1.00  0.00     0.049 A 
ATOM     15  N   UNL A   1      43.333  27.818  28.082  1.00  0.00    -0.248 NA
ATOM     16  C   UNL A   1      43.460  25.688  27.142  1.00  0.00     0.031 C 
ATOM     17  C   UNL A   1      39.199  26.953  29.514  1.00  0.00     0.029 A 
ATOM     18  N   UNL A   1      40.831  28.481  29.440  1.00  0.00    -0.354 N 
ATOM     19  C   UNL A   1      44.605  27.625  27.557  1.00  0.00     0.074 A 
ATOM     20  C   UNL A   1      44.638  26.284  27.013  1.00  0.00     0.031 C 
ATOM     21  C   UNL A   1      38.734  28.064  30.102  1.00  0.00     0.029 A 
ATOM     22  C   UNL A   1      39.764  29.097  30.051  1.00  0.00     0.049 A 
ATOM     23  H   UNL A   1      41.708  28.910  29.321  1.00  0.00     0.167 HD
ATOM     24  C   UNL A   1      45.646  28.490  27.507  1.00  0.00     0.034 A 
ATOM     25  C   UNL A   1      39.616  30.363  30.490  1.00  0.00     0.034 A 
ATOM     26  C   UNL A   1      45.598  29.848  27.979  1.00  0.00     0.049 A 
ATOM     27  C   UNL A   1      40.751  31.333  30.335  1.00  0.00     0.074 A 
ATOM     28  C   UNL A   1      46.594  30.808  27.941  1.00  0.00     0.029 A 
ATOM     29  N   UNL A   1      44.489  30.445  28.555  1.00  0.00    -0.354 N 
ATOM     30  N   UNL A   1      41.910  31.156  29.749  1.00  0.00    -0.248 NA
ATOM     31  C   UNL A   1      40.555  32.681  30.889  1.00  0.00     0.031 C 
ATOM     32  C   UNL A   1      46.079  31.994  28.478  1.00  0.00     0.029 A 
ATOM     33  C   UNL A   1      44.770  31.764  28.867  1.00  0.00     0.049 A 
ATOM     34  H   UNL A   1      43.628  29.997  28.718  1.00  0.00     0.167 HD
ATOM     35  C   UNL A   1      42.585  32.364  29.870  1.00  0.00     0.074 A 
ATOM     36  C   UNL A   1      41.687  33.281  30.545  1.00  0.00     0.031 C 
ATOM     37  C   UNL A   1      43.849  32.674  29.494  1.00  0.00     0.034 A 
BRANCH  24  38
ATOM     38  C   UNL A   1      46.914  28.021  26.850  1.00  0.00     0.023 A 
ATOM     39  C   UNL A   1      47.945  27.503  27.657  1.00  0.00     0.012 A 
ATOM     40  C   UNL A   1      47.065  28.027  25.451  1.00  0.00     0.148 A 
ATOM     41  C   UNL A   1      49.113  27.003  27.081  1.00  0.00     0.002 A 
ATOM     42  C   UNL A   1      48.224  27.509  24.882  1.00  0.00     0.091 A 
ATOM     43  F   UNL A   1      46.087  28.555  24.701  1.00  0.00    -0.205 F 
ATOM     44  C   UNL A   1      49.249  26.997  25.695  1.00  0.00     0.022 A 
BRANCH  42  45
ATOM     45  S   UNL A   1      48.446  27.425  23.101  1.00  0.00     0.127 S 
ATOM     46  O   UNL A   1      49.791  27.973  22.943  1.00  0.00    -0.237 OA
ATOM     47  O   UNL A   1      48.340  25.990  22.832  1.00  0.00    -0.237 OA
ATOM     48  O   UNL A   1      47.361  28.219  22.540  1.00  0.00    -0.744 OA
ENDBRANCH  42  45
ENDBRANCH  24  38
BRANCH  25  49
ATOM     49  C   UNL A   1      38.293  30.800  31.014  1.00  0.00     0.023 A 
ATOM     50  C   UNL A   1      38.031  30.684  32.392  1.00  0.00     0.012 A 
ATOM     51  C   UNL A   1      37.338  31.414  30.187  1.00  0.00     0.148 A 
ATOM     52  C   UNL A   1      36.840  31.170  32.934  1.00  0.00     0.002 A 
ATOM     53  C   UNL A   1      36.177  31.945  30.742  1.00  0.00     0.091 A 
ATOM     54  F   UNL A   1      37.588  31.512  28.872  1.00  0.00    -0.205 F 
ATOM     55  C   UNL A   1      35.918  31.815  32.112  1.00  0.00     0.022 A 
BRANCH  53  56
ATOM     56  S   UNL A   1      35.068  32.909  29.712  1.00  0.00     0.127 S 
ATOM     57  O   UNL A   1      35.971  33.870  29.088  1.00  0.00    -0.237 OA
ATOM     58  O   UNL A   1      34.512  31.912  28.795  1.00  0.00    -0.237 OA
ATOM     59  O   UNL A   1      34.101  33.439  30.667  1.00  0.00    -0.744 OA
ENDBRANCH  53  56
ENDBRANCH  25  49
BRANCH  37  60
ATOM     60  C   UNL A   1      44.353  34.046  29.842  1.00  0.00     0.023 A 
ATOM     61  C   UNL A   1      45.040  34.222  31.059  1.00  0.00     0.012 A 
ATOM     62  C   UNL A   1      44.211  35.132  28.961  1.00  0.00     0.148 A 
ATOM     63  C   UNL A   1      45.568  35.467  31.400  1.00  0.00     0.002 A 
ATOM     64  C   UNL A   1      44.760  36.366  29.300  1.00  0.00     0.091 A 
ATOM     65  F   UNL A   1      43.538  34.956  27.815  1.00  0.00    -0.205 F 
ATOM     66  C   UNL A   1      45.435  36.538  30.518  1.00  0.00     0.022 A 
BRANCH  64  67
ATOM     67  S   UNL A   1      44.649  37.749  28.159  1.00  0.00     0.127 S 
ATOM     68  O   UNL A   1      45.350  37.236  26.983  1.00  0.00    -0.237 OA
ATOM     69  O   UNL A   1      43.206  37.915  27.976  1.00  0.00    -0.237 OA
ATOM     70  O   UNL A   1      45.290  38.850  28.865  1.00  0.00    -0.744 OA
ENDBRANCH  64  67
ENDBRANCH  37  60
ENDBRANCH  11  12
ENDBRANCH   4   6
ENDBRANCH   1   2
BRANCH   1  71
ATOM     71  C   UNL A   1      35.805  22.594  24.765  1.00  0.00     0.042 C 
BRANCH  71  72
ATOM     72  C   UNL A   1      35.359  21.907  26.045  1.00  0.00     0.118 C 
BRANCH  72  73
ATOM     73  N   UNL A   1      34.072  22.348  26.553  1.00  0.00    -0.352 N 
ATOM     74  C   UNL A   1      32.828  21.884  26.202  1.00  0.00     0.253 C 
ATOM     75  H   UNL A   1      34.093  23.065  27.228  1.00  0.00     0.163 HD
ATOM     76  O   UNL A   1      31.821  22.283  26.775  1.00  0.00    -0.269 OA
BRANCH  74  77
ATOM     77  C   UNL A   1      32.684  20.917  25.100  1.00  0.00     0.065 A 
ATOM     78  C   UNL A   1      32.866  19.564  25.427  1.00  0.00     0.016 A 
ATOM     79  C   UNL A   1      32.369  21.295  23.791  1.00  0.00     0.076 A 
ATOM     80  C   UNL A   1      32.687  18.574  24.458  1.00  0.00     0.001 A 
ATOM     81  C   UNL A   1      32.197  20.282  22.834  1.00  0.00     0.029 A 
ATOM     82  C   UNL A   1      32.349  18.934  23.159  1.00  0.00     0.002 A 
BRANCH  79  83
ATOM     83  N   UNL A   1      32.007  22.563  23.348  1.00  0.00    -0.255 NA
ATOM     84  C   UNL A   1      32.796  23.440  22.818  1.00  0.00     0.127 C 
BRANCH  84  85
ATOM     85  C   UNL A   1      32.139  24.726  22.479  1.00  0.00     0.076 A 
ATOM     86  C   UNL A   1      30.922  24.808  23.046  1.00  0.00     0.209 A 
ATOM     87  C   UNL A   1      32.967  25.956  22.594  1.00  0.00     0.201 A 
ATOM     88  O   UNL A   1      30.503  25.891  23.809  1.00  0.00    -0.463 OA
ATOM     89  C   UNL A   1      32.791  26.638  23.885  1.00  0.00     0.065 A 
ATOM     90  O   UNL A   1      33.828  26.251  21.779  1.00  0.00    -0.288 OA
ATOM     91  C   UNL A   1      31.535  26.515  24.483  1.00  0.00     0.137 A 
ATOM     92  C   UNL A   1      33.878  27.164  24.582  1.00  0.00     0.016 A 
ATOM     93  C   UNL A   1      31.351  26.915  25.801  1.00  0.00     0.048 A 
ATOM     94  C   UNL A   1      33.701  27.534  25.914  1.00  0.00     0.001 A 
ATOM     95  C   UNL A   1      32.445  27.404  26.522  1.00  0.00     0.004 A 
ENDBRANCH  84  85
ENDBRANCH  79  83
ENDBRANCH  74  77
ENDBRANCH  72  73
ENDBRANCH  71  72
ENDBRANCH   1  71
TORSDOF 15
ENDMDL
