MODEL 1
REMARK VINA RESULT:     -12.7      0.000      0.000
REMARK SMILES CC1=C(CC(=O)NCCCNC(=O)c2ccc(-c3c4nc(c(-c5cccc(S(=O)(=O)[O-])c5F)c5ccc([nH]5)c(-c5cccc(S(=O)(=O)[O-])c5F)c5nc(c(-c6cccc(S(=O)(=O)[O-])c6F)c6ccc3[nH]6)C=C5)C=C4)cc2)c2cc(F)ccc2/C1=C\c1cccc(OCc2ccccc2)c1
REMARK SMILES IDX 8 1 7 2 5 3 6 4 4 6 3 7 1 8 2 9 84 10 77 11 83 12 85 13
REMARK SMILES IDX 78 14 82 15 79 16 81 17 80 18 86 19 87 20 99 21 88 22 90 23
REMARK SMILES IDX 89 24 91 25 92 26 93 27 94 28 98 29 95 30 97 31 96 32 9 33
REMARK SMILES IDX 10 34 11 35 12 36 13 38 14 39 15 40 76 41 16 42 75 43 17 44
REMARK SMILES IDX 18 45 19 46 69 47 20 48 74 49 68 50 70 51 21 52 73 53 67 54
REMARK SMILES IDX 66 55 22 57 54 58 34 59 53 60 35 61 38 62 52 63 71 64 36 65
REMARK SMILES IDX 37 66 51 68 72 69 39 70 23 71 24 72 32 73 25 74 27 75 33 76
REMARK SMILES IDX 26 77 28 78 29 79 30 80 31 81 55 82 56 83 64 84 57 85 59 86
REMARK SMILES IDX 65 87 58 88 60 89 61 90 62 91 63 92 40 93 41 94 49 95 42 96
REMARK SMILES IDX 44 97 50 98 43 99 45 100 46 101 47 102 48 103
REMARK H PARENT 7 5 11 37 70 56 38 67
REMARK Flexibility Score: inf
ROOT
ATOM      1  C   UNL A   1      35.366  19.672  25.320  1.00  0.00     0.117 C 
ENDROOT
BRANCH   1   2
ATOM      2  N   UNL A   1      34.227  19.774  24.427  1.00  0.00    -0.356 N 
ATOM      3  C   UNL A   1      32.973  20.252  24.674  1.00  0.00     0.224 C 
ATOM      4  O   UNL A   1      32.156  20.249  23.750  1.00  0.00    -0.275 OA
ATOM      5  H   UNL A   1      34.381  19.452  23.509  1.00  0.00     0.163 HD
BRANCH   3   6
ATOM      6  C   UNL A   1      32.609  20.813  26.045  1.00  0.00     0.136 C 
BRANCH   6   7
ATOM      7  C   UNL A   1      32.499  22.302  26.059  1.00  0.00    -0.027 C 
ATOM      8  C   UNL A   1      30.055  22.634  26.753  1.00  0.00     0.045 C 
ATOM      9  C   UNL A   1      31.421  23.074  26.333  1.00  0.00    -0.039 C 
ATOM     10  C   UNL A   1      31.781  24.490  26.169  1.00  0.00    -0.014 C 
ATOM     11  C   UNL A   1      33.642  23.201  25.807  1.00  0.00    -0.011 A 
ATOM     12  C   UNL A   1      33.225  24.542  25.892  1.00  0.00    -0.010 A 
ATOM     13  C   UNL A   1      30.907  25.506  26.227  1.00  0.00     0.017 C 
ATOM     14  C   UNL A   1      34.971  22.894  25.548  1.00  0.00     0.048 A 
ATOM     15  C   UNL A   1      34.131  25.584  25.734  1.00  0.00     0.012 A 
ATOM     16  C   UNL A   1      35.869  23.944  25.373  1.00  0.00     0.123 A 
ATOM     17  C   UNL A   1      35.465  25.276  25.465  1.00  0.00     0.040 A 
ATOM     18  F   UNL A   1      37.156  23.670  25.123  1.00  0.00    -0.207 F 
BRANCH  13  19
ATOM     19  C   UNL A   1      31.219  26.928  26.089  1.00  0.00    -0.021 A 
ATOM     20  C   UNL A   1      31.473  27.742  27.196  1.00  0.00     0.008 A 
ATOM     21  C   UNL A   1      31.293  27.456  24.797  1.00  0.00     0.054 A 
ATOM     22  C   UNL A   1      31.777  29.090  27.007  1.00  0.00     0.004 A 
ATOM     23  C   UNL A   1      31.681  28.780  24.603  1.00  0.00     0.120 A 
ATOM     24  C   UNL A   1      31.879  29.605  25.712  1.00  0.00     0.046 A 
BRANCH  23  25
ATOM     25  O   UNL A   1      31.978  29.348  23.396  1.00  0.00    -0.489 OA
BRANCH  25  26
ATOM     26  C   UNL A   1      30.990  29.319  22.361  1.00  0.00     0.265 C 
BRANCH  26  27
ATOM     27  C   UNL A   1      29.604  29.824  22.735  1.00  0.00    -0.011 A 
ATOM     28  C   UNL A   1      28.466  29.002  22.773  1.00  0.00     0.007 A 
ATOM     29  C   UNL A   1      29.455  31.161  23.141  1.00  0.00     0.007 A 
ATOM     30  C   UNL A   1      27.231  29.489  23.204  1.00  0.00     0.000 A 
ATOM     31  C   UNL A   1      28.214  31.654  23.557  1.00  0.00     0.000 A 
ATOM     32  C   UNL A   1      27.104  30.817  23.594  1.00  0.00     0.000 A 
ENDBRANCH  26  27
ENDBRANCH  25  26
ENDBRANCH  23  25
ENDBRANCH  13  19
ENDBRANCH   6   7
ENDBRANCH   3   6
ENDBRANCH   1   2
BRANCH   1  33
ATOM     33  C   UNL A   1      36.696  19.647  24.575  1.00  0.00     0.042 C 
BRANCH  33  34
ATOM     34  C   UNL A   1      37.835  20.345  25.309  1.00  0.00     0.118 C 
BRANCH  34  35
ATOM     35  N   UNL A   1      38.959  19.461  25.585  1.00  0.00    -0.352 N 
ATOM     36  C   UNL A   1      40.224  19.750  26.048  1.00  0.00     0.251 C 
ATOM     37  H   UNL A   1      38.788  18.507  25.415  1.00  0.00     0.163 HD
ATOM     38  O   UNL A   1      41.073  18.869  26.058  1.00  0.00    -0.269 OA
BRANCH  36  39
ATOM     39  C   UNL A   1      40.560  21.121  26.496  1.00  0.00     0.039 A 
ATOM     40  C   UNL A   1      40.132  22.239  25.778  1.00  0.00     0.014 A 
ATOM     41  C   UNL A   1      41.318  21.288  27.659  1.00  0.00     0.014 A 
ATOM     42  C   UNL A   1      40.603  23.503  26.120  1.00  0.00     0.010 A 
ATOM     43  C   UNL A   1      41.723  22.568  28.049  1.00  0.00     0.010 A 
ATOM     44  C   UNL A   1      41.414  23.681  27.252  1.00  0.00    -0.014 A 
BRANCH  44  45
ATOM     45  C   UNL A   1      41.926  25.037  27.581  1.00  0.00     0.031 A 
ATOM     46  C   UNL A   1      43.314  25.456  27.170  1.00  0.00     0.074 A 
ATOM     47  C   UNL A   1      41.123  25.910  28.221  1.00  0.00     0.049 A 
ATOM     48  N   UNL A   1      43.915  26.601  27.362  1.00  0.00    -0.248 NA
ATOM     49  C   UNL A   1      44.135  24.466  26.453  1.00  0.00     0.031 C 
ATOM     50  C   UNL A   1      39.764  25.620  28.683  1.00  0.00     0.029 A 
ATOM     51  N   UNL A   1      41.326  27.217  28.581  1.00  0.00    -0.354 N 
ATOM     52  C   UNL A   1      45.192  26.459  26.832  1.00  0.00     0.074 A 
ATOM     53  C   UNL A   1      45.283  25.114  26.308  1.00  0.00     0.031 C 
ATOM     54  C   UNL A   1      39.241  26.728  29.228  1.00  0.00     0.029 A 
ATOM     55  C   UNL A   1      40.240  27.791  29.200  1.00  0.00     0.049 A 
ATOM     56  H   UNL A   1      42.167  27.700  28.414  1.00  0.00     0.167 HD
ATOM     57  C   UNL A   1      46.190  27.371  26.771  1.00  0.00     0.034 A 
ATOM     58  C   UNL A   1      40.064  29.031  29.695  1.00  0.00     0.034 A 
ATOM     59  C   UNL A   1      46.082  28.725  27.240  1.00  0.00     0.049 A 
ATOM     60  C   UNL A   1      41.181  30.029  29.596  1.00  0.00     0.074 A 
ATOM     61  C   UNL A   1      47.032  29.731  27.181  1.00  0.00     0.029 A 
ATOM     62  N   UNL A   1      44.961  29.268  27.847  1.00  0.00    -0.354 N 
ATOM     63  N   UNL A   1      42.355  29.890  29.032  1.00  0.00    -0.248 NA
ATOM     64  C   UNL A   1      40.946  31.354  30.187  1.00  0.00     0.031 C 
ATOM     65  C   UNL A   1      46.485  30.884  27.753  1.00  0.00     0.029 A 
ATOM     66  C   UNL A   1      45.192  30.595  28.163  1.00  0.00     0.049 A 
ATOM     67  H   UNL A   1      44.124  28.781  28.026  1.00  0.00     0.167 HD
ATOM     68  C   UNL A   1      42.998  31.112  29.190  1.00  0.00     0.074 A 
ATOM     69  C   UNL A   1      42.074  31.986  29.882  1.00  0.00     0.031 C 
ATOM     70  C   UNL A   1      44.249  31.467  28.811  1.00  0.00     0.034 A 
BRANCH  57  71
ATOM     71  C   UNL A   1      47.483  26.961  26.124  1.00  0.00     0.023 A 
ATOM     72  C   UNL A   1      47.708  27.283  24.770  1.00  0.00     0.012 A 
ATOM     73  C   UNL A   1      48.509  26.354  26.874  1.00  0.00     0.148 A 
ATOM     74  C   UNL A   1      48.933  27.001  24.170  1.00  0.00     0.002 A 
ATOM     75  C   UNL A   1      49.738  26.101  26.276  1.00  0.00     0.091 A 
ATOM     76  F   UNL A   1      48.265  26.044  28.155  1.00  0.00    -0.205 F 
ATOM     77  C   UNL A   1      49.951  26.420  24.925  1.00  0.00     0.022 A 
BRANCH  75  78
ATOM     78  S   UNL A   1      51.132  25.403  27.171  1.00  0.00     0.127 S 
ATOM     79  O   UNL A   1      51.682  26.589  27.827  1.00  0.00    -0.237 OA
ATOM     80  O   UNL A   1      50.477  24.457  28.071  1.00  0.00    -0.237 OA
ATOM     81  O   UNL A   1      51.995  24.798  26.166  1.00  0.00    -0.744 OA
ENDBRANCH  75  78
ENDBRANCH  57  71
BRANCH  58  82
ATOM     82  C   UNL A   1      38.747  29.398  30.281  1.00  0.00     0.023 A 
ATOM     83  C   UNL A   1      38.464  29.038  31.612  1.00  0.00     0.012 A 
ATOM     84  C   UNL A   1      37.819  30.172  29.559  1.00  0.00     0.148 A 
ATOM     85  C   UNL A   1      37.273  29.445  32.216  1.00  0.00     0.002 A 
ATOM     86  C   UNL A   1      36.657  30.611  30.181  1.00  0.00     0.091 A 
ATOM     87  F   UNL A   1      38.112  30.493  28.292  1.00  0.00    -0.205 F 
ATOM     88  C   UNL A   1      36.377  30.240  31.506  1.00  0.00     0.022 A 
BRANCH  86  89
ATOM     89  S   UNL A   1      35.500  31.734  29.389  1.00  0.00     0.127 S 
ATOM     90  O   UNL A   1      34.683  32.167  30.520  1.00  0.00    -0.237 OA
ATOM     91  O   UNL A   1      36.398  32.755  28.850  1.00  0.00    -0.237 OA
ATOM     92  O   UNL A   1      34.807  30.943  28.381  1.00  0.00    -0.744 OA
ENDBRANCH  86  89
ENDBRANCH  58  82
BRANCH  70  93
ATOM     93  C   UNL A   1      44.707  32.863  29.125  1.00  0.00     0.023 A 
ATOM     94  C   UNL A   1      45.366  33.111  30.344  1.00  0.00     0.012 A 
ATOM     95  C   UNL A   1      44.593  33.892  28.171  1.00  0.00     0.148 A 
ATOM     96  C   UNL A   1      45.898  34.371  30.614  1.00  0.00     0.002 A 
ATOM     97  C   UNL A   1      45.153  35.136  28.433  1.00  0.00     0.091 A 
ATOM     98  F   UNL A   1      43.950  33.629  27.023  1.00  0.00    -0.205 F 
ATOM     99  C   UNL A   1      45.802  35.378  29.656  1.00  0.00     0.022 A 
BRANCH  97 100
ATOM    100  S   UNL A   1      45.145  36.473  27.234  1.00  0.00     0.127 S 
ATOM    101  O   UNL A   1      45.856  35.867  26.108  1.00  0.00    -0.237 OA
ATOM    102  O   UNL A   1      43.714  36.682  27.011  1.00  0.00    -0.237 OA
ATOM    103  O   UNL A   1      45.829  37.589  27.871  1.00  0.00    -0.744 OA
ENDBRANCH  97 100
ENDBRANCH  70  93
ENDBRANCH  44  45
ENDBRANCH  36  39
ENDBRANCH  34  35
ENDBRANCH  33  34
ENDBRANCH   1  33
TORSDOF 18
ENDMDL
MODEL 2
REMARK VINA RESULT:     -12.6      1.997      2.473
REMARK SMILES CC1=C(CC(=O)NCCCNC(=O)c2ccc(-c3c4nc(c(-c5cccc(S(=O)(=O)[O-])c5F)c5ccc([nH]5)c(-c5cccc(S(=O)(=O)[O-])c5F)c5nc(c(-c6cccc(S(=O)(=O)[O-])c6F)c6ccc3[nH]6)C=C5)C=C4)cc2)c2cc(F)ccc2/C1=C\c1cccc(OCc2ccccc2)c1
REMARK SMILES IDX 8 1 7 2 5 3 6 4 4 6 3 7 1 8 2 9 84 10 77 11 83 12 85 13
REMARK SMILES IDX 78 14 82 15 79 16 81 17 80 18 86 19 87 20 99 21 88 22 90 23
REMARK SMILES IDX 89 24 91 25 92 26 93 27 94 28 98 29 95 30 97 31 96 32 9 33
REMARK SMILES IDX 10 34 11 35 12 36 13 38 14 39 15 40 76 41 16 42 75 43 17 44
REMARK SMILES IDX 18 45 19 46 69 47 20 48 74 49 68 50 70 51 21 52 73 53 67 54
REMARK SMILES IDX 66 55 22 57 54 58 34 59 53 60 35 61 38 62 52 63 71 64 36 65
REMARK SMILES IDX 37 66 51 68 72 69 39 70 23 71 24 72 32 73 25 74 27 75 33 76
REMARK SMILES IDX 26 77 28 78 29 79 30 80 31 81 55 82 56 83 64 84 57 85 59 86
REMARK SMILES IDX 65 87 58 88 60 89 61 90 62 91 63 92 40 93 41 94 49 95 42 96
REMARK SMILES IDX 44 97 50 98 43 99 45 100 46 101 47 102 48 103
REMARK H PARENT 7 5 11 37 70 56 38 67
REMARK Flexibility Score: inf
ROOT
ATOM      1  C   UNL A   1      35.783  20.660  25.569  1.00  0.00     0.117 C 
ENDROOT
BRANCH   1   2
ATOM      2  N   UNL A   1      35.088  19.549  24.947  1.00  0.00    -0.356 N 
ATOM      3  C   UNL A   1      33.793  19.146  25.094  1.00  0.00     0.224 C 
ATOM      4  O   UNL A   1      33.412  18.164  24.452  1.00  0.00    -0.275 OA
ATOM      5  H   UNL A   1      35.630  19.006  24.329  1.00  0.00     0.163 HD
BRANCH   3   6
ATOM      6  C   UNL A   1      32.834  19.918  25.996  1.00  0.00     0.136 C 
BRANCH   6   7
ATOM      7  C   UNL A   1      32.801  21.381  25.701  1.00  0.00    -0.027 C 
ATOM      8  C   UNL A   1      33.280  22.386  28.008  1.00  0.00     0.045 C 
ATOM      9  C   UNL A   1      32.965  22.425  26.548  1.00  0.00    -0.039 C 
ATOM     10  C   UNL A   1      32.795  23.685  25.807  1.00  0.00    -0.014 C 
ATOM     11  C   UNL A   1      32.622  21.929  24.342  1.00  0.00    -0.011 A 
ATOM     12  C   UNL A   1      32.638  23.335  24.386  1.00  0.00    -0.010 A 
ATOM     13  C   UNL A   1      32.755  24.899  26.376  1.00  0.00     0.017 C 
ATOM     14  C   UNL A   1      32.483  21.266  23.131  1.00  0.00     0.048 A 
ATOM     15  C   UNL A   1      32.530  24.089  23.224  1.00  0.00     0.012 A 
ATOM     16  C   UNL A   1      32.357  22.029  21.972  1.00  0.00     0.123 A 
ATOM     17  C   UNL A   1      32.381  23.423  22.007  1.00  0.00     0.040 A 
ATOM     18  F   UNL A   1      32.221  21.409  20.792  1.00  0.00    -0.207 F 
BRANCH  13  19
ATOM     19  C   UNL A   1      32.608  26.177  25.682  1.00  0.00    -0.021 A 
ATOM     20  C   UNL A   1      33.711  26.924  25.262  1.00  0.00     0.008 A 
ATOM     21  C   UNL A   1      31.312  26.627  25.413  1.00  0.00     0.054 A 
ATOM     22  C   UNL A   1      33.514  28.132  24.594  1.00  0.00     0.004 A 
ATOM     23  C   UNL A   1      31.114  27.789  24.671  1.00  0.00     0.120 A 
ATOM     24  C   UNL A   1      32.217  28.562  24.301  1.00  0.00     0.046 A 
BRANCH  23  25
ATOM     25  O   UNL A   1      29.913  28.218  24.180  1.00  0.00    -0.489 OA
BRANCH  25  26
ATOM     26  C   UNL A   1      29.848  28.675  22.825  1.00  0.00     0.265 C 
BRANCH  26  27
ATOM     27  C   UNL A   1      29.223  30.044  22.602  1.00  0.00    -0.011 A 
ATOM     28  C   UNL A   1      29.149  31.032  23.598  1.00  0.00     0.007 A 
ATOM     29  C   UNL A   1      28.763  30.380  21.318  1.00  0.00     0.007 A 
ATOM     30  C   UNL A   1      28.643  32.304  23.325  1.00  0.00     0.000 A 
ATOM     31  C   UNL A   1      28.242  31.649  21.047  1.00  0.00     0.000 A 
ATOM     32  C   UNL A   1      28.187  32.612  22.049  1.00  0.00     0.000 A 
ENDBRANCH  26  27
ENDBRANCH  25  26
ENDBRANCH  23  25
ENDBRANCH  13  19
ENDBRANCH   6   7
ENDBRANCH   3   6
ENDBRANCH   1   2
BRANCH   1  33
ATOM     33  C   UNL A   1      36.349  21.643  24.551  1.00  0.00     0.042 C 
BRANCH  33  34
ATOM     34  C   UNL A   1      37.756  22.134  24.874  1.00  0.00     0.118 C 
BRANCH  34  35
ATOM     35  N   UNL A   1      38.587  21.110  25.492  1.00  0.00    -0.352 N 
ATOM     36  C   UNL A   1      39.675  21.233  26.328  1.00  0.00     0.251 C 
ATOM     37  H   UNL A   1      38.330  20.184  25.280  1.00  0.00     0.163 HD
ATOM     38  O   UNL A   1      40.331  20.239  26.608  1.00  0.00    -0.269 OA
BRANCH  36  39
ATOM     39  C   UNL A   1      40.064  22.562  26.854  1.00  0.00     0.039 A 
ATOM     40  C   UNL A   1      39.484  23.731  26.361  1.00  0.00     0.014 A 
ATOM     41  C   UNL A   1      41.030  22.635  27.863  1.00  0.00     0.014 A 
ATOM     42  C   UNL A   1      39.988  24.970  26.747  1.00  0.00     0.010 A 
ATOM     43  C   UNL A   1      41.479  23.882  28.309  1.00  0.00     0.010 A 
ATOM     44  C   UNL A   1      40.999  25.060  27.717  1.00  0.00    -0.014 A 
BRANCH  44  45
ATOM     45  C   UNL A   1      41.539  26.392  28.092  1.00  0.00     0.031 A 
ATOM     46  C   UNL A   1      42.936  26.796  27.698  1.00  0.00     0.074 A 
ATOM     47  C   UNL A   1      40.753  27.260  28.758  1.00  0.00     0.049 A 
ATOM     48  N   UNL A   1      43.561  27.921  27.929  1.00  0.00    -0.248 NA
ATOM     49  C   UNL A   1      43.738  25.813  26.950  1.00  0.00     0.031 C 
ATOM     50  C   UNL A   1      39.387  26.985  29.207  1.00  0.00     0.029 A 
ATOM     51  N   UNL A   1      40.982  28.551  29.162  1.00  0.00    -0.354 N 
ATOM     52  C   UNL A   1      44.836  27.769  27.398  1.00  0.00     0.074 A 
ATOM     53  C   UNL A   1      44.901  26.441  26.830  1.00  0.00     0.031 C 
ATOM     54  C   UNL A   1      38.885  28.084  29.788  1.00  0.00     0.029 A 
ATOM     55  C   UNL A   1      39.907  29.126  29.797  1.00  0.00     0.049 A 
ATOM     56  H   UNL A   1      41.833  29.021  29.013  1.00  0.00     0.167 HD
ATOM     57  C   UNL A   1      45.853  28.661  27.369  1.00  0.00     0.034 A 
ATOM     58  C   UNL A   1      39.755  30.353  30.334  1.00  0.00     0.034 A 
ATOM     59  C   UNL A   1      45.773  30.002  27.883  1.00  0.00     0.049 A 
ATOM     60  C   UNL A   1      40.893  31.329  30.270  1.00  0.00     0.074 A 
ATOM     61  C   UNL A   1      46.744  30.988  27.860  1.00  0.00     0.029 A 
ATOM     62  N   UNL A   1      44.662  30.547  28.505  1.00  0.00    -0.354 N 
ATOM     63  N   UNL A   1      42.066  31.185  29.704  1.00  0.00    -0.248 NA
ATOM     64  C   UNL A   1      40.685  32.639  30.904  1.00  0.00     0.031 C 
ATOM     65  C   UNL A   1      46.219  32.133  28.468  1.00  0.00     0.029 A 
ATOM     66  C   UNL A   1      44.920  31.858  28.865  1.00  0.00     0.049 A 
ATOM     67  H   UNL A   1      43.814  30.073  28.666  1.00  0.00     0.167 HD
ATOM     68  C   UNL A   1      42.734  32.387  29.904  1.00  0.00     0.074 A 
ATOM     69  C   UNL A   1      41.826  33.257  30.623  1.00  0.00     0.031 C 
ATOM     70  C   UNL A   1      43.993  32.728  29.540  1.00  0.00     0.034 A 
BRANCH  57  71
ATOM     71  C   UNL A   1      47.140  28.246  26.711  1.00  0.00     0.023 A 
ATOM     72  C   UNL A   1      48.224  27.839  27.515  1.00  0.00     0.012 A 
ATOM     73  C   UNL A   1      47.242  28.159  25.309  1.00  0.00     0.148 A 
ATOM     74  C   UNL A   1      49.395  27.360  26.933  1.00  0.00     0.002 A 
ATOM     75  C   UNL A   1      48.404  27.654  24.737  1.00  0.00     0.091 A 
ATOM     76  F   UNL A   1      46.203  28.566  24.568  1.00  0.00    -0.205 F 
ATOM     77  C   UNL A   1      49.481  27.256  25.546  1.00  0.00     0.022 A 
BRANCH  75  78
ATOM     78  S   UNL A   1      48.599  27.431  22.964  1.00  0.00     0.127 S 
ATOM     79  O   UNL A   1      47.492  28.232  22.444  1.00  0.00    -0.237 OA
ATOM     80  O   UNL A   1      49.926  27.997  22.728  1.00  0.00    -0.237 OA
ATOM     81  O   UNL A   1      48.491  25.999  22.723  1.00  0.00    -0.744 OA
ENDBRANCH  75  78
ENDBRANCH  57  71
BRANCH  58  82
ATOM     82  C   UNL A   1      38.444  30.728  30.928  1.00  0.00     0.023 A 
ATOM     83  C   UNL A   1      38.215  30.482  32.295  1.00  0.00     0.012 A 
ATOM     84  C   UNL A   1      37.468  31.402  30.171  1.00  0.00     0.148 A 
ATOM     85  C   UNL A   1      37.030  30.902  32.900  1.00  0.00     0.002 A 
ATOM     86  C   UNL A   1      36.310  31.857  30.790  1.00  0.00     0.091 A 
ATOM     87  F   UNL A   1      37.710  31.615  28.871  1.00  0.00    -0.205 F 
ATOM     88  C   UNL A   1      36.085  31.600  32.152  1.00  0.00     0.022 A 
BRANCH  86  89
ATOM     89  S   UNL A   1      35.090  32.864  29.941  1.00  0.00     0.127 S 
ATOM     90  O   UNL A   1      35.916  33.939  29.397  1.00  0.00    -0.237 OA
ATOM     91  O   UNL A   1      34.567  31.926  28.948  1.00  0.00    -0.237 OA
ATOM     92  O   UNL A   1      34.129  33.266  30.959  1.00  0.00    -0.744 OA
ENDBRANCH  86  89
ENDBRANCH  58  82
BRANCH  70  93
ATOM     93  C   UNL A   1      44.480  34.102  29.901  1.00  0.00     0.023 A 
ATOM     94  C   UNL A   1      45.220  34.280  31.085  1.00  0.00     0.012 A 
ATOM     95  C   UNL A   1      44.309  35.184  29.017  1.00  0.00     0.148 A 
ATOM     96  C   UNL A   1      45.776  35.521  31.391  1.00  0.00     0.002 A 
ATOM     97  C   UNL A   1      44.892  36.410  29.311  1.00  0.00     0.091 A 
ATOM     98  F   UNL A   1      43.589  34.989  27.902  1.00  0.00    -0.205 F 
ATOM     99  C   UNL A   1      45.624  36.581  30.500  1.00  0.00     0.022 A 
BRANCH  97 100
ATOM    100  S   UNL A   1      44.813  37.813  28.193  1.00  0.00     0.127 S 
ATOM    101  O   UNL A   1      45.696  38.772  28.856  1.00  0.00    -0.237 OA
ATOM    102  O   UNL A   1      45.346  37.251  26.951  1.00  0.00    -0.237 OA
ATOM    103  O   UNL A   1      43.411  38.201  28.131  1.00  0.00    -0.744 OA
ENDBRANCH  97 100
ENDBRANCH  70  93
ENDBRANCH  44  45
ENDBRANCH  36  39
ENDBRANCH  34  35
ENDBRANCH  33  34
ENDBRANCH   1  33
TORSDOF 18
ENDMDL
MODEL 3
REMARK VINA RESULT:     -12.2      2.133      2.691
REMARK SMILES CC1=C(CC(=O)NCCCNC(=O)c2ccc(-c3c4nc(c(-c5cccc(S(=O)(=O)[O-])c5F)c5ccc([nH]5)c(-c5cccc(S(=O)(=O)[O-])c5F)c5nc(c(-c6cccc(S(=O)(=O)[O-])c6F)c6ccc3[nH]6)C=C5)C=C4)cc2)c2cc(F)ccc2/C1=C\c1cccc(OCc2ccccc2)c1
REMARK SMILES IDX 8 1 7 2 5 3 6 4 4 6 3 7 1 8 2 9 84 10 77 11 83 12 85 13
REMARK SMILES IDX 78 14 82 15 79 16 81 17 80 18 86 19 87 20 99 21 88 22 90 23
REMARK SMILES IDX 89 24 91 25 92 26 93 27 94 28 98 29 95 30 97 31 96 32 9 33
REMARK SMILES IDX 10 34 11 35 12 36 13 38 14 39 15 40 76 41 16 42 75 43 17 44
REMARK SMILES IDX 18 45 19 46 69 47 20 48 74 49 68 50 70 51 21 52 73 53 67 54
REMARK SMILES IDX 66 55 22 57 54 58 34 59 53 60 35 61 38 62 52 63 71 64 36 65
REMARK SMILES IDX 37 66 51 68 72 69 39 70 23 71 24 72 32 73 25 74 27 75 33 76
REMARK SMILES IDX 26 77 28 78 29 79 30 80 31 81 55 82 56 83 64 84 57 85 59 86
REMARK SMILES IDX 65 87 58 88 60 89 61 90 62 91 63 92 40 93 41 94 49 95 42 96
REMARK SMILES IDX 44 97 50 98 43 99 45 100 46 101 47 102 48 103
REMARK H PARENT 7 5 11 37 70 56 38 67
REMARK Flexibility Score: inf
ROOT
ATOM      1  C   UNL A   1      34.431  21.896  24.974  1.00  0.00     0.117 C 
ENDROOT
BRANCH   1   2
ATOM      2  N   UNL A   1      33.838  21.603  23.683  1.00  0.00    -0.356 N 
ATOM      3  C   UNL A   1      32.553  21.782  23.260  1.00  0.00     0.224 C 
ATOM      4  O   UNL A   1      32.272  21.463  22.102  1.00  0.00    -0.275 OA
ATOM      5  H   UNL A   1      34.451  21.219  23.015  1.00  0.00     0.163 HD
BRANCH   3   6
ATOM      6  C   UNL A   1      31.507  22.400  24.183  1.00  0.00     0.136 C 
BRANCH   6   7
ATOM      7  C   UNL A   1      31.863  23.779  24.633  1.00  0.00    -0.027 C 
ATOM      8  C   UNL A   1      31.817  23.521  27.181  1.00  0.00     0.045 C 
ATOM      9  C   UNL A   1      31.972  24.262  25.893  1.00  0.00    -0.039 C 
ATOM     10  C   UNL A   1      32.293  25.697  25.838  1.00  0.00    -0.014 C 
ATOM     11  C   UNL A   1      32.217  24.867  23.701  1.00  0.00    -0.011 A 
ATOM     12  C   UNL A   1      32.504  26.041  24.423  1.00  0.00    -0.010 A 
ATOM     13  C   UNL A   1      32.330  26.506  26.907  1.00  0.00     0.017 C 
ATOM     14  C   UNL A   1      32.318  24.851  22.317  1.00  0.00     0.048 A 
ATOM     15  C   UNL A   1      32.907  27.200  23.772  1.00  0.00     0.012 A 
ATOM     16  C   UNL A   1      32.705  26.023  21.671  1.00  0.00     0.123 A 
ATOM     17  C   UNL A   1      33.000  27.188  22.380  1.00  0.00     0.040 A 
ATOM     18  F   UNL A   1      32.809  26.030  20.335  1.00  0.00    -0.207 F 
BRANCH  13  19
ATOM     19  C   UNL A   1      32.662  27.930  26.905  1.00  0.00    -0.021 A 
ATOM     20  C   UNL A   1      33.983  28.384  26.900  1.00  0.00     0.008 A 
ATOM     21  C   UNL A   1      31.606  28.845  26.872  1.00  0.00     0.054 A 
ATOM     22  C   UNL A   1      34.244  29.754  26.888  1.00  0.00     0.004 A 
ATOM     23  C   UNL A   1      31.864  30.210  26.772  1.00  0.00     0.120 A 
ATOM     24  C   UNL A   1      33.184  30.662  26.825  1.00  0.00     0.046 A 
BRANCH  23  25
ATOM     25  O   UNL A   1      30.928  31.177  26.535  1.00  0.00    -0.489 OA
BRANCH  25  26
ATOM     26  C   UNL A   1      30.798  31.698  25.209  1.00  0.00     0.265 C 
BRANCH  26  27
ATOM     27  C   UNL A   1      29.901  30.915  24.260  1.00  0.00    -0.011 A 
ATOM     28  C   UNL A   1      30.227  29.643  23.761  1.00  0.00     0.007 A 
ATOM     29  C   UNL A   1      28.646  31.446  23.919  1.00  0.00     0.007 A 
ATOM     30  C   UNL A   1      29.337  28.926  22.960  1.00  0.00     0.000 A 
ATOM     31  C   UNL A   1      27.760  30.735  23.104  1.00  0.00     0.000 A 
ATOM     32  C   UNL A   1      28.103  29.473  22.629  1.00  0.00     0.000 A 
ENDBRANCH  26  27
ENDBRANCH  25  26
ENDBRANCH  23  25
ENDBRANCH  13  19
ENDBRANCH   6   7
ENDBRANCH   3   6
ENDBRANCH   1   2
BRANCH   1  33
ATOM     33  C   UNL A   1      35.611  22.855  24.874  1.00  0.00     0.042 C 
BRANCH  33  34
ATOM     34  C   UNL A   1      36.526  22.848  26.094  1.00  0.00     0.118 C 
BRANCH  34  35
ATOM     35  N   UNL A   1      37.524  21.787  26.049  1.00  0.00    -0.352 N 
ATOM     36  C   UNL A   1      38.887  21.841  26.234  1.00  0.00     0.251 C 
ATOM     37  H   UNL A   1      37.167  20.890  25.858  1.00  0.00     0.163 HD
ATOM     38  O   UNL A   1      39.564  20.851  25.993  1.00  0.00    -0.269 OA
BRANCH  36  39
ATOM     39  C   UNL A   1      39.529  23.097  26.687  1.00  0.00     0.039 A 
ATOM     40  C   UNL A   1      39.174  24.328  26.135  1.00  0.00     0.014 A 
ATOM     41  C   UNL A   1      40.506  23.036  27.686  1.00  0.00     0.014 A 
ATOM     42  C   UNL A   1      39.910  25.466  26.452  1.00  0.00     0.010 A 
ATOM     43  C   UNL A   1      41.189  24.197  28.064  1.00  0.00     0.010 A 
ATOM     44  C   UNL A   1      40.933  25.412  27.411  1.00  0.00    -0.014 A 
BRANCH  44  45
ATOM     45  C   UNL A   1      41.722  26.635  27.712  1.00  0.00     0.031 A 
ATOM     46  C   UNL A   1      43.122  26.799  27.181  1.00  0.00     0.074 A 
ATOM     47  C   UNL A   1      41.160  27.622  28.438  1.00  0.00     0.049 A 
ATOM     48  N   UNL A   1      43.945  27.804  27.334  1.00  0.00    -0.248 NA
ATOM     49  C   UNL A   1      43.672  25.696  26.375  1.00  0.00     0.031 C 
ATOM     50  C   UNL A   1      39.817  27.578  29.020  1.00  0.00     0.029 A 
ATOM     51  N   UNL A   1      41.639  28.855  28.799  1.00  0.00    -0.354 N 
ATOM     52  C   UNL A   1      45.119  27.441  26.685  1.00  0.00     0.074 A 
ATOM     53  C   UNL A   1      44.906  26.121  26.133  1.00  0.00     0.031 C 
ATOM     54  C   UNL A   1      39.564  28.746  29.629  1.00  0.00     0.029 A 
ATOM     55  C   UNL A   1      40.742  29.602  29.525  1.00  0.00     0.049 A 
ATOM     56  H   UNL A   1      42.539  29.176  28.562  1.00  0.00     0.167 HD
ATOM     57  C   UNL A   1      46.263  28.150  26.545  1.00  0.00     0.034 A 
ATOM     58  C   UNL A   1      40.849  30.836  30.055  1.00  0.00     0.034 A 
ATOM     59  C   UNL A   1      46.458  29.485  27.044  1.00  0.00     0.049 A 
ATOM     60  C   UNL A   1      42.123  31.608  29.867  1.00  0.00     0.074 A 
ATOM     61  C   UNL A   1      47.573  30.294  26.913  1.00  0.00     0.029 A 
ATOM     62  N   UNL A   1      45.519  30.208  27.761  1.00  0.00    -0.354 N 
ATOM     63  N   UNL A   1      43.195  31.270  29.194  1.00  0.00    -0.248 NA
ATOM     64  C   UNL A   1      42.199  32.933  30.499  1.00  0.00     0.031 C 
ATOM     65  C   UNL A   1      47.308  31.510  27.551  1.00  0.00     0.029 A 
ATOM     66  C   UNL A   1      46.026  31.456  28.075  1.00  0.00     0.049 A 
ATOM     67  H   UNL A   1      44.623  29.882  28.010  1.00  0.00     0.167 HD
ATOM     68  C   UNL A   1      44.070  32.343  29.311  1.00  0.00     0.074 A 
ATOM     69  C   UNL A   1      43.394  33.352  30.100  1.00  0.00     0.031 C 
ATOM     70  C   UNL A   1      45.327  32.469  28.823  1.00  0.00     0.034 A 
BRANCH  57  71
ATOM     71  C   UNL A   1      47.392  27.526  25.774  1.00  0.00     0.023 A 
ATOM     72  C   UNL A   1      47.384  27.592  24.366  1.00  0.00     0.012 A 
ATOM     73  C   UNL A   1      48.504  26.970  26.437  1.00  0.00     0.148 A 
ATOM     74  C   UNL A   1      48.461  27.106  23.628  1.00  0.00     0.002 A 
ATOM     75  C   UNL A   1      49.587  26.513  25.695  1.00  0.00     0.091 A 
ATOM     76  F   UNL A   1      48.481  26.906  27.775  1.00  0.00    -0.205 F 
ATOM     77  C   UNL A   1      49.566  26.578  24.292  1.00  0.00     0.022 A 
BRANCH  75  78
ATOM     78  S   UNL A   1      51.081  25.862  26.452  1.00  0.00     0.127 S 
ATOM     79  O   UNL A   1      51.928  25.635  25.281  1.00  0.00    -0.237 OA
ATOM     80  O   UNL A   1      51.503  26.972  27.304  1.00  0.00    -0.237 OA
ATOM     81  O   UNL A   1      50.680  24.658  27.166  1.00  0.00    -0.744 OA
ENDBRANCH  75  78
ENDBRANCH  57  71
BRANCH  58  82
ATOM     82  C   UNL A   1      39.684  31.424  30.766  1.00  0.00     0.023 A 
ATOM     83  C   UNL A   1      38.614  31.947  30.016  1.00  0.00     0.012 A 
ATOM     84  C   UNL A   1      39.593  31.387  32.171  1.00  0.00     0.148 A 
ATOM     85  C   UNL A   1      37.470  32.425  30.656  1.00  0.00     0.002 A 
ATOM     86  C   UNL A   1      38.433  31.824  32.798  1.00  0.00     0.091 A 
ATOM     87  F   UNL A   1      40.630  30.891  32.859  1.00  0.00    -0.205 F 
ATOM     88  C   UNL A   1      37.374  32.352  32.043  1.00  0.00     0.022 A 
BRANCH  86  89
ATOM     89  S   UNL A   1      38.169  31.662  34.567  1.00  0.00     0.127 S 
ATOM     90  O   UNL A   1      36.855  32.279  34.731  1.00  0.00    -0.237 OA
ATOM     91  O   UNL A   1      38.195  30.209  34.740  1.00  0.00    -0.237 OA
ATOM     92  O   UNL A   1      39.276  32.366  35.199  1.00  0.00    -0.744 OA
ENDBRANCH  86  89
ENDBRANCH  58  82
BRANCH  70  93
ATOM     93  C   UNL A   1      46.069  33.742  29.114  1.00  0.00     0.023 A 
ATOM     94  C   UNL A   1      46.910  33.803  30.241  1.00  0.00     0.012 A 
ATOM     95  C   UNL A   1      46.026  34.825  28.216  1.00  0.00     0.148 A 
ATOM     96  C   UNL A   1      47.694  34.932  30.476  1.00  0.00     0.002 A 
ATOM     97  C   UNL A   1      46.832  35.933  28.439  1.00  0.00     0.091 A 
ATOM     98  F   UNL A   1      45.206  34.743  27.157  1.00  0.00    -0.205 F 
ATOM     99  C   UNL A   1      47.664  35.990  29.570  1.00  0.00     0.022 A 
BRANCH  97 100
ATOM    100  S   UNL A   1      46.919  37.313  27.292  1.00  0.00     0.127 S 
ATOM    101  O   UNL A   1      45.549  37.824  27.337  1.00  0.00    -0.237 OA
ATOM    102  O   UNL A   1      47.915  38.180  27.924  1.00  0.00    -0.237 OA
ATOM    103  O   UNL A   1      47.329  36.750  26.013  1.00  0.00    -0.744 OA
ENDBRANCH  97 100
ENDBRANCH  70  93
ENDBRANCH  44  45
ENDBRANCH  36  39
ENDBRANCH  34  35
ENDBRANCH  33  34
ENDBRANCH   1  33
TORSDOF 18
ENDMDL
