MODEL 1
REMARK VINA RESULT:     -10.8      0.000      0.000
REMARK SMILES C[C@]12c3ccccc3[C@](C)(c3ccccc31)[C@@H]1C(=O)N(c3ccc(C(=O)NCCCNC(=O)c4ccc(-c5c6nc(c(-c7cccc(S(=O)(=O)[O-])c7F)c7ccc([nH]7)c(-c7cccc(S(=O)(=O)[O-])c7F)c7nc(c(-c8cccc(S(=O)(=O)[O-])c8F)c8ccc5[nH]8)C=C7)C=C6)cc4)cc3)C(=O)[C@H]12
REMARK SMILES IDX 30 1 29 2 28 3 27 4 25 5 26 6 24 8 21 9 22 10 98 11 23 12
REMARK SMILES IDX 97 13 20 14 1 15 2 16 16 17 3 18 101 19 15 20 11 21 8 22
REMARK SMILES IDX 4 23 17 24 99 25 14 26 12 27 9 28 7 29 5 30 18 31 100 32
REMARK SMILES IDX 13 33 10 34 6 35 19 36 31 37 32 38 33 40 34 41 35 42 96 43
REMARK SMILES IDX 36 44 95 45 37 46 38 47 39 48 89 49 40 50 94 51 88 52 90 53
REMARK SMILES IDX 41 54 93 55 87 56 86 57 42 59 74 60 54 61 73 62 55 63 58 64
REMARK SMILES IDX 72 65 91 66 56 67 57 68 71 70 92 71 59 72 43 73 44 74 52 75
REMARK SMILES IDX 45 76 47 77 53 78 46 79 48 80 49 81 50 82 51 83 75 84 76 85
REMARK SMILES IDX 84 86 77 87 79 88 85 89 78 90 80 91 81 92 82 93 83 94 60 95
REMARK SMILES IDX 61 96 69 97 62 98 64 99 70 100 63 101 65 102 66 103 67 104
REMARK SMILES IDX 68 105
REMARK H PARENT 27 7 31 39 90 58 58 69
REMARK Flexibility Score: inf
ROOT
ATOM      1  C   UNL A   1      41.324  19.990  26.735  1.00  0.00     0.118 C 
ENDROOT
BRANCH   1   2
ATOM      2  C   UNL A   1      42.465  20.189  25.751  1.00  0.00     0.042 C 
BRANCH   2   3
ATOM      3  C   UNL A   1      42.868  21.638  25.529  1.00  0.00     0.118 C 
BRANCH   3   4
ATOM      4  N   UNL A   1      44.237  21.801  25.059  1.00  0.00    -0.352 N 
ATOM      5  C   UNL A   1      45.350  22.358  25.639  1.00  0.00     0.251 C 
ATOM      6  O   UNL A   1      46.393  22.407  24.990  1.00  0.00    -0.269 OA
ATOM      7  H   UNL A   1      44.393  21.445  24.154  1.00  0.00     0.163 HD
BRANCH   5   8
ATOM      8  C   UNL A   1      45.317  22.954  26.995  1.00  0.00     0.039 A 
ATOM      9  C   UNL A   1      45.219  24.369  29.424  1.00  0.00     0.052 A 
ATOM     10  C   UNL A   1      46.301  24.531  28.553  1.00  0.00     0.027 A 
ATOM     11  C   UNL A   1      44.249  23.405  29.120  1.00  0.00     0.027 A 
ATOM     12  C   UNL A   1      46.357  23.818  27.352  1.00  0.00     0.016 A 
ATOM     13  C   UNL A   1      44.308  22.690  27.921  1.00  0.00     0.016 A 
BRANCH   9  14
ATOM     14  N   UNL A   1      45.063  25.200  30.554  1.00  0.00    -0.250 N 
ATOM     15  C   UNL A   1      45.432  29.530  31.812  1.00  0.00     0.022 C 
ATOM     16  C   UNL A   1      44.878  28.363  32.627  1.00  0.00     0.030 C 
ATOM     17  C   UNL A   1      43.387  28.499  33.036  1.00  0.00    -0.033 A 
ATOM     18  C   UNL A   1      45.616  28.094  33.979  1.00  0.00    -0.033 A 
ATOM     19  C   UNL A   1      45.163  26.996  31.960  1.00  0.00     0.108 C 
ATOM     20  C   UNL A   1      42.549  29.572  32.745  1.00  0.00     0.005 A 
ATOM     21  C   UNL A   1      42.895  27.420  33.850  1.00  0.00    -0.033 A 
ATOM     22  C   UNL A   1      45.151  26.911  34.654  1.00  0.00    -0.033 A 
ATOM     23  C   UNL A   1      46.685  28.827  34.487  1.00  0.00     0.005 A 
ATOM     24  C   UNL A   1      44.164  25.971  32.499  1.00  0.00     0.108 C 
ATOM     25  C   UNL A   1      45.191  26.598  30.520  1.00  0.00     0.238 C 
ATOM     26  C   UNL A   1      41.250  29.585  33.262  1.00  0.00     0.000 A 
ATOM     27  C   UNL A   1      41.604  27.454  34.370  1.00  0.00     0.005 A 
ATOM     28  C   UNL A   1      43.913  26.248  33.999  1.00  0.00     0.030 C 
ATOM     29  C   UNL A   1      45.785  26.492  35.819  1.00  0.00     0.005 A 
ATOM     30  C   UNL A   1      47.304  28.389  35.656  1.00  0.00     0.000 A 
ATOM     31  C   UNL A   1      44.670  24.744  31.818  1.00  0.00     0.238 C 
ATOM     32  O   UNL A   1      45.392  27.343  29.579  1.00  0.00    -0.274 OA
ATOM     33  C   UNL A   1      40.786  28.543  34.074  1.00  0.00     0.000 A 
ATOM     34  C   UNL A   1      43.366  25.018  34.722  1.00  0.00     0.022 C 
ATOM     35  C   UNL A   1      46.863  27.232  36.311  1.00  0.00     0.000 A 
ATOM     36  O   UNL A   1      44.629  23.607  32.260  1.00  0.00    -0.274 OA
ENDBRANCH   9  14
ENDBRANCH   5   8
ENDBRANCH   3   4
ENDBRANCH   2   3
ENDBRANCH   1   2
BRANCH   1  37
ATOM     37  N   UNL A   1      40.001  20.077  26.122  1.00  0.00    -0.352 N 
ATOM     38  C   UNL A   1      39.096  21.114  26.057  1.00  0.00     0.251 C 
ATOM     39  H   UNL A   1      39.704  19.249  25.679  1.00  0.00     0.163 HD
ATOM     40  O   UNL A   1      37.971  20.901  25.613  1.00  0.00    -0.269 OA
BRANCH  38  41
ATOM     41  C   UNL A   1      39.453  22.458  26.565  1.00  0.00     0.039 A 
ATOM     42  C   UNL A   1      38.925  23.604  25.976  1.00  0.00     0.014 A 
ATOM     43  C   UNL A   1      40.354  22.579  27.627  1.00  0.00     0.014 A 
ATOM     44  C   UNL A   1      39.491  24.840  26.254  1.00  0.00     0.010 A 
ATOM     45  C   UNL A   1      40.822  23.844  28.001  1.00  0.00     0.010 A 
ATOM     46  C   UNL A   1      40.455  24.981  27.263  1.00  0.00    -0.014 A 
BRANCH  46  47
ATOM     47  C   UNL A   1      41.069  26.315  27.507  1.00  0.00     0.031 A 
ATOM     48  C   UNL A   1      40.368  27.350  28.352  1.00  0.00     0.074 A 
ATOM     49  C   UNL A   1      42.297  26.577  27.014  1.00  0.00     0.049 A 
ATOM     50  N   UNL A   1      40.772  28.552  28.678  1.00  0.00    -0.248 NA
ATOM     51  C   UNL A   1      39.047  27.001  28.902  1.00  0.00     0.031 C 
ATOM     52  C   UNL A   1      43.081  25.665  26.176  1.00  0.00     0.029 A 
ATOM     53  N   UNL A   1      43.111  27.672  27.159  1.00  0.00    -0.354 N 
ATOM     54  C   UNL A   1      39.742  29.115  29.423  1.00  0.00     0.074 A 
ATOM     55  C   UNL A   1      38.689  28.129  29.502  1.00  0.00     0.031 C 
ATOM     56  C   UNL A   1      44.278  26.214  25.925  1.00  0.00     0.029 A 
ATOM     57  C   UNL A   1      44.322  27.545  26.520  1.00  0.00     0.049 A 
ATOM     58  H   UNL A   1      42.853  28.472  27.672  1.00  0.00     0.167 HD
ATOM     59  C   UNL A   1      39.688  30.334  30.008  1.00  0.00     0.034 A 
ATOM     60  C   UNL A   1      45.351  28.405  26.402  1.00  0.00     0.034 A 
ATOM     61  C   UNL A   1      40.757  31.293  29.984  1.00  0.00     0.049 A 
ATOM     62  C   UNL A   1      45.263  29.751  27.055  1.00  0.00     0.074 A 
ATOM     63  C   UNL A   1      40.807  32.534  30.594  1.00  0.00     0.029 A 
ATOM     64  N   UNL A   1      41.961  31.123  29.321  1.00  0.00    -0.354 N 
ATOM     65  N   UNL A   1      44.305  30.233  27.808  1.00  0.00    -0.248 NA
ATOM     66  C   UNL A   1      46.393  30.668  26.854  1.00  0.00     0.031 C 
ATOM     67  C   UNL A   1      42.035  33.123  30.285  1.00  0.00     0.029 A 
ATOM     68  C   UNL A   1      42.757  32.239  29.500  1.00  0.00     0.049 A 
ATOM     69  H   UNL A   1      42.213  30.326  28.800  1.00  0.00     0.167 HD
ATOM     70  C   UNL A   1      44.722  31.504  28.184  1.00  0.00     0.074 A 
ATOM     71  C   UNL A   1      46.026  31.711  27.589  1.00  0.00     0.031 C 
ATOM     72  C   UNL A   1      44.071  32.418  28.941  1.00  0.00     0.034 A 
BRANCH  59  73
ATOM     73  C   UNL A   1      38.447  30.706  30.774  1.00  0.00     0.023 A 
ATOM     74  C   UNL A   1      38.398  30.485  32.163  1.00  0.00     0.012 A 
ATOM     75  C   UNL A   1      37.386  31.385  30.140  1.00  0.00     0.148 A 
ATOM     76  C   UNL A   1      37.308  30.928  32.913  1.00  0.00     0.002 A 
ATOM     77  C   UNL A   1      36.319  31.849  30.897  1.00  0.00     0.091 A 
ATOM     78  F   UNL A   1      37.454  31.576  28.814  1.00  0.00    -0.205 F 
ATOM     79  C   UNL A   1      36.277  31.619  32.283  1.00  0.00     0.022 A 
BRANCH  77  80
ATOM     80  S   UNL A   1      34.962  32.796  30.195  1.00  0.00     0.127 S 
ATOM     81  O   UNL A   1      34.094  32.972  31.359  1.00  0.00    -0.237 OA
ATOM     82  O   UNL A   1      35.638  34.013  29.749  1.00  0.00    -0.237 OA
ATOM     83  O   UNL A   1      34.405  31.976  29.129  1.00  0.00    -0.744 OA
ENDBRANCH  77  80
ENDBRANCH  59  73
BRANCH  60  84
ATOM     84  C   UNL A   1      46.563  27.985  25.649  1.00  0.00     0.023 A 
ATOM     85  C   UNL A   1      46.598  28.141  24.251  1.00  0.00     0.012 A 
ATOM     86  C   UNL A   1      47.709  27.518  26.323  1.00  0.00     0.148 A 
ATOM     87  C   UNL A   1      47.756  27.836  23.535  1.00  0.00     0.002 A 
ATOM     88  C   UNL A   1      48.870  27.255  25.609  1.00  0.00     0.091 A 
ATOM     89  F   UNL A   1      47.646  27.382  27.655  1.00  0.00    -0.205 F 
ATOM     90  C   UNL A   1      48.893  27.405  24.213  1.00  0.00     0.022 A 
BRANCH  88  91
ATOM     91  S   UNL A   1      50.413  26.797  26.404  1.00  0.00     0.127 S 
ATOM     92  O   UNL A   1      50.053  25.535  27.047  1.00  0.00    -0.237 OA
ATOM     93  O   UNL A   1      51.313  26.669  25.257  1.00  0.00    -0.237 OA
ATOM     94  O   UNL A   1      50.735  27.890  27.311  1.00  0.00    -0.744 OA
ENDBRANCH  88  91
ENDBRANCH  60  84
BRANCH  72  95
ATOM     95  C   UNL A   1      44.745  33.734  29.201  1.00  0.00     0.023 A 
ATOM     96  C   UNL A   1      45.545  33.885  30.349  1.00  0.00     0.012 A 
ATOM     97  C   UNL A   1      44.706  34.760  28.236  1.00  0.00     0.148 A 
ATOM     98  C   UNL A   1      46.299  35.044  30.534  1.00  0.00     0.002 A 
ATOM     99  C   UNL A   1      45.485  35.896  28.411  1.00  0.00     0.091 A 
ATOM    100  F   UNL A   1      43.931  34.588  27.155  1.00  0.00    -0.205 F 
ATOM    101  C   UNL A   1      46.280  36.041  29.561  1.00  0.00     0.022 A 
BRANCH  99 102
ATOM    102  S   UNL A   1      45.586  37.201  27.182  1.00  0.00     0.127 S 
ATOM    103  O   UNL A   1      46.510  38.139  27.819  1.00  0.00    -0.237 OA
ATOM    104  O   UNL A   1      46.135  36.495  26.025  1.00  0.00    -0.237 OA
ATOM    105  O   UNL A   1      44.229  37.699  27.006  1.00  0.00    -0.744 OA
ENDBRANCH  99 102
ENDBRANCH  72  95
ENDBRANCH  46  47
ENDBRANCH  38  41
ENDBRANCH   1  37
TORSDOF 14
ENDMDL
MODEL 2
REMARK VINA RESULT:     -10.8      3.517      8.028
REMARK SMILES C[C@]12c3ccccc3[C@](C)(c3ccccc31)[C@@H]1C(=O)N(c3ccc(C(=O)NCCCNC(=O)c4ccc(-c5c6nc(c(-c7cccc(S(=O)(=O)[O-])c7F)c7ccc([nH]7)c(-c7cccc(S(=O)(=O)[O-])c7F)c7nc(c(-c8cccc(S(=O)(=O)[O-])c8F)c8ccc5[nH]8)C=C7)C=C6)cc4)cc3)C(=O)[C@H]12
REMARK SMILES IDX 30 1 29 2 28 3 27 4 25 5 26 6 24 8 21 9 22 10 98 11 23 12
REMARK SMILES IDX 97 13 20 14 1 15 2 16 16 17 3 18 101 19 15 20 11 21 8 22
REMARK SMILES IDX 4 23 17 24 99 25 14 26 12 27 9 28 7 29 5 30 18 31 100 32
REMARK SMILES IDX 13 33 10 34 6 35 19 36 31 37 32 38 33 40 34 41 35 42 96 43
REMARK SMILES IDX 36 44 95 45 37 46 38 47 39 48 89 49 40 50 94 51 88 52 90 53
REMARK SMILES IDX 41 54 93 55 87 56 86 57 42 59 74 60 54 61 73 62 55 63 58 64
REMARK SMILES IDX 72 65 91 66 56 67 57 68 71 70 92 71 59 72 43 73 44 74 52 75
REMARK SMILES IDX 45 76 47 77 53 78 46 79 48 80 49 81 50 82 51 83 75 84 76 85
REMARK SMILES IDX 84 86 77 87 79 88 85 89 78 90 80 91 81 92 82 93 83 94 60 95
REMARK SMILES IDX 61 96 69 97 62 98 64 99 70 100 63 101 65 102 66 103 67 104
REMARK SMILES IDX 68 105
REMARK H PARENT 27 7 31 39 90 58 58 69
REMARK Flexibility Score: inf
ROOT
ATOM      1  C   UNL A   1      45.946  24.844  25.413  1.00  0.00     0.118 C 
ENDROOT
BRANCH   1   2
ATOM      2  C   UNL A   1      46.350  24.334  26.787  1.00  0.00     0.042 C 
BRANCH   2   3
ATOM      3  C   UNL A   1      46.290  25.374  27.894  1.00  0.00     0.118 C 
BRANCH   3   4
ATOM      4  N   UNL A   1      47.555  26.060  28.124  1.00  0.00    -0.352 N 
ATOM      5  C   UNL A   1      47.848  27.313  28.602  1.00  0.00     0.251 C 
ATOM      6  O   UNL A   1      49.026  27.665  28.655  1.00  0.00    -0.269 OA
ATOM      7  H   UNL A   1      48.348  25.524  27.894  1.00  0.00     0.163 HD
BRANCH   5   8
ATOM      8  C   UNL A   1      46.792  28.274  28.996  1.00  0.00     0.039 A 
ATOM      9  C   UNL A   1      45.015  30.322  29.746  1.00  0.00     0.052 A 
ATOM     10  C   UNL A   1      46.016  29.895  30.625  1.00  0.00     0.027 A 
ATOM     11  C   UNL A   1      44.841  29.631  28.540  1.00  0.00     0.027 A 
ATOM     12  C   UNL A   1      46.891  28.869  30.258  1.00  0.00     0.016 A 
ATOM     13  C   UNL A   1      45.713  28.602  28.176  1.00  0.00     0.016 A 
BRANCH   9  14
ATOM     14  N   UNL A   1      44.234  31.463  30.030  1.00  0.00    -0.250 N 
ATOM     15  C   UNL A   1      42.231  33.580  33.489  1.00  0.00     0.022 C 
ATOM     16  C   UNL A   1      42.376  34.071  32.050  1.00  0.00     0.030 C 
ATOM     17  C   UNL A   1      43.194  35.379  31.883  1.00  0.00    -0.033 A 
ATOM     18  C   UNL A   1      41.028  34.373  31.318  1.00  0.00    -0.033 A 
ATOM     19  C   UNL A   1      42.882  32.957  31.101  1.00  0.00     0.108 C 
ATOM     20  C   UNL A   1      43.770  36.126  32.907  1.00  0.00     0.005 A 
ATOM     21  C   UNL A   1      43.276  35.859  30.530  1.00  0.00    -0.033 A 
ATOM     22  C   UNL A   1      41.200  34.707  29.928  1.00  0.00    -0.033 A 
ATOM     23  C   UNL A   1      39.755  34.258  31.868  1.00  0.00     0.005 A 
ATOM     24  C   UNL A   1      43.502  33.612  29.866  1.00  0.00     0.108 C 
ATOM     25  C   UNL A   1      43.860  31.851  31.326  1.00  0.00     0.238 C 
ATOM     26  C   UNL A   1      44.404  37.333  32.601  1.00  0.00     0.000 A 
ATOM     27  C   UNL A   1      43.897  37.071  30.241  1.00  0.00     0.005 A 
ATOM     28  C   UNL A   1      42.677  34.864  29.487  1.00  0.00     0.030 C 
ATOM     29  C   UNL A   1      40.080  34.903  29.126  1.00  0.00     0.005 A 
ATOM     30  C   UNL A   1      38.647  34.459  31.046  1.00  0.00     0.000 A 
ATOM     31  C   UNL A   1      43.823  32.394  29.068  1.00  0.00     0.238 C 
ATOM     32  O   UNL A   1      44.148  31.363  32.404  1.00  0.00    -0.274 OA
ATOM     33  C   UNL A   1      44.457  37.806  31.284  1.00  0.00     0.000 A 
ATOM     34  C   UNL A   1      42.889  35.267  28.029  1.00  0.00     0.022 C 
ATOM     35  C   UNL A   1      38.808  34.772  29.690  1.00  0.00     0.000 A 
ATOM     36  O   UNL A   1      43.817  32.308  27.851  1.00  0.00    -0.274 OA
ENDBRANCH   9  14
ENDBRANCH   5   8
ENDBRANCH   3   4
ENDBRANCH   2   3
ENDBRANCH   1   2
BRANCH   1  37
ATOM     37  N   UNL A   1      44.975  23.990  24.735  1.00  0.00    -0.352 N 
ATOM     38  C   UNL A   1      43.614  23.851  24.903  1.00  0.00     0.251 C 
ATOM     39  H   UNL A   1      45.359  23.413  24.037  1.00  0.00     0.163 HD
ATOM     40  O   UNL A   1      43.026  22.949  24.313  1.00  0.00    -0.269 OA
BRANCH  38  41
ATOM     41  C   UNL A   1      42.874  24.743  25.825  1.00  0.00     0.039 A 
ATOM     42  C   UNL A   1      42.996  26.127  25.726  1.00  0.00     0.014 A 
ATOM     43  C   UNL A   1      42.068  24.191  26.825  1.00  0.00     0.014 A 
ATOM     44  C   UNL A   1      42.550  26.931  26.766  1.00  0.00     0.010 A 
ATOM     45  C   UNL A   1      41.501  25.020  27.799  1.00  0.00     0.010 A 
ATOM     46  C   UNL A   1      41.804  26.391  27.824  1.00  0.00    -0.014 A 
BRANCH  46  47
ATOM     47  C   UNL A   1      41.376  27.276  28.942  1.00  0.00     0.031 A 
ATOM     48  C   UNL A   1      40.068  28.027  28.881  1.00  0.00     0.074 A 
ATOM     49  C   UNL A   1      42.140  27.356  30.051  1.00  0.00     0.049 A 
ATOM     50  N   UNL A   1      39.538  28.823  29.775  1.00  0.00    -0.248 NA
ATOM     51  C   UNL A   1      39.249  27.874  27.667  1.00  0.00     0.031 C 
ATOM     52  C   UNL A   1      43.430  26.684  30.236  1.00  0.00     0.029 A 
ATOM     53  N   UNL A   1      41.941  28.017  31.237  1.00  0.00    -0.354 N 
ATOM     54  C   UNL A   1      38.358  29.299  29.216  1.00  0.00     0.074 A 
ATOM     55  C   UNL A   1      38.245  28.710  27.901  1.00  0.00     0.031 C 
ATOM     56  C   UNL A   1      43.879  26.925  31.476  1.00  0.00     0.029 A 
ATOM     57  C   UNL A   1      42.951  27.825  32.149  1.00  0.00     0.049 A 
ATOM     58  H   UNL A   1      41.149  28.575  31.416  1.00  0.00     0.167 HD
ATOM     59  C   UNL A   1      37.441  30.134  29.756  1.00  0.00     0.034 A 
ATOM     60  C   UNL A   1      43.130  28.327  33.386  1.00  0.00     0.034 A 
ATOM     61  C   UNL A   1      37.519  30.673  31.085  1.00  0.00     0.049 A 
ATOM     62  C   UNL A   1      42.100  29.255  33.959  1.00  0.00     0.074 A 
ATOM     63  C   UNL A   1      36.606  31.488  31.733  1.00  0.00     0.029 A 
ATOM     64  N   UNL A   1      38.561  30.455  31.971  1.00  0.00    -0.354 N 
ATOM     65  N   UNL A   1      40.962  29.637  33.434  1.00  0.00    -0.248 NA
ATOM     66  C   UNL A   1      42.369  29.812  35.291  1.00  0.00     0.031 C 
ATOM     67  C   UNL A   1      37.105  31.777  33.004  1.00  0.00     0.029 A 
ATOM     68  C   UNL A   1      38.318  31.126  33.155  1.00  0.00     0.049 A 
ATOM     69  H   UNL A   1      39.356  29.905  31.784  1.00  0.00     0.167 HD
ATOM     70  C   UNL A   1      40.371  30.468  34.376  1.00  0.00     0.074 A 
ATOM     71  C   UNL A   1      41.269  30.522  35.511  1.00  0.00     0.031 C 
ATOM     72  C   UNL A   1      39.196  31.137  34.295  1.00  0.00     0.034 A 
BRANCH  59  73
ATOM     73  C   UNL A   1      36.232  30.496  28.936  1.00  0.00     0.023 A 
ATOM     74  C   UNL A   1      35.471  29.474  28.337  1.00  0.00     0.012 A 
ATOM     75  C   UNL A   1      35.783  31.830  28.865  1.00  0.00     0.148 A 
ATOM     76  C   UNL A   1      34.282  29.775  27.672  1.00  0.00     0.002 A 
ATOM     77  C   UNL A   1      34.584  32.118  28.227  1.00  0.00     0.091 A 
ATOM     78  F   UNL A   1      36.531  32.785  29.437  1.00  0.00    -0.205 F 
ATOM     79  C   UNL A   1      33.834  31.092  27.627  1.00  0.00     0.022 A 
BRANCH  77  80
ATOM     80  S   UNL A   1      33.888  33.773  28.156  1.00  0.00     0.127 S 
ATOM     81  O   UNL A   1      32.564  33.511  27.590  1.00  0.00    -0.237 OA
ATOM     82  O   UNL A   1      33.882  34.163  29.565  1.00  0.00    -0.237 OA
ATOM     83  O   UNL A   1      34.778  34.550  27.306  1.00  0.00    -0.744 OA
ENDBRANCH  77  80
ENDBRANCH  59  73
BRANCH  60  84
ATOM     84  C   UNL A   1      44.333  27.928  34.164  1.00  0.00     0.023 A 
ATOM     85  C   UNL A   1      45.482  28.737  34.125  1.00  0.00     0.012 A 
ATOM     86  C   UNL A   1      44.307  26.800  35.007  1.00  0.00     0.148 A 
ATOM     87  C   UNL A   1      46.590  28.429  34.914  1.00  0.00     0.002 A 
ATOM     88  C   UNL A   1      45.397  26.521  35.820  1.00  0.00     0.091 A 
ATOM     89  F   UNL A   1      43.197  26.048  35.024  1.00  0.00    -0.205 F 
ATOM     90  C   UNL A   1      46.544  27.329  35.768  1.00  0.00     0.022 A 
BRANCH  88  91
ATOM     91  S   UNL A   1      45.392  25.192  37.027  1.00  0.00     0.127 S 
ATOM     92  O   UNL A   1      44.281  25.580  37.892  1.00  0.00    -0.237 OA
ATOM     93  O   UNL A   1      45.138  24.024  36.183  1.00  0.00    -0.237 OA
ATOM     94  O   UNL A   1      46.707  25.215  37.652  1.00  0.00    -0.744 OA
ENDBRANCH  88  91
ENDBRANCH  60  84
BRANCH  72  95
ATOM     95  C   UNL A   1      38.779  31.983  35.464  1.00  0.00     0.023 A 
ATOM     96  C   UNL A   1      38.839  33.385  35.357  1.00  0.00     0.012 A 
ATOM     97  C   UNL A   1      38.192  31.392  36.601  1.00  0.00     0.148 A 
ATOM     98  C   UNL A   1      38.318  34.191  36.369  1.00  0.00     0.002 A 
ATOM     99  C   UNL A   1      37.645  32.201  37.588  1.00  0.00     0.091 A 
ATOM    100  F   UNL A   1      38.154  30.054  36.674  1.00  0.00    -0.205 F 
ATOM    101  C   UNL A   1      37.711  33.601  37.475  1.00  0.00     0.022 A 
BRANCH  99 102
ATOM    102  S   UNL A   1      36.777  31.539  39.014  1.00  0.00     0.127 S 
ATOM    103  O   UNL A   1      35.648  32.461  39.129  1.00  0.00    -0.237 OA
ATOM    104  O   UNL A   1      36.424  30.194  38.562  1.00  0.00    -0.237 OA
ATOM    105  O   UNL A   1      37.723  31.583  40.121  1.00  0.00    -0.744 OA
ENDBRANCH  99 102
ENDBRANCH  72  95
ENDBRANCH  46  47
ENDBRANCH  38  41
ENDBRANCH   1  37
TORSDOF 14
ENDMDL
MODEL 3
REMARK VINA RESULT:     -10.8      1.425      2.526
REMARK SMILES C[C@]12c3ccccc3[C@](C)(c3ccccc31)[C@@H]1C(=O)N(c3ccc(C(=O)NCCCNC(=O)c4ccc(-c5c6nc(c(-c7cccc(S(=O)(=O)[O-])c7F)c7ccc([nH]7)c(-c7cccc(S(=O)(=O)[O-])c7F)c7nc(c(-c8cccc(S(=O)(=O)[O-])c8F)c8ccc5[nH]8)C=C7)C=C6)cc4)cc3)C(=O)[C@H]12
REMARK SMILES IDX 30 1 29 2 28 3 27 4 25 5 26 6 24 8 21 9 22 10 98 11 23 12
REMARK SMILES IDX 97 13 20 14 1 15 2 16 16 17 3 18 101 19 15 20 11 21 8 22
REMARK SMILES IDX 4 23 17 24 99 25 14 26 12 27 9 28 7 29 5 30 18 31 100 32
REMARK SMILES IDX 13 33 10 34 6 35 19 36 31 37 32 38 33 40 34 41 35 42 96 43
REMARK SMILES IDX 36 44 95 45 37 46 38 47 39 48 89 49 40 50 94 51 88 52 90 53
REMARK SMILES IDX 41 54 93 55 87 56 86 57 42 59 74 60 54 61 73 62 55 63 58 64
REMARK SMILES IDX 72 65 91 66 56 67 57 68 71 70 92 71 59 72 43 73 44 74 52 75
REMARK SMILES IDX 45 76 47 77 53 78 46 79 48 80 49 81 50 82 51 83 75 84 76 85
REMARK SMILES IDX 84 86 77 87 79 88 85 89 78 90 80 91 81 92 82 93 83 94 60 95
REMARK SMILES IDX 61 96 69 97 62 98 64 99 70 100 63 101 65 102 66 103 67 104
REMARK SMILES IDX 68 105
REMARK H PARENT 27 7 31 39 90 58 58 69
REMARK Flexibility Score: inf
ROOT
ATOM      1  C   UNL A   1      41.493  20.124  26.675  1.00  0.00     0.118 C 
ENDROOT
BRANCH   1   2
ATOM      2  C   UNL A   1      42.413  19.199  25.895  1.00  0.00     0.042 C 
BRANCH   2   3
ATOM      3  C   UNL A   1      43.818  19.736  25.675  1.00  0.00     0.118 C 
BRANCH   3   4
ATOM      4  N   UNL A   1      43.913  20.704  24.590  1.00  0.00    -0.352 N 
ATOM      5  C   UNL A   1      44.421  21.978  24.535  1.00  0.00     0.251 C 
ATOM      6  O   UNL A   1      44.333  22.605  23.481  1.00  0.00    -0.269 OA
ATOM      7  H   UNL A   1      43.543  20.383  23.736  1.00  0.00     0.163 HD
BRANCH   5   8
ATOM      8  C   UNL A   1      45.017  22.641  25.719  1.00  0.00     0.039 A 
ATOM      9  C   UNL A   1      46.089  24.177  27.817  1.00  0.00     0.052 A 
ATOM     10  C   UNL A   1      46.732  24.126  26.576  1.00  0.00     0.027 A 
ATOM     11  C   UNL A   1      44.973  23.358  28.030  1.00  0.00     0.027 A 
ATOM     12  C   UNL A   1      46.207  23.353  25.537  1.00  0.00     0.016 A 
ATOM     13  C   UNL A   1      44.451  22.582  26.992  1.00  0.00     0.016 A 
BRANCH   9  14
ATOM     14  N   UNL A   1      46.509  25.079  28.818  1.00  0.00    -0.250 N 
ATOM     15  C   UNL A   1      50.231  26.396  31.027  1.00  0.00     0.022 C 
ATOM     16  C   UNL A   1      48.837  27.016  31.090  1.00  0.00     0.030 C 
ATOM     17  C   UNL A   1      48.752  28.489  30.606  1.00  0.00    -0.033 A 
ATOM     18  C   UNL A   1      48.196  27.052  32.516  1.00  0.00    -0.033 A 
ATOM     19  C   UNL A   1      47.770  26.129  30.406  1.00  0.00     0.108 C 
ATOM     20  C   UNL A   1      49.813  29.267  30.151  1.00  0.00     0.005 A 
ATOM     21  C   UNL A   1      47.445  29.077  30.723  1.00  0.00    -0.033 A 
ATOM     22  C   UNL A   1      46.835  27.522  32.515  1.00  0.00    -0.033 A 
ATOM     23  C   UNL A   1      48.788  26.600  33.691  1.00  0.00     0.005 A 
ATOM     24  C   UNL A   1      46.572  27.004  30.032  1.00  0.00     0.108 C 
ATOM     25  C   UNL A   1      47.850  25.267  29.188  1.00  0.00     0.238 C 
ATOM     26  C   UNL A   1      49.589  30.609  29.832  1.00  0.00     0.000 A 
ATOM     27  C   UNL A   1      47.240  30.419  30.416  1.00  0.00     0.005 A 
ATOM     28  C   UNL A   1      46.345  28.054  31.144  1.00  0.00     0.030 C 
ATOM     29  C   UNL A   1      46.104  27.514  33.698  1.00  0.00     0.005 A 
ATOM     30  C   UNL A   1      48.038  26.600  34.866  1.00  0.00     0.000 A 
ATOM     31  C   UNL A   1      45.655  25.960  29.492  1.00  0.00     0.238 C 
ATOM     32  O   UNL A   1      48.866  24.778  28.728  1.00  0.00    -0.274 OA
ATOM     33  C   UNL A   1      48.319  31.182  29.973  1.00  0.00     0.000 A 
ATOM     34  C   UNL A   1      44.921  28.607  31.123  1.00  0.00     0.022 C 
ATOM     35  C   UNL A   1      46.710  27.046  34.868  1.00  0.00     0.000 A 
ATOM     36  O   UNL A   1      44.436  25.970  29.556  1.00  0.00    -0.274 OA
ENDBRANCH   9  14
ENDBRANCH   5   8
ENDBRANCH   3   4
ENDBRANCH   2   3
ENDBRANCH   1   2
BRANCH   1  37
ATOM     37  N   UNL A   1      40.144  20.210  26.123  1.00  0.00    -0.352 N 
ATOM     38  C   UNL A   1      39.233  21.244  26.107  1.00  0.00     0.251 C 
ATOM     39  H   UNL A   1      39.830  19.384  25.687  1.00  0.00     0.163 HD
ATOM     40  O   UNL A   1      38.090  21.030  25.713  1.00  0.00    -0.269 OA
BRANCH  38  41
ATOM     41  C   UNL A   1      39.608  22.586  26.608  1.00  0.00     0.039 A 
ATOM     42  C   UNL A   1      39.063  23.735  26.041  1.00  0.00     0.014 A 
ATOM     43  C   UNL A   1      40.543  22.702  27.641  1.00  0.00     0.014 A 
ATOM     44  C   UNL A   1      39.639  24.969  26.305  1.00  0.00     0.010 A 
ATOM     45  C   UNL A   1      41.024  23.965  28.004  1.00  0.00     0.010 A 
ATOM     46  C   UNL A   1      40.636  25.105  27.283  1.00  0.00    -0.014 A 
BRANCH  46  47
ATOM     47  C   UNL A   1      41.258  26.437  27.512  1.00  0.00     0.031 A 
ATOM     48  C   UNL A   1      40.604  27.457  28.412  1.00  0.00     0.074 A 
ATOM     49  C   UNL A   1      42.456  26.711  26.955  1.00  0.00     0.049 A 
ATOM     50  N   UNL A   1      41.022  28.655  28.732  1.00  0.00    -0.248 NA
ATOM     51  C   UNL A   1      39.317  27.095  29.030  1.00  0.00     0.031 C 
ATOM     52  C   UNL A   1      43.194  25.814  26.060  1.00  0.00     0.029 A 
ATOM     53  N   UNL A   1      43.275  27.806  27.070  1.00  0.00    -0.354 N 
ATOM     54  C   UNL A   1      40.035  29.203  29.543  1.00  0.00     0.074 A 
ATOM     55  C   UNL A   1      38.990  28.213  29.667  1.00  0.00     0.031 C 
ATOM     56  C   UNL A   1      44.373  26.372  25.750  1.00  0.00     0.029 A 
ATOM     57  C   UNL A   1      44.447  27.693  26.361  1.00  0.00     0.049 A 
ATOM     58  H   UNL A   1      43.043  28.598  27.609  1.00  0.00     0.167 HD
ATOM     59  C   UNL A   1      40.011  30.414  30.149  1.00  0.00     0.034 A 
ATOM     60  C   UNL A   1      45.466  28.558  26.199  1.00  0.00     0.034 A 
ATOM     61  C   UNL A   1      41.075  31.376  30.078  1.00  0.00     0.049 A 
ATOM     62  C   UNL A   1      45.412  29.895  26.876  1.00  0.00     0.074 A 
ATOM     63  C   UNL A   1      41.155  32.608  30.704  1.00  0.00     0.029 A 
ATOM     64  N   UNL A   1      42.240  31.220  29.346  1.00  0.00    -0.354 N 
ATOM     65  N   UNL A   1      44.497  30.362  27.690  1.00  0.00    -0.248 NA
ATOM     66  C   UNL A   1      46.526  30.818  26.626  1.00  0.00     0.031 C 
ATOM     67  C   UNL A   1      42.363  33.205  30.335  1.00  0.00     0.029 A 
ATOM     68  C   UNL A   1      43.041  32.337  29.497  1.00  0.00     0.049 A 
ATOM     69  H   UNL A   1      42.464  30.432  28.800  1.00  0.00     0.167 HD
ATOM     70  C   UNL A   1      44.931  31.628  28.060  1.00  0.00     0.074 A 
ATOM     71  C   UNL A   1      46.198  31.849  27.396  1.00  0.00     0.031 C 
ATOM     72  C   UNL A   1      44.321  32.528  28.867  1.00  0.00     0.034 A 
BRANCH  59  73
ATOM     73  C   UNL A   1      38.814  30.769  30.989  1.00  0.00     0.023 A 
ATOM     74  C   UNL A   1      38.867  30.582  32.383  1.00  0.00     0.012 A 
ATOM     75  C   UNL A   1      37.694  31.402  30.414  1.00  0.00     0.148 A 
ATOM     76  C   UNL A   1      37.818  31.013  33.195  1.00  0.00     0.002 A 
ATOM     77  C   UNL A   1      36.666  31.855  31.232  1.00  0.00     0.091 A 
ATOM     78  F   UNL A   1      37.666  31.561  29.083  1.00  0.00    -0.205 F 
ATOM     79  C   UNL A   1      36.725  31.658  32.622  1.00  0.00     0.022 A 
BRANCH  77  80
ATOM     80  S   UNL A   1      35.238  32.745  30.603  1.00  0.00     0.127 S 
ATOM     81  O   UNL A   1      34.781  31.852  29.538  1.00  0.00    -0.237 OA
ATOM     82  O   UNL A   1      34.366  32.791  31.776  1.00  0.00    -0.237 OA
ATOM     83  O   UNL A   1      35.733  34.038  30.153  1.00  0.00    -0.744 OA
ENDBRANCH  77  80
ENDBRANCH  59  73
BRANCH  60  84
ATOM     84  C   UNL A   1      46.635  28.155  25.371  1.00  0.00     0.023 A 
ATOM     85  C   UNL A   1      46.538  28.200  23.969  1.00  0.00     0.012 A 
ATOM     86  C   UNL A   1      47.863  27.814  25.972  1.00  0.00     0.148 A 
ATOM     87  C   UNL A   1      47.648  27.909  23.175  1.00  0.00     0.002 A 
ATOM     88  C   UNL A   1      48.973  27.566  25.177  1.00  0.00     0.091 A 
ATOM     89  F   UNL A   1      47.924  27.782  27.310  1.00  0.00    -0.205 F 
ATOM     90  C   UNL A   1      48.866  27.604  23.778  1.00  0.00     0.022 A 
BRANCH  88  91
ATOM     91  S   UNL A   1      50.607  27.268  25.860  1.00  0.00     0.127 S 
ATOM     92  O   UNL A   1      51.467  27.588  24.723  1.00  0.00    -0.237 OA
ATOM     93  O   UNL A   1      50.652  28.235  26.957  1.00  0.00    -0.237 OA
ATOM     94  O   UNL A   1      50.617  25.873  26.277  1.00  0.00    -0.744 OA
ENDBRANCH  88  91
ENDBRANCH  60  84
BRANCH  72  95
ATOM     95  C   UNL A   1      45.005  33.843  29.108  1.00  0.00     0.023 A 
ATOM     96  C   UNL A   1      45.873  33.978  30.208  1.00  0.00     0.012 A 
ATOM     97  C   UNL A   1      44.904  34.885  28.166  1.00  0.00     0.148 A 
ATOM     98  C   UNL A   1      46.633  35.136  30.368  1.00  0.00     0.002 A 
ATOM     99  C   UNL A   1      45.689  36.021  28.313  1.00  0.00     0.091 A 
ATOM    100  F   UNL A   1      44.065  34.728  27.131  1.00  0.00    -0.205 F 
ATOM    101  C   UNL A   1      46.551  36.149  29.415  1.00  0.00     0.022 A 
BRANCH  99 102
ATOM    102  S   UNL A   1      45.710  37.348  27.103  1.00  0.00     0.127 S 
ATOM    103  O   UNL A   1      46.605  38.315  27.738  1.00  0.00    -0.237 OA
ATOM    104  O   UNL A   1      46.267  36.683  25.926  1.00  0.00    -0.237 OA
ATOM    105  O   UNL A   1      44.329  37.789  26.960  1.00  0.00    -0.744 OA
ENDBRANCH  99 102
ENDBRANCH  72  95
ENDBRANCH  46  47
ENDBRANCH  38  41
ENDBRANCH   1  37
TORSDOF 14
ENDMDL
