MODEL 1
REMARK VINA RESULT:     -11.5      0.000      0.000
REMARK SMILES CC[C@@H](C)c1ccccc1OCC(C)(C)C(=O)NCCCNC(=O)c1ccc(-c2c3nc(c(-c4cccc(S(=O)(=O)[O-])c4F)c4ccc([nH]4)c(-c4cccc(S(=O)(=O)[O-])c4F)c4nc(c(-c5cccc(S(=O)(=O)[O-])c5F)c5ccc2[nH]5)C=C4)C=C3)cc1
REMARK SMILES IDX 19 1 18 2 16 3 17 4 13 6 14 7 15 8 12 9 11 10 10 11 5 12
REMARK SMILES IDX 6 13 7 14 9 15 8 16 3 17 4 18 2 19 1 20 20 21 21 22 22 23
REMARK SMILES IDX 23 24 24 26 25 27 26 28 87 29 27 30 86 31 28 32 29 33 30 34
REMARK SMILES IDX 80 35 31 36 85 37 79 38 81 39 32 40 84 41 78 42 77 43 33 45
REMARK SMILES IDX 65 46 45 47 64 48 46 49 49 50 63 51 82 52 47 53 48 54 62 56
REMARK SMILES IDX 83 57 50 58 34 59 35 60 43 61 36 62 38 63 44 64 37 65 39 66
REMARK SMILES IDX 40 67 41 68 42 69 66 70 67 71 75 72 68 73 70 74 76 75 69 76
REMARK SMILES IDX 71 77 72 78 73 79 74 80 51 81 52 82 60 83 53 84 55 85 61 86
REMARK SMILES IDX 54 87 56 88 57 89 58 90 59 91
REMARK H PARENT 18 5 22 25 81 44 49 55
REMARK Flexibility Score: inf
ROOT
ATOM      1  C   UNL A   1      32.660  28.397  25.046  1.00  0.00     0.117 C 
ENDROOT
BRANCH   1   2
ATOM      2  N   UNL A   1      31.571  27.522  24.615  1.00  0.00    -0.355 N 
ATOM      3  C   UNL A   1      31.622  26.315  23.952  1.00  0.00     0.229 C 
ATOM      4  O   UNL A   1      30.577  25.678  23.831  1.00  0.00    -0.274 OA
ATOM      5  H   UNL A   1      30.665  27.842  24.831  1.00  0.00     0.163 HD
BRANCH   3   6
ATOM      6  C   UNL A   1      32.966  25.839  23.377  1.00  0.00     0.077 C 
ATOM      7  C   UNL A   1      33.950  25.810  24.565  1.00  0.00     0.025 C 
ATOM      8  C   UNL A   1      33.296  26.859  22.243  1.00  0.00     0.025 C 
BRANCH   6   9
ATOM      9  C   UNL A   1      32.861  24.466  22.617  1.00  0.00     0.245 C 
BRANCH   9  10
ATOM     10  O   UNL A   1      33.944  23.547  22.677  1.00  0.00    -0.492 OA
BRANCH  10  11
ATOM     11  C   UNL A   1      34.011  22.419  23.444  1.00  0.00     0.122 A 
ATOM     12  C   UNL A   1      35.074  21.825  24.165  1.00  0.00    -0.003 A 
ATOM     13  C   UNL A   1      34.742  20.760  25.041  1.00  0.00     0.008 A 
ATOM     14  C   UNL A   1      33.432  20.311  25.214  1.00  0.00     0.001 A 
ATOM     15  C   UNL A   1      32.706  21.894  23.577  1.00  0.00     0.047 A 
ATOM     16  C   UNL A   1      32.411  20.868  24.465  1.00  0.00     0.004 A 
BRANCH  12  17
ATOM     17  C   UNL A   1      36.543  22.246  24.107  1.00  0.00     0.019 C 
ATOM     18  C   UNL A   1      37.424  21.209  24.802  1.00  0.00     0.013 C 
BRANCH  17  19
ATOM     19  C   UNL A   1      36.833  23.679  24.643  1.00  0.00     0.005 C 
ATOM     20  C   UNL A   1      37.237  23.702  26.116  1.00  0.00     0.004 C 
ENDBRANCH  17  19
ENDBRANCH  12  17
ENDBRANCH  10  11
ENDBRANCH   9  10
ENDBRANCH   6   9
ENDBRANCH   3   6
ENDBRANCH   1   2
BRANCH   1  21
ATOM     21  C   UNL A   1      32.247  29.832  25.247  1.00  0.00     0.042 C 
BRANCH  21  22
ATOM     22  C   UNL A   1      32.347  30.244  26.695  1.00  0.00     0.118 C 
BRANCH  22  23
ATOM     23  N   UNL A   1      32.298  31.697  26.872  1.00  0.00    -0.352 N 
ATOM     24  C   UNL A   1      33.188  32.518  27.523  1.00  0.00     0.251 C 
ATOM     25  H   UNL A   1      31.522  32.147  26.468  1.00  0.00     0.163 HD
ATOM     26  O   UNL A   1      32.919  33.691  27.731  1.00  0.00    -0.269 OA
BRANCH  24  27
ATOM     27  C   UNL A   1      34.462  31.934  27.980  1.00  0.00     0.039 A 
ATOM     28  C   UNL A   1      35.589  32.747  28.098  1.00  0.00     0.014 A 
ATOM     29  C   UNL A   1      34.495  30.598  28.380  1.00  0.00     0.014 A 
ATOM     30  C   UNL A   1      36.737  32.228  28.695  1.00  0.00     0.010 A 
ATOM     31  C   UNL A   1      35.584  30.131  29.094  1.00  0.00     0.010 A 
ATOM     32  C   UNL A   1      36.726  30.930  29.234  1.00  0.00    -0.014 A 
BRANCH  32  33
ATOM     33  C   UNL A   1      37.905  30.354  29.920  1.00  0.00     0.031 A 
ATOM     34  C   UNL A   1      38.205  30.771  31.335  1.00  0.00     0.074 A 
ATOM     35  C   UNL A   1      38.750  29.551  29.244  1.00  0.00     0.049 A 
ATOM     36  N   UNL A   1      39.238  30.479  32.079  1.00  0.00    -0.248 NA
ATOM     37  C   UNL A   1      37.238  31.675  31.987  1.00  0.00     0.031 C 
ATOM     38  C   UNL A   1      38.610  29.154  27.840  1.00  0.00     0.029 A 
ATOM     39  N   UNL A   1      39.911  28.942  29.644  1.00  0.00    -0.354 N 
ATOM     40  C   UNL A   1      39.067  31.197  33.257  1.00  0.00     0.074 A 
ATOM     41  C   UNL A   1      37.866  31.984  33.110  1.00  0.00     0.031 C 
ATOM     42  C   UNL A   1      39.635  28.353  27.504  1.00  0.00     0.029 A 
ATOM     43  C   UNL A   1      40.518  28.203  28.655  1.00  0.00     0.049 A 
ATOM     44  H   UNL A   1      40.277  29.025  30.554  1.00  0.00     0.167 HD
ATOM     45  C   UNL A   1      39.816  31.166  34.383  1.00  0.00     0.034 A 
ATOM     46  C   UNL A   1      41.656  27.483  28.682  1.00  0.00     0.034 A 
ATOM     47  C   UNL A   1      40.963  30.321  34.549  1.00  0.00     0.049 A 
ATOM     48  C   UNL A   1      42.433  27.413  29.971  1.00  0.00     0.074 A 
ATOM     49  C   UNL A   1      41.747  30.142  35.674  1.00  0.00     0.029 A 
ATOM     50  N   UNL A   1      41.483  29.499  33.561  1.00  0.00    -0.354 N 
ATOM     51  N   UNL A   1      42.174  27.982  31.122  1.00  0.00    -0.248 NA
ATOM     52  C   UNL A   1      43.637  26.570  29.974  1.00  0.00     0.031 C 
ATOM     53  C   UNL A   1      42.744  29.212  35.365  1.00  0.00     0.029 A 
ATOM     54  C   UNL A   1      42.572  28.803  34.051  1.00  0.00     0.049 A 
ATOM     55  H   UNL A   1      41.129  29.422  32.646  1.00  0.00     0.167 HD
ATOM     56  C   UNL A   1      43.156  27.535  31.998  1.00  0.00     0.074 A 
ATOM     57  C   UNL A   1      44.003  26.631  31.247  1.00  0.00     0.031 C 
ATOM     58  C   UNL A   1      43.355  27.857  33.301  1.00  0.00     0.034 A 
BRANCH  45  59
ATOM     59  C   UNL A   1      39.361  32.008  35.546  1.00  0.00     0.023 A 
ATOM     60  C   UNL A   1      39.708  33.376  35.584  1.00  0.00     0.012 A 
ATOM     61  C   UNL A   1      38.565  31.468  36.572  1.00  0.00     0.148 A 
ATOM     62  C   UNL A   1      39.300  34.184  36.644  1.00  0.00     0.002 A 
ATOM     63  C   UNL A   1      38.122  32.291  37.601  1.00  0.00     0.091 A 
ATOM     64  F   UNL A   1      38.267  30.162  36.532  1.00  0.00    -0.205 F 
ATOM     65  C   UNL A   1      38.498  33.644  37.645  1.00  0.00     0.022 A 
BRANCH  63  66
ATOM     66  S   UNL A   1      37.022  31.715  38.900  1.00  0.00     0.127 S 
ATOM     67  O   UNL A   1      37.879  31.818  40.080  1.00  0.00    -0.237 OA
ATOM     68  O   UNL A   1      35.941  32.699  38.844  1.00  0.00    -0.237 OA
ATOM     69  O   UNL A   1      36.633  30.363  38.526  1.00  0.00    -0.744 OA
ENDBRANCH  63  66
ENDBRANCH  45  59
BRANCH  46  70
ATOM     70  C   UNL A   1      42.080  26.700  27.487  1.00  0.00     0.023 A 
ATOM     71  C   UNL A   1      42.749  27.360  26.438  1.00  0.00     0.012 A 
ATOM     72  C   UNL A   1      41.846  25.316  27.385  1.00  0.00     0.148 A 
ATOM     73  C   UNL A   1      43.142  26.666  25.292  1.00  0.00     0.002 A 
ATOM     74  C   UNL A   1      42.287  24.619  26.264  1.00  0.00     0.091 A 
ATOM     75  F   UNL A   1      41.198  24.704  28.386  1.00  0.00    -0.205 F 
ATOM     76  C   UNL A   1      42.919  25.295  25.209  1.00  0.00     0.022 A 
BRANCH  74  77
ATOM     77  S   UNL A   1      42.156  22.832  26.135  1.00  0.00     0.127 S 
ATOM     78  O   UNL A   1      40.710  22.633  26.169  1.00  0.00    -0.237 OA
ATOM     79  O   UNL A   1      42.785  22.570  24.839  1.00  0.00    -0.237 OA
ATOM     80  O   UNL A   1      42.900  22.307  27.274  1.00  0.00    -0.744 OA
ENDBRANCH  74  77
ENDBRANCH  46  70
BRANCH  58  81
ATOM     81  C   UNL A   1      44.503  27.195  34.013  1.00  0.00     0.023 A 
ATOM     82  C   UNL A   1      45.784  27.776  33.961  1.00  0.00     0.012 A 
ATOM     83  C   UNL A   1      44.289  26.048  34.802  1.00  0.00     0.148 A 
ATOM     84  C   UNL A   1      46.846  27.208  34.663  1.00  0.00     0.002 A 
ATOM     85  C   UNL A   1      45.342  25.515  35.536  1.00  0.00     0.091 A 
ATOM     86  F   UNL A   1      43.066  25.502  34.822  1.00  0.00    -0.205 F 
ATOM     87  C   UNL A   1      46.622  26.087  35.458  1.00  0.00     0.022 A 
BRANCH  85  88
ATOM     88  S   UNL A   1      45.122  24.134  36.663  1.00  0.00     0.127 S 
ATOM     89  O   UNL A   1      43.963  24.568  37.442  1.00  0.00    -0.237 OA
ATOM     90  O   UNL A   1      44.861  23.023  35.747  1.00  0.00    -0.237 OA
ATOM     91  O   UNL A   1      46.370  24.022  37.406  1.00  0.00    -0.744 OA
ENDBRANCH  85  88
ENDBRANCH  58  81
ENDBRANCH  32  33
ENDBRANCH  24  27
ENDBRANCH  22  23
ENDBRANCH  21  22
ENDBRANCH   1  21
TORSDOF 18
ENDMDL
MODEL 2
REMARK VINA RESULT:     -11.5      5.261     10.475
REMARK SMILES CC[C@@H](C)c1ccccc1OCC(C)(C)C(=O)NCCCNC(=O)c1ccc(-c2c3nc(c(-c4cccc(S(=O)(=O)[O-])c4F)c4ccc([nH]4)c(-c4cccc(S(=O)(=O)[O-])c4F)c4nc(c(-c5cccc(S(=O)(=O)[O-])c5F)c5ccc2[nH]5)C=C4)C=C3)cc1
REMARK SMILES IDX 19 1 18 2 16 3 17 4 13 6 14 7 15 8 12 9 11 10 10 11 5 12
REMARK SMILES IDX 6 13 7 14 9 15 8 16 3 17 4 18 2 19 1 20 20 21 21 22 22 23
REMARK SMILES IDX 23 24 24 26 25 27 26 28 87 29 27 30 86 31 28 32 29 33 30 34
REMARK SMILES IDX 80 35 31 36 85 37 79 38 81 39 32 40 84 41 78 42 77 43 33 45
REMARK SMILES IDX 65 46 45 47 64 48 46 49 49 50 63 51 82 52 47 53 48 54 62 56
REMARK SMILES IDX 83 57 50 58 34 59 35 60 43 61 36 62 38 63 44 64 37 65 39 66
REMARK SMILES IDX 40 67 41 68 42 69 66 70 67 71 75 72 68 73 70 74 76 75 69 76
REMARK SMILES IDX 71 77 72 78 73 79 74 80 51 81 52 82 60 83 53 84 55 85 61 86
REMARK SMILES IDX 54 87 56 88 57 89 58 90 59 91
REMARK H PARENT 18 5 22 25 81 44 49 55
REMARK Flexibility Score: inf
ROOT
ATOM      1  C   UNL A   1      34.805  22.841  24.354  1.00  0.00     0.117 C 
ENDROOT
BRANCH   1   2
ATOM      2  N   UNL A   1      33.755  21.849  24.580  1.00  0.00    -0.355 N 
ATOM      3  C   UNL A   1      32.723  21.853  25.493  1.00  0.00     0.229 C 
ATOM      4  O   UNL A   1      31.863  20.979  25.395  1.00  0.00    -0.274 OA
ATOM      5  H   UNL A   1      33.791  21.059  23.993  1.00  0.00     0.163 HD
BRANCH   3   6
ATOM      6  C   UNL A   1      32.710  22.924  26.595  1.00  0.00     0.077 C 
ATOM      7  C   UNL A   1      33.475  22.314  27.789  1.00  0.00     0.025 C 
ATOM      8  C   UNL A   1      31.200  23.228  26.836  1.00  0.00     0.025 C 
BRANCH   6   9
ATOM      9  C   UNL A   1      33.292  24.306  26.120  1.00  0.00     0.245 C 
BRANCH   9  10
ATOM     10  O   UNL A   1      32.564  25.499  26.379  1.00  0.00    -0.492 OA
BRANCH  10  11
ATOM     11  C   UNL A   1      32.655  26.673  25.687  1.00  0.00     0.122 A 
ATOM     12  C   UNL A   1      31.909  27.194  24.604  1.00  0.00    -0.003 A 
ATOM     13  C   UNL A   1      32.131  28.553  24.263  1.00  0.00     0.008 A 
ATOM     14  C   UNL A   1      33.028  29.365  24.960  1.00  0.00     0.001 A 
ATOM     15  C   UNL A   1      33.613  27.492  26.325  1.00  0.00     0.047 A 
ATOM     16  C   UNL A   1      33.786  28.827  25.985  1.00  0.00     0.004 A 
BRANCH  12  17
ATOM     17  C   UNL A   1      30.865  26.434  23.785  1.00  0.00     0.019 C 
ATOM     18  C   UNL A   1      29.642  26.114  24.643  1.00  0.00     0.013 C 
BRANCH  17  19
ATOM     19  C   UNL A   1      31.400  25.157  23.071  1.00  0.00     0.005 C 
ATOM     20  C   UNL A   1      30.526  23.926  23.302  1.00  0.00     0.004 C 
ENDBRANCH  17  19
ENDBRANCH  12  17
ENDBRANCH  10  11
ENDBRANCH   9  10
ENDBRANCH   6   9
ENDBRANCH   3   6
ENDBRANCH   1   2
BRANCH   1  21
ATOM     21  C   UNL A   1      36.194  22.259  24.298  1.00  0.00     0.042 C 
BRANCH  21  22
ATOM     22  C   UNL A   1      36.877  22.317  25.642  1.00  0.00     0.118 C 
BRANCH  22  23
ATOM     23  N   UNL A   1      37.913  21.292  25.792  1.00  0.00    -0.352 N 
ATOM     24  C   UNL A   1      39.213  21.433  26.216  1.00  0.00     0.251 C 
ATOM     25  H   UNL A   1      37.640  20.377  25.555  1.00  0.00     0.163 HD
ATOM     26  O   UNL A   1      40.005  20.509  26.123  1.00  0.00    -0.269 OA
BRANCH  24  27
ATOM     27  C   UNL A   1      39.624  22.739  26.764  1.00  0.00     0.039 A 
ATOM     28  C   UNL A   1      40.565  22.788  27.792  1.00  0.00     0.014 A 
ATOM     29  C   UNL A   1      39.138  23.908  26.178  1.00  0.00     0.014 A 
ATOM     30  C   UNL A   1      41.076  24.025  28.182  1.00  0.00     0.010 A 
ATOM     31  C   UNL A   1      39.746  25.115  26.471  1.00  0.00     0.010 A 
ATOM     32  C   UNL A   1      40.700  25.192  27.494  1.00  0.00    -0.014 A 
BRANCH  32  33
ATOM     33  C   UNL A   1      41.252  26.521  27.840  1.00  0.00     0.031 A 
ATOM     34  C   UNL A   1      42.678  26.839  27.475  1.00  0.00     0.074 A 
ATOM     35  C   UNL A   1      40.516  27.387  28.564  1.00  0.00     0.049 A 
ATOM     36  N   UNL A   1      43.392  27.889  27.779  1.00  0.00    -0.248 NA
ATOM     37  C   UNL A   1      43.416  25.819  26.707  1.00  0.00     0.031 C 
ATOM     38  C   UNL A   1      39.156  27.149  29.053  1.00  0.00     0.029 A 
ATOM     39  N   UNL A   1      40.821  28.638  29.035  1.00  0.00    -0.354 N 
ATOM     40  C   UNL A   1      44.664  27.635  27.283  1.00  0.00     0.074 A 
ATOM     41  C   UNL A   1      44.645  26.309  26.711  1.00  0.00     0.031 C 
ATOM     42  C   UNL A   1      38.738  28.227  29.738  1.00  0.00     0.029 A 
ATOM     43  C   UNL A   1      39.808  29.219  29.761  1.00  0.00     0.049 A 
ATOM     44  H   UNL A   1      41.684  29.081  28.868  1.00  0.00     0.167 HD
ATOM     45  C   UNL A   1      45.743  28.452  27.258  1.00  0.00     0.034 A 
ATOM     46  C   UNL A   1      39.752  30.418  30.372  1.00  0.00     0.034 A 
ATOM     47  C   UNL A   1      45.730  29.796  27.758  1.00  0.00     0.049 A 
ATOM     48  C   UNL A   1      40.943  31.333  30.269  1.00  0.00     0.074 A 
ATOM     49  C   UNL A   1      46.735  30.744  27.708  1.00  0.00     0.029 A 
ATOM     50  N   UNL A   1      44.647  30.390  28.387  1.00  0.00    -0.354 N 
ATOM     51  N   UNL A   1      42.090  31.132  29.665  1.00  0.00    -0.248 NA
ATOM     52  C   UNL A   1      40.820  32.656  30.899  1.00  0.00     0.031 C 
ATOM     53  C   UNL A   1      46.260  31.912  28.311  1.00  0.00     0.029 A 
ATOM     54  C   UNL A   1      44.954  31.695  28.724  1.00  0.00     0.049 A 
ATOM     55  H   UNL A   1      43.786  29.948  28.567  1.00  0.00     0.167 HD
ATOM     56  C   UNL A   1      42.807  32.314  29.806  1.00  0.00     0.074 A 
ATOM     57  C   UNL A   1      41.957  33.233  30.534  1.00  0.00     0.031 C 
ATOM     58  C   UNL A   1      44.063  32.609  29.388  1.00  0.00     0.034 A 
BRANCH  45  59
ATOM     59  C   UNL A   1      46.992  27.937  26.594  1.00  0.00     0.023 A 
ATOM     60  C   UNL A   1      47.991  27.326  27.382  1.00  0.00     0.012 A 
ATOM     61  C   UNL A   1      47.164  28.015  25.200  1.00  0.00     0.148 A 
ATOM     62  C   UNL A   1      49.158  26.836  26.799  1.00  0.00     0.002 A 
ATOM     63  C   UNL A   1      48.309  27.482  24.619  1.00  0.00     0.091 A 
ATOM     64  F   UNL A   1      46.217  28.620  24.471  1.00  0.00    -0.205 F 
ATOM     65  C   UNL A   1      49.311  26.903  25.417  1.00  0.00     0.022 A 
BRANCH  63  66
ATOM     66  S   UNL A   1      48.572  27.447  22.843  1.00  0.00     0.127 S 
ATOM     67  O   UNL A   1      48.537  26.012  22.566  1.00  0.00    -0.237 OA
ATOM     68  O   UNL A   1      47.414  28.192  22.347  1.00  0.00    -0.237 OA
ATOM     69  O   UNL A   1      49.855  28.096  22.614  1.00  0.00    -0.744 OA
ENDBRANCH  63  66
ENDBRANCH  45  59
BRANCH  46  70
ATOM     70  C   UNL A   1      38.500  30.861  31.050  1.00  0.00     0.023 A 
ATOM     71  C   UNL A   1      38.352  30.627  32.431  1.00  0.00     0.012 A 
ATOM     72  C   UNL A   1      37.471  31.520  30.352  1.00  0.00     0.148 A 
ATOM     73  C   UNL A   1      37.185  31.007  33.098  1.00  0.00     0.002 A 
ATOM     74  C   UNL A   1      36.334  31.943  31.033  1.00  0.00     0.091 A 
ATOM     75  F   UNL A   1      37.622  31.724  29.036  1.00  0.00    -0.205 F 
ATOM     76  C   UNL A   1      36.181  31.671  32.402  1.00  0.00     0.022 A 
BRANCH  74  77
ATOM     77  S   UNL A   1      35.052  32.919  30.239  1.00  0.00     0.127 S 
ATOM     78  O   UNL A   1      34.505  31.970  29.273  1.00  0.00    -0.237 OA
ATOM     79  O   UNL A   1      34.167  33.236  31.362  1.00  0.00    -0.237 OA
ATOM     80  O   UNL A   1      35.738  34.076  29.680  1.00  0.00    -0.744 OA
ENDBRANCH  74  77
ENDBRANCH  46  70
BRANCH  58  81
ATOM     81  C   UNL A   1      44.581  33.994  29.666  1.00  0.00     0.023 A 
ATOM     82  C   UNL A   1      45.245  34.260  30.878  1.00  0.00     0.012 A 
ATOM     83  C   UNL A   1      44.483  35.004  28.688  1.00  0.00     0.148 A 
ATOM     84  C   UNL A   1      45.782  35.523  31.127  1.00  0.00     0.002 A 
ATOM     85  C   UNL A   1      45.061  36.245  28.924  1.00  0.00     0.091 A 
ATOM     86  F   UNL A   1      43.830  34.733  27.550  1.00  0.00    -0.205 F 
ATOM     87  C   UNL A   1      45.700  36.509  30.146  1.00  0.00     0.022 A 
BRANCH  85  88
ATOM     88  S   UNL A   1      45.091  37.540  27.681  1.00  0.00     0.127 S 
ATOM     89  O   UNL A   1      45.798  36.882  26.583  1.00  0.00    -0.237 OA
ATOM     90  O   UNL A   1      43.666  37.772  27.438  1.00  0.00    -0.237 OA
ATOM     91  O   UNL A   1      45.788  38.664  28.292  1.00  0.00    -0.744 OA
ENDBRANCH  85  88
ENDBRANCH  58  81
ENDBRANCH  32  33
ENDBRANCH  24  27
ENDBRANCH  22  23
ENDBRANCH  21  22
ENDBRANCH   1  21
TORSDOF 18
ENDMDL
MODEL 3
REMARK VINA RESULT:     -11.4      1.517      2.212
REMARK SMILES CC[C@@H](C)c1ccccc1OCC(C)(C)C(=O)NCCCNC(=O)c1ccc(-c2c3nc(c(-c4cccc(S(=O)(=O)[O-])c4F)c4ccc([nH]4)c(-c4cccc(S(=O)(=O)[O-])c4F)c4nc(c(-c5cccc(S(=O)(=O)[O-])c5F)c5ccc2[nH]5)C=C4)C=C3)cc1
REMARK SMILES IDX 19 1 18 2 16 3 17 4 13 6 14 7 15 8 12 9 11 10 10 11 5 12
REMARK SMILES IDX 6 13 7 14 9 15 8 16 3 17 4 18 2 19 1 20 20 21 21 22 22 23
REMARK SMILES IDX 23 24 24 26 25 27 26 28 87 29 27 30 86 31 28 32 29 33 30 34
REMARK SMILES IDX 80 35 31 36 85 37 79 38 81 39 32 40 84 41 78 42 77 43 33 45
REMARK SMILES IDX 65 46 45 47 64 48 46 49 49 50 63 51 82 52 47 53 48 54 62 56
REMARK SMILES IDX 83 57 50 58 34 59 35 60 43 61 36 62 38 63 44 64 37 65 39 66
REMARK SMILES IDX 40 67 41 68 42 69 66 70 67 71 75 72 68 73 70 74 76 75 69 76
REMARK SMILES IDX 71 77 72 78 73 79 74 80 51 81 52 82 60 83 53 84 55 85 61 86
REMARK SMILES IDX 54 87 56 88 57 89 58 90 59 91
REMARK H PARENT 18 5 22 25 81 44 49 55
REMARK Flexibility Score: inf
ROOT
ATOM      1  C   UNL A   1      31.622  27.575  25.503  1.00  0.00     0.117 C 
ENDROOT
BRANCH   1   2
ATOM      2  N   UNL A   1      30.991  27.922  24.230  1.00  0.00    -0.355 N 
ATOM      3  C   UNL A   1      31.216  27.413  22.970  1.00  0.00     0.229 C 
ATOM      4  O   UNL A   1      30.452  27.749  22.067  1.00  0.00    -0.274 OA
ATOM      5  H   UNL A   1      30.303  28.624  24.281  1.00  0.00     0.163 HD
BRANCH   3   6
ATOM      6  C   UNL A   1      32.417  26.480  22.749  1.00  0.00     0.077 C 
ATOM      7  C   UNL A   1      33.675  27.365  22.887  1.00  0.00     0.025 C 
ATOM      8  C   UNL A   1      32.178  25.851  21.342  1.00  0.00     0.025 C 
BRANCH   6   9
ATOM      9  C   UNL A   1      32.418  25.237  23.712  1.00  0.00     0.245 C 
BRANCH   9  10
ATOM     10  O   UNL A   1      33.269  24.133  23.432  1.00  0.00    -0.492 OA
BRANCH  10  11
ATOM     11  C   UNL A   1      34.038  23.451  24.331  1.00  0.00     0.122 A 
ATOM     12  C   UNL A   1      33.922  22.153  24.883  1.00  0.00    -0.003 A 
ATOM     13  C   UNL A   1      35.025  21.671  25.633  1.00  0.00     0.008 A 
ATOM     14  C   UNL A   1      36.190  22.418  25.819  1.00  0.00     0.001 A 
ATOM     15  C   UNL A   1      35.194  24.216  24.599  1.00  0.00     0.047 A 
ATOM     16  C   UNL A   1      36.268  23.704  25.314  1.00  0.00     0.004 A 
BRANCH  12  17
ATOM     17  C   UNL A   1      32.728  21.212  24.722  1.00  0.00     0.019 C 
ATOM     18  C   UNL A   1      32.994  19.882  25.427  1.00  0.00     0.013 C 
BRANCH  17  19
ATOM     19  C   UNL A   1      32.271  20.985  23.250  1.00  0.00     0.005 C 
ATOM     20  C   UNL A   1      32.284  19.514  22.834  1.00  0.00     0.004 C 
ENDBRANCH  17  19
ENDBRANCH  12  17
ENDBRANCH  10  11
ENDBRANCH   9  10
ENDBRANCH   6   9
ENDBRANCH   3   6
ENDBRANCH   1   2
BRANCH   1  21
ATOM     21  C   UNL A   1      31.786  28.743  26.441  1.00  0.00     0.042 C 
BRANCH  21  22
ATOM     22  C   UNL A   1      32.868  29.686  25.974  1.00  0.00     0.118 C 
BRANCH  22  23
ATOM     23  N   UNL A   1      32.605  31.076  26.354  1.00  0.00    -0.352 N 
ATOM     24  C   UNL A   1      33.310  31.884  27.214  1.00  0.00     0.251 C 
ATOM     25  H   UNL A   1      31.815  31.487  25.936  1.00  0.00     0.163 HD
ATOM     26  O   UNL A   1      32.866  32.967  27.560  1.00  0.00    -0.269 OA
BRANCH  24  27
ATOM     27  C   UNL A   1      34.605  31.393  27.721  1.00  0.00     0.039 A 
ATOM     28  C   UNL A   1      35.647  32.294  27.934  1.00  0.00     0.014 A 
ATOM     29  C   UNL A   1      34.734  30.048  28.071  1.00  0.00     0.014 A 
ATOM     30  C   UNL A   1      36.803  31.851  28.576  1.00  0.00     0.010 A 
ATOM     31  C   UNL A   1      35.820  29.647  28.827  1.00  0.00     0.010 A 
ATOM     32  C   UNL A   1      36.878  30.535  29.063  1.00  0.00    -0.014 A 
BRANCH  32  33
ATOM     33  C   UNL A   1      38.065  30.033  29.792  1.00  0.00     0.031 A 
ATOM     34  C   UNL A   1      38.330  30.530  31.189  1.00  0.00     0.074 A 
ATOM     35  C   UNL A   1      38.946  29.226  29.170  1.00  0.00     0.049 A 
ATOM     36  N   UNL A   1      39.360  30.311  31.960  1.00  0.00    -0.248 NA
ATOM     37  C   UNL A   1      37.324  31.433  31.781  1.00  0.00     0.031 C 
ATOM     38  C   UNL A   1      38.840  28.755  27.786  1.00  0.00     0.029 A 
ATOM     39  N   UNL A   1      40.120  28.677  29.615  1.00  0.00    -0.354 N 
ATOM     40  C   UNL A   1      39.149  31.080  33.098  1.00  0.00     0.074 A 
ATOM     41  C   UNL A   1      37.925  31.818  32.895  1.00  0.00     0.031 C 
ATOM     42  C   UNL A   1      39.896  27.973  27.504  1.00  0.00     0.029 A 
ATOM     43  C   UNL A   1      40.766  27.910  28.673  1.00  0.00     0.049 A 
ATOM     44  H   UNL A   1      40.470  28.817  30.525  1.00  0.00     0.167 HD
ATOM     45  C   UNL A   1      39.882  31.130  34.234  1.00  0.00     0.034 A 
ATOM     46  C   UNL A   1      41.926  27.231  28.751  1.00  0.00     0.034 A 
ATOM     47  C   UNL A   1      41.053  30.334  34.458  1.00  0.00     0.049 A 
ATOM     48  C   UNL A   1      42.685  27.251  30.052  1.00  0.00     0.074 A 
ATOM     49  C   UNL A   1      41.825  30.238  35.601  1.00  0.00     0.029 A 
ATOM     50  N   UNL A   1      41.614  29.481  33.520  1.00  0.00    -0.354 N 
ATOM     51  N   UNL A   1      42.391  27.869  31.170  1.00  0.00    -0.248 NA
ATOM     52  C   UNL A   1      43.916  26.450  30.114  1.00  0.00     0.031 C 
ATOM     53  C   UNL A   1      42.857  29.328  35.352  1.00  0.00     0.029 A 
ATOM     54  C   UNL A   1      42.718  28.847  34.059  1.00  0.00     0.049 A 
ATOM     55  H   UNL A   1      41.276  29.347  32.605  1.00  0.00     0.167 HD
ATOM     56  C   UNL A   1      43.374  27.499  32.080  1.00  0.00     0.074 A 
ATOM     57  C   UNL A   1      44.261  26.587  31.387  1.00  0.00     0.031 C 
ATOM     58  C   UNL A   1      43.542  27.891  33.367  1.00  0.00     0.034 A 
BRANCH  45  59
ATOM     59  C   UNL A   1      39.382  32.014  35.347  1.00  0.00     0.023 A 
ATOM     60  C   UNL A   1      38.429  31.507  36.256  1.00  0.00     0.012 A 
ATOM     61  C   UNL A   1      39.878  33.320  35.521  1.00  0.00     0.148 A 
ATOM     62  C   UNL A   1      37.948  32.297  37.298  1.00  0.00     0.002 A 
ATOM     63  C   UNL A   1      39.429  34.085  36.591  1.00  0.00     0.091 A 
ATOM     64  F   UNL A   1      40.763  33.792  34.635  1.00  0.00    -0.205 F 
ATOM     65  C   UNL A   1      38.457  33.581  37.473  1.00  0.00     0.022 A 
BRANCH  63  66
ATOM     66  S   UNL A   1      40.075  35.722  36.952  1.00  0.00     0.127 S 
ATOM     67  O   UNL A   1      39.633  36.479  35.782  1.00  0.00    -0.237 OA
ATOM     68  O   UNL A   1      39.378  36.059  38.194  1.00  0.00    -0.237 OA
ATOM     69  O   UNL A   1      41.516  35.564  37.087  1.00  0.00    -0.744 OA
ENDBRANCH  63  66
ENDBRANCH  45  59
BRANCH  46  70
ATOM     70  C   UNL A   1      42.394  26.403  27.602  1.00  0.00     0.023 A 
ATOM     71  C   UNL A   1      43.249  26.983  26.645  1.00  0.00     0.012 A 
ATOM     72  C   UNL A   1      42.018  25.055  27.458  1.00  0.00     0.148 A 
ATOM     73  C   UNL A   1      43.689  26.248  25.544  1.00  0.00     0.002 A 
ATOM     74  C   UNL A   1      42.503  24.312  26.387  1.00  0.00     0.091 A 
ATOM     75  F   UNL A   1      41.194  24.521  28.371  1.00  0.00    -0.205 F 
ATOM     76  C   UNL A   1      43.325  24.911  25.418  1.00  0.00     0.022 A 
BRANCH  74  77
ATOM     77  S   UNL A   1      42.187  22.551  26.222  1.00  0.00     0.127 S 
ATOM     78  O   UNL A   1      40.729  22.511  26.171  1.00  0.00    -0.237 OA
ATOM     79  O   UNL A   1      42.858  22.235  24.960  1.00  0.00    -0.237 OA
ATOM     80  O   UNL A   1      42.802  21.937  27.392  1.00  0.00    -0.744 OA
ENDBRANCH  74  77
ENDBRANCH  46  70
BRANCH  58  81
ATOM     81  C   UNL A   1      44.700  27.305  34.127  1.00  0.00     0.023 A 
ATOM     82  C   UNL A   1      45.956  27.941  34.084  1.00  0.00     0.012 A 
ATOM     83  C   UNL A   1      44.519  26.176  34.950  1.00  0.00     0.148 A 
ATOM     84  C   UNL A   1      47.025  27.443  34.829  1.00  0.00     0.002 A 
ATOM     85  C   UNL A   1      45.575  25.715  35.725  1.00  0.00     0.091 A 
ATOM     86  F   UNL A   1      43.320  25.577  34.960  1.00  0.00    -0.205 F 
ATOM     87  C   UNL A   1      46.831  26.340  35.657  1.00  0.00     0.022 A 
BRANCH  85  88
ATOM     88  S   UNL A   1      45.389  24.363  36.892  1.00  0.00     0.127 S 
ATOM     89  O   UNL A   1      45.047  23.251  36.007  1.00  0.00    -0.237 OA
ATOM     90  O   UNL A   1      46.723  24.282  37.490  1.00  0.00    -0.237 OA
ATOM     91  O   UNL A   1      44.340  24.775  37.816  1.00  0.00    -0.744 OA
ENDBRANCH  85  88
ENDBRANCH  58  81
ENDBRANCH  32  33
ENDBRANCH  24  27
ENDBRANCH  22  23
ENDBRANCH  21  22
ENDBRANCH   1  21
TORSDOF 18
ENDMDL
