MODEL 1
REMARK VINA RESULT:     -12.1      0.000      0.000
REMARK SMILES C[C@@](NC(=O)[C@H]1COc2ccccc21)(C(=O)NCCCNC(=O)c1ccc(-c2c3nc(c(-c4cccc(S(=O)(=O)[O-])c4F)c4ccc([nH]4)c(-c4cccc(S(=O)(=O)[O-])c4F)c4nc(c(-c5cccc(S(=O)(=O)[O-])c5F)c5ccc2[nH]5)C=C4)C=C3)cc1)C(F)(F)F
REMARK SMILES IDX 19 1 18 2 17 3 15 4 16 5 2 7 1 8 3 9 4 10 5 12 6 13 7 14
REMARK SMILES IDX 14 15 8 16 9 17 13 18 10 19 12 20 11 21 87 22 88 23 89 24
REMARK SMILES IDX 90 25 20 26 21 27 22 28 23 30 24 31 25 32 86 33 26 34 85 35
REMARK SMILES IDX 27 36 28 37 29 38 79 39 30 40 84 41 78 42 80 43 31 44 83 45
REMARK SMILES IDX 77 46 76 47 32 49 64 50 44 51 63 52 45 53 48 54 62 55 81 56
REMARK SMILES IDX 46 57 47 58 61 60 82 61 49 62 33 63 34 64 42 65 35 66 37 67
REMARK SMILES IDX 43 68 36 69 38 70 39 71 40 72 41 73 65 74 66 75 74 76 67 77
REMARK SMILES IDX 69 78 75 79 68 80 70 81 71 82 72 83 73 84 50 85 51 86 59 87
REMARK SMILES IDX 52 88 54 89 60 90 53 91 55 92 56 93 57 94 58 95
REMARK H PARENT 17 6 3 11 21 29 80 48 48 59
REMARK Flexibility Score: inf
ROOT
ATOM      1  C   UNL A   1      33.638  29.117  23.723  1.00  0.00     0.042 C 
ENDROOT
BRANCH   1   2
ATOM      2  C   UNL A   1      33.218  27.932  22.874  1.00  0.00     0.117 C 
BRANCH   2   3
ATOM      3  N   UNL A   1      31.789  27.784  22.688  1.00  0.00    -0.354 N 
ATOM      4  C   UNL A   1      30.963  26.802  23.155  1.00  0.00     0.254 C 
ATOM      5  O   UNL A   1      29.755  27.041  23.106  1.00  0.00    -0.272 OA
ATOM      6  H   UNL A   1      31.355  28.486  22.152  1.00  0.00     0.163 HD
BRANCH   4   7
ATOM      7  C   UNL A   1      31.518  25.461  23.656  1.00  0.00     0.212 C 
ATOM      8  C   UNL A   1      30.401  24.399  23.490  1.00  0.00     0.056 C 
BRANCH   7   9
ATOM      9  N   UNL A   1      32.745  24.962  22.932  1.00  0.00    -0.334 N 
ATOM     10  C   UNL A   1      33.267  23.695  22.861  1.00  0.00     0.232 C 
ATOM     11  H   UNL A   1      33.246  25.649  22.437  1.00  0.00     0.164 HD
ATOM     12  O   UNL A   1      33.654  23.328  21.749  1.00  0.00    -0.274 OA
BRANCH  10  13
ATOM     13  C   UNL A   1      33.496  22.860  24.110  1.00  0.00     0.150 C 
ATOM     14  C   UNL A   1      32.788  21.501  24.057  1.00  0.00     0.248 C 
ATOM     15  C   UNL A   1      34.907  22.372  24.271  1.00  0.00     0.010 A 
ATOM     16  O   UNL A   1      33.637  20.479  24.638  1.00  0.00    -0.492 OA
ATOM     17  C   UNL A   1      34.887  21.035  24.634  1.00  0.00     0.123 A 
ATOM     18  C   UNL A   1      36.117  23.052  24.214  1.00  0.00     0.008 A 
ATOM     19  C   UNL A   1      36.033  20.352  25.001  1.00  0.00     0.047 A 
ATOM     20  C   UNL A   1      37.283  22.389  24.603  1.00  0.00     0.001 A 
ATOM     21  C   UNL A   1      37.242  21.049  25.005  1.00  0.00     0.004 A 
ENDBRANCH  10  13
ENDBRANCH   7   9
BRANCH   7  22
ATOM     22  C   UNL A   1      31.749  25.602  25.180  1.00  0.00     0.420 C 
ATOM     23  F   UNL A   1      33.049  25.786  25.505  1.00  0.00    -0.168 F 
ATOM     24  F   UNL A   1      31.087  26.699  25.644  1.00  0.00    -0.168 F 
ATOM     25  F   UNL A   1      31.273  24.547  25.876  1.00  0.00    -0.168 F 
ENDBRANCH   7  22
ENDBRANCH   4   7
ENDBRANCH   2   3
ENDBRANCH   1   2
BRANCH   1  26
ATOM     26  C   UNL A   1      33.359  28.992  25.214  1.00  0.00     0.118 C 
BRANCH  26  27
ATOM     27  N   UNL A   1      32.676  30.134  25.808  1.00  0.00    -0.352 N 
ATOM     28  C   UNL A   1      33.092  30.962  26.827  1.00  0.00     0.251 C 
ATOM     29  H   UNL A   1      31.793  30.344  25.426  1.00  0.00     0.163 HD
ATOM     30  O   UNL A   1      32.365  31.855  27.258  1.00  0.00    -0.269 OA
BRANCH  28  31
ATOM     31  C   UNL A   1      34.414  30.755  27.440  1.00  0.00     0.039 A 
ATOM     32  C   UNL A   1      35.260  31.851  27.627  1.00  0.00     0.014 A 
ATOM     33  C   UNL A   1      34.799  29.481  27.856  1.00  0.00     0.014 A 
ATOM     34  C   UNL A   1      36.466  31.677  28.306  1.00  0.00     0.010 A 
ATOM     35  C   UNL A   1      35.930  29.336  28.640  1.00  0.00     0.010 A 
ATOM     36  C   UNL A   1      36.789  30.425  28.851  1.00  0.00    -0.014 A 
BRANCH  36  37
ATOM     37  C   UNL A   1      38.039  30.188  29.609  1.00  0.00     0.031 A 
ATOM     38  C   UNL A   1      39.052  29.223  29.052  1.00  0.00     0.074 A 
ATOM     39  C   UNL A   1      38.194  30.725  30.835  1.00  0.00     0.049 A 
ATOM     40  N   UNL A   1      40.115  28.722  29.619  1.00  0.00    -0.248 NA
ATOM     41  C   UNL A   1      38.803  28.712  27.691  1.00  0.00     0.031 C 
ATOM     42  C   UNL A   1      37.239  31.615  31.499  1.00  0.00     0.029 A 
ATOM     43  N   UNL A   1      39.194  30.562  31.759  1.00  0.00    -0.354 N 
ATOM     44  C   UNL A   1      40.625  27.799  28.713  1.00  0.00     0.074 A 
ATOM     45  C   UNL A   1      39.733  27.777  27.578  1.00  0.00     0.031 C 
ATOM     46  C   UNL A   1      37.698  31.917  32.724  1.00  0.00     0.029 A 
ATOM     47  C   UNL A   1      38.953  31.210  32.949  1.00  0.00     0.049 A 
ATOM     48  H   UNL A   1      40.007  30.035  31.588  1.00  0.00     0.167 HD
ATOM     49  C   UNL A   1      41.751  27.055  28.809  1.00  0.00     0.034 A 
ATOM     50  C   UNL A   1      39.657  31.212  34.098  1.00  0.00     0.034 A 
ATOM     51  C   UNL A   1      42.655  27.134  29.921  1.00  0.00     0.049 A 
ATOM     52  C   UNL A   1      40.935  30.421  34.158  1.00  0.00     0.074 A 
ATOM     53  C   UNL A   1      43.876  26.505  30.086  1.00  0.00     0.029 A 
ATOM     54  N   UNL A   1      42.435  27.890  31.063  1.00  0.00    -0.354 N 
ATOM     55  N   UNL A   1      41.474  29.656  33.239  1.00  0.00    -0.248 NA
ATOM     56  C   UNL A   1      41.722  30.520  35.394  1.00  0.00     0.031 C 
ATOM     57  C   UNL A   1      44.378  26.858  31.342  1.00  0.00     0.029 A 
ATOM     58  C   UNL A   1      43.491  27.739  31.941  1.00  0.00     0.049 A 
ATOM     59  H   UNL A   1      41.642  28.451  31.225  1.00  0.00     0.167 HD
ATOM     60  C   UNL A   1      42.682  29.216  33.768  1.00  0.00     0.074 A 
ATOM     61  C   UNL A   1      42.799  29.813  35.083  1.00  0.00     0.031 C 
ATOM     62  C   UNL A   1      43.606  28.387  33.223  1.00  0.00     0.034 A 
BRANCH  49  63
ATOM     63  C   UNL A   1      42.086  26.132  27.665  1.00  0.00     0.023 A 
ATOM     64  C   UNL A   1      42.852  26.607  26.579  1.00  0.00     0.012 A 
ATOM     65  C   UNL A   1      41.680  24.784  27.683  1.00  0.00     0.148 A 
ATOM     66  C   UNL A   1      43.169  25.768  25.512  1.00  0.00     0.002 A 
ATOM     67  C   UNL A   1      42.045  23.940  26.641  1.00  0.00     0.091 A 
ATOM     68  F   UNL A   1      40.933  24.355  28.711  1.00  0.00    -0.205 F 
ATOM     69  C   UNL A   1      42.776  24.434  25.548  1.00  0.00     0.022 A 
BRANCH  67  70
ATOM     70  S   UNL A   1      41.662  22.186  26.632  1.00  0.00     0.127 S 
ATOM     71  O   UNL A   1      40.201  22.203  26.627  1.00  0.00    -0.237 OA
ATOM     72  O   UNL A   1      42.272  21.747  25.376  1.00  0.00    -0.237 OA
ATOM     73  O   UNL A   1      42.275  21.633  27.831  1.00  0.00    -0.744 OA
ENDBRANCH  67  70
ENDBRANCH  49  63
BRANCH  50  74
ATOM     74  C   UNL A   1      39.198  32.034  35.254  1.00  0.00     0.023 A 
ATOM     75  C   UNL A   1      38.279  31.486  36.170  1.00  0.00     0.012 A 
ATOM     76  C   UNL A   1      39.694  33.333  35.475  1.00  0.00     0.148 A 
ATOM     77  C   UNL A   1      37.835  32.229  37.266  1.00  0.00     0.002 A 
ATOM     78  C   UNL A   1      39.292  34.047  36.599  1.00  0.00     0.091 A 
ATOM     79  F   UNL A   1      40.563  33.840  34.590  1.00  0.00    -0.205 F 
ATOM     80  C   UNL A   1      38.349  33.504  37.485  1.00  0.00     0.022 A 
BRANCH  78  81
ATOM     81  S   UNL A   1      40.004  35.637  37.037  1.00  0.00     0.127 S 
ATOM     82  O   UNL A   1      39.652  36.452  35.877  1.00  0.00    -0.237 OA
ATOM     83  O   UNL A   1      39.279  35.965  38.265  1.00  0.00    -0.237 OA
ATOM     84  O   UNL A   1      41.427  35.392  37.229  1.00  0.00    -0.744 OA
ENDBRANCH  78  81
ENDBRANCH  50  74
BRANCH  62  85
ATOM     85  C   UNL A   1      44.855  28.119  34.016  1.00  0.00     0.023 A 
ATOM     86  C   UNL A   1      45.957  28.991  33.919  1.00  0.00     0.012 A 
ATOM     87  C   UNL A   1      44.897  27.045  34.926  1.00  0.00     0.148 A 
ATOM     88  C   UNL A   1      47.095  28.780  34.695  1.00  0.00     0.002 A 
ATOM     89  C   UNL A   1      46.012  26.873  35.736  1.00  0.00     0.091 A 
ATOM     90  F   UNL A   1      43.843  26.218  34.989  1.00  0.00    -0.205 F 
ATOM     91  C   UNL A   1      47.116  27.731  35.612  1.00  0.00     0.022 A 
BRANCH  89  92
ATOM     92  S   UNL A   1      46.087  25.616  37.016  1.00  0.00     0.127 S 
ATOM     93  O   UNL A   1      45.049  26.070  37.940  1.00  0.00    -0.237 OA
ATOM     94  O   UNL A   1      45.755  24.401  36.274  1.00  0.00    -0.237 OA
ATOM     95  O   UNL A   1      47.446  25.655  37.540  1.00  0.00    -0.744 OA
ENDBRANCH  89  92
ENDBRANCH  62  85
ENDBRANCH  36  37
ENDBRANCH  28  31
ENDBRANCH  26  27
ENDBRANCH   1  26
TORSDOF 16
ENDMDL
MODEL 2
REMARK VINA RESULT:     -11.9      0.871      7.803
REMARK SMILES C[C@@](NC(=O)[C@H]1COc2ccccc21)(C(=O)NCCCNC(=O)c1ccc(-c2c3nc(c(-c4cccc(S(=O)(=O)[O-])c4F)c4ccc([nH]4)c(-c4cccc(S(=O)(=O)[O-])c4F)c4nc(c(-c5cccc(S(=O)(=O)[O-])c5F)c5ccc2[nH]5)C=C4)C=C3)cc1)C(F)(F)F
REMARK SMILES IDX 19 1 18 2 17 3 15 4 16 5 2 7 1 8 3 9 4 10 5 12 6 13 7 14
REMARK SMILES IDX 14 15 8 16 9 17 13 18 10 19 12 20 11 21 87 22 88 23 89 24
REMARK SMILES IDX 90 25 20 26 21 27 22 28 23 30 24 31 25 32 86 33 26 34 85 35
REMARK SMILES IDX 27 36 28 37 29 38 79 39 30 40 84 41 78 42 80 43 31 44 83 45
REMARK SMILES IDX 77 46 76 47 32 49 64 50 44 51 63 52 45 53 48 54 62 55 81 56
REMARK SMILES IDX 46 57 47 58 61 60 82 61 49 62 33 63 34 64 42 65 35 66 37 67
REMARK SMILES IDX 43 68 36 69 38 70 39 71 40 72 41 73 65 74 66 75 74 76 67 77
REMARK SMILES IDX 69 78 75 79 68 80 70 81 71 82 72 83 73 84 50 85 51 86 59 87
REMARK SMILES IDX 52 88 54 89 60 90 53 91 55 92 56 93 57 94 58 95
REMARK H PARENT 17 6 3 11 21 29 80 48 48 59
REMARK Flexibility Score: inf
ROOT
ATOM      1  C   UNL A   1      31.565  29.178  25.539  1.00  0.00     0.042 C 
ENDROOT
BRANCH   1   2
ATOM      2  C   UNL A   1      31.725  28.350  24.277  1.00  0.00     0.117 C 
BRANCH   2   3
ATOM      3  N   UNL A   1      30.492  27.824  23.726  1.00  0.00    -0.354 N 
ATOM      4  C   UNL A   1      30.001  26.552  23.792  1.00  0.00     0.254 C 
ATOM      5  O   UNL A   1      28.812  26.414  23.496  1.00  0.00    -0.272 OA
ATOM      6  H   UNL A   1      29.934  28.471  23.238  1.00  0.00     0.163 HD
BRANCH   4   7
ATOM      7  C   UNL A   1      30.902  25.364  24.159  1.00  0.00     0.212 C 
ATOM      8  C   UNL A   1      30.273  24.089  23.543  1.00  0.00     0.056 C 
BRANCH   7   9
ATOM      9  N   UNL A   1      32.327  25.462  23.669  1.00  0.00    -0.334 N 
ATOM     10  C   UNL A   1      33.234  24.467  23.405  1.00  0.00     0.232 C 
ATOM     11  H   UNL A   1      32.654  26.378  23.517  1.00  0.00     0.164 HD
ATOM     12  O   UNL A   1      33.898  24.596  22.373  1.00  0.00    -0.274 OA
BRANCH  10  13
ATOM     13  C   UNL A   1      33.510  23.359  24.408  1.00  0.00     0.150 C 
ATOM     14  C   UNL A   1      33.140  21.969  23.876  1.00  0.00     0.248 C 
ATOM     15  C   UNL A   1      34.969  23.118  24.669  1.00  0.00     0.010 A 
ATOM     16  O   UNL A   1      34.131  20.998  24.300  1.00  0.00    -0.492 OA
ATOM     17  C   UNL A   1      35.214  21.755  24.655  1.00  0.00     0.123 A 
ATOM     18  C   UNL A   1      35.991  23.998  25.000  1.00  0.00     0.008 A 
ATOM     19  C   UNL A   1      36.439  21.221  25.015  1.00  0.00     0.047 A 
ATOM     20  C   UNL A   1      37.228  23.480  25.391  1.00  0.00     0.001 A 
ATOM     21  C   UNL A   1      37.449  22.099  25.409  1.00  0.00     0.004 A 
ENDBRANCH  10  13
ENDBRANCH   7   9
BRANCH   7  22
ATOM     22  C   UNL A   1      30.818  25.183  25.694  1.00  0.00     0.420 C 
ATOM     23  F   UNL A   1      29.788  25.859  26.252  1.00  0.00    -0.168 F 
ATOM     24  F   UNL A   1      30.609  23.870  25.989  1.00  0.00    -0.168 F 
ATOM     25  F   UNL A   1      31.961  25.538  26.320  1.00  0.00    -0.168 F 
ENDBRANCH   7  22
ENDBRANCH   4   7
ENDBRANCH   2   3
ENDBRANCH   1   2
BRANCH   1  26
ATOM     26  C   UNL A   1      32.818  29.900  26.015  1.00  0.00     0.118 C 
BRANCH  26  27
ATOM     27  N   UNL A   1      32.605  31.276  26.445  1.00  0.00    -0.352 N 
ATOM     28  C   UNL A   1      33.352  32.041  27.314  1.00  0.00     0.251 C 
ATOM     29  H   UNL A   1      31.817  31.723  26.060  1.00  0.00     0.163 HD
ATOM     30  O   UNL A   1      33.003  33.178  27.623  1.00  0.00    -0.269 OA
BRANCH  28  31
ATOM     31  C   UNL A   1      34.572  31.476  27.915  1.00  0.00     0.039 A 
ATOM     32  C   UNL A   1      35.677  32.305  28.124  1.00  0.00     0.014 A 
ATOM     33  C   UNL A   1      34.605  30.137  28.300  1.00  0.00     0.014 A 
ATOM     34  C   UNL A   1      36.793  31.802  28.793  1.00  0.00     0.010 A 
ATOM     35  C   UNL A   1      35.656  29.680  29.076  1.00  0.00     0.010 A 
ATOM     36  C   UNL A   1      36.773  30.498  29.307  1.00  0.00    -0.014 A 
BRANCH  36  37
ATOM     37  C   UNL A   1      37.914  29.920  30.054  1.00  0.00     0.031 A 
ATOM     38  C   UNL A   1      38.173  30.392  31.460  1.00  0.00     0.074 A 
ATOM     39  C   UNL A   1      38.775  29.093  29.430  1.00  0.00     0.049 A 
ATOM     40  N   UNL A   1      39.206  30.172  32.228  1.00  0.00    -0.248 NA
ATOM     41  C   UNL A   1      37.157  31.275  32.062  1.00  0.00     0.031 C 
ATOM     42  C   UNL A   1      38.656  28.630  28.045  1.00  0.00     0.029 A 
ATOM     43  N   UNL A   1      39.946  28.529  29.868  1.00  0.00    -0.354 N 
ATOM     44  C   UNL A   1      38.991  30.933  33.372  1.00  0.00     0.074 A 
ATOM     45  C   UNL A   1      37.754  31.652  33.181  1.00  0.00     0.031 C 
ATOM     46  C   UNL A   1      39.713  27.857  27.747  1.00  0.00     0.029 A 
ATOM     47  C   UNL A   1      40.603  27.805  28.901  1.00  0.00     0.049 A 
ATOM     48  H   UNL A   1      40.284  28.632  30.788  1.00  0.00     0.167 HD
ATOM     49  C   UNL A   1      39.747  31.004  34.492  1.00  0.00     0.034 A 
ATOM     50  C   UNL A   1      41.801  27.188  28.938  1.00  0.00     0.034 A 
ATOM     51  C   UNL A   1      40.944  30.236  34.686  1.00  0.00     0.049 A 
ATOM     52  C   UNL A   1      42.594  27.236  30.215  1.00  0.00     0.074 A 
ATOM     53  C   UNL A   1      41.739  30.149  35.814  1.00  0.00     0.029 A 
ATOM     54  N   UNL A   1      41.521  29.422  33.722  1.00  0.00    -0.354 N 
ATOM     55  N   UNL A   1      42.312  27.852  31.338  1.00  0.00    -0.248 NA
ATOM     56  C   UNL A   1      43.851  26.476  30.247  1.00  0.00     0.031 C 
ATOM     57  C   UNL A   1      42.815  29.305  35.520  1.00  0.00     0.029 A 
ATOM     58  C   UNL A   1      42.666  28.834  34.225  1.00  0.00     0.049 A 
ATOM     59  H   UNL A   1      41.168  29.284  32.814  1.00  0.00     0.167 HD
ATOM     60  C   UNL A   1      43.331  27.522  32.222  1.00  0.00     0.074 A 
ATOM     61  C   UNL A   1      44.230  26.639  31.507  1.00  0.00     0.031 C 
ATOM     62  C   UNL A   1      43.514  27.917  33.506  1.00  0.00     0.034 A 
BRANCH  49  63
ATOM     63  C   UNL A   1      39.275  31.905  35.604  1.00  0.00     0.023 A 
ATOM     64  C   UNL A   1      38.356  31.422  36.561  1.00  0.00     0.012 A 
ATOM     65  C   UNL A   1      39.771  33.218  35.730  1.00  0.00     0.148 A 
ATOM     66  C   UNL A   1      37.908  32.241  37.595  1.00  0.00     0.002 A 
ATOM     67  C   UNL A   1      39.359  34.011  36.794  1.00  0.00     0.091 A 
ATOM     68  F   UNL A   1      40.625  33.669  34.800  1.00  0.00    -0.205 F 
ATOM     69  C   UNL A   1      38.417  33.531  37.718  1.00  0.00     0.022 A 
BRANCH  67  70
ATOM     70  S   UNL A   1      40.019  35.655  37.091  1.00  0.00     0.127 S 
ATOM     71  O   UNL A   1      39.341  36.025  38.332  1.00  0.00    -0.237 OA
ATOM     72  O   UNL A   1      41.451  35.388  37.234  1.00  0.00    -0.237 OA
ATOM     73  O   UNL A   1      39.662  36.450  35.924  1.00  0.00    -0.744 OA
ENDBRANCH  67  70
ENDBRANCH  49  63
BRANCH  50  74
ATOM     74  C   UNL A   1      42.287  26.428  27.750  1.00  0.00     0.023 A 
ATOM     75  C   UNL A   1      43.111  27.071  26.807  1.00  0.00     0.012 A 
ATOM     76  C   UNL A   1      41.973  25.067  27.571  1.00  0.00     0.148 A 
ATOM     77  C   UNL A   1      43.586  26.385  25.688  1.00  0.00     0.002 A 
ATOM     78  C   UNL A   1      42.496  24.373  26.485  1.00  0.00     0.091 A 
ATOM     79  F   UNL A   1      41.183  24.472  28.475  1.00  0.00    -0.205 F 
ATOM     80  C   UNL A   1      43.287  25.034  25.533  1.00  0.00     0.022 A 
BRANCH  78  81
ATOM     81  S   UNL A   1      42.279  22.601  26.278  1.00  0.00     0.127 S 
ATOM     82  O   UNL A   1      42.947  22.365  25.001  1.00  0.00    -0.237 OA
ATOM     83  O   UNL A   1      42.980  22.072  27.449  1.00  0.00    -0.237 OA
ATOM     84  O   UNL A   1      40.839  22.377  26.290  1.00  0.00    -0.744 OA
ENDBRANCH  78  81
ENDBRANCH  50  74
BRANCH  62  85
ATOM     85  C   UNL A   1      44.699  27.358  34.245  1.00  0.00     0.023 A 
ATOM     86  C   UNL A   1      45.923  28.054  34.250  1.00  0.00     0.012 A 
ATOM     87  C   UNL A   1      44.564  26.182  35.009  1.00  0.00     0.148 A 
ATOM     88  C   UNL A   1      47.007  27.570  34.980  1.00  0.00     0.002 A 
ATOM     89  C   UNL A   1      45.631  25.736  35.778  1.00  0.00     0.091 A 
ATOM     90  F   UNL A   1      43.394  25.528  34.975  1.00  0.00    -0.205 F 
ATOM     91  C   UNL A   1      46.856  26.420  35.754  1.00  0.00     0.022 A 
BRANCH  89  92
ATOM     92  S   UNL A   1      45.497  24.329  36.885  1.00  0.00     0.127 S 
ATOM     93  O   UNL A   1      46.847  24.259  37.442  1.00  0.00    -0.237 OA
ATOM     94  O   UNL A   1      44.470  24.774  37.826  1.00  0.00    -0.237 OA
ATOM     95  O   UNL A   1      45.107  23.197  36.053  1.00  0.00    -0.744 OA
ENDBRANCH  89  92
ENDBRANCH  62  85
ENDBRANCH  36  37
ENDBRANCH  28  31
ENDBRANCH  26  27
ENDBRANCH   1  26
TORSDOF 16
ENDMDL
MODEL 3
REMARK VINA RESULT:     -11.8      4.782      7.659
REMARK SMILES C[C@@](NC(=O)[C@H]1COc2ccccc21)(C(=O)NCCCNC(=O)c1ccc(-c2c3nc(c(-c4cccc(S(=O)(=O)[O-])c4F)c4ccc([nH]4)c(-c4cccc(S(=O)(=O)[O-])c4F)c4nc(c(-c5cccc(S(=O)(=O)[O-])c5F)c5ccc2[nH]5)C=C4)C=C3)cc1)C(F)(F)F
REMARK SMILES IDX 19 1 18 2 17 3 15 4 16 5 2 7 1 8 3 9 4 10 5 12 6 13 7 14
REMARK SMILES IDX 14 15 8 16 9 17 13 18 10 19 12 20 11 21 87 22 88 23 89 24
REMARK SMILES IDX 90 25 20 26 21 27 22 28 23 30 24 31 25 32 86 33 26 34 85 35
REMARK SMILES IDX 27 36 28 37 29 38 79 39 30 40 84 41 78 42 80 43 31 44 83 45
REMARK SMILES IDX 77 46 76 47 32 49 64 50 44 51 63 52 45 53 48 54 62 55 81 56
REMARK SMILES IDX 46 57 47 58 61 60 82 61 49 62 33 63 34 64 42 65 35 66 37 67
REMARK SMILES IDX 43 68 36 69 38 70 39 71 40 72 41 73 65 74 66 75 74 76 67 77
REMARK SMILES IDX 69 78 75 79 68 80 70 81 71 82 72 83 73 84 50 85 51 86 59 87
REMARK SMILES IDX 52 88 54 89 60 90 53 91 55 92 56 93 57 94 58 95
REMARK H PARENT 17 6 3 11 21 29 80 48 48 59
REMARK Flexibility Score: inf
ROOT
ATOM      1  C   UNL A   1      35.346  21.746  26.389  1.00  0.00     0.042 C 
ENDROOT
BRANCH   1   2
ATOM      2  C   UNL A   1      34.109  22.511  25.957  1.00  0.00     0.117 C 
BRANCH   2   3
ATOM      3  N   UNL A   1      33.390  21.937  24.838  1.00  0.00    -0.354 N 
ATOM      4  C   UNL A   1      32.881  22.563  23.737  1.00  0.00     0.254 C 
ATOM      5  O   UNL A   1      32.564  21.833  22.796  1.00  0.00    -0.272 OA
ATOM      6  H   UNL A   1      33.249  20.963  24.877  1.00  0.00     0.163 HD
BRANCH   4   7
ATOM      7  C   UNL A   1      32.668  24.083  23.708  1.00  0.00     0.212 C 
ATOM      8  C   UNL A   1      31.825  24.417  22.452  1.00  0.00     0.056 C 
BRANCH   7   9
ATOM      9  N   UNL A   1      31.957  24.656  24.911  1.00  0.00    -0.334 N 
ATOM     10  C   UNL A   1      31.149  25.761  25.008  1.00  0.00     0.232 C 
ATOM     11  H   UNL A   1      32.092  24.161  25.751  1.00  0.00     0.164 HD
ATOM     12  O   UNL A   1      30.125  25.629  25.681  1.00  0.00    -0.274 OA
BRANCH  10  13
ATOM     13  C   UNL A   1      31.579  27.108  24.449  1.00  0.00     0.150 C 
ATOM     14  C   UNL A   1      30.412  27.905  23.853  1.00  0.00     0.248 C 
ATOM     15  C   UNL A   1      32.014  28.095  25.494  1.00  0.00     0.010 A 
ATOM     16  O   UNL A   1      30.557  29.311  24.178  1.00  0.00    -0.492 OA
ATOM     17  C   UNL A   1      31.440  29.327  25.222  1.00  0.00     0.123 A 
ATOM     18  C   UNL A   1      32.918  27.972  26.541  1.00  0.00     0.008 A 
ATOM     19  C   UNL A   1      31.778  30.469  25.926  1.00  0.00     0.047 A 
ATOM     20  C   UNL A   1      33.292  29.118  27.249  1.00  0.00     0.001 A 
ATOM     21  C   UNL A   1      32.733  30.362  26.937  1.00  0.00     0.004 A 
ENDBRANCH  10  13
ENDBRANCH   7   9
BRANCH   7  22
ATOM     22  C   UNL A   1      34.053  24.735  23.478  1.00  0.00     0.420 C 
ATOM     23  F   UNL A   1      34.024  25.740  22.574  1.00  0.00    -0.168 F 
ATOM     24  F   UNL A   1      34.497  25.289  24.641  1.00  0.00    -0.168 F 
ATOM     25  F   UNL A   1      34.991  23.838  23.101  1.00  0.00    -0.168 F 
ENDBRANCH   7  22
ENDBRANCH   4   7
ENDBRANCH   2   3
ENDBRANCH   1   2
BRANCH   1  26
ATOM     26  C   UNL A   1      36.594  21.983  25.551  1.00  0.00     0.118 C 
BRANCH  26  27
ATOM     27  N   UNL A   1      37.627  20.964  25.688  1.00  0.00    -0.352 N 
ATOM     28  C   UNL A   1      38.935  21.101  26.097  1.00  0.00     0.251 C 
ATOM     29  H   UNL A   1      37.351  20.048  25.455  1.00  0.00     0.163 HD
ATOM     30  O   UNL A   1      39.705  20.143  26.101  1.00  0.00    -0.269 OA
BRANCH  28  31
ATOM     31  C   UNL A   1      39.435  22.426  26.501  1.00  0.00     0.039 A 
ATOM     32  C   UNL A   1      40.458  22.509  27.449  1.00  0.00     0.014 A 
ATOM     33  C   UNL A   1      38.912  23.578  25.917  1.00  0.00     0.014 A 
ATOM     34  C   UNL A   1      41.010  23.754  27.753  1.00  0.00     0.010 A 
ATOM     35  C   UNL A   1      39.547  24.791  26.123  1.00  0.00     0.010 A 
ATOM     36  C   UNL A   1      40.583  24.897  27.062  1.00  0.00    -0.014 A 
BRANCH  36  37
ATOM     37  C   UNL A   1      41.154  26.240  27.319  1.00  0.00     0.031 A 
ATOM     38  C   UNL A   1      42.570  26.518  26.891  1.00  0.00     0.074 A 
ATOM     39  C   UNL A   1      40.458  27.138  28.041  1.00  0.00     0.049 A 
ATOM     40  N   UNL A   1      43.333  27.540  27.173  1.00  0.00    -0.248 NA
ATOM     41  C   UNL A   1      43.236  25.480  26.081  1.00  0.00     0.031 C 
ATOM     42  C   UNL A   1      39.105  26.941  28.567  1.00  0.00     0.029 A 
ATOM     43  N   UNL A   1      40.812  28.383  28.497  1.00  0.00    -0.354 N 
ATOM     44  C   UNL A   1      44.577  27.241  26.629  1.00  0.00     0.074 A 
ATOM     45  C   UNL A   1      44.481  25.927  26.038  1.00  0.00     0.031 C 
ATOM     46  C   UNL A   1      38.746  28.024  29.275  1.00  0.00     0.029 A 
ATOM     47  C   UNL A   1      39.855  28.970  29.290  1.00  0.00     0.049 A 
ATOM     48  H   UNL A   1      41.669  28.815  28.275  1.00  0.00     0.167 HD
ATOM     49  C   UNL A   1      45.692  28.007  26.602  1.00  0.00     0.034 A 
ATOM     50  C   UNL A   1      39.882  30.133  29.972  1.00  0.00     0.034 A 
ATOM     51  C   UNL A   1      45.750  29.335  27.145  1.00  0.00     0.049 A 
ATOM     52  C   UNL A   1      41.114  30.991  29.878  1.00  0.00     0.074 A 
ATOM     53  C   UNL A   1      46.792  30.243  27.091  1.00  0.00     0.029 A 
ATOM     54  N   UNL A   1      44.720  29.944  27.846  1.00  0.00    -0.354 N 
ATOM     55  N   UNL A   1      42.238  30.753  29.246  1.00  0.00    -0.248 NA
ATOM     56  C   UNL A   1      41.072  32.293  30.559  1.00  0.00     0.031 C 
ATOM     57  C   UNL A   1      46.400  31.391  27.787  1.00  0.00     0.029 A 
ATOM     58  C   UNL A   1      45.101  31.213  28.237  1.00  0.00     0.049 A 
ATOM     59  H   UNL A   1      43.846  29.532  28.037  1.00  0.00     0.167 HD
ATOM     60  C   UNL A   1      43.021  31.888  29.416  1.00  0.00     0.074 A 
ATOM     61  C   UNL A   1      42.234  32.819  30.200  1.00  0.00     0.031 C 
ATOM     62  C   UNL A   1      44.277  32.138  28.973  1.00  0.00     0.034 A 
BRANCH  49  63
ATOM     63  C   UNL A   1      46.917  27.444  25.928  1.00  0.00     0.023 A 
ATOM     64  C   UNL A   1      47.092  27.606  24.537  1.00  0.00     0.012 A 
ATOM     65  C   UNL A   1      47.917  26.792  26.675  1.00  0.00     0.148 A 
ATOM     66  C   UNL A   1      48.217  27.091  23.896  1.00  0.00     0.002 A 
ATOM     67  C   UNL A   1      49.062  26.328  26.038  1.00  0.00     0.091 A 
ATOM     68  F   UNL A   1      47.725  26.626  27.992  1.00  0.00    -0.205 F 
ATOM     69  C   UNL A   1      49.207  26.463  24.647  1.00  0.00     0.022 A 
BRANCH  67  70
ATOM     70  S   UNL A   1      50.432  25.580  26.925  1.00  0.00     0.127 S 
ATOM     71  O   UNL A   1      50.835  26.667  27.816  1.00  0.00    -0.237 OA
ATOM     72  O   UNL A   1      49.782  24.453  27.596  1.00  0.00    -0.237 OA
ATOM     73  O   UNL A   1      51.411  25.205  25.915  1.00  0.00    -0.744 OA
ENDBRANCH  67  70
ENDBRANCH  49  63
BRANCH  50  74
ATOM     74  C   UNL A   1      38.686  30.574  30.746  1.00  0.00     0.023 A 
ATOM     75  C   UNL A   1      38.621  30.308  32.127  1.00  0.00     0.012 A 
ATOM     76  C   UNL A   1      37.637  31.286  30.134  1.00  0.00     0.148 A 
ATOM     77  C   UNL A   1      37.517  30.712  32.880  1.00  0.00     0.002 A 
ATOM     78  C   UNL A   1      36.567  31.737  30.900  1.00  0.00     0.091 A 
ATOM     79  F   UNL A   1      37.713  31.525  28.818  1.00  0.00    -0.205 F 
ATOM     80  C   UNL A   1      36.496  31.435  32.269  1.00  0.00     0.022 A 
BRANCH  78  81
ATOM     81  S   UNL A   1      35.277  32.792  30.228  1.00  0.00     0.127 S 
ATOM     82  O   UNL A   1      34.725  31.953  29.168  1.00  0.00    -0.237 OA
ATOM     83  O   UNL A   1      34.403  32.976  31.387  1.00  0.00    -0.237 OA
ATOM     84  O   UNL A   1      35.951  34.006  29.788  1.00  0.00    -0.744 OA
ENDBRANCH  78  81
ENDBRANCH  50  74
BRANCH  62  85
ATOM     85  C   UNL A   1      44.866  33.490  29.272  1.00  0.00     0.023 A 
ATOM     86  C   UNL A   1      45.597  33.696  30.458  1.00  0.00     0.012 A 
ATOM     87  C   UNL A   1      44.765  34.530  28.328  1.00  0.00     0.148 A 
ATOM     88  C   UNL A   1      46.193  34.930  30.713  1.00  0.00     0.002 A 
ATOM     89  C   UNL A   1      45.408  35.738  28.563  1.00  0.00     0.091 A 
ATOM     90  F   UNL A   1      44.049  34.314  27.214  1.00  0.00    -0.205 F 
ATOM     91  C   UNL A   1      46.110  35.944  29.761  1.00  0.00     0.022 A 
BRANCH  89  92
ATOM     92  S   UNL A   1      45.444  37.061  27.351  1.00  0.00     0.127 S 
ATOM     93  O   UNL A   1      46.185  38.099  28.065  1.00  0.00    -0.237 OA
ATOM     94  O   UNL A   1      46.173  36.443  26.243  1.00  0.00    -0.237 OA
ATOM     95  O   UNL A   1      44.053  37.378  27.058  1.00  0.00    -0.744 OA
ENDBRANCH  89  92
ENDBRANCH  62  85
ENDBRANCH  36  37
ENDBRANCH  28  31
ENDBRANCH  26  27
ENDBRANCH   1  26
TORSDOF 16
ENDMDL
