MODEL 1
REMARK VINA RESULT:     -12.3      0.000      0.000
REMARK SMILES O=CN1CC[NH+](C[C@@H](CC(=O)Nc2ccc(C(F)(F)F)nc2)C(=O)NCCCNC(=O)c2ccc(-c3c4nc(c(-c5cccc(S(=O)(=O)[O-])c5F)c5ccc([nH]5)c(-c5cccc(S(=O)(=O)[O-])c5F)c5nc(c(-c6cccc(S(=O)(=O)[O-])c6F)c6ccc3[nH]6)C=C5)C=C4)cc2)CC1
REMARK SMILES IDX 26 1 25 2 23 3 24 4 8 6 7 7 6 8 1 9 2 10 3 11 4 12 96 13
REMARK SMILES IDX 5 14 95 15 9 17 10 18 11 19 12 20 13 22 14 23 22 24 15 25
REMARK SMILES IDX 21 26 16 27 17 28 18 29 19 30 20 31 27 32 28 33 29 34 30 35
REMARK SMILES IDX 31 37 32 38 33 39 94 40 34 41 93 42 35 43 36 44 37 45 87 46
REMARK SMILES IDX 38 47 92 48 86 49 88 50 39 51 91 52 85 53 84 54 40 56 72 57
REMARK SMILES IDX 52 58 71 59 53 60 56 61 70 62 89 63 54 64 55 65 69 67 90 68
REMARK SMILES IDX 57 69 41 70 42 71 50 72 43 73 45 74 51 75 44 76 46 77 47 78
REMARK SMILES IDX 48 79 49 80 73 81 74 82 82 83 75 84 77 85 83 86 76 87 78 88
REMARK SMILES IDX 79 89 80 90 81 91 58 92 59 93 67 94 60 95 62 96 68 97 61 98
REMARK SMILES IDX 63 99 64 100 65 101 66 102
REMARK H PARENT 25 5 6 16 12 21 29 36 88 55 56 66
REMARK Flexibility Score: inf
ROOT
ATOM      1  C   UNL A   1      31.916  27.179  25.498  1.00  0.00     0.117 C 
ENDROOT
BRANCH   1   2
ATOM      2  N   UNL A   1      30.563  26.785  25.252  1.00  0.00    -0.356 N 
ATOM      3  C   UNL A   1      29.924  26.883  24.049  1.00  0.00     0.229 C 
ATOM      4  O   UNL A   1      28.809  26.364  23.949  1.00  0.00    -0.275 OA
ATOM      5  H   UNL A   1      30.053  26.416  26.009  1.00  0.00     0.163 HD
BRANCH   3   6
ATOM      6  C   UNL A   1      30.515  27.708  22.875  1.00  0.00     0.142 C 
BRANCH   6   7
ATOM      7  C   UNL A   1      30.331  29.191  23.220  1.00  0.00     0.276 C 
BRANCH   7   8
ATOM      8  N   UNL A   1      29.041  29.823  23.532  1.00  0.00    -0.331 N 
ATOM      9  O   UNL A   1      27.230  32.297  19.436  1.00  0.00    -0.279 OA
ATOM     10  C   UNL A   1      27.758  32.589  20.495  1.00  0.00     0.340 C 
ATOM     11  N   UNL A   1      28.146  31.706  21.478  1.00  0.00    -0.334 N 
ATOM     12  C   UNL A   1      29.004  32.162  22.555  1.00  0.00     0.180 C 
ATOM     13  C   UNL A   1      28.048  30.262  21.257  1.00  0.00     0.180 C 
ATOM     14  C   UNL A   1      28.957  31.260  23.792  1.00  0.00     0.284 C 
ATOM     15  C   UNL A   1      27.978  29.458  22.570  1.00  0.00     0.284 C 
ATOM     16  H   UNL A   1      28.904  29.409  24.453  1.00  0.00     0.348 HD
ENDBRANCH   7   8
ENDBRANCH   6   7
BRANCH   6  17
ATOM     17  C   UNL A   1      31.767  27.114  22.202  1.00  0.00     0.119 C 
BRANCH  17  18
ATOM     18  C   UNL A   1      32.118  25.762  21.538  1.00  0.00     0.225 C 
ATOM     19  O   UNL A   1      31.947  25.724  20.304  1.00  0.00    -0.275 OA
ATOM     20  N   UNL A   1      32.699  24.641  22.027  1.00  0.00    -0.325 N 
ATOM     21  H   UNL A   1      32.870  23.980  21.317  1.00  0.00     0.169 HD
BRANCH  20  22
ATOM     22  C   UNL A   1      33.120  24.177  23.278  1.00  0.00     0.059 A 
ATOM     23  C   UNL A   1      34.339  24.457  23.871  1.00  0.00     0.030 A 
ATOM     24  C   UNL A   1      32.213  23.455  24.047  1.00  0.00     0.137 A 
ATOM     25  C   UNL A   1      34.694  23.836  25.071  1.00  0.00     0.035 A 
ATOM     26  N   UNL A   1      32.527  22.813  25.197  1.00  0.00    -0.250 NA
ATOM     27  C   UNL A   1      33.799  22.952  25.667  1.00  0.00     0.144 A 
BRANCH  27  28
ATOM     28  C   UNL A   1      34.277  22.083  26.822  1.00  0.00     0.433 C 
ATOM     29  F   UNL A   1      35.495  21.516  26.611  1.00  0.00    -0.165 F 
ATOM     30  F   UNL A   1      34.368  22.754  28.008  1.00  0.00    -0.165 F 
ATOM     31  F   UNL A   1      33.426  21.039  27.075  1.00  0.00    -0.165 F 
ENDBRANCH  27  28
ENDBRANCH  20  22
ENDBRANCH  17  18
ENDBRANCH   6  17
ENDBRANCH   3   6
ENDBRANCH   1   2
BRANCH   1  32
ATOM     32  C   UNL A   1      32.153  28.338  26.422  1.00  0.00     0.042 C 
BRANCH  32  33
ATOM     33  C   UNL A   1      33.033  29.399  25.821  1.00  0.00     0.118 C 
BRANCH  33  34
ATOM     34  N   UNL A   1      32.705  30.747  26.278  1.00  0.00    -0.352 N 
ATOM     35  C   UNL A   1      33.325  31.571  27.190  1.00  0.00     0.251 C 
ATOM     36  H   UNL A   1      31.902  31.134  25.860  1.00  0.00     0.163 HD
ATOM     37  O   UNL A   1      32.793  32.631  27.507  1.00  0.00    -0.269 OA
BRANCH  35  38
ATOM     38  C   UNL A   1      34.607  31.170  27.808  1.00  0.00     0.039 A 
ATOM     39  C   UNL A   1      35.650  32.093  27.907  1.00  0.00     0.014 A 
ATOM     40  C   UNL A   1      34.777  29.883  28.310  1.00  0.00     0.014 A 
ATOM     41  C   UNL A   1      36.826  31.732  28.568  1.00  0.00     0.010 A 
ATOM     42  C   UNL A   1      35.848  29.599  29.135  1.00  0.00     0.010 A 
ATOM     43  C   UNL A   1      36.919  30.490  29.219  1.00  0.00    -0.014 A 
BRANCH  43  44
ATOM     44  C   UNL A   1      38.150  30.051  29.917  1.00  0.00     0.031 A 
ATOM     45  C   UNL A   1      38.442  30.571  31.306  1.00  0.00     0.074 A 
ATOM     46  C   UNL A   1      39.036  29.258  29.287  1.00  0.00     0.049 A 
ATOM     47  N   UNL A   1      39.482  30.354  32.066  1.00  0.00    -0.248 NA
ATOM     48  C   UNL A   1      37.460  31.499  31.899  1.00  0.00     0.031 C 
ATOM     49  C   UNL A   1      38.912  28.768  27.912  1.00  0.00     0.029 A 
ATOM     50  N   UNL A   1      40.226  28.733  29.719  1.00  0.00    -0.354 N 
ATOM     51  C   UNL A   1      39.298  31.149  33.193  1.00  0.00     0.074 A 
ATOM     52  C   UNL A   1      38.093  31.914  32.982  1.00  0.00     0.031 C 
ATOM     53  C   UNL A   1      39.962  27.981  27.629  1.00  0.00     0.029 A 
ATOM     54  C   UNL A   1      40.849  27.939  28.786  1.00  0.00     0.049 A 
ATOM     55  H   UNL A   1      40.598  28.907  30.614  1.00  0.00     0.167 HD
ATOM     56  C   UNL A   1      40.032  31.203  34.327  1.00  0.00     0.034 A 
ATOM     57  C   UNL A   1      42.003  27.248  28.864  1.00  0.00     0.034 A 
ATOM     58  C   UNL A   1      41.196  30.395  34.553  1.00  0.00     0.049 A 
ATOM     59  C   UNL A   1      42.778  27.281  30.152  1.00  0.00     0.074 A 
ATOM     60  C   UNL A   1      41.972  30.298  35.694  1.00  0.00     0.029 A 
ATOM     61  N   UNL A   1      41.752  29.540  33.613  1.00  0.00    -0.354 N 
ATOM     62  N   UNL A   1      42.512  27.926  31.262  1.00  0.00    -0.248 NA
ATOM     63  C   UNL A   1      43.993  26.455  30.212  1.00  0.00     0.031 C 
ATOM     64  C   UNL A   1      43.017  29.408  35.431  1.00  0.00     0.029 A 
ATOM     65  C   UNL A   1      42.867  28.917  34.143  1.00  0.00     0.049 A 
ATOM     66  H   UNL A   1      41.405  29.399  32.703  1.00  0.00     0.167 HD
ATOM     67  C   UNL A   1      43.497  27.550  32.168  1.00  0.00     0.074 A 
ATOM     68  C   UNL A   1      44.357  26.609  31.478  1.00  0.00     0.031 C 
ATOM     69  C   UNL A   1      43.679  27.948  33.452  1.00  0.00     0.034 A 
BRANCH  56  70
ATOM     70  C   UNL A   1      39.559  32.133  35.418  1.00  0.00     0.023 A 
ATOM     71  C   UNL A   1      38.637  31.673  36.383  1.00  0.00     0.012 A 
ATOM     72  C   UNL A   1      40.026  33.458  35.491  1.00  0.00     0.148 A 
ATOM     73  C   UNL A   1      38.144  32.532  37.365  1.00  0.00     0.002 A 
ATOM     74  C   UNL A   1      39.573  34.293  36.507  1.00  0.00     0.091 A 
ATOM     75  F   UNL A   1      40.882  33.890  34.553  1.00  0.00    -0.205 F 
ATOM     76  C   UNL A   1      38.619  33.838  37.432  1.00  0.00     0.022 A 
BRANCH  74  77
ATOM     77  S   UNL A   1      40.188  35.964  36.732  1.00  0.00     0.127 S 
ATOM     78  O   UNL A   1      39.745  36.610  35.497  1.00  0.00    -0.237 OA
ATOM     79  O   UNL A   1      39.476  36.394  37.936  1.00  0.00    -0.237 OA
ATOM     80  O   UNL A   1      41.631  35.842  36.892  1.00  0.00    -0.744 OA
ENDBRANCH  74  77
ENDBRANCH  56  70
BRANCH  57  81
ATOM     81  C   UNL A   1      42.435  26.394  27.723  1.00  0.00     0.023 A 
ATOM     82  C   UNL A   1      43.332  26.917  26.771  1.00  0.00     0.012 A 
ATOM     83  C   UNL A   1      41.998  25.062  27.597  1.00  0.00     0.148 A 
ATOM     84  C   UNL A   1      43.761  26.139  25.695  1.00  0.00     0.002 A 
ATOM     85  C   UNL A   1      42.471  24.276  26.553  1.00  0.00     0.091 A 
ATOM     86  F   UNL A   1      41.144  24.586  28.514  1.00  0.00    -0.205 F 
ATOM     87  C   UNL A   1      43.339  24.816  25.591  1.00  0.00     0.022 A 
BRANCH  85  88
ATOM     88  S   UNL A   1      42.085  22.528  26.408  1.00  0.00     0.127 S 
ATOM     89  O   UNL A   1      40.624  22.544  26.399  1.00  0.00    -0.237 OA
ATOM     90  O   UNL A   1      42.708  22.191  25.127  1.00  0.00    -0.237 OA
ATOM     91  O   UNL A   1      42.700  21.890  27.564  1.00  0.00    -0.744 OA
ENDBRANCH  85  88
ENDBRANCH  57  81
BRANCH  69  92
ATOM     92  C   UNL A   1      44.816  27.327  34.218  1.00  0.00     0.023 A 
ATOM     93  C   UNL A   1      46.103  27.898  34.167  1.00  0.00     0.012 A 
ATOM     94  C   UNL A   1      44.586  26.211  35.045  1.00  0.00     0.148 A 
ATOM     95  C   UNL A   1      47.152  27.342  34.896  1.00  0.00     0.002 A 
ATOM     96  C   UNL A   1      45.622  25.696  35.812  1.00  0.00     0.091 A 
ATOM     97  F   UNL A   1      43.358  25.671  35.066  1.00  0.00    -0.205 F 
ATOM     98  C   UNL A   1      46.910  26.249  35.726  1.00  0.00     0.022 A 
BRANCH  96  99
ATOM     99  S   UNL A   1      45.375  24.361  36.988  1.00  0.00     0.127 S 
ATOM    100  O   UNL A   1      46.685  24.287  37.633  1.00  0.00    -0.237 OA
ATOM    101  O   UNL A   1      44.305  24.889  37.835  1.00  0.00    -0.237 OA
ATOM    102  O   UNL A   1      44.999  23.195  36.198  1.00  0.00    -0.744 OA
ENDBRANCH  96  99
ENDBRANCH  69  92
ENDBRANCH  43  44
ENDBRANCH  35  38
ENDBRANCH  33  34
ENDBRANCH  32  33
ENDBRANCH   1  32
TORSDOF 19
ENDMDL
MODEL 2
REMARK VINA RESULT:     -12.2      2.431      4.765
REMARK SMILES O=CN1CC[NH+](C[C@@H](CC(=O)Nc2ccc(C(F)(F)F)nc2)C(=O)NCCCNC(=O)c2ccc(-c3c4nc(c(-c5cccc(S(=O)(=O)[O-])c5F)c5ccc([nH]5)c(-c5cccc(S(=O)(=O)[O-])c5F)c5nc(c(-c6cccc(S(=O)(=O)[O-])c6F)c6ccc3[nH]6)C=C5)C=C4)cc2)CC1
REMARK SMILES IDX 26 1 25 2 23 3 24 4 8 6 7 7 6 8 1 9 2 10 3 11 4 12 96 13
REMARK SMILES IDX 5 14 95 15 9 17 10 18 11 19 12 20 13 22 14 23 22 24 15 25
REMARK SMILES IDX 21 26 16 27 17 28 18 29 19 30 20 31 27 32 28 33 29 34 30 35
REMARK SMILES IDX 31 37 32 38 33 39 94 40 34 41 93 42 35 43 36 44 37 45 87 46
REMARK SMILES IDX 38 47 92 48 86 49 88 50 39 51 91 52 85 53 84 54 40 56 72 57
REMARK SMILES IDX 52 58 71 59 53 60 56 61 70 62 89 63 54 64 55 65 69 67 90 68
REMARK SMILES IDX 57 69 41 70 42 71 50 72 43 73 45 74 51 75 44 76 46 77 47 78
REMARK SMILES IDX 48 79 49 80 73 81 74 82 82 83 75 84 77 85 83 86 76 87 78 88
REMARK SMILES IDX 79 89 80 90 81 91 58 92 59 93 67 94 60 95 62 96 68 97 61 98
REMARK SMILES IDX 63 99 64 100 65 101 66 102
REMARK H PARENT 25 5 6 16 12 21 29 36 88 55 56 66
REMARK Flexibility Score: inf
ROOT
ATOM      1  C   UNL A   1      32.996  28.321  24.993  1.00  0.00     0.117 C 
ENDROOT
BRANCH   1   2
ATOM      2  N   UNL A   1      32.151  27.492  25.796  1.00  0.00    -0.356 N 
ATOM      3  C   UNL A   1      32.400  26.186  26.106  1.00  0.00     0.229 C 
ATOM      4  O   UNL A   1      31.662  25.642  26.931  1.00  0.00    -0.275 OA
ATOM      5  H   UNL A   1      31.326  27.895  26.151  1.00  0.00     0.163 HD
BRANCH   3   6
ATOM      6  C   UNL A   1      33.497  25.367  25.375  1.00  0.00     0.142 C 
BRANCH   6   7
ATOM      7  C   UNL A   1      33.370  23.912  25.844  1.00  0.00     0.276 C 
BRANCH   7   8
ATOM      8  N   UNL A   1      34.378  22.868  25.611  1.00  0.00    -0.331 N 
ATOM      9  O   UNL A   1      32.110  18.372  24.702  1.00  0.00    -0.279 OA
ATOM     10  C   UNL A   1      32.707  18.902  25.623  1.00  0.00     0.340 C 
ATOM     11  N   UNL A   1      33.264  20.162  25.612  1.00  0.00    -0.334 N 
ATOM     12  C   UNL A   1      33.699  20.766  26.856  1.00  0.00     0.180 C 
ATOM     13  C   UNL A   1      33.067  21.047  24.463  1.00  0.00     0.180 C 
ATOM     14  C   UNL A   1      34.707  21.902  26.660  1.00  0.00     0.284 C 
ATOM     15  C   UNL A   1      34.157  22.130  24.348  1.00  0.00     0.284 C 
ATOM     16  H   UNL A   1      35.198  23.472  25.582  1.00  0.00     0.348 HD
ENDBRANCH   7   8
ENDBRANCH   6   7
BRANCH   6  17
ATOM     17  C   UNL A   1      33.802  25.798  23.929  1.00  0.00     0.119 C 
BRANCH  17  18
ATOM     18  C   UNL A   1      33.136  25.567  22.552  1.00  0.00     0.225 C 
ATOM     19  O   UNL A   1      33.725  24.753  21.815  1.00  0.00    -0.275 OA
ATOM     20  N   UNL A   1      31.957  25.991  22.037  1.00  0.00    -0.325 N 
ATOM     21  H   UNL A   1      31.779  25.590  21.156  1.00  0.00     0.169 HD
BRANCH  20  22
ATOM     22  C   UNL A   1      30.926  26.850  22.433  1.00  0.00     0.059 A 
ATOM     23  C   UNL A   1      29.880  26.516  23.275  1.00  0.00     0.030 A 
ATOM     24  C   UNL A   1      30.996  28.182  22.037  1.00  0.00     0.137 A 
ATOM     25  C   UNL A   1      28.843  27.426  23.500  1.00  0.00     0.035 A 
ATOM     26  N   UNL A   1      30.001  29.083  22.208  1.00  0.00    -0.250 NA
ATOM     27  C   UNL A   1      28.890  28.672  22.883  1.00  0.00     0.144 A 
BRANCH  27  28
ATOM     28  C   UNL A   1      27.653  29.559  22.913  1.00  0.00     0.433 C 
ATOM     29  F   UNL A   1      27.713  30.548  23.845  1.00  0.00    -0.165 F 
ATOM     30  F   UNL A   1      27.394  30.174  21.721  1.00  0.00    -0.165 F 
ATOM     31  F   UNL A   1      26.513  28.855  23.199  1.00  0.00    -0.165 F 
ENDBRANCH  27  28
ENDBRANCH  20  22
ENDBRANCH  17  18
ENDBRANCH   6  17
ENDBRANCH   3   6
ENDBRANCH   1   2
BRANCH   1  32
ATOM     32  C   UNL A   1      33.258  29.722  25.464  1.00  0.00     0.042 C 
BRANCH  32  33
ATOM     33  C   UNL A   1      32.376  30.132  26.610  1.00  0.00     0.118 C 
BRANCH  33  34
ATOM     34  N   UNL A   1      32.320  31.578  26.808  1.00  0.00    -0.352 N 
ATOM     35  C   UNL A   1      33.170  32.436  27.469  1.00  0.00     0.251 C 
ATOM     36  H   UNL A   1      31.540  32.015  26.397  1.00  0.00     0.163 HD
ATOM     37  O   UNL A   1      32.851  33.613  27.610  1.00  0.00    -0.269 OA
BRANCH  35  38
ATOM     38  C   UNL A   1      34.443  31.939  28.034  1.00  0.00     0.039 A 
ATOM     39  C   UNL A   1      35.540  32.797  28.137  1.00  0.00     0.014 A 
ATOM     40  C   UNL A   1      34.551  30.626  28.482  1.00  0.00     0.014 A 
ATOM     41  C   UNL A   1      36.711  32.344  28.748  1.00  0.00     0.010 A 
ATOM     42  C   UNL A   1      35.626  30.249  29.265  1.00  0.00     0.010 A 
ATOM     43  C   UNL A   1      36.749  31.074  29.350  1.00  0.00    -0.014 A 
BRANCH  43  44
ATOM     44  C   UNL A   1      37.972  30.539  29.995  1.00  0.00     0.031 A 
ATOM     45  C   UNL A   1      38.331  30.988  31.392  1.00  0.00     0.074 A 
ATOM     46  C   UNL A   1      38.792  29.721  29.310  1.00  0.00     0.049 A 
ATOM     47  N   UNL A   1      39.378  30.683  32.112  1.00  0.00    -0.248 NA
ATOM     48  C   UNL A   1      37.422  31.948  32.047  1.00  0.00     0.031 C 
ATOM     49  C   UNL A   1      38.601  29.291  27.923  1.00  0.00     0.029 A 
ATOM     50  N   UNL A   1      39.960  29.112  29.687  1.00  0.00    -0.354 N 
ATOM     51  C   UNL A   1      39.272  31.444  33.272  1.00  0.00     0.074 A 
ATOM     52  C   UNL A   1      38.109  32.285  33.126  1.00  0.00     0.031 C 
ATOM     53  C   UNL A   1      39.595  28.456  27.580  1.00  0.00     0.029 A 
ATOM     54  C   UNL A   1      40.509  28.320  28.708  1.00  0.00     0.049 A 
ATOM     55  H   UNL A   1      40.367  29.231  30.576  1.00  0.00     0.167 HD
ATOM     56  C   UNL A   1      40.039  31.413  34.385  1.00  0.00     0.034 A 
ATOM     57  C   UNL A   1      41.622  27.561  28.726  1.00  0.00     0.034 A 
ATOM     58  C   UNL A   1      41.159  30.531  34.547  1.00  0.00     0.049 A 
ATOM     59  C   UNL A   1      42.434  27.500  29.991  1.00  0.00     0.074 A 
ATOM     60  C   UNL A   1      41.959  30.347  35.660  1.00  0.00     0.029 A 
ATOM     61  N   UNL A   1      41.638  29.682  33.561  1.00  0.00    -0.354 N 
ATOM     62  N   UNL A   1      42.237  28.117  31.131  1.00  0.00    -0.248 NA
ATOM     63  C   UNL A   1      43.599  26.604  29.984  1.00  0.00     0.031 C 
ATOM     64  C   UNL A   1      42.943  29.409  35.333  1.00  0.00     0.029 A 
ATOM     65  C   UNL A   1      42.728  28.976  34.034  1.00  0.00     0.049 A 
ATOM     66  H   UNL A   1      41.258  29.596  32.657  1.00  0.00     0.167 HD
ATOM     67  C   UNL A   1      43.223  27.651  31.992  1.00  0.00     0.074 A 
ATOM     68  C   UNL A   1      44.007  26.689  31.243  1.00  0.00     0.031 C 
ATOM     69  C   UNL A   1      43.463  27.989  33.284  1.00  0.00     0.034 A 
BRANCH  56  70
ATOM     70  C   UNL A   1      39.652  32.327  35.522  1.00  0.00     0.023 A 
ATOM     71  C   UNL A   1      38.842  31.840  36.571  1.00  0.00     0.012 A 
ATOM     72  C   UNL A   1      40.090  33.663  35.557  1.00  0.00     0.148 A 
ATOM     73  C   UNL A   1      38.425  32.682  37.601  1.00  0.00     0.002 A 
ATOM     74  C   UNL A   1      39.717  34.482  36.618  1.00  0.00     0.091 A 
ATOM     75  F   UNL A   1      40.837  34.120  34.542  1.00  0.00    -0.205 F 
ATOM     76  C   UNL A   1      38.870  34.000  37.629  1.00  0.00     0.022 A 
BRANCH  74  77
ATOM     77  S   UNL A   1      40.308  36.168  36.791  1.00  0.00     0.127 S 
ATOM     78  O   UNL A   1      39.844  36.773  35.543  1.00  0.00    -0.237 OA
ATOM     79  O   UNL A   1      39.600  36.621  37.989  1.00  0.00    -0.237 OA
ATOM     80  O   UNL A   1      41.754  36.073  36.941  1.00  0.00    -0.744 OA
ENDBRANCH  74  77
ENDBRANCH  56  70
BRANCH  57  81
ATOM     81  C   UNL A   1      41.972  26.727  27.542  1.00  0.00     0.023 A 
ATOM     82  C   UNL A   1      42.634  27.322  26.450  1.00  0.00     0.012 A 
ATOM     83  C   UNL A   1      41.692  25.349  27.508  1.00  0.00     0.148 A 
ATOM     84  C   UNL A   1      42.980  26.567  25.330  1.00  0.00     0.002 A 
ATOM     85  C   UNL A   1      42.089  24.590  26.413  1.00  0.00     0.091 A 
ATOM     86  F   UNL A   1      41.062  24.804  28.558  1.00  0.00    -0.205 F 
ATOM     87  C   UNL A   1      42.717  25.199  25.315  1.00  0.00     0.022 A 
BRANCH  85  88
ATOM     88  S   UNL A   1      41.908  22.805  26.357  1.00  0.00     0.127 S 
ATOM     89  O   UNL A   1      40.457  22.649  26.411  1.00  0.00    -0.237 OA
ATOM     90  O   UNL A   1      42.517  22.484  25.065  1.00  0.00    -0.237 OA
ATOM     91  O   UNL A   1      42.639  22.297  27.510  1.00  0.00    -0.744 OA
ENDBRANCH  85  88
ENDBRANCH  57  81
BRANCH  69  92
ATOM     92  C   UNL A   1      44.583  27.275  33.993  1.00  0.00     0.023 A 
ATOM     93  C   UNL A   1      45.898  27.775  33.927  1.00  0.00     0.012 A 
ATOM     94  C   UNL A   1      44.311  26.142  34.784  1.00  0.00     0.148 A 
ATOM     95  C   UNL A   1      46.933  27.132  34.604  1.00  0.00     0.002 A 
ATOM     96  C   UNL A   1      45.336  25.540  35.500  1.00  0.00     0.091 A 
ATOM     97  F   UNL A   1      43.055  25.671  34.819  1.00  0.00    -0.205 F 
ATOM     98  C   UNL A   1      46.651  26.022  35.398  1.00  0.00     0.022 A 
BRANCH  96  99
ATOM     99  S   UNL A   1      45.044  24.175  36.631  1.00  0.00     0.127 S 
ATOM    100  O   UNL A   1      44.092  24.766  37.570  1.00  0.00    -0.237 OA
ATOM    101  O   UNL A   1      44.480  23.156  35.747  1.00  0.00    -0.237 OA
ATOM    102  O   UNL A   1      46.345  23.834  37.192  1.00  0.00    -0.744 OA
ENDBRANCH  96  99
ENDBRANCH  69  92
ENDBRANCH  43  44
ENDBRANCH  35  38
ENDBRANCH  33  34
ENDBRANCH  32  33
ENDBRANCH   1  32
TORSDOF 19
ENDMDL
MODEL 3
REMARK VINA RESULT:     -12.1      5.082      9.695
REMARK SMILES O=CN1CC[NH+](C[C@@H](CC(=O)Nc2ccc(C(F)(F)F)nc2)C(=O)NCCCNC(=O)c2ccc(-c3c4nc(c(-c5cccc(S(=O)(=O)[O-])c5F)c5ccc([nH]5)c(-c5cccc(S(=O)(=O)[O-])c5F)c5nc(c(-c6cccc(S(=O)(=O)[O-])c6F)c6ccc3[nH]6)C=C5)C=C4)cc2)CC1
REMARK SMILES IDX 26 1 25 2 23 3 24 4 8 6 7 7 6 8 1 9 2 10 3 11 4 12 96 13
REMARK SMILES IDX 5 14 95 15 9 17 10 18 11 19 12 20 13 22 14 23 22 24 15 25
REMARK SMILES IDX 21 26 16 27 17 28 18 29 19 30 20 31 27 32 28 33 29 34 30 35
REMARK SMILES IDX 31 37 32 38 33 39 94 40 34 41 93 42 35 43 36 44 37 45 87 46
REMARK SMILES IDX 38 47 92 48 86 49 88 50 39 51 91 52 85 53 84 54 40 56 72 57
REMARK SMILES IDX 52 58 71 59 53 60 56 61 70 62 89 63 54 64 55 65 69 67 90 68
REMARK SMILES IDX 57 69 41 70 42 71 50 72 43 73 45 74 51 75 44 76 46 77 47 78
REMARK SMILES IDX 48 79 49 80 73 81 74 82 82 83 75 84 77 85 83 86 76 87 78 88
REMARK SMILES IDX 79 89 80 90 81 91 58 92 59 93 67 94 60 95 62 96 68 97 61 98
REMARK SMILES IDX 63 99 64 100 65 101 66 102
REMARK H PARENT 25 5 6 16 12 21 29 36 88 55 56 66
REMARK Flexibility Score: inf
ROOT
ATOM      1  C   UNL A   1      35.096  22.989  26.593  1.00  0.00     0.117 C 
ENDROOT
BRANCH   1   2
ATOM      2  N   UNL A   1      33.913  22.819  27.380  1.00  0.00    -0.356 N 
ATOM      3  C   UNL A   1      32.658  23.203  27.002  1.00  0.00     0.229 C 
ATOM      4  O   UNL A   1      31.714  22.857  27.715  1.00  0.00    -0.275 OA
ATOM      5  H   UNL A   1      34.012  22.392  28.262  1.00  0.00     0.163 HD
BRANCH   3   6
ATOM      6  C   UNL A   1      32.421  24.137  25.785  1.00  0.00     0.142 C 
BRANCH   6   7
ATOM      7  C   UNL A   1      32.496  25.581  26.295  1.00  0.00     0.276 C 
BRANCH   7   8
ATOM      8  N   UNL A   1      31.333  26.453  26.510  1.00  0.00    -0.331 N 
ATOM      9  O   UNL A   1      29.833  28.549  22.090  1.00  0.00    -0.279 OA
ATOM     10  C   UNL A   1      30.429  28.906  23.091  1.00  0.00     0.340 C 
ATOM     11  N   UNL A   1      30.697  28.129  24.196  1.00  0.00    -0.334 N 
ATOM     12  C   UNL A   1      31.645  28.595  25.190  1.00  0.00     0.180 C 
ATOM     13  C   UNL A   1      30.364  26.704  24.196  1.00  0.00     0.180 C 
ATOM     14  C   UNL A   1      31.487  27.907  26.550  1.00  0.00     0.284 C 
ATOM     15  C   UNL A   1      30.200  26.127  25.616  1.00  0.00     0.284 C 
ATOM     16  H   UNL A   1      31.156  26.209  27.484  1.00  0.00     0.348 HD
ENDBRANCH   7   8
ENDBRANCH   6   7
BRANCH   6  17
ATOM     17  C   UNL A   1      33.003  23.650  24.445  1.00  0.00     0.119 C 
BRANCH  17  18
ATOM     18  C   UNL A   1      32.424  22.981  23.176  1.00  0.00     0.225 C 
ATOM     19  O   UNL A   1      32.163  23.765  22.243  1.00  0.00    -0.275 OA
ATOM     20  N   UNL A   1      32.261  21.680  22.836  1.00  0.00    -0.325 N 
ATOM     21  H   UNL A   1      31.946  21.583  21.908  1.00  0.00     0.169 HD
BRANCH  20  22
ATOM     22  C   UNL A   1      32.424  20.439  23.460  1.00  0.00     0.059 A 
ATOM     23  C   UNL A   1      32.645  20.243  24.812  1.00  0.00     0.030 A 
ATOM     24  C   UNL A   1      32.256  19.292  22.692  1.00  0.00     0.137 A 
ATOM     25  C   UNL A   1      32.913  18.960  25.300  1.00  0.00     0.035 A 
ATOM     26  N   UNL A   1      32.536  18.039  23.117  1.00  0.00    -0.250 NA
ATOM     27  C   UNL A   1      32.936  17.889  24.412  1.00  0.00     0.144 A 
BRANCH  27  28
ATOM     28  C   UNL A   1      33.478  16.547  24.885  1.00  0.00     0.433 C 
ATOM     29  F   UNL A   1      32.855  15.478  24.322  1.00  0.00    -0.165 F 
ATOM     30  F   UNL A   1      34.812  16.383  24.643  1.00  0.00    -0.165 F 
ATOM     31  F   UNL A   1      33.343  16.379  26.238  1.00  0.00    -0.165 F 
ENDBRANCH  27  28
ENDBRANCH  20  22
ENDBRANCH  17  18
ENDBRANCH   6  17
ENDBRANCH   3   6
ENDBRANCH   1   2
BRANCH   1  32
ATOM     32  C   UNL A   1      35.713  21.766  25.980  1.00  0.00     0.042 C 
BRANCH  32  33
ATOM     33  C   UNL A   1      37.037  22.042  25.323  1.00  0.00     0.118 C 
BRANCH  33  34
ATOM     34  N   UNL A   1      38.043  21.020  25.600  1.00  0.00    -0.352 N 
ATOM     35  C   UNL A   1      39.313  21.116  26.124  1.00  0.00     0.251 C 
ATOM     36  H   UNL A   1      37.765  20.103  25.372  1.00  0.00     0.163 HD
ATOM     37  O   UNL A   1      40.031  20.121  26.152  1.00  0.00    -0.269 OA
BRANCH  35  38
ATOM     38  C   UNL A   1      39.819  22.414  26.619  1.00  0.00     0.039 A 
ATOM     39  C   UNL A   1      40.802  22.443  27.611  1.00  0.00     0.014 A 
ATOM     40  C   UNL A   1      39.338  23.608  26.091  1.00  0.00     0.014 A 
ATOM     41  C   UNL A   1      41.335  23.669  28.013  1.00  0.00     0.010 A 
ATOM     42  C   UNL A   1      40.008  24.792  26.338  1.00  0.00     0.010 A 
ATOM     43  C   UNL A   1      40.966  24.852  27.352  1.00  0.00    -0.014 A 
BRANCH  43  44
ATOM     44  C   UNL A   1      41.488  26.181  27.751  1.00  0.00     0.031 A 
ATOM     45  C   UNL A   1      42.899  26.568  27.375  1.00  0.00     0.074 A 
ATOM     46  C   UNL A   1      40.735  27.001  28.508  1.00  0.00     0.049 A 
ATOM     47  N   UNL A   1      43.563  27.654  27.670  1.00  0.00    -0.248 NA
ATOM     48  C   UNL A   1      43.688  25.582  26.612  1.00  0.00     0.031 C 
ATOM     49  C   UNL A   1      39.394  26.700  29.013  1.00  0.00     0.029 A 
ATOM     50  N   UNL A   1      40.999  28.254  28.995  1.00  0.00    -0.354 N 
ATOM     51  C   UNL A   1      44.847  27.458  27.171  1.00  0.00     0.074 A 
ATOM     52  C   UNL A   1      44.895  26.121  26.630  1.00  0.00     0.031 C 
ATOM     53  C   UNL A   1      38.936  27.757  29.704  1.00  0.00     0.029 A 
ATOM     54  C   UNL A   1      39.963  28.793  29.720  1.00  0.00     0.049 A 
ATOM     55  H   UNL A   1      41.850  28.725  28.839  1.00  0.00     0.167 HD
ATOM     56  C   UNL A   1      45.882  28.327  27.116  1.00  0.00     0.034 A 
ATOM     57  C   UNL A   1      39.855  29.993  30.321  1.00  0.00     0.034 A 
ATOM     58  C   UNL A   1      45.807  29.675  27.603  1.00  0.00     0.049 A 
ATOM     59  C   UNL A   1      40.997  30.965  30.205  1.00  0.00     0.074 A 
ATOM     60  C   UNL A   1      46.759  30.674  27.526  1.00  0.00     0.029 A 
ATOM     61  N   UNL A   1      44.711  30.212  28.260  1.00  0.00    -0.354 N 
ATOM     62  N   UNL A   1      42.152  30.816  29.602  1.00  0.00    -0.248 NA
ATOM     63  C   UNL A   1      40.803  32.287  30.817  1.00  0.00     0.031 C 
ATOM     64  C   UNL A   1      46.249  31.807  28.167  1.00  0.00     0.029 A 
ATOM     65  C   UNL A   1      44.963  31.527  28.603  1.00  0.00     0.049 A 
ATOM     66  H   UNL A   1      43.876  29.727  28.456  1.00  0.00     0.167 HD
ATOM     67  C   UNL A   1      42.805  32.037  29.721  1.00  0.00     0.074 A 
ATOM     68  C   UNL A   1      41.907  32.918  30.441  1.00  0.00     0.031 C 
ATOM     69  C   UNL A   1      44.035  32.398  29.279  1.00  0.00     0.034 A 
BRANCH  56  70
ATOM     70  C   UNL A   1      47.156  27.849  26.463  1.00  0.00     0.023 A 
ATOM     71  C   UNL A   1      48.181  27.286  27.253  1.00  0.00     0.012 A 
ATOM     72  C   UNL A   1      47.339  27.954  25.073  1.00  0.00     0.148 A 
ATOM     73  C   UNL A   1      49.389  26.891  26.678  1.00  0.00     0.002 A 
ATOM     74  C   UNL A   1      48.524  27.506  24.499  1.00  0.00     0.091 A 
ATOM     75  F   UNL A   1      46.368  28.515  24.338  1.00  0.00    -0.205 F 
ATOM     76  C   UNL A   1      49.556  26.992  25.301  1.00  0.00     0.022 A 
BRANCH  74  77
ATOM     77  S   UNL A   1      48.802  27.513  22.726  1.00  0.00     0.127 S 
ATOM     78  O   UNL A   1      50.177  28.006  22.645  1.00  0.00    -0.237 OA
ATOM     79  O   UNL A   1      48.640  26.099  22.383  1.00  0.00    -0.237 OA
ATOM     80  O   UNL A   1      47.787  28.393  22.164  1.00  0.00    -0.744 OA
ENDBRANCH  74  77
ENDBRANCH  56  70
BRANCH  57  81
ATOM     81  C   UNL A   1      38.583  30.373  30.997  1.00  0.00     0.023 A 
ATOM     82  C   UNL A   1      38.385  30.019  32.346  1.00  0.00     0.012 A 
ATOM     83  C   UNL A   1      37.590  31.113  30.329  1.00  0.00     0.148 A 
ATOM     84  C   UNL A   1      37.208  30.366  33.008  1.00  0.00     0.002 A 
ATOM     85  C   UNL A   1      36.443  31.503  31.009  1.00  0.00     0.091 A 
ATOM     86  F   UNL A   1      37.798  31.439  29.045  1.00  0.00    -0.205 F 
ATOM     87  C   UNL A   1      36.241  31.117  32.344  1.00  0.00     0.022 A 
BRANCH  85  88
ATOM     88  S   UNL A   1      35.202  32.576  30.278  1.00  0.00     0.127 S 
ATOM     89  O   UNL A   1      34.725  31.764  29.161  1.00  0.00    -0.237 OA
ATOM     90  O   UNL A   1      34.253  32.728  31.382  1.00  0.00    -0.237 OA
ATOM     91  O   UNL A   1      35.903  33.799  29.913  1.00  0.00    -0.744 OA
ENDBRANCH  85  88
ENDBRANCH  57  81
BRANCH  69  92
ATOM     92  C   UNL A   1      44.466  33.822  29.508  1.00  0.00     0.023 A 
ATOM     93  C   UNL A   1      44.984  34.215  30.757  1.00  0.00     0.012 A 
ATOM     94  C   UNL A   1      44.418  34.755  28.453  1.00  0.00     0.148 A 
ATOM     95  C   UNL A   1      45.409  35.527  30.965  1.00  0.00     0.002 A 
ATOM     96  C   UNL A   1      44.895  36.043  28.650  1.00  0.00     0.091 A 
ATOM     97  F   UNL A   1      43.905  34.366  27.277  1.00  0.00    -0.205 F 
ATOM     98  C   UNL A   1      45.375  36.436  29.910  1.00  0.00     0.022 A 
BRANCH  96  99
ATOM     99  S   UNL A   1      44.990  37.246  27.320  1.00  0.00     0.127 S 
ATOM    100  O   UNL A   1      43.579  37.430  26.985  1.00  0.00    -0.237 OA
ATOM    101  O   UNL A   1      45.616  38.391  27.981  1.00  0.00    -0.237 OA
ATOM    102  O   UNL A   1      45.804  36.631  26.280  1.00  0.00    -0.744 OA
ENDBRANCH  96  99
ENDBRANCH  69  92
ENDBRANCH  43  44
ENDBRANCH  35  38
ENDBRANCH  33  34
ENDBRANCH  32  33
ENDBRANCH   1  32
TORSDOF 19
ENDMDL
