MODEL 1
REMARK VINA RESULT:     -13.4      0.000      0.000
REMARK SMILES Cc1ccc(S(=O)(=O)n2cc(C(=O)C(=O)NCC(=O)N[C@H](Cc3c[nH]c4ccccc34)C(=O)NCCCNC(=O)c3ccc(-c4c5nc(c(-c6cccc(S(=O)(=O)[O-])c6F)c6ccc([nH]6)c(-c6cccc(S(=O)(=O)[O-])c6F)c6nc(c(-c7cccc(S(=O)(=O)[O-])c7F)c7ccc4[nH]7)C=C6)C=C5)cc3)c3ccccc32)cc1
REMARK SMILES IDX 32 1 33 2 34 3 21 5 20 6 18 7 19 8 17 10 16 11 14 12 15 13
REMARK SMILES IDX 12 15 13 16 11 17 9 18 10 19 109 20 104 21 108 22 105 23
REMARK SMILES IDX 107 24 106 25 6 26 7 27 8 28 5 29 1 30 2 31 3 32 111 33 4 34
REMARK SMILES IDX 110 35 22 36 23 37 24 38 31 39 25 40 26 41 30 42 27 44 29 45
REMARK SMILES IDX 28 46 35 47 36 48 37 49 38 50 39 51 40 53 41 54 42 55 103 56
REMARK SMILES IDX 43 57 102 58 44 59 45 60 46 61 96 62 47 63 101 64 95 65
REMARK SMILES IDX 97 66 48 67 100 68 94 69 93 70 49 72 81 73 61 74 80 75 62 76
REMARK SMILES IDX 65 77 79 78 98 79 63 80 64 81 78 83 99 84 66 85 50 86 51 87
REMARK SMILES IDX 59 88 52 89 54 90 60 91 53 92 55 93 56 94 57 95 58 96 82 97
REMARK SMILES IDX 83 98 91 99 84 100 86 101 92 102 85 103 87 104 88 105 89 106
REMARK SMILES IDX 90 107 67 108 68 109 76 110 69 111 71 112 77 113 70 114
REMARK SMILES IDX 72 115 73 116 74 117 75 118
REMARK H PARENT 34 4 20 9 16 14 25 43 38 52 97 71 65 82
REMARK Flexibility Score: inf
ROOT
ATOM      1  C   UNL A   1      41.379  25.231  26.191  1.00  0.00     0.242 C 
ATOM      2  O   UNL A   1      42.239  25.231  25.302  1.00  0.00    -0.273 OA
ATOM      3  N   UNL A   1      41.211  26.406  26.854  1.00  0.00    -0.354 N 
ATOM      4  H   UNL A   1      41.832  27.107  26.552  1.00  0.00     0.163 HD
ENDROOT
BRANCH   1   5
ATOM      5  C   UNL A   1      40.643  23.918  26.507  1.00  0.00     0.175 C 
BRANCH   5   6
ATOM      6  N   UNL A   1      39.229  24.242  26.711  1.00  0.00    -0.342 N 
ATOM      7  C   UNL A   1      38.143  23.621  26.157  1.00  0.00     0.240 C 
ATOM      8  O   UNL A   1      37.044  24.156  26.331  1.00  0.00    -0.273 OA
ATOM      9  H   UNL A   1      39.038  24.994  27.318  1.00  0.00     0.164 HD
BRANCH   7  10
ATOM     10  C   UNL A   1      38.246  22.213  25.511  1.00  0.00     0.216 C 
BRANCH  10  11
ATOM     11  N   UNL A   1      37.110  21.296  25.608  1.00  0.00    -0.340 N 
ATOM     12  C   UNL A   1      35.944  21.242  24.849  1.00  0.00     0.292 C 
ATOM     13  O   UNL A   1      35.137  20.327  24.962  1.00  0.00    -0.265 OA
ATOM     14  H   UNL A   1      37.180  20.616  26.316  1.00  0.00     0.164 HD
BRANCH  12  15
ATOM     15  C   UNL A   1      35.689  22.310  23.792  1.00  0.00     0.252 C 
ATOM     16  O   UNL A   1      36.664  22.601  23.096  1.00  0.00    -0.283 OA
BRANCH  15  17
ATOM     17  C   UNL A   1      34.426  23.070  23.701  1.00  0.00     0.054 A 
ATOM     18  N   UNL A   1      32.583  24.268  23.107  1.00  0.00    -0.240 N 
ATOM     19  C   UNL A   1      33.814  23.775  22.652  1.00  0.00     0.117 A 
ATOM     20  C   UNL A   1      32.345  23.653  24.359  1.00  0.00     0.065 A 
ATOM     21  C   UNL A   1      33.602  23.306  24.842  1.00  0.00     0.012 A 
ATOM     22  C   UNL A   1      31.225  23.718  25.212  1.00  0.00     0.028 A 
ATOM     23  C   UNL A   1      33.790  23.224  26.237  1.00  0.00     0.011 A 
ATOM     24  C   UNL A   1      31.462  23.751  26.586  1.00  0.00     0.002 A 
ATOM     25  C   UNL A   1      32.736  23.546  27.094  1.00  0.00     0.001 A 
BRANCH  18  26
ATOM     26  S   UNL A   1      32.076  25.952  23.185  1.00  0.00     0.268 S 
ATOM     27  O   UNL A   1      30.665  25.874  22.831  1.00  0.00    -0.201 OA
ATOM     28  O   UNL A   1      33.034  26.573  22.276  1.00  0.00    -0.201 OA
BRANCH  26  29
ATOM     29  C   UNL A   1      32.126  27.121  24.493  1.00  0.00     0.088 A 
ATOM     30  C   UNL A   1      31.976  30.784  26.796  1.00  0.00     0.044 C 
ATOM     31  C   UNL A   1      32.000  29.475  26.058  1.00  0.00    -0.051 A 
ATOM     32  C   UNL A   1      31.298  29.415  24.866  1.00  0.00     0.005 A 
ATOM     33  C   UNL A   1      32.736  28.340  26.474  1.00  0.00     0.005 A 
ATOM     34  C   UNL A   1      31.352  28.255  24.118  1.00  0.00     0.022 A 
ATOM     35  C   UNL A   1      32.813  27.152  25.692  1.00  0.00     0.022 A 
ENDBRANCH  26  29
ENDBRANCH  18  26
ENDBRANCH  15  17
ENDBRANCH  12  15
ENDBRANCH  10  11
ENDBRANCH   7  10
ENDBRANCH   5   6
BRANCH   5  36
ATOM     36  C   UNL A   1      41.235  22.989  27.606  1.00  0.00     0.072 C 
BRANCH  36  37
ATOM     37  C   UNL A   1      41.645  21.567  27.290  1.00  0.00    -0.020 A 
ATOM     38  C   UNL A   1      41.075  20.385  27.718  1.00  0.00     0.087 A 
ATOM     39  C   UNL A   1      42.757  21.154  26.450  1.00  0.00     0.003 A 
ATOM     40  N   UNL A   1      41.653  19.339  27.070  1.00  0.00    -0.361 N 
ATOM     41  C   UNL A   1      42.633  19.781  26.234  1.00  0.00     0.046 A 
ATOM     42  C   UNL A   1      43.852  21.797  25.834  1.00  0.00     0.010 A 
ATOM     43  H   UNL A   1      41.400  18.395  27.189  1.00  0.00     0.166 HD
ATOM     44  C   UNL A   1      43.426  19.042  25.356  1.00  0.00     0.026 A 
ATOM     45  C   UNL A   1      44.728  21.050  25.023  1.00  0.00     0.001 A 
ATOM     46  C   UNL A   1      44.492  19.703  24.758  1.00  0.00     0.002 A 
ENDBRANCH  36  37
ENDBRANCH   5  36
ENDBRANCH   1   5
BRANCH   3  47
ATOM     47  C   UNL A   1      40.321  26.862  27.911  1.00  0.00     0.117 C 
BRANCH  47  48
ATOM     48  C   UNL A   1      40.677  28.218  28.507  1.00  0.00     0.042 C 
BRANCH  48  49
ATOM     49  C   UNL A   1      39.506  28.946  29.168  1.00  0.00     0.118 C 
BRANCH  49  50
ATOM     50  N   UNL A   1      38.562  29.491  28.198  1.00  0.00    -0.352 N 
ATOM     51  C   UNL A   1      37.535  30.405  28.370  1.00  0.00     0.251 C 
ATOM     52  H   UNL A   1      38.672  29.157  27.278  1.00  0.00     0.163 HD
ATOM     53  O   UNL A   1      36.647  30.495  27.525  1.00  0.00    -0.269 OA
BRANCH  51  54
ATOM     54  C   UNL A   1      37.626  31.378  29.482  1.00  0.00     0.039 A 
ATOM     55  C   UNL A   1      37.962  32.693  29.142  1.00  0.00     0.014 A 
ATOM     56  C   UNL A   1      37.736  30.945  30.794  1.00  0.00     0.014 A 
ATOM     57  C   UNL A   1      38.713  33.457  30.027  1.00  0.00     0.010 A 
ATOM     58  C   UNL A   1      38.542  31.666  31.644  1.00  0.00     0.010 A 
ATOM     59  C   UNL A   1      39.107  32.871  31.219  1.00  0.00    -0.014 A 
BRANCH  59  60
ATOM     60  C   UNL A   1      40.052  33.449  32.151  1.00  0.00     0.031 A 
ATOM     61  C   UNL A   1      39.528  34.121  33.348  1.00  0.00     0.074 A 
ATOM     62  C   UNL A   1      41.372  33.204  31.989  1.00  0.00     0.049 A 
ATOM     63  N   UNL A   1      40.184  34.981  34.041  1.00  0.00    -0.248 NA
ATOM     64  C   UNL A   1      38.175  33.881  33.835  1.00  0.00     0.031 C 
ATOM     65  C   UNL A   1      42.423  33.352  32.987  1.00  0.00     0.029 A 
ATOM     66  N   UNL A   1      42.062  32.935  30.800  1.00  0.00    -0.354 N 
ATOM     67  C   UNL A   1      39.465  35.204  35.196  1.00  0.00     0.074 A 
ATOM     68  C   UNL A   1      38.188  34.568  34.981  1.00  0.00     0.031 C 
ATOM     69  C   UNL A   1      43.605  33.448  32.358  1.00  0.00     0.029 A 
ATOM     70  C   UNL A   1      43.324  33.544  30.936  1.00  0.00     0.049 A 
ATOM     71  H   UNL A   1      41.731  32.425  30.026  1.00  0.00     0.167 HD
ATOM     72  C   UNL A   1      40.097  35.752  36.272  1.00  0.00     0.034 A 
ATOM     73  C   UNL A   1      43.783  34.533  30.112  1.00  0.00     0.034 A 
ATOM     74  C   UNL A   1      41.497  36.046  35.946  1.00  0.00     0.049 A 
ATOM     75  C   UNL A   1      44.083  35.825  30.854  1.00  0.00     0.074 A 
ATOM     76  C   UNL A   1      42.663  35.315  36.117  1.00  0.00     0.029 A 
ATOM     77  N   UNL A   1      41.800  37.066  35.052  1.00  0.00    -0.354 N 
ATOM     78  N   UNL A   1      43.747  36.054  32.093  1.00  0.00    -0.248 NA
ATOM     79  C   UNL A   1      44.768  36.964  30.253  1.00  0.00     0.031 C 
ATOM     80  C   UNL A   1      43.653  35.859  35.259  1.00  0.00     0.029 A 
ATOM     81  C   UNL A   1      43.103  36.942  34.593  1.00  0.00     0.049 A 
ATOM     82  H   UNL A   1      41.176  37.777  34.782  1.00  0.00     0.167 HD
ATOM     83  C   UNL A   1      44.047  37.349  32.434  1.00  0.00     0.074 A 
ATOM     84  C   UNL A   1      44.751  37.851  31.264  1.00  0.00     0.031 C 
ATOM     85  C   UNL A   1      43.645  37.894  33.626  1.00  0.00     0.034 A 
BRANCH  72  86
ATOM     86  C   UNL A   1      39.570  35.677  37.693  1.00  0.00     0.023 A 
ATOM     87  C   UNL A   1      39.565  36.877  38.440  1.00  0.00     0.012 A 
ATOM     88  C   UNL A   1      39.138  34.518  38.377  1.00  0.00     0.148 A 
ATOM     89  C   UNL A   1      39.264  36.915  39.804  1.00  0.00     0.002 A 
ATOM     90  C   UNL A   1      38.901  34.540  39.757  1.00  0.00     0.091 A 
ATOM     91  F   UNL A   1      38.882  33.399  37.688  1.00  0.00    -0.205 F 
ATOM     92  C   UNL A   1      38.969  35.739  40.473  1.00  0.00     0.022 A 
BRANCH  90  93
ATOM     93  S   UNL A   1      38.599  33.046  40.718  1.00  0.00     0.127 S 
ATOM     94  O   UNL A   1      38.558  33.563  42.089  1.00  0.00    -0.237 OA
ATOM     95  O   UNL A   1      37.310  32.593  40.202  1.00  0.00    -0.237 OA
ATOM     96  O   UNL A   1      39.732  32.167  40.454  1.00  0.00    -0.744 OA
ENDBRANCH  90  93
ENDBRANCH  72  86
BRANCH  73  97
ATOM     97  C   UNL A   1      43.267  34.438  28.716  1.00  0.00     0.023 A 
ATOM     98  C   UNL A   1      42.351  35.437  28.308  1.00  0.00     0.012 A 
ATOM     99  C   UNL A   1      43.961  33.707  27.738  1.00  0.00     0.148 A 
ATOM    100  C   UNL A   1      42.244  35.804  26.965  1.00  0.00     0.002 A 
ATOM    101  C   UNL A   1      43.862  34.092  26.403  1.00  0.00     0.091 A 
ATOM    102  F   UNL A   1      44.773  32.719  28.133  1.00  0.00    -0.205 F 
ATOM    103  C   UNL A   1      43.035  35.163  26.021  1.00  0.00     0.022 A 
BRANCH 101 104
ATOM    104  S   UNL A   1      44.912  33.377  25.133  1.00  0.00     0.127 S 
ATOM    105  O   UNL A   1      43.971  33.208  24.031  1.00  0.00    -0.237 OA
ATOM    106  O   UNL A   1      45.905  34.431  24.934  1.00  0.00    -0.237 OA
ATOM    107  O   UNL A   1      45.442  32.157  25.724  1.00  0.00    -0.744 OA
ENDBRANCH 101 104
ENDBRANCH  73  97
BRANCH  85 108
ATOM    108  C   UNL A   1      43.725  39.365  34.020  1.00  0.00     0.023 A 
ATOM    109  C   UNL A   1      44.309  39.800  35.224  1.00  0.00     0.012 A 
ATOM    110  C   UNL A   1      43.323  40.388  33.114  1.00  0.00     0.148 A 
ATOM    111  C   UNL A   1      44.432  41.158  35.546  1.00  0.00     0.002 A 
ATOM    112  C   UNL A   1      43.563  41.733  33.385  1.00  0.00     0.091 A 
ATOM    113  F   UNL A   1      42.673  40.070  31.986  1.00  0.00    -0.205 F 
ATOM    114  C   UNL A   1      44.084  42.125  34.617  1.00  0.00     0.022 A 
BRANCH 112 115
ATOM    115  S   UNL A   1      43.368  42.993  32.114  1.00  0.00     0.127 S 
ATOM    116  O   UNL A   1      41.993  42.771  31.677  1.00  0.00    -0.237 OA
ATOM    117  O   UNL A   1      43.576  44.230  32.871  1.00  0.00    -0.237 OA
ATOM    118  O   UNL A   1      44.410  42.713  31.135  1.00  0.00    -0.744 OA
ENDBRANCH 112 115
ENDBRANCH  85 108
ENDBRANCH  59  60
ENDBRANCH  51  54
ENDBRANCH  49  50
ENDBRANCH  48  49
ENDBRANCH  47  48
ENDBRANCH   3  47
TORSDOF 22
ENDMDL
MODEL 2
REMARK VINA RESULT:     -12.8      1.715      2.063
REMARK SMILES Cc1ccc(S(=O)(=O)n2cc(C(=O)C(=O)NCC(=O)N[C@H](Cc3c[nH]c4ccccc34)C(=O)NCCCNC(=O)c3ccc(-c4c5nc(c(-c6cccc(S(=O)(=O)[O-])c6F)c6ccc([nH]6)c(-c6cccc(S(=O)(=O)[O-])c6F)c6nc(c(-c7cccc(S(=O)(=O)[O-])c7F)c7ccc4[nH]7)C=C6)C=C5)cc3)c3ccccc32)cc1
REMARK SMILES IDX 32 1 33 2 34 3 21 5 20 6 18 7 19 8 17 10 16 11 14 12 15 13
REMARK SMILES IDX 12 15 13 16 11 17 9 18 10 19 109 20 104 21 108 22 105 23
REMARK SMILES IDX 107 24 106 25 6 26 7 27 8 28 5 29 1 30 2 31 3 32 111 33 4 34
REMARK SMILES IDX 110 35 22 36 23 37 24 38 31 39 25 40 26 41 30 42 27 44 29 45
REMARK SMILES IDX 28 46 35 47 36 48 37 49 38 50 39 51 40 53 41 54 42 55 103 56
REMARK SMILES IDX 43 57 102 58 44 59 45 60 46 61 96 62 47 63 101 64 95 65
REMARK SMILES IDX 97 66 48 67 100 68 94 69 93 70 49 72 81 73 61 74 80 75 62 76
REMARK SMILES IDX 65 77 79 78 98 79 63 80 64 81 78 83 99 84 66 85 50 86 51 87
REMARK SMILES IDX 59 88 52 89 54 90 60 91 53 92 55 93 56 94 57 95 58 96 82 97
REMARK SMILES IDX 83 98 91 99 84 100 86 101 92 102 85 103 87 104 88 105 89 106
REMARK SMILES IDX 90 107 67 108 68 109 76 110 69 111 71 112 77 113 70 114
REMARK SMILES IDX 72 115 73 116 74 117 75 118
REMARK H PARENT 34 4 20 9 16 14 25 43 38 52 97 71 65 82
REMARK Flexibility Score: inf
ROOT
ATOM      1  C   UNL A   1      41.220  25.649  26.090  1.00  0.00     0.242 C 
ATOM      2  O   UNL A   1      41.851  25.799  25.036  1.00  0.00    -0.273 OA
ATOM      3  N   UNL A   1      41.133  26.746  26.888  1.00  0.00    -0.354 N 
ATOM      4  H   UNL A   1      41.620  27.521  26.527  1.00  0.00     0.163 HD
ENDROOT
BRANCH   1   5
ATOM      5  C   UNL A   1      40.664  24.255  26.427  1.00  0.00     0.175 C 
BRANCH   5   6
ATOM      6  N   UNL A   1      39.237  24.408  26.717  1.00  0.00    -0.342 N 
ATOM      7  C   UNL A   1      38.197  23.704  26.175  1.00  0.00     0.240 C 
ATOM      8  O   UNL A   1      37.056  24.102  26.434  1.00  0.00    -0.273 OA
ATOM      9  H   UNL A   1      38.998  25.097  27.379  1.00  0.00     0.164 HD
BRANCH   7  10
ATOM     10  C   UNL A   1      38.416  22.357  25.435  1.00  0.00     0.216 C 
BRANCH  10  11
ATOM     11  N   UNL A   1      37.409  21.302  25.552  1.00  0.00    -0.340 N 
ATOM     12  C   UNL A   1      36.225  21.122  24.842  1.00  0.00     0.292 C 
ATOM     13  O   UNL A   1      35.544  20.111  24.960  1.00  0.00    -0.265 OA
ATOM     14  H   UNL A   1      37.594  20.619  26.236  1.00  0.00     0.164 HD
BRANCH  12  15
ATOM     15  C   UNL A   1      35.791  22.175  23.829  1.00  0.00     0.252 C 
ATOM     16  O   UNL A   1      36.702  22.651  23.147  1.00  0.00    -0.283 OA
BRANCH  15  17
ATOM     17  C   UNL A   1      34.420  22.719  23.766  1.00  0.00     0.054 A 
ATOM     18  N   UNL A   1      32.381  23.567  23.211  1.00  0.00    -0.240 N 
ATOM     19  C   UNL A   1      33.651  23.241  22.713  1.00  0.00     0.117 A 
ATOM     20  C   UNL A   1      32.308  23.014  24.511  1.00  0.00     0.065 A 
ATOM     21  C   UNL A   1      33.627  22.905  24.938  1.00  0.00     0.012 A 
ATOM     22  C   UNL A   1      31.236  22.965  25.425  1.00  0.00     0.028 A 
ATOM     23  C   UNL A   1      33.896  22.955  26.321  1.00  0.00     0.011 A 
ATOM     24  C   UNL A   1      31.533  23.135  26.777  1.00  0.00     0.002 A 
ATOM     25  C   UNL A   1      32.847  23.169  27.218  1.00  0.00     0.001 A 
BRANCH  18  26
ATOM     26  S   UNL A   1      31.614  25.151  23.211  1.00  0.00     0.268 S 
ATOM     27  O   UNL A   1      30.209  24.822  23.412  1.00  0.00    -0.201 OA
ATOM     28  O   UNL A   1      32.075  25.684  21.933  1.00  0.00    -0.201 OA
BRANCH  26  29
ATOM     29  C   UNL A   1      31.871  26.565  24.218  1.00  0.00     0.088 A 
ATOM     30  C   UNL A   1      33.233  29.265  27.317  1.00  0.00     0.044 C 
ATOM     31  C   UNL A   1      32.759  28.388  26.192  1.00  0.00    -0.051 A 
ATOM     32  C   UNL A   1      33.544  27.290  25.881  1.00  0.00     0.005 A 
ATOM     33  C   UNL A   1      31.547  28.583  25.488  1.00  0.00     0.005 A 
ATOM     34  C   UNL A   1      33.110  26.416  24.904  1.00  0.00     0.022 A 
ATOM     35  C   UNL A   1      31.086  27.668  24.496  1.00  0.00     0.022 A 
ENDBRANCH  26  29
ENDBRANCH  18  26
ENDBRANCH  15  17
ENDBRANCH  12  15
ENDBRANCH  10  11
ENDBRANCH   7  10
ENDBRANCH   5   6
BRANCH   5  36
ATOM     36  C   UNL A   1      41.425  23.394  27.476  1.00  0.00     0.072 C 
BRANCH  36  37
ATOM     37  C   UNL A   1      41.657  21.915  27.253  1.00  0.00    -0.020 A 
ATOM     38  C   UNL A   1      40.939  20.842  27.741  1.00  0.00     0.087 A 
ATOM     39  C   UNL A   1      42.716  21.315  26.458  1.00  0.00     0.003 A 
ATOM     40  N   UNL A   1      41.388  19.694  27.167  1.00  0.00    -0.361 N 
ATOM     41  C   UNL A   1      42.423  19.958  26.323  1.00  0.00     0.046 A 
ATOM     42  C   UNL A   1      43.889  21.777  25.824  1.00  0.00     0.010 A 
ATOM     43  H   UNL A   1      41.016  18.799  27.338  1.00  0.00     0.166 HD
ATOM     44  C   UNL A   1      43.125  19.073  25.505  1.00  0.00     0.026 A 
ATOM     45  C   UNL A   1      44.671  20.878  25.074  1.00  0.00     0.001 A 
ATOM     46  C   UNL A   1      44.271  19.557  24.886  1.00  0.00     0.002 A 
ENDBRANCH  36  37
ENDBRANCH   5  36
ENDBRANCH   1   5
BRANCH   3  47
ATOM     47  C   UNL A   1      40.481  27.033  28.157  1.00  0.00     0.117 C 
BRANCH  47  48
ATOM     48  C   UNL A   1      41.030  28.245  28.898  1.00  0.00     0.042 C 
BRANCH  48  49
ATOM     49  C   UNL A   1      39.968  29.089  29.606  1.00  0.00     0.118 C 
BRANCH  49  50
ATOM     50  N   UNL A   1      38.926  29.558  28.699  1.00  0.00    -0.352 N 
ATOM     51  C   UNL A   1      37.846  30.394  28.939  1.00  0.00     0.251 C 
ATOM     52  H   UNL A   1      39.001  29.231  27.774  1.00  0.00     0.163 HD
ATOM     53  O   UNL A   1      36.903  30.414  28.152  1.00  0.00    -0.269 OA
BRANCH  51  54
ATOM     54  C   UNL A   1      37.935  31.374  30.044  1.00  0.00     0.039 A 
ATOM     55  C   UNL A   1      38.122  32.714  29.684  1.00  0.00     0.014 A 
ATOM     56  C   UNL A   1      38.187  30.956  31.342  1.00  0.00     0.014 A 
ATOM     57  C   UNL A   1      38.867  33.545  30.511  1.00  0.00     0.010 A 
ATOM     58  C   UNL A   1      38.989  31.751  32.129  1.00  0.00     0.010 A 
ATOM     59  C   UNL A   1      39.405  33.001  31.666  1.00  0.00    -0.014 A 
BRANCH  59  60
ATOM     60  C   UNL A   1      40.364  33.666  32.523  1.00  0.00     0.031 A 
ATOM     61  C   UNL A   1      39.875  34.301  33.754  1.00  0.00     0.074 A 
ATOM     62  C   UNL A   1      41.685  33.532  32.264  1.00  0.00     0.049 A 
ATOM     63  N   UNL A   1      40.505  35.220  34.395  1.00  0.00    -0.248 NA
ATOM     64  C   UNL A   1      38.586  33.952  34.342  1.00  0.00     0.031 C 
ATOM     65  C   UNL A   1      42.790  33.778  33.181  1.00  0.00     0.029 A 
ATOM     66  N   UNL A   1      42.305  33.313  31.028  1.00  0.00    -0.354 N 
ATOM     67  C   UNL A   1      39.857  35.392  35.600  1.00  0.00     0.074 A 
ATOM     68  C   UNL A   1      38.626  34.647  35.482  1.00  0.00     0.031 C 
ATOM     69  C   UNL A   1      43.910  33.969  32.465  1.00  0.00     0.029 A 
ATOM     70  C   UNL A   1      43.517  34.028  31.067  1.00  0.00     0.049 A 
ATOM     71  H   UNL A   1      41.963  32.769  30.282  1.00  0.00     0.167 HD
ATOM     72  C   UNL A   1      40.517  36.001  36.624  1.00  0.00     0.034 A 
ATOM     73  C   UNL A   1      43.827  35.045  30.210  1.00  0.00     0.034 A 
ATOM     74  C   UNL A   1      41.859  36.411  36.193  1.00  0.00     0.049 A 
ATOM     75  C   UNL A   1      44.070  36.364  30.924  1.00  0.00     0.074 A 
ATOM     76  C   UNL A   1      43.092  35.783  36.279  1.00  0.00     0.029 A 
ATOM     77  N   UNL A   1      42.006  37.444  35.277  1.00  0.00    -0.354 N 
ATOM     78  N   UNL A   1      43.808  36.575  32.184  1.00  0.00    -0.248 NA
ATOM     79  C   UNL A   1      44.609  37.552  30.270  1.00  0.00     0.031 C 
ATOM     80  C   UNL A   1      43.966  36.402  35.348  1.00  0.00     0.029 A 
ATOM     81  C   UNL A   1      43.277  37.428  34.722  1.00  0.00     0.049 A 
ATOM     82  H   UNL A   1      41.305  38.098  35.052  1.00  0.00     0.167 HD
ATOM     83  C   UNL A   1      44.021  37.894  32.498  1.00  0.00     0.074 A 
ATOM     84  C   UNL A   1      44.590  38.443  31.277  1.00  0.00     0.031 C 
ATOM     85  C   UNL A   1      43.663  38.414  33.715  1.00  0.00     0.034 A 
BRANCH  72  86
ATOM     86  C   UNL A   1      40.105  35.894  38.081  1.00  0.00     0.023 A 
ATOM     87  C   UNL A   1      39.245  34.828  38.428  1.00  0.00     0.012 A 
ATOM     88  C   UNL A   1      40.440  36.788  39.123  1.00  0.00     0.148 A 
ATOM     89  C   UNL A   1      38.661  34.712  39.692  1.00  0.00     0.002 A 
ATOM     90  C   UNL A   1      39.805  36.712  40.370  1.00  0.00     0.091 A 
ATOM     91  F   UNL A   1      41.428  37.673  38.946  1.00  0.00    -0.205 F 
ATOM     92  C   UNL A   1      38.910  35.676  40.653  1.00  0.00     0.022 A 
BRANCH  90  93
ATOM     93  S   UNL A   1      40.004  37.973  41.642  1.00  0.00     0.127 S 
ATOM     94  O   UNL A   1      39.366  37.345  42.802  1.00  0.00    -0.237 OA
ATOM     95  O   UNL A   1      41.457  38.095  41.742  1.00  0.00    -0.237 OA
ATOM     96  O   UNL A   1      39.301  39.151  41.149  1.00  0.00    -0.744 OA
ENDBRANCH  90  93
ENDBRANCH  72  86
BRANCH  73  97
ATOM     97  C   UNL A   1      43.219  34.894  28.856  1.00  0.00     0.023 A 
ATOM     98  C   UNL A   1      42.309  35.901  28.452  1.00  0.00     0.012 A 
ATOM     99  C   UNL A   1      43.825  34.089  27.878  1.00  0.00     0.148 A 
ATOM    100  C   UNL A   1      42.127  36.199  27.100  1.00  0.00     0.002 A 
ATOM    101  C   UNL A   1      43.653  34.406  26.533  1.00  0.00     0.091 A 
ATOM    102  F   UNL A   1      44.630  33.096  28.274  1.00  0.00    -0.205 F 
ATOM    103  C   UNL A   1      42.836  35.482  26.145  1.00  0.00     0.022 A 
BRANCH 101 104
ATOM    104  S   UNL A   1      44.595  33.589  25.240  1.00  0.00     0.127 S 
ATOM    105  O   UNL A   1      45.967  33.893  25.637  1.00  0.00    -0.237 OA
ATOM    106  O   UNL A   1      44.203  32.192  25.417  1.00  0.00    -0.237 OA
ATOM    107  O   UNL A   1      44.133  34.190  23.999  1.00  0.00    -0.744 OA
ENDBRANCH 101 104
ENDBRANCH  73  97
BRANCH  85 108
ATOM    108  C   UNL A   1      43.646  39.889  34.098  1.00  0.00     0.023 A 
ATOM    109  C   UNL A   1      42.849  40.839  33.434  1.00  0.00     0.012 A 
ATOM    110  C   UNL A   1      44.350  40.356  35.245  1.00  0.00     0.148 A 
ATOM    111  C   UNL A   1      42.796  42.181  33.834  1.00  0.00     0.002 A 
ATOM    112  C   UNL A   1      44.195  41.659  35.712  1.00  0.00     0.091 A 
ATOM    113  F   UNL A   1      45.207  39.547  35.883  1.00  0.00    -0.205 F 
ATOM    114  C   UNL A   1      43.447  42.586  34.988  1.00  0.00     0.022 A 
BRANCH 112 115
ATOM    115  S   UNL A   1      44.808  42.152  37.331  1.00  0.00     0.127 S 
ATOM    116  O   UNL A   1      45.856  41.164  37.572  1.00  0.00    -0.237 OA
ATOM    117  O   UNL A   1      45.296  43.510  37.077  1.00  0.00    -0.237 OA
ATOM    118  O   UNL A   1      43.650  42.092  38.213  1.00  0.00    -0.744 OA
ENDBRANCH 112 115
ENDBRANCH  85 108
ENDBRANCH  59  60
ENDBRANCH  51  54
ENDBRANCH  49  50
ENDBRANCH  48  49
ENDBRANCH  47  48
ENDBRANCH   3  47
TORSDOF 22
ENDMDL
MODEL 3
REMARK VINA RESULT:     -12.1      3.034      4.406
REMARK SMILES Cc1ccc(S(=O)(=O)n2cc(C(=O)C(=O)NCC(=O)N[C@H](Cc3c[nH]c4ccccc34)C(=O)NCCCNC(=O)c3ccc(-c4c5nc(c(-c6cccc(S(=O)(=O)[O-])c6F)c6ccc([nH]6)c(-c6cccc(S(=O)(=O)[O-])c6F)c6nc(c(-c7cccc(S(=O)(=O)[O-])c7F)c7ccc4[nH]7)C=C6)C=C5)cc3)c3ccccc32)cc1
REMARK SMILES IDX 32 1 33 2 34 3 21 5 20 6 18 7 19 8 17 10 16 11 14 12 15 13
REMARK SMILES IDX 12 15 13 16 11 17 9 18 10 19 109 20 104 21 108 22 105 23
REMARK SMILES IDX 107 24 106 25 6 26 7 27 8 28 5 29 1 30 2 31 3 32 111 33 4 34
REMARK SMILES IDX 110 35 22 36 23 37 24 38 31 39 25 40 26 41 30 42 27 44 29 45
REMARK SMILES IDX 28 46 35 47 36 48 37 49 38 50 39 51 40 53 41 54 42 55 103 56
REMARK SMILES IDX 43 57 102 58 44 59 45 60 46 61 96 62 47 63 101 64 95 65
REMARK SMILES IDX 97 66 48 67 100 68 94 69 93 70 49 72 81 73 61 74 80 75 62 76
REMARK SMILES IDX 65 77 79 78 98 79 63 80 64 81 78 83 99 84 66 85 50 86 51 87
REMARK SMILES IDX 59 88 52 89 54 90 60 91 53 92 55 93 56 94 57 95 58 96 82 97
REMARK SMILES IDX 83 98 91 99 84 100 86 101 92 102 85 103 87 104 88 105 89 106
REMARK SMILES IDX 90 107 67 108 68 109 76 110 69 111 71 112 77 113 70 114
REMARK SMILES IDX 72 115 73 116 74 117 75 118
REMARK H PARENT 34 4 20 9 16 14 25 43 38 52 97 71 65 82
REMARK Flexibility Score: inf
ROOT
ATOM      1  C   UNL A   1      43.392  23.822  28.273  1.00  0.00     0.242 C 
ATOM      2  O   UNL A   1      43.813  23.052  29.145  1.00  0.00    -0.273 OA
ATOM      3  N   UNL A   1      43.791  25.117  28.383  1.00  0.00    -0.354 N 
ATOM      4  H   UNL A   1      44.349  25.279  29.177  1.00  0.00     0.163 HD
ENDROOT
BRANCH   1   5
ATOM      5  C   UNL A   1      42.425  23.275  27.209  1.00  0.00     0.175 C 
BRANCH   5   6
ATOM      6  N   UNL A   1      42.026  21.929  27.626  1.00  0.00    -0.342 N 
ATOM      7  C   UNL A   1      40.829  21.307  27.399  1.00  0.00     0.240 C 
ATOM      8  O   UNL A   1      40.639  20.232  27.979  1.00  0.00    -0.273 OA
ATOM      9  H   UNL A   1      42.698  21.411  28.127  1.00  0.00     0.164 HD
BRANCH   7  10
ATOM     10  C   UNL A   1      39.835  21.812  26.319  1.00  0.00     0.216 C 
BRANCH  10  11
ATOM     11  N   UNL A   1      38.890  20.870  25.719  1.00  0.00    -0.340 N 
ATOM     12  C   UNL A   1      37.618  21.097  25.200  1.00  0.00     0.292 C 
ATOM     13  O   UNL A   1      36.994  20.227  24.604  1.00  0.00    -0.265 OA
ATOM     14  H   UNL A   1      39.198  19.936  25.676  1.00  0.00     0.164 HD
BRANCH  12  15
ATOM     15  C   UNL A   1      37.004  22.488  25.305  1.00  0.00     0.252 C 
ATOM     16  O   UNL A   1      37.569  23.252  26.092  1.00  0.00    -0.283 OA
BRANCH  15  17
ATOM     17  C   UNL A   1      35.732  22.860  24.653  1.00  0.00     0.054 A 
ATOM     18  N   UNL A   1      34.035  23.478  23.266  1.00  0.00    -0.240 N 
ATOM     19  C   UNL A   1      35.427  23.339  23.368  1.00  0.00     0.117 A 
ATOM     20  C   UNL A   1      33.486  22.853  24.410  1.00  0.00     0.065 A 
ATOM     21  C   UNL A   1      34.497  22.885  25.366  1.00  0.00     0.012 A 
ATOM     22  C   UNL A   1      32.143  22.624  24.772  1.00  0.00     0.028 A 
ATOM     23  C   UNL A   1      34.136  22.895  26.729  1.00  0.00     0.011 A 
ATOM     24  C   UNL A   1      31.806  22.757  26.118  1.00  0.00     0.002 A 
ATOM     25  C   UNL A   1      32.786  22.930  27.084  1.00  0.00     0.001 A 
BRANCH  18  26
ATOM     26  S   UNL A   1      33.137  24.953  22.926  1.00  0.00     0.268 S 
ATOM     27  O   UNL A   1      31.915  24.446  22.318  1.00  0.00    -0.201 OA
ATOM     28  O   UNL A   1      34.110  25.693  22.128  1.00  0.00    -0.201 OA
BRANCH  26  29
ATOM     29  C   UNL A   1      32.588  26.247  23.977  1.00  0.00     0.088 A 
ATOM     30  C   UNL A   1      31.770  28.728  27.430  1.00  0.00     0.044 C 
ATOM     31  C   UNL A   1      32.061  27.932  26.189  1.00  0.00    -0.051 A 
ATOM     32  C   UNL A   1      33.131  27.054  26.245  1.00  0.00     0.005 A 
ATOM     33  C   UNL A   1      31.281  27.982  25.010  1.00  0.00     0.005 A 
ATOM     34  C   UNL A   1      33.390  26.248  25.153  1.00  0.00     0.022 A 
ATOM     35  C   UNL A   1      31.532  27.134  23.892  1.00  0.00     0.022 A 
ENDBRANCH  26  29
ENDBRANCH  18  26
ENDBRANCH  15  17
ENDBRANCH  12  15
ENDBRANCH  10  11
ENDBRANCH   7  10
ENDBRANCH   5   6
BRANCH   5  36
ATOM     36  C   UNL A   1      42.848  23.366  25.714  1.00  0.00     0.072 C 
BRANCH  36  37
ATOM     37  C   UNL A   1      44.132  22.733  25.226  1.00  0.00    -0.020 A 
ATOM     38  C   UNL A   1      45.265  23.345  24.728  1.00  0.00     0.087 A 
ATOM     39  C   UNL A   1      44.433  21.312  25.179  1.00  0.00     0.003 A 
ATOM     40  N   UNL A   1      46.245  22.418  24.558  1.00  0.00    -0.361 N 
ATOM     41  C   UNL A   1      45.792  21.179  24.895  1.00  0.00     0.046 A 
ATOM     42  C   UNL A   1      43.704  20.117  25.362  1.00  0.00     0.010 A 
ATOM     43  H   UNL A   1      47.154  22.615  24.236  1.00  0.00     0.166 HD
ATOM     44  C   UNL A   1      46.492  19.972  24.913  1.00  0.00     0.026 A 
ATOM     45  C   UNL A   1      44.370  18.880  25.285  1.00  0.00     0.001 A 
ATOM     46  C   UNL A   1      45.749  18.813  25.103  1.00  0.00     0.002 A 
ENDBRANCH  36  37
ENDBRANCH   5  36
ENDBRANCH   1   5
BRANCH   3  47
ATOM     47  C   UNL A   1      43.579  26.320  27.591  1.00  0.00     0.117 C 
BRANCH  47  48
ATOM     48  C   UNL A   1      44.719  26.670  26.643  1.00  0.00     0.042 C 
BRANCH  48  49
ATOM     49  C   UNL A   1      44.538  27.993  25.897  1.00  0.00     0.118 C 
BRANCH  49  50
ATOM     50  N   UNL A   1      45.768  28.775  25.833  1.00  0.00    -0.352 N 
ATOM     51  C   UNL A   1      46.029  30.063  26.275  1.00  0.00     0.251 C 
ATOM     52  H   UNL A   1      46.530  28.319  25.409  1.00  0.00     0.163 HD
ATOM     53  O   UNL A   1      47.008  30.670  25.848  1.00  0.00    -0.269 OA
BRANCH  51  54
ATOM     54  C   UNL A   1      45.222  30.611  27.388  1.00  0.00     0.039 A 
ATOM     55  C   UNL A   1      44.395  31.700  27.089  1.00  0.00     0.014 A 
ATOM     56  C   UNL A   1      45.535  30.311  28.705  1.00  0.00     0.014 A 
ATOM     57  C   UNL A   1      44.165  32.669  28.058  1.00  0.00     0.010 A 
ATOM     58  C   UNL A   1      45.374  31.302  29.646  1.00  0.00     0.010 A 
ATOM     59  C   UNL A   1      44.778  32.514  29.291  1.00  0.00    -0.014 A 
BRANCH  59  60
ATOM     60  C   UNL A   1      44.809  33.522  30.330  1.00  0.00     0.031 A 
ATOM     61  C   UNL A   1      43.562  33.819  31.048  1.00  0.00     0.074 A 
ATOM     62  C   UNL A   1      46.000  34.025  30.726  1.00  0.00     0.049 A 
ATOM     63  N   UNL A   1      43.342  34.905  31.699  1.00  0.00    -0.248 NA
ATOM     64  C   UNL A   1      42.435  32.893  31.051  1.00  0.00     0.031 C 
ATOM     65  C   UNL A   1      46.287  34.728  31.970  1.00  0.00     0.029 A 
ATOM     66  N   UNL A   1      47.175  34.158  29.977  1.00  0.00    -0.354 N 
ATOM     67  C   UNL A   1      42.181  34.719  32.419  1.00  0.00     0.074 A 
ATOM     68  C   UNL A   1      41.611  33.491  31.916  1.00  0.00     0.031 C 
ATOM     69  C   UNL A   1      47.415  35.440  31.813  1.00  0.00     0.029 A 
ATOM     70  C   UNL A   1      47.781  35.353  30.409  1.00  0.00     0.049 A 
ATOM     71  H   UNL A   1      47.509  33.540  29.287  1.00  0.00     0.167 HD
ATOM     72  C   UNL A   1      41.924  35.533  33.480  1.00  0.00     0.034 A 
ATOM     73  C   UNL A   1      48.017  36.423  29.594  1.00  0.00     0.034 A 
ATOM     74  C   UNL A   1      42.989  36.532  33.626  1.00  0.00     0.049 A 
ATOM     75  C   UNL A   1      47.298  37.681  30.052  1.00  0.00     0.074 A 
ATOM     76  C   UNL A   1      44.150  36.547  34.385  1.00  0.00     0.029 A 
ATOM     77  N   UNL A   1      43.123  37.543  32.683  1.00  0.00    -0.354 N 
ATOM     78  N   UNL A   1      46.388  37.707  30.986  1.00  0.00    -0.248 NA
ATOM     79  C   UNL A   1      47.536  39.003  29.482  1.00  0.00     0.031 C 
ATOM     80  C   UNL A   1      45.017  37.529  33.842  1.00  0.00     0.029 A 
ATOM     81  C   UNL A   1      44.373  38.137  32.776  1.00  0.00     0.049 A 
ATOM     82  H   UNL A   1      42.426  37.803  32.038  1.00  0.00     0.167 HD
ATOM     83  C   UNL A   1      45.844  38.963  31.083  1.00  0.00     0.074 A 
ATOM     84  C   UNL A   1      46.652  39.752  30.165  1.00  0.00     0.031 C 
ATOM     85  C   UNL A   1      44.752  39.220  31.872  1.00  0.00     0.034 A 
BRANCH  72  86
ATOM     86  C   UNL A   1      40.935  35.202  34.583  1.00  0.00     0.023 A 
ATOM     87  C   UNL A   1      41.426  35.207  35.908  1.00  0.00     0.012 A 
ATOM     88  C   UNL A   1      39.582  34.827  34.422  1.00  0.00     0.148 A 
ATOM     89  C   UNL A   1      40.668  34.761  36.994  1.00  0.00     0.002 A 
ATOM     90  C   UNL A   1      38.842  34.317  35.498  1.00  0.00     0.091 A 
ATOM     91  F   UNL A   1      38.973  35.027  33.247  1.00  0.00    -0.205 F 
ATOM     92  C   UNL A   1      39.388  34.279  36.784  1.00  0.00     0.022 A 
BRANCH  90  93
ATOM     93  S   UNL A   1      37.206  33.589  35.296  1.00  0.00     0.127 S 
ATOM     94  O   UNL A   1      36.755  33.452  36.684  1.00  0.00    -0.237 OA
ATOM     95  O   UNL A   1      36.499  34.609  34.527  1.00  0.00    -0.237 OA
ATOM     96  O   UNL A   1      37.417  32.316  34.617  1.00  0.00    -0.744 OA
ENDBRANCH  90  93
ENDBRANCH  72  86
BRANCH  73  97
ATOM     97  C   UNL A   1      48.284  36.049  28.176  1.00  0.00     0.023 A 
ATOM     98  C   UNL A   1      47.223  36.233  27.258  1.00  0.00     0.012 A 
ATOM     99  C   UNL A   1      49.599  35.957  27.689  1.00  0.00     0.148 A 
ATOM    100  C   UNL A   1      47.478  36.474  25.907  1.00  0.00     0.002 A 
ATOM    101  C   UNL A   1      49.847  36.217  26.344  1.00  0.00     0.091 A 
ATOM    102  F   UNL A   1      50.588  35.714  28.558  1.00  0.00    -0.205 F 
ATOM    103  C   UNL A   1      48.793  36.513  25.461  1.00  0.00     0.022 A 
BRANCH 101 104
ATOM    104  S   UNL A   1      51.517  36.372  25.702  1.00  0.00     0.127 S 
ATOM    105  O   UNL A   1      52.092  35.079  26.056  1.00  0.00    -0.237 OA
ATOM    106  O   UNL A   1      51.276  36.565  24.274  1.00  0.00    -0.237 OA
ATOM    107  O   UNL A   1      52.074  37.534  26.380  1.00  0.00    -0.744 OA
ENDBRANCH 101 104
ENDBRANCH  73  97
BRANCH  85 108
ATOM    108  C   UNL A   1      43.935  40.506  31.893  1.00  0.00     0.023 A 
ATOM    109  C   UNL A   1      42.923  40.781  30.956  1.00  0.00     0.012 A 
ATOM    110  C   UNL A   1      44.073  41.444  32.957  1.00  0.00     0.148 A 
ATOM    111  C   UNL A   1      42.136  41.938  31.022  1.00  0.00     0.002 A 
ATOM    112  C   UNL A   1      43.206  42.526  33.088  1.00  0.00     0.091 A 
ATOM    113  F   UNL A   1      45.070  41.315  33.842  1.00  0.00    -0.205 F 
ATOM    114  C   UNL A   1      42.259  42.798  32.102  1.00  0.00     0.022 A 
BRANCH 112 115
ATOM    115  S   UNL A   1      43.160  43.511  34.593  1.00  0.00     0.127 S 
ATOM    116  O   UNL A   1      44.477  43.250  35.167  1.00  0.00    -0.237 OA
ATOM    117  O   UNL A   1      42.980  44.868  34.070  1.00  0.00    -0.237 OA
ATOM    118  O   UNL A   1      42.018  43.008  35.345  1.00  0.00    -0.744 OA
ENDBRANCH 112 115
ENDBRANCH  85 108
ENDBRANCH  59  60
ENDBRANCH  51  54
ENDBRANCH  49  50
ENDBRANCH  48  49
ENDBRANCH  47  48
ENDBRANCH   3  47
TORSDOF 22
ENDMDL
