MODEL 1
REMARK VINA RESULT:     -11.3      0.000      0.000
REMARK SMILES CC(C)[NH2+][C@@]1(C(=O)NCCCNC(=O)c2ccc(-c3c4nc(c(-c5cccc(S(=O)(=O)[O-])c5F)c5ccc([nH]5)c(-c5cccc(S(=O)(=O)[O-])c5F)c5nc(c(-c6cccc(S(=O)(=O)[O-])c6F)c6ccc3[nH]6)C=C5)C=C4)cc2)CCC[C@@H]([NH+]2CCS(=O)CC2)C1
REMARK SMILES IDX 10 1 9 2 8 3 6 4 7 5 5 7 78 8 89 9 79 10 81 11 80 12 4 13
REMARK SMILES IDX 2 16 1 17 3 18 82 19 83 20 88 21 84 23 87 24 85 25 86 26
REMARK SMILES IDX 11 27 12 28 13 29 14 31 15 32 16 33 77 34 17 35 76 36 18 37
REMARK SMILES IDX 19 38 20 39 70 40 21 41 75 42 69 43 71 44 22 45 74 46 68 47
REMARK SMILES IDX 67 48 23 50 55 51 35 52 54 53 36 54 39 55 53 56 72 57 37 58
REMARK SMILES IDX 38 59 52 61 73 62 40 63 24 64 25 65 33 66 26 67 28 68 34 69
REMARK SMILES IDX 27 70 29 71 30 72 31 73 32 74 56 75 57 76 65 77 58 78 60 79
REMARK SMILES IDX 66 80 59 81 61 82 62 83 63 84 64 85 41 86 42 87 50 88 43 89
REMARK SMILES IDX 45 90 51 91 44 92 46 93 47 94 48 95 49 96
REMARK H PARENT 8 6 4 14 4 15 82 22 12 30 71 49 39 60
REMARK Flexibility Score: inf
ROOT
ATOM      1  C   UNL A   1      33.230  28.067  27.254  1.00  0.00     0.042 C 
ENDROOT
BRANCH   1   2
ATOM      2  C   UNL A   1      31.734  28.362  27.345  1.00  0.00     0.118 C 
BRANCH   2   3
ATOM      3  N   UNL A   1      30.923  27.170  27.211  1.00  0.00    -0.351 N 
ATOM      4  C   UNL A   1      30.726  26.223  26.266  1.00  0.00     0.281 C 
ATOM      5  O   UNL A   1      29.846  25.401  26.593  1.00  0.00    -0.268 OA
ATOM      6  H   UNL A   1      30.373  27.009  28.011  1.00  0.00     0.163 HD
BRANCH   4   7
ATOM      7  C   UNL A   1      31.408  26.077  24.817  1.00  0.00     0.181 C 
ATOM      8  C   UNL A   1      30.679  25.134  23.844  1.00  0.00     0.079 C 
ATOM      9  C   UNL A   1      32.889  25.740  24.952  1.00  0.00     0.144 C 
ATOM     10  C   UNL A   1      31.147  23.676  23.775  1.00  0.00     0.013 C 
ATOM     11  C   UNL A   1      33.237  24.284  25.199  1.00  0.00     0.190 C 
ATOM     12  C   UNL A   1      32.626  23.411  24.085  1.00  0.00     0.065 C 
BRANCH   7  13
ATOM     13  N   UNL A   1      31.259  27.481  24.262  1.00  0.00    -0.331 N 
ATOM     14  H   UNL A   1      30.273  27.721  24.364  1.00  0.00     0.347 HD
ATOM     15  H   UNL A   1      31.961  27.991  24.798  1.00  0.00     0.347 HD
BRANCH  13  16
ATOM     16  C   UNL A   1      31.622  27.832  22.887  1.00  0.00     0.176 C 
ATOM     17  C   UNL A   1      30.410  28.578  22.304  1.00  0.00     0.075 C 
ATOM     18  C   UNL A   1      32.824  28.778  22.720  1.00  0.00     0.075 C 
ENDBRANCH  13  16
ENDBRANCH   7  13
BRANCH  11  19
ATOM     19  N   UNL A   1      34.658  24.018  25.489  1.00  0.00    -0.331 N 
ATOM     20  C   UNL A   1      35.036  23.102  26.564  1.00  0.00     0.276 C 
ATOM     21  C   UNL A   1      35.573  23.871  24.342  1.00  0.00     0.276 C 
ATOM     22  H   UNL A   1      34.802  24.943  25.895  1.00  0.00     0.348 HD
ATOM     23  C   UNL A   1      34.926  21.628  26.210  1.00  0.00     0.166 C 
ATOM     24  C   UNL A   1      35.719  22.479  23.719  1.00  0.00     0.166 C 
ATOM     25  S   UNL A   1      36.052  21.137  24.883  1.00  0.00     0.032 S 
ATOM     26  O   UNL A   1      37.457  21.267  25.379  1.00  0.00    -0.259 OA
ENDBRANCH  11  19
ENDBRANCH   4   7
ENDBRANCH   2   3
ENDBRANCH   1   2
BRANCH   1  27
ATOM     27  C   UNL A   1      34.001  29.025  26.369  1.00  0.00     0.118 C 
BRANCH  27  28
ATOM     28  N   UNL A   1      33.893  30.405  26.825  1.00  0.00    -0.352 N 
ATOM     29  C   UNL A   1      34.642  31.113  27.737  1.00  0.00     0.251 C 
ATOM     30  H   UNL A   1      33.162  30.918  26.411  1.00  0.00     0.163 HD
ATOM     31  O   UNL A   1      34.228  32.203  28.124  1.00  0.00    -0.269 OA
BRANCH  29  32
ATOM     32  C   UNL A   1      35.921  30.578  28.262  1.00  0.00     0.039 A 
ATOM     33  C   UNL A   1      35.905  29.776  29.408  1.00  0.00     0.014 A 
ATOM     34  C   UNL A   1      37.140  30.889  27.660  1.00  0.00     0.014 A 
ATOM     35  C   UNL A   1      37.100  29.249  29.909  1.00  0.00     0.010 A 
ATOM     36  C   UNL A   1      38.308  30.263  28.080  1.00  0.00     0.010 A 
ATOM     37  C   UNL A   1      38.309  29.461  29.229  1.00  0.00    -0.014 A 
BRANCH  37  38
ATOM     38  C   UNL A   1      39.593  28.892  29.715  1.00  0.00     0.031 A 
ATOM     39  C   UNL A   1      40.332  29.558  30.850  1.00  0.00     0.074 A 
ATOM     40  C   UNL A   1      40.138  27.834  29.082  1.00  0.00     0.049 A 
ATOM     41  N   UNL A   1      41.497  29.263  31.362  1.00  0.00    -0.248 NA
ATOM     42  C   UNL A   1      39.694  30.736  31.465  1.00  0.00     0.031 C 
ATOM     43  C   UNL A   1      39.565  27.156  27.917  1.00  0.00     0.029 A 
ATOM     44  N   UNL A   1      41.310  27.160  29.313  1.00  0.00    -0.354 N 
ATOM     45  C   UNL A   1      41.751  30.240  32.319  1.00  0.00     0.074 A 
ATOM     46  C   UNL A   1      40.640  31.164  32.286  1.00  0.00     0.031 C 
ATOM     47  C   UNL A   1      40.379  26.155  27.546  1.00  0.00     0.029 A 
ATOM     48  C   UNL A   1      41.547  26.141  28.420  1.00  0.00     0.049 A 
ATOM     49  H   UNL A   1      41.925  27.383  30.049  1.00  0.00     0.167 HD
ATOM     50  C   UNL A   1      42.796  30.342  33.174  1.00  0.00     0.034 A 
ATOM     51  C   UNL A   1      42.591  25.296  28.312  1.00  0.00     0.034 A 
ATOM     52  C   UNL A   1      43.867  29.388  33.243  1.00  0.00     0.049 A 
ATOM     53  C   UNL A   1      43.715  25.400  29.307  1.00  0.00     0.074 A 
ATOM     54  C   UNL A   1      44.921  29.340  34.137  1.00  0.00     0.029 A 
ATOM     55  N   UNL A   1      44.025  28.315  32.378  1.00  0.00    -0.354 N 
ATOM     56  N   UNL A   1      43.858  26.236  30.306  1.00  0.00    -0.248 NA
ATOM     57  C   UNL A   1      44.804  24.421  29.182  1.00  0.00     0.031 C 
ATOM     58  C   UNL A   1      45.733  28.254  33.794  1.00  0.00     0.029 A 
ATOM     59  C   UNL A   1      45.165  27.605  32.710  1.00  0.00     0.049 A 
ATOM     60  H   UNL A   1      43.416  28.092  31.638  1.00  0.00     0.167 HD
ATOM     61  C   UNL A   1      45.032  25.863  30.950  1.00  0.00     0.074 A 
ATOM     62  C   UNL A   1      45.548  24.710  30.240  1.00  0.00     0.031 C 
ATOM     63  C   UNL A   1      45.636  26.430  32.023  1.00  0.00     0.034 A 
BRANCH  50  64
ATOM     64  C   UNL A   1      42.802  31.499  34.142  1.00  0.00     0.023 A 
ATOM     65  C   UNL A   1      43.426  32.710  33.780  1.00  0.00     0.012 A 
ATOM     66  C   UNL A   1      42.147  31.406  35.386  1.00  0.00     0.148 A 
ATOM     67  C   UNL A   1      43.436  33.796  34.656  1.00  0.00     0.002 A 
ATOM     68  C   UNL A   1      42.118  32.508  36.232  1.00  0.00     0.091 A 
ATOM     69  F   UNL A   1      41.575  30.241  35.722  1.00  0.00    -0.205 F 
ATOM     70  C   UNL A   1      42.772  33.698  35.875  1.00  0.00     0.022 A 
BRANCH  68  71
ATOM     71  S   UNL A   1      41.221  32.513  37.789  1.00  0.00     0.127 S 
ATOM     72  O   UNL A   1      42.051  31.634  38.610  1.00  0.00    -0.237 OA
ATOM     73  O   UNL A   1      41.271  33.926  38.166  1.00  0.00    -0.237 OA
ATOM     74  O   UNL A   1      39.888  32.011  37.488  1.00  0.00    -0.744 OA
ENDBRANCH  68  71
ENDBRANCH  50  64
BRANCH  51  75
ATOM     75  C   UNL A   1      42.593  24.240  27.260  1.00  0.00     0.023 A 
ATOM     76  C   UNL A   1      43.200  24.501  26.015  1.00  0.00     0.012 A 
ATOM     77  C   UNL A   1      42.024  22.974  27.492  1.00  0.00     0.148 A 
ATOM     78  C   UNL A   1      43.208  23.534  25.010  1.00  0.00     0.002 A 
ATOM     79  C   UNL A   1      42.085  21.996  26.507  1.00  0.00     0.091 A 
ATOM     80  F   UNL A   1      41.443  22.749  28.679  1.00  0.00    -0.205 F 
ATOM     81  C   UNL A   1      42.660  22.279  25.257  1.00  0.00     0.022 A 
BRANCH  79  82
ATOM     82  S   UNL A   1      41.523  20.313  26.780  1.00  0.00     0.127 S 
ATOM     83  O   UNL A   1      42.402  19.878  27.861  1.00  0.00    -0.237 OA
ATOM     84  O   UNL A   1      40.127  20.523  27.165  1.00  0.00    -0.237 OA
ATOM     85  O   UNL A   1      41.702  19.633  25.504  1.00  0.00    -0.744 OA
ENDBRANCH  79  82
ENDBRANCH  51  75
BRANCH  63  86
ATOM     86  C   UNL A   1      46.903  25.792  32.528  1.00  0.00     0.023 A 
ATOM     87  C   UNL A   1      48.151  26.206  32.022  1.00  0.00     0.012 A 
ATOM     88  C   UNL A   1      46.857  24.834  33.560  1.00  0.00     0.148 A 
ATOM     89  C   UNL A   1      49.332  25.651  32.511  1.00  0.00     0.002 A 
ATOM     90  C   UNL A   1      48.040  24.326  34.080  1.00  0.00     0.091 A 
ATOM     91  F   UNL A   1      45.658  24.442  34.016  1.00  0.00    -0.205 F 
ATOM     92  C   UNL A   1      49.278  24.721  33.547  1.00  0.00     0.022 A 
BRANCH  90  93
ATOM     93  S   UNL A   1      48.072  23.203  35.481  1.00  0.00     0.127 S 
ATOM     94  O   UNL A   1      47.418  22.018  34.928  1.00  0.00    -0.237 OA
ATOM     95  O   UNL A   1      49.507  23.052  35.725  1.00  0.00    -0.237 OA
ATOM     96  O   UNL A   1      47.346  23.873  36.551  1.00  0.00    -0.744 OA
ENDBRANCH  90  93
ENDBRANCH  63  86
ENDBRANCH  37  38
ENDBRANCH  29  32
ENDBRANCH  27  28
ENDBRANCH   1  27
TORSDOF 16
ENDMDL
MODEL 2
REMARK VINA RESULT:     -11.3      1.575      3.030
REMARK SMILES CC(C)[NH2+][C@@]1(C(=O)NCCCNC(=O)c2ccc(-c3c4nc(c(-c5cccc(S(=O)(=O)[O-])c5F)c5ccc([nH]5)c(-c5cccc(S(=O)(=O)[O-])c5F)c5nc(c(-c6cccc(S(=O)(=O)[O-])c6F)c6ccc3[nH]6)C=C5)C=C4)cc2)CCC[C@@H]([NH+]2CCS(=O)CC2)C1
REMARK SMILES IDX 10 1 9 2 8 3 6 4 7 5 5 7 78 8 89 9 79 10 81 11 80 12 4 13
REMARK SMILES IDX 2 16 1 17 3 18 82 19 83 20 88 21 84 23 87 24 85 25 86 26
REMARK SMILES IDX 11 27 12 28 13 29 14 31 15 32 16 33 77 34 17 35 76 36 18 37
REMARK SMILES IDX 19 38 20 39 70 40 21 41 75 42 69 43 71 44 22 45 74 46 68 47
REMARK SMILES IDX 67 48 23 50 55 51 35 52 54 53 36 54 39 55 53 56 72 57 37 58
REMARK SMILES IDX 38 59 52 61 73 62 40 63 24 64 25 65 33 66 26 67 28 68 34 69
REMARK SMILES IDX 27 70 29 71 30 72 31 73 32 74 56 75 57 76 65 77 58 78 60 79
REMARK SMILES IDX 66 80 59 81 61 82 62 83 63 84 64 85 41 86 42 87 50 88 43 89
REMARK SMILES IDX 45 90 51 91 44 92 46 93 47 94 48 95 49 96
REMARK H PARENT 8 6 4 14 4 15 82 22 12 30 71 49 39 60
REMARK Flexibility Score: inf
ROOT
ATOM      1  C   UNL A   1      32.247  27.775  27.398  1.00  0.00     0.042 C 
ENDROOT
BRANCH   1   2
ATOM      2  C   UNL A   1      31.402  26.980  26.405  1.00  0.00     0.118 C 
BRANCH   2   3
ATOM      3  N   UNL A   1      31.094  25.646  26.878  1.00  0.00    -0.351 N 
ATOM      4  C   UNL A   1      31.421  24.384  26.522  1.00  0.00     0.281 C 
ATOM      5  O   UNL A   1      30.834  23.527  27.214  1.00  0.00    -0.268 OA
ATOM      6  H   UNL A   1      30.492  25.663  27.657  1.00  0.00     0.163 HD
BRANCH   4   7
ATOM      7  C   UNL A   1      32.375  23.881  25.329  1.00  0.00     0.181 C 
ATOM      8  C   UNL A   1      33.873  23.817  25.674  1.00  0.00     0.079 C 
ATOM      9  C   UNL A   1      32.106  24.674  24.054  1.00  0.00     0.144 C 
ATOM     10  C   UNL A   1      34.740  25.031  25.324  1.00  0.00     0.013 C 
ATOM     11  C   UNL A   1      32.777  26.031  23.942  1.00  0.00     0.190 C 
ATOM     12  C   UNL A   1      34.300  25.869  24.118  1.00  0.00     0.065 C 
BRANCH   7  13
ATOM     13  N   UNL A   1      31.906  22.450  25.140  1.00  0.00    -0.331 N 
ATOM     14  H   UNL A   1      31.771  22.071  26.077  1.00  0.00     0.347 HD
ATOM     15  H   UNL A   1      31.103  22.575  24.524  1.00  0.00     0.347 HD
BRANCH  13  16
ATOM     16  C   UNL A   1      32.688  21.450  24.408  1.00  0.00     0.176 C 
ATOM     17  C   UNL A   1      32.570  20.146  25.213  1.00  0.00     0.075 C 
ATOM     18  C   UNL A   1      32.206  21.117  22.985  1.00  0.00     0.075 C 
ENDBRANCH  13  16
ENDBRANCH   7  13
BRANCH  11  19
ATOM     19  N   UNL A   1      32.367  26.840  22.780  1.00  0.00    -0.331 N 
ATOM     20  C   UNL A   1      31.029  26.690  22.208  1.00  0.00     0.276 C 
ATOM     21  C   UNL A   1      32.783  28.254  22.753  1.00  0.00     0.276 C 
ATOM     22  H   UNL A   1      32.966  26.319  22.140  1.00  0.00     0.348 HD
ATOM     23  C   UNL A   1      29.927  27.399  22.977  1.00  0.00     0.166 C 
ATOM     24  C   UNL A   1      31.877  29.279  23.444  1.00  0.00     0.166 C 
ATOM     25  S   UNL A   1      30.127  29.196  22.999  1.00  0.00     0.032 S 
ATOM     26  O   UNL A   1      29.959  29.711  21.605  1.00  0.00    -0.259 OA
ENDBRANCH  11  19
ENDBRANCH   4   7
ENDBRANCH   2   3
ENDBRANCH   1   2
BRANCH   1  27
ATOM     27  C   UNL A   1      33.468  28.434  26.790  1.00  0.00     0.118 C 
BRANCH  27  28
ATOM     28  N   UNL A   1      33.442  29.884  26.937  1.00  0.00    -0.352 N 
ATOM     29  C   UNL A   1      34.296  30.736  27.600  1.00  0.00     0.251 C 
ATOM     30  H   UNL A   1      32.688  30.329  26.488  1.00  0.00     0.163 HD
ATOM     31  O   UNL A   1      33.952  31.903  27.772  1.00  0.00    -0.269 OA
BRANCH  29  32
ATOM     32  C   UNL A   1      35.605  30.267  28.113  1.00  0.00     0.039 A 
ATOM     33  C   UNL A   1      35.683  29.751  29.411  1.00  0.00     0.014 A 
ATOM     34  C   UNL A   1      36.765  30.364  27.344  1.00  0.00     0.014 A 
ATOM     35  C   UNL A   1      36.907  29.290  29.907  1.00  0.00     0.010 A 
ATOM     36  C   UNL A   1      37.949  29.789  27.787  1.00  0.00     0.010 A 
ATOM     37  C   UNL A   1      38.045  29.274  29.086  1.00  0.00    -0.014 A 
BRANCH  37  38
ATOM     38  C   UNL A   1      39.354  28.762  29.569  1.00  0.00     0.031 A 
ATOM     39  C   UNL A   1      40.075  29.473  30.688  1.00  0.00     0.074 A 
ATOM     40  C   UNL A   1      39.935  27.717  28.946  1.00  0.00     0.049 A 
ATOM     41  N   UNL A   1      41.255  29.231  31.195  1.00  0.00    -0.248 NA
ATOM     42  C   UNL A   1      39.396  30.634  31.292  1.00  0.00     0.031 C 
ATOM     43  C   UNL A   1      39.380  27.000  27.796  1.00  0.00     0.029 A 
ATOM     44  N   UNL A   1      41.135  27.093  29.177  1.00  0.00    -0.354 N 
ATOM     45  C   UNL A   1      41.478  30.230  32.135  1.00  0.00     0.074 A 
ATOM     46  C   UNL A   1      40.332  31.110  32.099  1.00  0.00     0.031 C 
ATOM     47  C   UNL A   1      40.229  26.026  27.433  1.00  0.00     0.029 A 
ATOM     48  C   UNL A   1      41.403  26.071  28.296  1.00  0.00     0.049 A 
ATOM     49  H   UNL A   1      41.746  27.351  29.905  1.00  0.00     0.167 HD
ATOM     50  C   UNL A   1      42.525  30.386  32.980  1.00  0.00     0.034 A 
ATOM     51  C   UNL A   1      42.479  25.266  28.191  1.00  0.00     0.034 A 
ATOM     52  C   UNL A   1      43.634  29.475  33.053  1.00  0.00     0.049 A 
ATOM     53  C   UNL A   1      43.606  25.428  29.175  1.00  0.00     0.074 A 
ATOM     54  C   UNL A   1      44.695  29.481  33.939  1.00  0.00     0.029 A 
ATOM     55  N   UNL A   1      43.826  28.397  32.202  1.00  0.00    -0.354 N 
ATOM     56  N   UNL A   1      43.724  26.283  30.162  1.00  0.00    -0.248 NA
ATOM     57  C   UNL A   1      44.732  24.490  29.055  1.00  0.00     0.031 C 
ATOM     58  C   UNL A   1      45.546  28.423  33.605  1.00  0.00     0.029 A 
ATOM     59  C   UNL A   1      44.996  27.737  32.535  1.00  0.00     0.049 A 
ATOM     60  H   UNL A   1      43.220  28.139  31.471  1.00  0.00     0.167 HD
ATOM     61  C   UNL A   1      44.916  25.966  30.801  1.00  0.00     0.074 A 
ATOM     62  C   UNL A   1      45.472  24.824  30.103  1.00  0.00     0.031 C 
ATOM     63  C   UNL A   1      45.507  26.571  31.860  1.00  0.00     0.034 A 
BRANCH  50  64
ATOM     64  C   UNL A   1      42.493  31.556  33.932  1.00  0.00     0.023 A 
ATOM     65  C   UNL A   1      42.981  32.811  33.513  1.00  0.00     0.012 A 
ATOM     66  C   UNL A   1      41.935  31.428  35.218  1.00  0.00     0.148 A 
ATOM     67  C   UNL A   1      42.954  33.908  34.374  1.00  0.00     0.002 A 
ATOM     68  C   UNL A   1      41.865  32.538  36.051  1.00  0.00     0.091 A 
ATOM     69  F   UNL A   1      41.493  30.223  35.607  1.00  0.00    -0.205 F 
ATOM     70  C   UNL A   1      42.386  33.775  35.637  1.00  0.00     0.022 A 
BRANCH  68  71
ATOM     71  S   UNL A   1      41.078  32.493  37.666  1.00  0.00     0.127 S 
ATOM     72  O   UNL A   1      41.076  33.908  38.033  1.00  0.00    -0.237 OA
ATOM     73  O   UNL A   1      39.760  31.944  37.348  1.00  0.00    -0.237 OA
ATOM     74  O   UNL A   1      41.911  31.634  38.496  1.00  0.00    -0.744 OA
ENDBRANCH  68  71
ENDBRANCH  50  64
BRANCH  51  75
ATOM     75  C   UNL A   1      42.515  24.196  27.155  1.00  0.00     0.023 A 
ATOM     76  C   UNL A   1      43.352  24.345  26.031  1.00  0.00     0.012 A 
ATOM     77  C   UNL A   1      41.747  23.023  27.286  1.00  0.00     0.148 A 
ATOM     78  C   UNL A   1      43.397  23.363  25.041  1.00  0.00     0.002 A 
ATOM     79  C   UNL A   1      41.839  22.024  26.325  1.00  0.00     0.091 A 
ATOM     80  F   UNL A   1      40.950  22.904  28.357  1.00  0.00    -0.205 F 
ATOM     81  C   UNL A   1      42.649  22.199  25.191  1.00  0.00     0.022 A 
BRANCH  79  82
ATOM     82  S   UNL A   1      41.016  20.438  26.498  1.00  0.00     0.127 S 
ATOM     83  O   UNL A   1      41.777  19.605  25.572  1.00  0.00    -0.237 OA
ATOM     84  O   UNL A   1      41.231  20.143  27.915  1.00  0.00    -0.237 OA
ATOM     85  O   UNL A   1      39.625  20.682  26.136  1.00  0.00    -0.744 OA
ENDBRANCH  79  82
ENDBRANCH  51  75
BRANCH  63  86
ATOM     86  C   UNL A   1      46.802  25.990  32.364  1.00  0.00     0.023 A 
ATOM     87  C   UNL A   1      48.030  26.494  31.893  1.00  0.00     0.012 A 
ATOM     88  C   UNL A   1      46.797  24.995  33.361  1.00  0.00     0.148 A 
ATOM     89  C   UNL A   1      49.234  25.991  32.382  1.00  0.00     0.002 A 
ATOM     90  C   UNL A   1      48.001  24.538  33.883  1.00  0.00     0.091 A 
ATOM     91  F   UNL A   1      45.617  24.517  33.784  1.00  0.00    -0.205 F 
ATOM     92  C   UNL A   1      49.220  25.024  33.384  1.00  0.00     0.022 A 
BRANCH  90  93
ATOM     93  S   UNL A   1      48.078  23.370  35.244  1.00  0.00     0.127 S 
ATOM     94  O   UNL A   1      47.466  24.135  36.329  1.00  0.00    -0.237 OA
ATOM     95  O   UNL A   1      47.265  22.260  34.745  1.00  0.00    -0.237 OA
ATOM     96  O   UNL A   1      49.488  23.052  35.422  1.00  0.00    -0.744 OA
ENDBRANCH  90  93
ENDBRANCH  63  86
ENDBRANCH  37  38
ENDBRANCH  29  32
ENDBRANCH  27  28
ENDBRANCH   1  27
TORSDOF 16
ENDMDL
MODEL 3
REMARK VINA RESULT:     -10.9      5.493      8.810
REMARK SMILES CC(C)[NH2+][C@@]1(C(=O)NCCCNC(=O)c2ccc(-c3c4nc(c(-c5cccc(S(=O)(=O)[O-])c5F)c5ccc([nH]5)c(-c5cccc(S(=O)(=O)[O-])c5F)c5nc(c(-c6cccc(S(=O)(=O)[O-])c6F)c6ccc3[nH]6)C=C5)C=C4)cc2)CCC[C@@H]([NH+]2CCS(=O)CC2)C1
REMARK SMILES IDX 10 1 9 2 8 3 6 4 7 5 5 7 78 8 89 9 79 10 81 11 80 12 4 13
REMARK SMILES IDX 2 16 1 17 3 18 82 19 83 20 88 21 84 23 87 24 85 25 86 26
REMARK SMILES IDX 11 27 12 28 13 29 14 31 15 32 16 33 77 34 17 35 76 36 18 37
REMARK SMILES IDX 19 38 20 39 70 40 21 41 75 42 69 43 71 44 22 45 74 46 68 47
REMARK SMILES IDX 67 48 23 50 55 51 35 52 54 53 36 54 39 55 53 56 72 57 37 58
REMARK SMILES IDX 38 59 52 61 73 62 40 63 24 64 25 65 33 66 26 67 28 68 34 69
REMARK SMILES IDX 27 70 29 71 30 72 31 73 32 74 56 75 57 76 65 77 58 78 60 79
REMARK SMILES IDX 66 80 59 81 61 82 62 83 63 84 64 85 41 86 42 87 50 88 43 89
REMARK SMILES IDX 45 90 51 91 44 92 46 93 47 94 48 95 49 96
REMARK H PARENT 8 6 4 14 4 15 82 22 12 30 71 49 39 60
REMARK Flexibility Score: inf
ROOT
ATOM      1  C   UNL A   1      37.739  19.545  24.992  1.00  0.00     0.042 C 
ENDROOT
BRANCH   1   2
ATOM      2  C   UNL A   1      36.593  20.490  24.638  1.00  0.00     0.118 C 
BRANCH   2   3
ATOM      3  N   UNL A   1      35.816  20.882  25.796  1.00  0.00    -0.351 N 
ATOM      4  C   UNL A   1      34.625  21.482  26.016  1.00  0.00     0.281 C 
ATOM      5  O   UNL A   1      34.406  21.673  27.229  1.00  0.00    -0.268 OA
ATOM      6  H   UNL A   1      36.273  20.654  26.637  1.00  0.00     0.163 HD
BRANCH   4   7
ATOM      7  C   UNL A   1      33.544  22.013  24.950  1.00  0.00     0.181 C 
ATOM      8  C   UNL A   1      34.082  22.220  23.523  1.00  0.00     0.079 C 
ATOM      9  C   UNL A   1      32.824  23.247  25.483  1.00  0.00     0.144 C 
ATOM     10  C   UNL A   1      34.566  23.622  23.137  1.00  0.00     0.013 C 
ATOM     11  C   UNL A   1      33.544  24.575  25.330  1.00  0.00     0.190 C 
ATOM     12  C   UNL A   1      33.894  24.804  23.846  1.00  0.00     0.065 C 
BRANCH   7  13
ATOM     13  N   UNL A   1      32.572  20.850  24.889  1.00  0.00    -0.331 N 
ATOM     14  H   UNL A   1      32.293  20.664  25.852  1.00  0.00     0.347 HD
ATOM     15  H   UNL A   1      31.882  21.192  24.220  1.00  0.00     0.347 HD
BRANCH  13  16
ATOM     16  C   UNL A   1      32.926  19.551  24.312  1.00  0.00     0.176 C 
ATOM     17  C   UNL A   1      32.585  18.502  25.383  1.00  0.00     0.075 C 
ATOM     18  C   UNL A   1      32.153  19.134  23.048  1.00  0.00     0.075 C 
ENDBRANCH  13  16
ENDBRANCH   7  13
BRANCH  11  19
ATOM     19  N   UNL A   1      32.900  25.719  26.002  1.00  0.00    -0.331 N 
ATOM     20  C   UNL A   1      33.601  26.996  26.125  1.00  0.00     0.276 C 
ATOM     21  C   UNL A   1      31.465  25.942  25.745  1.00  0.00     0.276 C 
ATOM     22  H   UNL A   1      32.997  25.298  26.926  1.00  0.00     0.348 HD
ATOM     23  C   UNL A   1      33.595  27.847  24.866  1.00  0.00     0.166 C 
ATOM     24  C   UNL A   1      31.081  26.788  24.526  1.00  0.00     0.166 C 
ATOM     25  S   UNL A   1      31.935  28.375  24.381  1.00  0.00     0.032 S 
ATOM     26  O   UNL A   1      31.406  29.304  25.427  1.00  0.00    -0.259 OA
ENDBRANCH  11  19
ENDBRANCH   4   7
ENDBRANCH   2   3
ENDBRANCH   1   2
BRANCH   1  27
ATOM     27  C   UNL A   1      38.859  20.191  25.782  1.00  0.00     0.118 C 
BRANCH  27  28
ATOM     28  N   UNL A   1      39.977  19.282  25.997  1.00  0.00    -0.352 N 
ATOM     29  C   UNL A   1      41.317  19.533  26.182  1.00  0.00     0.251 C 
ATOM     30  H   UNL A   1      39.734  18.328  26.013  1.00  0.00     0.163 HD
ATOM     31  O   UNL A   1      42.109  18.595  26.126  1.00  0.00    -0.269 OA
BRANCH  29  32
ATOM     32  C   UNL A   1      41.814  20.906  26.436  1.00  0.00     0.039 A 
ATOM     33  C   UNL A   1      41.866  21.818  25.376  1.00  0.00     0.014 A 
ATOM     34  C   UNL A   1      42.267  21.295  27.696  1.00  0.00     0.014 A 
ATOM     35  C   UNL A   1      42.317  23.123  25.599  1.00  0.00     0.010 A 
ATOM     36  C   UNL A   1      42.593  22.622  27.945  1.00  0.00     0.010 A 
ATOM     37  C   UNL A   1      42.653  23.547  26.894  1.00  0.00    -0.014 A 
BRANCH  37  38
ATOM     38  C   UNL A   1      43.107  24.934  27.173  1.00  0.00     0.031 A 
ATOM     39  C   UNL A   1      42.190  25.899  27.884  1.00  0.00     0.074 A 
ATOM     40  C   UNL A   1      44.303  25.352  26.714  1.00  0.00     0.049 A 
ATOM     41  N   UNL A   1      42.369  27.166  28.148  1.00  0.00    -0.248 NA
ATOM     42  C   UNL A   1      40.880  25.381  28.319  1.00  0.00     0.031 C 
ATOM     43  C   UNL A   1      45.245  24.541  25.938  1.00  0.00     0.029 A 
ATOM     44  N   UNL A   1      44.922  26.573  26.811  1.00  0.00    -0.354 N 
ATOM     45  C   UNL A   1      41.186  27.604  28.733  1.00  0.00     0.074 A 
ATOM     46  C   UNL A   1      40.277  26.481  28.744  1.00  0.00     0.031 C 
ATOM     47  C   UNL A   1      46.325  25.281  25.644  1.00  0.00     0.029 A 
ATOM     48  C   UNL A   1      46.140  26.627  26.174  1.00  0.00     0.049 A 
ATOM     49  H   UNL A   1      44.531  27.340  27.290  1.00  0.00     0.167 HD
ATOM     50  C   UNL A   1      40.891  28.821  29.248  1.00  0.00     0.034 A 
ATOM     51  C   UNL A   1      47.007  27.648  26.028  1.00  0.00     0.034 A 
ATOM     52  C   UNL A   1      41.819  29.917  29.288  1.00  0.00     0.049 A 
ATOM     53  C   UNL A   1      46.677  28.976  26.654  1.00  0.00     0.074 A 
ATOM     54  C   UNL A   1      41.660  31.159  29.876  1.00  0.00     0.029 A 
ATOM     55  N   UNL A   1      43.080  29.904  28.712  1.00  0.00    -0.354 N 
ATOM     56  N   UNL A   1      45.616  29.324  27.342  1.00  0.00    -0.248 NA
ATOM     57  C   UNL A   1      47.679  30.043  26.515  1.00  0.00     0.031 C 
ATOM     58  C   UNL A   1      42.814  31.908  29.628  1.00  0.00     0.029 A 
ATOM     59  C   UNL A   1      43.707  31.120  28.920  1.00  0.00     0.049 A 
ATOM     60  H   UNL A   1      43.472  29.142  28.227  1.00  0.00     0.167 HD
ATOM     61  C   UNL A   1      45.838  30.634  27.748  1.00  0.00     0.074 A 
ATOM     62  C   UNL A   1      47.145  31.010  27.247  1.00  0.00     0.031 C 
ATOM     63  C   UNL A   1      45.028  31.458  28.457  1.00  0.00     0.034 A 
BRANCH  50  64
ATOM     64  C   UNL A   1      39.526  29.015  29.859  1.00  0.00     0.023 A 
ATOM     65  C   UNL A   1      39.278  28.567  31.173  1.00  0.00     0.012 A 
ATOM     66  C   UNL A   1      38.505  29.683  29.156  1.00  0.00     0.148 A 
ATOM     67  C   UNL A   1      38.026  28.742  31.761  1.00  0.00     0.002 A 
ATOM     68  C   UNL A   1      37.276  29.900  29.767  1.00  0.00     0.091 A 
ATOM     69  F   UNL A   1      38.751  30.086  27.900  1.00  0.00    -0.205 F 
ATOM     70  C   UNL A   1      37.030  29.418  31.063  1.00  0.00     0.022 A 
BRANCH  68  71
ATOM     71  S   UNL A   1      35.953  30.831  28.986  1.00  0.00     0.127 S 
ATOM     72  O   UNL A   1      35.155  31.236  30.142  1.00  0.00    -0.237 OA
ATOM     73  O   UNL A   1      36.686  31.920  28.339  1.00  0.00    -0.237 OA
ATOM     74  O   UNL A   1      35.299  29.909  28.068  1.00  0.00    -0.744 OA
ENDBRANCH  68  71
ENDBRANCH  50  64
BRANCH  51  75
ATOM     75  C   UNL A   1      48.297  27.439  25.312  1.00  0.00     0.023 A 
ATOM     76  C   UNL A   1      49.439  27.045  26.038  1.00  0.00     0.012 A 
ATOM     77  C   UNL A   1      48.394  27.601  23.917  1.00  0.00     0.148 A 
ATOM     78  C   UNL A   1      50.661  26.851  25.394  1.00  0.00     0.002 A 
ATOM     79  C   UNL A   1      49.601  27.352  23.274  1.00  0.00     0.091 A 
ATOM     80  F   UNL A   1      47.300  27.985  23.246  1.00  0.00    -0.205 F 
ATOM     81  C   UNL A   1      50.741  26.995  24.012  1.00  0.00     0.022 A 
BRANCH  79  82
ATOM     82  S   UNL A   1      49.767  27.385  21.486  1.00  0.00     0.127 S 
ATOM     83  O   UNL A   1      49.674  28.814  21.205  1.00  0.00    -0.237 OA
ATOM     84  O   UNL A   1      51.097  26.803  21.300  1.00  0.00    -0.237 OA
ATOM     85  O   UNL A   1      48.673  26.565  20.981  1.00  0.00    -0.744 OA
ENDBRANCH  79  82
ENDBRANCH  51  75
BRANCH  63  86
ATOM     86  C   UNL A   1      45.544  32.837  28.778  1.00  0.00     0.023 A 
ATOM     87  C   UNL A   1      46.321  33.047  29.933  1.00  0.00     0.012 A 
ATOM     88  C   UNL A   1      45.317  33.907  27.890  1.00  0.00     0.148 A 
ATOM     89  C   UNL A   1      46.836  34.310  30.218  1.00  0.00     0.002 A 
ATOM     90  C   UNL A   1      45.879  35.150  28.153  1.00  0.00     0.091 A 
ATOM     91  F   UNL A   1      44.560  33.690  26.805  1.00  0.00    -0.205 F 
ATOM     92  C   UNL A   1      46.626  35.357  29.324  1.00  0.00     0.022 A 
BRANCH  90  93
ATOM     93  S   UNL A   1      45.747  36.528  27.009  1.00  0.00     0.127 S 
ATOM     94  O   UNL A   1      46.417  35.996  25.824  1.00  0.00    -0.237 OA
ATOM     95  O   UNL A   1      44.298  36.680  26.874  1.00  0.00    -0.237 OA
ATOM     96  O   UNL A   1      46.414  37.651  27.652  1.00  0.00    -0.744 OA
ENDBRANCH  90  93
ENDBRANCH  63  86
ENDBRANCH  37  38
ENDBRANCH  29  32
ENDBRANCH  27  28
ENDBRANCH   1  27
TORSDOF 16
ENDMDL
