MODEL 1
REMARK VINA RESULT:     -11.7      0.000      0.000
REMARK SMILES C[C@]1(C(=O)N2CCC(CC(=O)NCCCNC(=O)c3ccc(-c4c5nc(c(-c6cccc(S(=O)(=O)[O-])c6F)c6ccc([nH]6)c(-c6cccc(S(=O)(=O)[O-])c6F)c6nc(c(-c7cccc(S(=O)(=O)[O-])c7F)c7ccc4[nH]7)C=C6)C=C5)cc3)CC2)CCC[NH2+]1
REMARK SMILES IDX 14 1 13 2 12 3 10 4 11 5 9 7 8 8 3 9 4 10 5 11 6 12 83 13
REMARK SMILES IDX 7 14 82 15 2 16 1 17 84 18 87 19 85 20 86 21 15 24 16 25
REMARK SMILES IDX 17 26 18 28 19 29 20 30 81 31 21 32 80 33 22 34 23 35 24 36
REMARK SMILES IDX 74 37 25 38 79 39 73 40 75 41 26 42 78 43 72 44 71 45 27 47
REMARK SMILES IDX 59 48 39 49 58 50 40 51 43 52 57 53 76 54 41 55 42 56 56 58
REMARK SMILES IDX 77 59 44 60 28 61 29 62 37 63 30 64 32 65 38 66 31 67 33 68
REMARK SMILES IDX 34 69 35 70 36 71 60 72 61 73 69 74 62 75 64 76 70 77 63 78
REMARK SMILES IDX 65 79 66 80 67 81 68 82 45 83 46 84 54 85 47 86 49 87 55 88
REMARK SMILES IDX 48 89 50 90 51 91 52 92 53 93
REMARK H PARENT 12 6 87 22 87 23 16 27 75 46 43 57
REMARK Flexibility Score: inf
ROOT
ATOM      1  C   UNL A   1      33.931  28.277  25.127  1.00  0.00     0.042 C 
ENDROOT
BRANCH   1   2
ATOM      2  C   UNL A   1      32.713  27.691  24.410  1.00  0.00     0.117 C 
BRANCH   2   3
ATOM      3  N   UNL A   1      31.736  27.094  25.315  1.00  0.00    -0.356 N 
ATOM      4  C   UNL A   1      31.668  25.852  25.876  1.00  0.00     0.220 C 
ATOM      5  O   UNL A   1      30.750  25.621  26.666  1.00  0.00    -0.275 OA
ATOM      6  H   UNL A   1      30.996  27.693  25.564  1.00  0.00     0.163 HD
BRANCH   4   7
ATOM      7  C   UNL A   1      32.684  24.774  25.538  1.00  0.00     0.103 C 
BRANCH   7   8
ATOM      8  C   UNL A   1      32.057  23.522  24.892  1.00  0.00     0.002 C 
ATOM      9  C   UNL A   1      33.604  19.920  24.447  1.00  0.00     0.283 C 
ATOM     10  O   UNL A   1      34.689  20.386  24.801  1.00  0.00    -0.268 OA
ATOM     11  N   UNL A   1      32.500  20.735  24.236  1.00  0.00    -0.337 N 
ATOM     12  C   UNL A   1      32.546  21.688  23.157  1.00  0.00     0.120 C 
ATOM     13  C   UNL A   1      31.572  21.048  25.302  1.00  0.00     0.120 C 
ATOM     14  C   UNL A   1      32.890  23.066  23.688  1.00  0.00     0.026 C 
ATOM     15  C   UNL A   1      31.926  22.395  25.936  1.00  0.00     0.026 C 
BRANCH   9  16
ATOM     16  C   UNL A   1      33.370  18.400  24.215  1.00  0.00     0.173 C 
ATOM     17  C   UNL A   1      32.565  18.198  22.922  1.00  0.00     0.090 C 
ATOM     18  C   UNL A   1      34.688  17.631  24.175  1.00  0.00     0.084 C 
ATOM     19  N   UNL A   1      32.633  17.814  25.364  1.00  0.00    -0.334 N 
ATOM     20  C   UNL A   1      34.323  16.257  24.699  1.00  0.00     0.068 C 
ATOM     21  C   UNL A   1      33.210  16.519  25.696  1.00  0.00     0.261 C 
ATOM     22  H   UNL A   1      31.651  17.695  25.114  1.00  0.00     0.347 HD
ATOM     23  H   UNL A   1      32.705  18.436  26.169  1.00  0.00     0.347 HD
ENDBRANCH   9  16
ENDBRANCH   7   8
ENDBRANCH   4   7
ENDBRANCH   2   3
ENDBRANCH   1   2
BRANCH   1  24
ATOM     24  C   UNL A   1      33.708  28.604  26.597  1.00  0.00     0.118 C 
BRANCH  24  25
ATOM     25  N   UNL A   1      33.655  30.038  26.821  1.00  0.00    -0.352 N 
ATOM     26  C   UNL A   1      34.457  30.835  27.603  1.00  0.00     0.251 C 
ATOM     27  H   UNL A   1      32.936  30.510  26.341  1.00  0.00     0.163 HD
ATOM     28  O   UNL A   1      34.077  31.972  27.876  1.00  0.00    -0.269 OA
BRANCH  26  29
ATOM     29  C   UNL A   1      35.763  30.353  28.122  1.00  0.00     0.039 A 
ATOM     30  C   UNL A   1      36.900  30.492  27.318  1.00  0.00     0.014 A 
ATOM     31  C   UNL A   1      35.872  29.694  29.350  1.00  0.00     0.014 A 
ATOM     32  C   UNL A   1      38.138  30.002  27.753  1.00  0.00     0.010 A 
ATOM     33  C   UNL A   1      37.121  29.279  29.818  1.00  0.00     0.010 A 
ATOM     34  C   UNL A   1      38.265  29.404  29.016  1.00  0.00    -0.014 A 
BRANCH  34  35
ATOM     35  C   UNL A   1      39.572  28.879  29.499  1.00  0.00     0.031 A 
ATOM     36  C   UNL A   1      40.300  29.565  30.629  1.00  0.00     0.074 A 
ATOM     37  C   UNL A   1      40.146  27.829  28.879  1.00  0.00     0.049 A 
ATOM     38  N   UNL A   1      41.467  29.287  31.150  1.00  0.00    -0.248 NA
ATOM     39  C   UNL A   1      39.642  30.735  31.235  1.00  0.00     0.031 C 
ATOM     40  C   UNL A   1      39.588  27.120  27.726  1.00  0.00     0.029 A 
ATOM     41  N   UNL A   1      41.340  27.191  29.113  1.00  0.00    -0.354 N 
ATOM     42  C   UNL A   1      41.702  30.267  32.109  1.00  0.00     0.074 A 
ATOM     43  C   UNL A   1      40.569  31.165  32.078  1.00  0.00     0.031 C 
ATOM     44  C   UNL A   1      40.436  26.148  27.355  1.00  0.00     0.029 A 
ATOM     45  C   UNL A   1      41.610  26.177  28.223  1.00  0.00     0.049 A 
ATOM     46  H   UNL A   1      41.946  27.436  29.849  1.00  0.00     0.167 HD
ATOM     47  C   UNL A   1      42.748  30.392  32.961  1.00  0.00     0.034 A 
ATOM     48  C   UNL A   1      42.680  25.364  28.113  1.00  0.00     0.034 A 
ATOM     49  C   UNL A   1      43.845  29.465  33.035  1.00  0.00     0.049 A 
ATOM     50  C   UNL A   1      43.799  25.486  29.113  1.00  0.00     0.074 A 
ATOM     51  C   UNL A   1      44.899  29.450  33.931  1.00  0.00     0.029 A 
ATOM     52  N   UNL A   1      44.031  28.389  32.182  1.00  0.00    -0.354 N 
ATOM     53  N   UNL A   1      43.922  26.318  30.118  1.00  0.00    -0.248 NA
ATOM     54  C   UNL A   1      44.911  24.529  28.988  1.00  0.00     0.031 C 
ATOM     55  C   UNL A   1      45.732  28.374  33.608  1.00  0.00     0.029 A 
ATOM     56  C   UNL A   1      45.185  27.707  32.525  1.00  0.00     0.049 A 
ATOM     57  H   UNL A   1      43.429  28.145  31.442  1.00  0.00     0.167 HD
ATOM     58  C   UNL A   1      45.102  25.966  30.765  1.00  0.00     0.074 A 
ATOM     59  C   UNL A   1      45.646  24.831  30.050  1.00  0.00     0.031 C 
ATOM     60  C   UNL A   1      45.688  26.541  31.843  1.00  0.00     0.034 A 
BRANCH  47  61
ATOM     61  C   UNL A   1      42.728  31.546  33.932  1.00  0.00     0.023 A 
ATOM     62  C   UNL A   1      43.274  32.787  33.544  1.00  0.00     0.012 A 
ATOM     63  C   UNL A   1      42.116  31.426  35.194  1.00  0.00     0.148 A 
ATOM     64  C   UNL A   1      43.245  33.879  34.411  1.00  0.00     0.002 A 
ATOM     65  C   UNL A   1      42.052  32.531  36.037  1.00  0.00     0.091 A 
ATOM     66  F   UNL A   1      41.619  30.234  35.554  1.00  0.00    -0.205 F 
ATOM     67  C   UNL A   1      42.626  33.753  35.651  1.00  0.00     0.022 A 
BRANCH  65  68
ATOM     68  S   UNL A   1      41.205  32.493  37.621  1.00  0.00     0.127 S 
ATOM     69  O   UNL A   1      42.006  31.517  38.360  1.00  0.00    -0.237 OA
ATOM     70  O   UNL A   1      41.352  33.875  38.082  1.00  0.00    -0.237 OA
ATOM     71  O   UNL A   1      39.836  32.093  37.334  1.00  0.00    -0.744 OA
ENDBRANCH  65  68
ENDBRANCH  47  61
BRANCH  48  72
ATOM     72  C   UNL A   1      42.704  24.310  27.059  1.00  0.00     0.023 A 
ATOM     73  C   UNL A   1      43.436  24.534  25.876  1.00  0.00     0.012 A 
ATOM     74  C   UNL A   1      42.046  23.077  27.235  1.00  0.00     0.148 A 
ATOM     75  C   UNL A   1      43.487  23.564  24.876  1.00  0.00     0.002 A 
ATOM     76  C   UNL A   1      42.147  22.092  26.258  1.00  0.00     0.091 A 
ATOM     77  F   UNL A   1      41.342  22.887  28.360  1.00  0.00    -0.205 F 
ATOM     78  C   UNL A   1      42.853  22.339  25.071  1.00  0.00     0.022 A 
BRANCH  76  79
ATOM     79  S   UNL A   1      41.481  20.438  26.488  1.00  0.00     0.127 S 
ATOM     80  O   UNL A   1      40.059  20.650  26.239  1.00  0.00    -0.237 OA
ATOM     81  O   UNL A   1      42.184  19.678  25.454  1.00  0.00    -0.237 OA
ATOM     82  O   UNL A   1      41.839  20.057  27.850  1.00  0.00    -0.744 OA
ENDBRANCH  76  79
ENDBRANCH  48  72
BRANCH  60  83
ATOM     83  C   UNL A   1      46.974  25.941  32.348  1.00  0.00     0.023 A 
ATOM     84  C   UNL A   1      48.208  26.435  31.881  1.00  0.00     0.012 A 
ATOM     85  C   UNL A   1      46.961  24.945  33.346  1.00  0.00     0.148 A 
ATOM     86  C   UNL A   1      49.408  25.929  32.377  1.00  0.00     0.002 A 
ATOM     87  C   UNL A   1      48.161  24.478  33.869  1.00  0.00     0.091 A 
ATOM     88  F   UNL A   1      45.777  24.473  33.764  1.00  0.00    -0.205 F 
ATOM     89  C   UNL A   1      49.385  24.961  33.378  1.00  0.00     0.022 A 
BRANCH  87  90
ATOM     90  S   UNL A   1      48.225  23.302  35.226  1.00  0.00     0.127 S 
ATOM     91  O   UNL A   1      47.454  23.995  36.257  1.00  0.00    -0.237 OA
ATOM     92  O   UNL A   1      47.564  22.128  34.655  1.00  0.00    -0.237 OA
ATOM     93  O   UNL A   1      49.639  23.112  35.523  1.00  0.00    -0.744 OA
ENDBRANCH  87  90
ENDBRANCH  60  83
ENDBRANCH  34  35
ENDBRANCH  26  29
ENDBRANCH  24  25
ENDBRANCH   1  24
TORSDOF 15
ENDMDL
MODEL 2
REMARK VINA RESULT:     -11.7      1.756      2.479
REMARK SMILES C[C@]1(C(=O)N2CCC(CC(=O)NCCCNC(=O)c3ccc(-c4c5nc(c(-c6cccc(S(=O)(=O)[O-])c6F)c6ccc([nH]6)c(-c6cccc(S(=O)(=O)[O-])c6F)c6nc(c(-c7cccc(S(=O)(=O)[O-])c7F)c7ccc4[nH]7)C=C6)C=C5)cc3)CC2)CCC[NH2+]1
REMARK SMILES IDX 14 1 13 2 12 3 10 4 11 5 9 7 8 8 3 9 4 10 5 11 6 12 83 13
REMARK SMILES IDX 7 14 82 15 2 16 1 17 84 18 87 19 85 20 86 21 15 24 16 25
REMARK SMILES IDX 17 26 18 28 19 29 20 30 81 31 21 32 80 33 22 34 23 35 24 36
REMARK SMILES IDX 74 37 25 38 79 39 73 40 75 41 26 42 78 43 72 44 71 45 27 47
REMARK SMILES IDX 59 48 39 49 58 50 40 51 43 52 57 53 76 54 41 55 42 56 56 58
REMARK SMILES IDX 77 59 44 60 28 61 29 62 37 63 30 64 32 65 38 66 31 67 33 68
REMARK SMILES IDX 34 69 35 70 36 71 60 72 61 73 69 74 62 75 64 76 70 77 63 78
REMARK SMILES IDX 65 79 66 80 67 81 68 82 45 83 46 84 54 85 47 86 49 87 55 88
REMARK SMILES IDX 48 89 50 90 51 91 52 92 53 93
REMARK H PARENT 12 6 87 22 87 23 16 27 75 46 43 57
REMARK Flexibility Score: inf
ROOT
ATOM      1  C   UNL A   1      33.159  29.043  25.102  1.00  0.00     0.042 C 
ENDROOT
BRANCH   1   2
ATOM      2  C   UNL A   1      31.668  29.380  25.029  1.00  0.00     0.117 C 
BRANCH   2   3
ATOM      3  N   UNL A   1      31.189  29.609  23.669  1.00  0.00    -0.356 N 
ATOM      4  C   UNL A   1      30.390  28.859  22.856  1.00  0.00     0.220 C 
ATOM      5  O   UNL A   1      30.086  29.321  21.754  1.00  0.00    -0.275 OA
ATOM      6  H   UNL A   1      31.498  30.454  23.268  1.00  0.00     0.163 HD
BRANCH   4   7
ATOM      7  C   UNL A   1      29.889  27.491  23.283  1.00  0.00     0.103 C 
BRANCH   7   8
ATOM      8  C   UNL A   1      30.735  26.327  22.728  1.00  0.00     0.002 C 
ATOM      9  C   UNL A   1      33.851  24.530  24.349  1.00  0.00     0.283 C 
ATOM     10  O   UNL A   1      33.871  25.420  25.200  1.00  0.00    -0.268 OA
ATOM     11  N   UNL A   1      32.988  24.586  23.262  1.00  0.00    -0.337 N 
ATOM     12  C   UNL A   1      33.173  25.635  22.292  1.00  0.00     0.120 C 
ATOM     13  C   UNL A   1      31.658  24.020  23.319  1.00  0.00     0.120 C 
ATOM     14  C   UNL A   1      32.193  26.764  22.547  1.00  0.00     0.026 C 
ATOM     15  C   UNL A   1      30.633  25.103  23.661  1.00  0.00     0.026 C 
BRANCH   9  16
ATOM     16  C   UNL A   1      34.767  23.274  24.413  1.00  0.00     0.173 C 
ATOM     17  C   UNL A   1      33.910  22.030  24.695  1.00  0.00     0.090 C 
ATOM     18  C   UNL A   1      35.582  23.111  23.133  1.00  0.00     0.084 C 
ATOM     19  N   UNL A   1      35.785  23.437  25.482  1.00  0.00    -0.334 N 
ATOM     20  C   UNL A   1      36.852  22.426  23.596  1.00  0.00     0.068 C 
ATOM     21  C   UNL A   1      37.071  22.952  25.001  1.00  0.00     0.261 C 
ATOM     22  H   UNL A   1      35.504  22.902  26.304  1.00  0.00     0.347 HD
ATOM     23  H   UNL A   1      35.863  24.423  25.731  1.00  0.00     0.347 HD
ENDBRANCH   9  16
ENDBRANCH   7   8
ENDBRANCH   4   7
ENDBRANCH   2   3
ENDBRANCH   1   2
BRANCH   1  24
ATOM     24  C   UNL A   1      33.767  29.145  26.494  1.00  0.00     0.118 C 
BRANCH  24  25
ATOM     25  N   UNL A   1      33.705  30.504  27.003  1.00  0.00    -0.352 N 
ATOM     26  C   UNL A   1      34.500  31.130  27.933  1.00  0.00     0.251 C 
ATOM     27  H   UNL A   1      32.985  31.060  26.625  1.00  0.00     0.163 HD
ATOM     28  O   UNL A   1      34.112  32.186  28.428  1.00  0.00    -0.269 OA
BRANCH  26  29
ATOM     29  C   UNL A   1      35.807  30.559  28.350  1.00  0.00     0.039 A 
ATOM     30  C   UNL A   1      35.843  29.695  29.450  1.00  0.00     0.014 A 
ATOM     31  C   UNL A   1      37.004  30.923  27.727  1.00  0.00     0.014 A 
ATOM     32  C   UNL A   1      37.064  29.179  29.903  1.00  0.00     0.010 A 
ATOM     33  C   UNL A   1      38.210  30.345  28.128  1.00  0.00     0.010 A 
ATOM     34  C   UNL A   1      38.260  29.486  29.236  1.00  0.00    -0.014 A 
BRANCH  34  35
ATOM     35  C   UNL A   1      39.569  28.947  29.699  1.00  0.00     0.031 A 
ATOM     36  C   UNL A   1      40.321  29.625  30.818  1.00  0.00     0.074 A 
ATOM     37  C   UNL A   1      40.123  27.891  29.070  1.00  0.00     0.049 A 
ATOM     38  N   UNL A   1      41.493  29.333  31.321  1.00  0.00    -0.248 NA
ATOM     39  C   UNL A   1      39.684  30.800  31.436  1.00  0.00     0.031 C 
ATOM     40  C   UNL A   1      39.540  27.190  27.925  1.00  0.00     0.029 A 
ATOM     41  N   UNL A   1      41.313  27.241  29.285  1.00  0.00    -0.354 N 
ATOM     42  C   UNL A   1      41.753  30.310  32.278  1.00  0.00     0.074 A 
ATOM     43  C   UNL A   1      40.629  31.219  32.264  1.00  0.00     0.031 C 
ATOM     44  C   UNL A   1      40.372  26.209  27.539  1.00  0.00     0.029 A 
ATOM     45  C   UNL A   1      41.559  26.225  28.390  1.00  0.00     0.049 A 
ATOM     46  H   UNL A   1      41.933  27.479  30.012  1.00  0.00     0.167 HD
ATOM     47  C   UNL A   1      42.813  30.423  33.114  1.00  0.00     0.034 A 
ATOM     48  C   UNL A   1      42.619  25.401  28.263  1.00  0.00     0.034 A 
ATOM     49  C   UNL A   1      43.901  29.485  33.170  1.00  0.00     0.049 A 
ATOM     50  C   UNL A   1      43.755  25.510  29.246  1.00  0.00     0.074 A 
ATOM     51  C   UNL A   1      44.969  29.458  34.051  1.00  0.00     0.029 A 
ATOM     52  N   UNL A   1      44.063  28.408  32.314  1.00  0.00    -0.354 N 
ATOM     53  N   UNL A   1      43.901  26.340  30.250  1.00  0.00    -0.248 NA
ATOM     54  C   UNL A   1      44.854  24.543  29.103  1.00  0.00     0.031 C 
ATOM     55  C   UNL A   1      45.785  28.373  33.714  1.00  0.00     0.029 A 
ATOM     56  C   UNL A   1      45.214  27.713  32.638  1.00  0.00     0.049 A 
ATOM     57  H   UNL A   1      43.447  28.171  31.582  1.00  0.00     0.167 HD
ATOM     58  C   UNL A   1      45.087  25.975  30.878  1.00  0.00     0.074 A 
ATOM     59  C   UNL A   1      45.609  24.835  30.154  1.00  0.00     0.031 C 
ATOM     60  C   UNL A   1      45.696  26.544  31.948  1.00  0.00     0.034 A 
BRANCH  47  61
ATOM     61  C   UNL A   1      42.819  31.577  34.086  1.00  0.00     0.023 A 
ATOM     62  C   UNL A   1      43.333  32.824  33.677  1.00  0.00     0.012 A 
ATOM     63  C   UNL A   1      42.262  31.448  35.373  1.00  0.00     0.148 A 
ATOM     64  C   UNL A   1      43.327  33.915  34.546  1.00  0.00     0.002 A 
ATOM     65  C   UNL A   1      42.220  32.552  36.218  1.00  0.00     0.091 A 
ATOM     66  F   UNL A   1      41.795  30.249  35.753  1.00  0.00    -0.205 F 
ATOM     67  C   UNL A   1      42.762  33.781  35.811  1.00  0.00     0.022 A 
BRANCH  65  68
ATOM     68  S   UNL A   1      41.442  32.503  37.837  1.00  0.00     0.127 S 
ATOM     69  O   UNL A   1      40.102  32.020  37.505  1.00  0.00    -0.237 OA
ATOM     70  O   UNL A   1      42.277  31.537  38.552  1.00  0.00    -0.237 OA
ATOM     71  O   UNL A   1      41.509  33.861  38.355  1.00  0.00    -0.744 OA
ENDBRANCH  65  68
ENDBRANCH  47  61
BRANCH  48  72
ATOM     72  C   UNL A   1      42.616  24.348  27.208  1.00  0.00     0.023 A 
ATOM     73  C   UNL A   1      43.291  24.586  25.994  1.00  0.00     0.012 A 
ATOM     74  C   UNL A   1      41.989  23.103  27.411  1.00  0.00     0.148 A 
ATOM     75  C   UNL A   1      43.316  23.617  24.991  1.00  0.00     0.002 A 
ATOM     76  C   UNL A   1      42.066  22.121  26.430  1.00  0.00     0.091 A 
ATOM     77  F   UNL A   1      41.340  22.900  28.566  1.00  0.00    -0.205 F 
ATOM     78  C   UNL A   1      42.714  22.380  25.213  1.00  0.00     0.022 A 
BRANCH  76  79
ATOM     79  S   UNL A   1      41.442  20.454  26.687  1.00  0.00     0.127 S 
ATOM     80  O   UNL A   1      42.139  20.057  27.907  1.00  0.00    -0.237 OA
ATOM     81  O   UNL A   1      40.005  20.686  26.845  1.00  0.00    -0.237 OA
ATOM     82  O   UNL A   1      41.794  19.713  25.482  1.00  0.00    -0.744 OA
ENDBRANCH  76  79
ENDBRANCH  48  72
BRANCH  60  83
ATOM     83  C   UNL A   1      46.982  25.929  32.433  1.00  0.00     0.023 A 
ATOM     84  C   UNL A   1      48.213  26.403  31.938  1.00  0.00     0.012 A 
ATOM     85  C   UNL A   1      46.975  24.941  33.438  1.00  0.00     0.148 A 
ATOM     86  C   UNL A   1      49.416  25.885  32.416  1.00  0.00     0.002 A 
ATOM     87  C   UNL A   1      48.178  24.462  33.943  1.00  0.00     0.091 A 
ATOM     88  F   UNL A   1      45.793  24.489  33.882  1.00  0.00    -0.205 F 
ATOM     89  C   UNL A   1      49.399  24.924  33.425  1.00  0.00     0.022 A 
BRANCH  87  90
ATOM     90  S   UNL A   1      48.253  23.295  35.307  1.00  0.00     0.127 S 
ATOM     91  O   UNL A   1      47.622  22.112  34.723  1.00  0.00    -0.237 OA
ATOM     92  O   UNL A   1      49.693  23.170  35.533  1.00  0.00    -0.237 OA
ATOM     93  O   UNL A   1      47.523  23.917  36.404  1.00  0.00    -0.744 OA
ENDBRANCH  87  90
ENDBRANCH  60  83
ENDBRANCH  34  35
ENDBRANCH  26  29
ENDBRANCH  24  25
ENDBRANCH   1  24
TORSDOF 15
ENDMDL
MODEL 3
REMARK VINA RESULT:     -11.7      5.171      8.818
REMARK SMILES C[C@]1(C(=O)N2CCC(CC(=O)NCCCNC(=O)c3ccc(-c4c5nc(c(-c6cccc(S(=O)(=O)[O-])c6F)c6ccc([nH]6)c(-c6cccc(S(=O)(=O)[O-])c6F)c6nc(c(-c7cccc(S(=O)(=O)[O-])c7F)c7ccc4[nH]7)C=C6)C=C5)cc3)CC2)CCC[NH2+]1
REMARK SMILES IDX 14 1 13 2 12 3 10 4 11 5 9 7 8 8 3 9 4 10 5 11 6 12 83 13
REMARK SMILES IDX 7 14 82 15 2 16 1 17 84 18 87 19 85 20 86 21 15 24 16 25
REMARK SMILES IDX 17 26 18 28 19 29 20 30 81 31 21 32 80 33 22 34 23 35 24 36
REMARK SMILES IDX 74 37 25 38 79 39 73 40 75 41 26 42 78 43 72 44 71 45 27 47
REMARK SMILES IDX 59 48 39 49 58 50 40 51 43 52 57 53 76 54 41 55 42 56 56 58
REMARK SMILES IDX 77 59 44 60 28 61 29 62 37 63 30 64 32 65 38 66 31 67 33 68
REMARK SMILES IDX 34 69 35 70 36 71 60 72 61 73 69 74 62 75 64 76 70 77 63 78
REMARK SMILES IDX 65 79 66 80 67 81 68 82 45 83 46 84 54 85 47 86 49 87 55 88
REMARK SMILES IDX 48 89 50 90 51 91 52 92 53 93
REMARK H PARENT 12 6 87 22 87 23 16 27 75 46 43 57
REMARK Flexibility Score: inf
ROOT
ATOM      1  C   UNL A   1      37.127  19.644  24.921  1.00  0.00     0.042 C 
ENDROOT
BRANCH   1   2
ATOM      2  C   UNL A   1      35.896  20.545  25.047  1.00  0.00     0.117 C 
BRANCH   2   3
ATOM      3  N   UNL A   1      34.634  19.813  25.016  1.00  0.00    -0.356 N 
ATOM      4  C   UNL A   1      33.420  20.084  25.576  1.00  0.00     0.220 C 
ATOM      5  O   UNL A   1      32.486  19.312  25.341  1.00  0.00    -0.275 OA
ATOM      6  H   UNL A   1      34.665  18.975  24.500  1.00  0.00     0.163 HD
BRANCH   4   7
ATOM      7  C   UNL A   1      33.214  21.292  26.472  1.00  0.00     0.103 C 
BRANCH   7   8
ATOM      8  C   UNL A   1      32.325  22.382  25.839  1.00  0.00     0.002 C 
ATOM      9  C   UNL A   1      33.085  26.218  25.324  1.00  0.00     0.283 C 
ATOM     10  O   UNL A   1      34.080  26.076  26.037  1.00  0.00    -0.268 OA
ATOM     11  N   UNL A   1      32.170  25.189  25.142  1.00  0.00    -0.337 N 
ATOM     12  C   UNL A   1      31.405  24.742  26.278  1.00  0.00     0.120 C 
ATOM     13  C   UNL A   1      32.314  24.226  24.072  1.00  0.00     0.120 C 
ATOM     14  C   UNL A   1      32.017  23.483  26.859  1.00  0.00     0.026 C 
ATOM     15  C   UNL A   1      33.008  22.962  24.584  1.00  0.00     0.026 C 
BRANCH   9  16
ATOM     16  C   UNL A   1      32.768  27.539  24.564  1.00  0.00     0.173 C 
ATOM     17  C   UNL A   1      33.480  27.528  23.203  1.00  0.00     0.090 C 
ATOM     18  C   UNL A   1      31.264  27.744  24.405  1.00  0.00     0.084 C 
ATOM     19  N   UNL A   1      33.221  28.708  25.360  1.00  0.00    -0.334 N 
ATOM     20  C   UNL A   1      31.104  29.251  24.387  1.00  0.00     0.068 C 
ATOM     21  C   UNL A   1      32.213  29.757  25.290  1.00  0.00     0.261 C 
ATOM     22  H   UNL A   1      34.102  29.056  24.982  1.00  0.00     0.347 HD
ATOM     23  H   UNL A   1      33.356  28.428  26.331  1.00  0.00     0.347 HD
ENDBRANCH   9  16
ENDBRANCH   7   8
ENDBRANCH   4   7
ENDBRANCH   2   3
ENDBRANCH   1   2
BRANCH   1  24
ATOM     24  C   UNL A   1      38.450  20.325  25.248  1.00  0.00     0.118 C 
BRANCH  24  25
ATOM     25  N   UNL A   1      39.435  19.370  25.724  1.00  0.00    -0.352 N 
ATOM     26  C   UNL A   1      40.741  19.573  26.106  1.00  0.00     0.251 C 
ATOM     27  H   UNL A   1      39.121  18.439  25.783  1.00  0.00     0.163 HD
ATOM     28  O   UNL A   1      41.484  18.600  26.209  1.00  0.00    -0.269 OA
BRANCH  26  29
ATOM     29  C   UNL A   1      41.265  20.933  26.391  1.00  0.00     0.039 A 
ATOM     30  C   UNL A   1      41.188  21.423  27.699  1.00  0.00     0.014 A 
ATOM     31  C   UNL A   1      41.757  21.763  25.379  1.00  0.00     0.014 A 
ATOM     32  C   UNL A   1      41.625  22.721  27.995  1.00  0.00     0.010 A 
ATOM     33  C   UNL A   1      42.267  23.025  25.688  1.00  0.00     0.010 A 
ATOM     34  C   UNL A   1      42.185  23.530  26.995  1.00  0.00    -0.014 A 
BRANCH  34  35
ATOM     35  C   UNL A   1      42.659  24.912  27.287  1.00  0.00     0.031 A 
ATOM     36  C   UNL A   1      41.732  25.916  27.927  1.00  0.00     0.074 A 
ATOM     37  C   UNL A   1      43.897  25.293  26.913  1.00  0.00     0.049 A 
ATOM     38  N   UNL A   1      41.947  27.176  28.210  1.00  0.00    -0.248 NA
ATOM     39  C   UNL A   1      40.378  25.452  28.271  1.00  0.00     0.031 C 
ATOM     40  C   UNL A   1      44.866  24.445  26.217  1.00  0.00     0.029 A 
ATOM     41  N   UNL A   1      44.542  26.499  27.041  1.00  0.00    -0.354 N 
ATOM     42  C   UNL A   1      40.749  27.663  28.720  1.00  0.00     0.074 A 
ATOM     43  C   UNL A   1      39.801  26.572  28.681  1.00  0.00     0.031 C 
ATOM     44  C   UNL A   1      45.980  25.156  25.980  1.00  0.00     0.029 A 
ATOM     45  C   UNL A   1      45.799  26.516  26.481  1.00  0.00     0.049 A 
ATOM     46  H   UNL A   1      44.142  27.278  27.489  1.00  0.00     0.167 HD
ATOM     47  C   UNL A   1      40.468  28.897  29.207  1.00  0.00     0.034 A 
ATOM     48  C   UNL A   1      46.703  27.511  26.379  1.00  0.00     0.034 A 
ATOM     49  C   UNL A   1      41.427  29.964  29.303  1.00  0.00     0.049 A 
ATOM     50  C   UNL A   1      46.388  28.853  26.985  1.00  0.00     0.074 A 
ATOM     51  C   UNL A   1      41.268  31.215  29.874  1.00  0.00     0.029 A 
ATOM     52  N   UNL A   1      42.724  29.909  28.819  1.00  0.00    -0.354 N 
ATOM     53  N   UNL A   1      45.305  29.243  27.612  1.00  0.00    -0.248 NA
ATOM     54  C   UNL A   1      47.437  29.882  26.904  1.00  0.00     0.031 C 
ATOM     55  C   UNL A   1      42.464  31.922  29.717  1.00  0.00     0.029 A 
ATOM     56  C   UNL A   1      43.375  31.104  29.069  1.00  0.00     0.049 A 
ATOM     57  H   UNL A   1      43.124  29.132  28.364  1.00  0.00     0.167 HD
ATOM     58  C   UNL A   1      45.553  30.546  28.030  1.00  0.00     0.074 A 
ATOM     59  C   UNL A   1      46.897  30.872  27.603  1.00  0.00     0.031 C 
ATOM     60  C   UNL A   1      44.734  31.399  28.693  1.00  0.00     0.034 A 
BRANCH  47  61
ATOM     61  C   UNL A   1      39.077  29.143  29.735  1.00  0.00     0.023 A 
ATOM     62  C   UNL A   1      38.772  28.804  31.069  1.00  0.00     0.012 A 
ATOM     63  C   UNL A   1      38.096  29.765  28.939  1.00  0.00     0.148 A 
ATOM     64  C   UNL A   1      37.501  29.045  31.591  1.00  0.00     0.002 A 
ATOM     65  C   UNL A   1      36.845  30.042  29.480  1.00  0.00     0.091 A 
ATOM     66  F   UNL A   1      38.397  30.064  27.667  1.00  0.00    -0.205 F 
ATOM     67  C   UNL A   1      36.543  29.672  30.801  1.00  0.00     0.022 A 
BRANCH  65  68
ATOM     68  S   UNL A   1      35.568  30.919  28.569  1.00  0.00     0.127 S 
ATOM     69  O   UNL A   1      36.362  31.863  27.783  1.00  0.00    -0.237 OA
ATOM     70  O   UNL A   1      34.952  29.845  27.789  1.00  0.00    -0.237 OA
ATOM     71  O   UNL A   1      34.698  31.514  29.572  1.00  0.00    -0.744 OA
ENDBRANCH  65  68
ENDBRANCH  47  61
BRANCH  48  72
ATOM     72  C   UNL A   1      48.025  27.247  25.742  1.00  0.00     0.023 A 
ATOM     73  C   UNL A   1      49.079  26.736  26.525  1.00  0.00     0.012 A 
ATOM     74  C   UNL A   1      48.234  27.460  24.365  1.00  0.00     0.148 A 
ATOM     75  C   UNL A   1      50.324  26.470  25.956  1.00  0.00     0.002 A 
ATOM     76  C   UNL A   1      49.460  27.139  23.793  1.00  0.00     0.091 A 
ATOM     77  F   UNL A   1      47.225  27.960  23.639  1.00  0.00    -0.205 F 
ATOM     78  C   UNL A   1      50.512  26.660  24.589  1.00  0.00     0.022 A 
BRANCH  76  79
ATOM     79  S   UNL A   1      49.744  27.219  22.020  1.00  0.00     0.127 S 
ATOM     80  O   UNL A   1      51.176  26.950  21.933  1.00  0.00    -0.237 OA
ATOM     81  O   UNL A   1      48.882  26.146  21.522  1.00  0.00    -0.237 OA
ATOM     82  O   UNL A   1      49.321  28.555  21.615  1.00  0.00    -0.744 OA
ENDBRANCH  76  79
ENDBRANCH  48  72
BRANCH  60  83
ATOM     83  C   UNL A   1      45.270  32.764  29.034  1.00  0.00     0.023 A 
ATOM     84  C   UNL A   1      46.051  32.940  30.193  1.00  0.00     0.012 A 
ATOM     85  C   UNL A   1      45.071  33.855  28.162  1.00  0.00     0.148 A 
ATOM     86  C   UNL A   1      46.602  34.184  30.495  1.00  0.00     0.002 A 
ATOM     87  C   UNL A   1      45.661  35.081  28.446  1.00  0.00     0.091 A 
ATOM     88  F   UNL A   1      44.308  33.673  27.074  1.00  0.00    -0.205 F 
ATOM     89  C   UNL A   1      46.417  35.250  29.617  1.00  0.00     0.022 A 
BRANCH  87  90
ATOM     90  S   UNL A   1      45.556  36.481  27.326  1.00  0.00     0.127 S 
ATOM     91  O   UNL A   1      44.113  36.582  27.109  1.00  0.00    -0.237 OA
ATOM     92  O   UNL A   1      46.130  37.565  28.124  1.00  0.00    -0.237 OA
ATOM     93  O   UNL A   1      46.341  36.115  26.154  1.00  0.00    -0.744 OA
ENDBRANCH  87  90
ENDBRANCH  60  83
ENDBRANCH  34  35
ENDBRANCH  26  29
ENDBRANCH  24  25
ENDBRANCH   1  24
TORSDOF 15
ENDMDL
