MODEL 1
REMARK VINA RESULT:     -12.6      0.000      0.000
REMARK SMILES COc1cc(/C=C2/CCc3c2nc2ccccc2c3C(=O)NCCCNC(=O)c2ccc(-c3c4nc(c(-c5cccc(S(=O)(=O)[O-])c5F)c5ccc([nH]5)c(-c5cccc(S(=O)(=O)[O-])c5F)c5nc(c(-c6cccc(S(=O)(=O)[O-])c6F)c6ccc3[nH]6)C=C5)C=C4)cc2)cc(Br)c1O
REMARK SMILES IDX 24 1 23 2 22 3 20 4 21 5 19 7 6 8 7 9 8 10 11 11 9 12 10 13
REMARK SMILES IDX 12 14 13 15 18 16 14 17 17 18 15 19 16 20 5 21 3 22 4 23
REMARK SMILES IDX 95 24 93 25 92 26 94 27 2 28 1 29 96 30 25 32 26 33 27 34
REMARK SMILES IDX 28 36 29 37 30 38 91 39 31 40 90 41 32 42 33 43 34 44 84 45
REMARK SMILES IDX 35 46 89 47 83 48 85 49 36 50 88 51 82 52 81 53 37 55 69 56
REMARK SMILES IDX 49 57 68 58 50 59 53 60 67 61 86 62 51 63 52 64 66 66 87 67
REMARK SMILES IDX 54 68 38 69 39 70 47 71 40 72 42 73 48 74 41 75 43 76 44 77
REMARK SMILES IDX 45 78 46 79 70 80 71 81 79 82 72 83 74 84 80 85 73 86 75 87
REMARK SMILES IDX 76 88 77 89 78 90 55 91 56 92 64 93 57 94 59 95 65 96 58 97
REMARK SMILES IDX 60 98 61 99 62 100 63 101
REMARK H PARENT 22 6 96 31 26 35 85 54 53 65
REMARK Flexibility Score: inf
ROOT
ATOM      1  C   UNL A   1      32.987  27.778  25.307  1.00  0.00     0.042 C 
ENDROOT
BRANCH   1   2
ATOM      2  C   UNL A   1      31.618  27.480  25.900  1.00  0.00     0.118 C 
BRANCH   2   3
ATOM      3  N   UNL A   1      30.489  27.322  25.004  1.00  0.00    -0.352 N 
ATOM      4  C   UNL A   1      29.975  26.192  24.390  1.00  0.00     0.252 C 
ATOM      5  O   UNL A   1      28.837  26.279  23.929  1.00  0.00    -0.269 OA
ATOM      6  H   UNL A   1      30.008  28.157  24.797  1.00  0.00     0.163 HD
BRANCH   4   7
ATOM      7  C   UNL A   1      30.756  24.930  24.178  1.00  0.00     0.054 A 
ATOM      8  C   UNL A   1      33.564  23.140  26.847  1.00  0.00     0.014 C 
ATOM      9  C   UNL A   1      32.295  22.958  26.417  1.00  0.00    -0.021 C 
ATOM     10  C   UNL A   1      31.051  23.117  27.268  1.00  0.00     0.042 C 
ATOM     11  C   UNL A   1      31.825  23.024  25.012  1.00  0.00     0.071 A 
ATOM     12  C   UNL A   1      29.944  23.455  26.255  1.00  0.00     0.043 C 
ATOM     13  C   UNL A   1      30.738  23.868  25.066  1.00  0.00    -0.008 A 
ATOM     14  N   UNL A   1      32.578  22.813  23.939  1.00  0.00    -0.248 NA
ATOM     15  C   UNL A   1      32.424  23.666  22.929  1.00  0.00     0.072 A 
ATOM     16  C   UNL A   1      31.632  24.835  23.032  1.00  0.00     0.013 A 
ATOM     17  C   UNL A   1      33.169  23.413  21.786  1.00  0.00     0.029 A 
ATOM     18  C   UNL A   1      31.809  25.799  21.999  1.00  0.00     0.011 A 
ATOM     19  C   UNL A   1      33.279  24.344  20.761  1.00  0.00     0.002 A 
ATOM     20  C   UNL A   1      32.628  25.559  20.888  1.00  0.00     0.001 A 
BRANCH   8  21
ATOM     21  C   UNL A   1      34.711  22.676  26.056  1.00  0.00    -0.020 A 
ATOM     22  C   UNL A   1      36.187  20.898  25.290  1.00  0.00     0.162 A 
ATOM     23  C   UNL A   1      34.888  21.390  25.524  1.00  0.00     0.058 A 
ATOM     24  C   UNL A   1      37.276  21.732  25.575  1.00  0.00     0.172 A 
ATOM     25  C   UNL A   1      37.070  23.075  25.909  1.00  0.00     0.064 A 
ATOM     26  C   UNL A   1      35.792  23.554  26.120  1.00  0.00     0.028 A 
ATOM     27  Br  UNL A   1      38.521  24.251  26.235  1.00  0.00    -0.047 Br
BRANCH  22  28
ATOM     28  O   UNL A   1      36.225  19.583  24.895  1.00  0.00    -0.493 OA
ATOM     29  C   UNL A   1      34.989  18.932  24.627  1.00  0.00     0.278 C 
ENDBRANCH  22  28
BRANCH  24  30
ATOM     30  O   UNL A   1      38.554  21.241  25.641  1.00  0.00    -0.503 OA
ATOM     31  H   UNL A   1      39.210  21.705  26.123  1.00  0.00     0.293 HD
ENDBRANCH  24  30
ENDBRANCH   8  21
ENDBRANCH   4   7
ENDBRANCH   2   3
ENDBRANCH   1   2
BRANCH   1  32
ATOM     32  C   UNL A   1      33.141  29.184  24.748  1.00  0.00     0.118 C 
BRANCH  32  33
ATOM     33  N   UNL A   1      32.624  30.246  25.607  1.00  0.00    -0.352 N 
ATOM     34  C   UNL A   1      33.099  30.900  26.722  1.00  0.00     0.251 C 
ATOM     35  H   UNL A   1      31.737  30.567  25.326  1.00  0.00     0.163 HD
ATOM     36  O   UNL A   1      32.361  31.733  27.248  1.00  0.00    -0.269 OA
BRANCH  34  37
ATOM     37  C   UNL A   1      34.415  30.604  27.346  1.00  0.00     0.039 A 
ATOM     38  C   UNL A   1      34.837  29.313  27.631  1.00  0.00     0.014 A 
ATOM     39  C   UNL A   1      35.289  31.667  27.626  1.00  0.00     0.014 A 
ATOM     40  C   UNL A   1      35.998  29.096  28.369  1.00  0.00     0.010 A 
ATOM     41  C   UNL A   1      36.523  31.437  28.256  1.00  0.00     0.010 A 
ATOM     42  C   UNL A   1      36.868  30.149  28.686  1.00  0.00    -0.014 A 
BRANCH  42  43
ATOM     43  C   UNL A   1      38.118  29.853  29.445  1.00  0.00     0.031 A 
ATOM     44  C   UNL A   1      38.287  30.289  30.880  1.00  0.00     0.074 A 
ATOM     45  C   UNL A   1      39.083  29.108  28.864  1.00  0.00     0.049 A 
ATOM     46  N   UNL A   1      39.294  30.074  31.688  1.00  0.00    -0.248 NA
ATOM     47  C   UNL A   1      37.198  31.073  31.487  1.00  0.00     0.031 C 
ATOM     48  C   UNL A   1      39.063  28.642  27.474  1.00  0.00     0.029 A 
ATOM     49  N   UNL A   1      40.243  28.574  29.369  1.00  0.00    -0.354 N 
ATOM     50  C   UNL A   1      38.991  30.743  32.867  1.00  0.00     0.074 A 
ATOM     51  C   UNL A   1      37.700  31.366  32.680  1.00  0.00     0.031 C 
ATOM     52  C   UNL A   1      40.098  27.817  27.269  1.00  0.00     0.029 A 
ATOM     53  C   UNL A   1      40.906  27.758  28.482  1.00  0.00     0.049 A 
ATOM     54  H   UNL A   1      40.568  28.757  30.280  1.00  0.00     0.167 HD
ATOM     55  C   UNL A   1      39.712  30.819  34.010  1.00  0.00     0.034 A 
ATOM     56  C   UNL A   1      42.040  27.043  28.615  1.00  0.00     0.034 A 
ATOM     57  C   UNL A   1      40.957  30.134  34.234  1.00  0.00     0.049 A 
ATOM     58  C   UNL A   1      42.797  27.105  29.908  1.00  0.00     0.074 A 
ATOM     59  C   UNL A   1      41.736  30.121  35.378  1.00  0.00     0.029 A 
ATOM     60  N   UNL A   1      41.593  29.325  33.307  1.00  0.00    -0.354 N 
ATOM     61  N   UNL A   1      42.467  27.714  31.020  1.00  0.00    -0.248 NA
ATOM     62  C   UNL A   1      44.080  26.392  29.964  1.00  0.00     0.031 C 
ATOM     63  C   UNL A   1      42.843  29.301  35.144  1.00  0.00     0.029 A 
ATOM     64  C   UNL A   1      42.753  28.805  33.854  1.00  0.00     0.049 A 
ATOM     65  H   UNL A   1      41.269  29.147  32.394  1.00  0.00     0.167 HD
ATOM     66  C   UNL A   1      43.508  27.471  31.906  1.00  0.00     0.074 A 
ATOM     67  C   UNL A   1      44.460  26.626  31.215  1.00  0.00     0.031 C 
ATOM     68  C   UNL A   1      43.672  27.936  33.167  1.00  0.00     0.034 A 
BRANCH  55  69
ATOM     69  C   UNL A   1      39.158  31.636  35.145  1.00  0.00     0.023 A 
ATOM     70  C   UNL A   1      38.240  31.047  36.034  1.00  0.00     0.012 A 
ATOM     71  C   UNL A   1      39.620  32.945  35.385  1.00  0.00     0.148 A 
ATOM     72  C   UNL A   1      37.780  31.753  37.145  1.00  0.00     0.002 A 
ATOM     73  C   UNL A   1      39.178  33.632  36.509  1.00  0.00     0.091 A 
ATOM     74  F   UNL A   1      40.483  33.487  34.515  1.00  0.00    -0.205 F 
ATOM     75  C   UNL A   1      38.256  33.039  37.388  1.00  0.00     0.022 A 
BRANCH  73  76
ATOM     76  S   UNL A   1      39.765  35.274  36.942  1.00  0.00     0.127 S 
ATOM     77  O   UNL A   1      39.281  36.067  35.810  1.00  0.00    -0.237 OA
ATOM     78  O   UNL A   1      39.069  35.526  38.204  1.00  0.00    -0.237 OA
ATOM     79  O   UNL A   1      41.213  35.170  37.051  1.00  0.00    -0.744 OA
ENDBRANCH  73  76
ENDBRANCH  55  69
BRANCH  56  80
ATOM     80  C   UNL A   1      42.498  26.185  27.487  1.00  0.00     0.023 A 
ATOM     81  C   UNL A   1      43.362  26.726  26.515  1.00  0.00     0.012 A 
ATOM     82  C   UNL A   1      42.165  24.817  27.432  1.00  0.00     0.148 A 
ATOM     83  C   UNL A   1      43.891  25.915  25.509  1.00  0.00     0.002 A 
ATOM     84  C   UNL A   1      42.739  24.006  26.460  1.00  0.00     0.091 A 
ATOM     85  F   UNL A   1      41.326  24.333  28.356  1.00  0.00    -0.205 F 
ATOM     86  C   UNL A   1      43.594  24.555  25.492  1.00  0.00     0.022 A 
BRANCH  84  87
ATOM     87  S   UNL A   1      42.527  22.222  26.459  1.00  0.00     0.127 S 
ATOM     88  O   UNL A   1      41.197  22.083  25.858  1.00  0.00    -0.237 OA
ATOM     89  O   UNL A   1      43.634  21.791  25.598  1.00  0.00    -0.237 OA
ATOM     90  O   UNL A   1      42.644  21.807  27.841  1.00  0.00    -0.744 OA
ENDBRANCH  84  87
ENDBRANCH  56  80
BRANCH  68  91
ATOM     91  C   UNL A   1      44.935  27.563  33.887  1.00  0.00     0.023 A 
ATOM     92  C   UNL A   1      46.038  28.435  33.824  1.00  0.00     0.012 A 
ATOM     93  C   UNL A   1      44.996  26.417  34.702  1.00  0.00     0.148 A 
ATOM     94  C   UNL A   1      47.192  28.168  34.557  1.00  0.00     0.002 A 
ATOM     95  C   UNL A   1      46.140  26.172  35.453  1.00  0.00     0.091 A 
ATOM     96  F   UNL A   1      43.935  25.598  34.731  1.00  0.00    -0.205 F 
ATOM     97  C   UNL A   1      47.239  27.044  35.379  1.00  0.00     0.022 A 
BRANCH  95  98
ATOM     98  S   UNL A   1      46.269  24.788  36.590  1.00  0.00     0.127 S 
ATOM     99  O   UNL A   1      46.468  23.668  35.673  1.00  0.00    -0.237 OA
ATOM    100  O   UNL A   1      47.444  25.147  37.383  1.00  0.00    -0.237 OA
ATOM    101  O   UNL A   1      45.018  24.765  37.339  1.00  0.00    -0.744 OA
ENDBRANCH  95  98
ENDBRANCH  68  91
ENDBRANCH  42  43
ENDBRANCH  34  37
ENDBRANCH  32  33
ENDBRANCH   1  32
TORSDOF 16
ENDMDL
MODEL 2
REMARK VINA RESULT:     -12.4      4.818      9.847
REMARK SMILES COc1cc(/C=C2/CCc3c2nc2ccccc2c3C(=O)NCCCNC(=O)c2ccc(-c3c4nc(c(-c5cccc(S(=O)(=O)[O-])c5F)c5ccc([nH]5)c(-c5cccc(S(=O)(=O)[O-])c5F)c5nc(c(-c6cccc(S(=O)(=O)[O-])c6F)c6ccc3[nH]6)C=C5)C=C4)cc2)cc(Br)c1O
REMARK SMILES IDX 24 1 23 2 22 3 20 4 21 5 19 7 6 8 7 9 8 10 11 11 9 12 10 13
REMARK SMILES IDX 12 14 13 15 18 16 14 17 17 18 15 19 16 20 5 21 3 22 4 23
REMARK SMILES IDX 95 24 93 25 92 26 94 27 2 28 1 29 96 30 25 32 26 33 27 34
REMARK SMILES IDX 28 36 29 37 30 38 91 39 31 40 90 41 32 42 33 43 34 44 84 45
REMARK SMILES IDX 35 46 89 47 83 48 85 49 36 50 88 51 82 52 81 53 37 55 69 56
REMARK SMILES IDX 49 57 68 58 50 59 53 60 67 61 86 62 51 63 52 64 66 66 87 67
REMARK SMILES IDX 54 68 38 69 39 70 47 71 40 72 42 73 48 74 41 75 43 76 44 77
REMARK SMILES IDX 45 78 46 79 70 80 71 81 79 82 72 83 74 84 80 85 73 86 75 87
REMARK SMILES IDX 76 88 77 89 78 90 55 91 56 92 64 93 57 94 59 95 65 96 58 97
REMARK SMILES IDX 60 98 61 99 62 100 63 101
REMARK H PARENT 22 6 96 31 26 35 85 54 53 65
REMARK Flexibility Score: inf
ROOT
ATOM      1  C   UNL A   1      36.530  22.630  23.866  1.00  0.00     0.042 C 
ENDROOT
BRANCH   1   2
ATOM      2  C   UNL A   1      35.171  23.158  23.432  1.00  0.00     0.118 C 
BRANCH   2   3
ATOM      3  N   UNL A   1      34.094  22.213  23.209  1.00  0.00    -0.352 N 
ATOM      4  C   UNL A   1      32.751  22.423  22.939  1.00  0.00     0.252 C 
ATOM      5  O   UNL A   1      32.118  21.466  22.491  1.00  0.00    -0.269 OA
ATOM      6  H   UNL A   1      34.360  21.267  23.258  1.00  0.00     0.163 HD
BRANCH   4   7
ATOM      7  C   UNL A   1      32.027  23.697  23.251  1.00  0.00     0.054 A 
ATOM      8  C   UNL A   1      33.654  27.640  23.378  1.00  0.00     0.014 C 
ATOM      9  C   UNL A   1      32.883  26.873  22.576  1.00  0.00    -0.021 C 
ATOM     10  C   UNL A   1      33.276  26.372  21.200  1.00  0.00     0.042 C 
ATOM     11  C   UNL A   1      31.757  26.008  23.005  1.00  0.00     0.071 A 
ATOM     12  C   UNL A   1      32.437  25.097  21.010  1.00  0.00     0.043 C 
ATOM     13  C   UNL A   1      32.025  24.796  22.408  1.00  0.00    -0.008 A 
ATOM     14  N   UNL A   1      31.035  26.176  24.107  1.00  0.00    -0.248 NA
ATOM     15  C   UNL A   1      30.772  25.081  24.816  1.00  0.00     0.072 A 
ATOM     16  C   UNL A   1      31.355  23.825  24.525  1.00  0.00     0.013 A 
ATOM     17  C   UNL A   1      29.970  25.248  25.936  1.00  0.00     0.029 A 
ATOM     18  C   UNL A   1      31.232  22.833  25.539  1.00  0.00     0.011 A 
ATOM     19  C   UNL A   1      29.815  24.244  26.883  1.00  0.00     0.002 A 
ATOM     20  C   UNL A   1      30.483  23.044  26.703  1.00  0.00     0.001 A 
BRANCH   8  21
ATOM     21  C   UNL A   1      33.092  28.327  24.548  1.00  0.00    -0.020 A 
ATOM     22  C   UNL A   1      31.862  30.180  25.538  1.00  0.00     0.162 A 
ATOM     23  C   UNL A   1      31.977  29.179  24.554  1.00  0.00     0.058 A 
ATOM     24  C   UNL A   1      32.867  30.277  26.510  1.00  0.00     0.172 A 
ATOM     25  C   UNL A   1      33.857  29.292  26.604  1.00  0.00     0.064 A 
ATOM     26  C   UNL A   1      33.952  28.303  25.644  1.00  0.00     0.028 A 
ATOM     27  Br  UNL A   1      35.193  29.354  27.948  1.00  0.00    -0.047 Br
BRANCH  22  28
ATOM     28  O   UNL A   1      30.796  31.027  25.354  1.00  0.00    -0.493 OA
ATOM     29  C   UNL A   1      29.954  30.803  24.229  1.00  0.00     0.278 C 
ENDBRANCH  22  28
BRANCH  24  30
ATOM     30  O   UNL A   1      32.975  31.378  27.319  1.00  0.00    -0.503 OA
ATOM     31  H   UNL A   1      33.554  32.077  27.084  1.00  0.00     0.293 HD
ENDBRANCH  24  30
ENDBRANCH   8  21
ENDBRANCH   4   7
ENDBRANCH   2   3
ENDBRANCH   1   2
BRANCH   1  32
ATOM     32  C   UNL A   1      36.532  21.921  25.212  1.00  0.00     0.118 C 
BRANCH  32  33
ATOM     33  N   UNL A   1      37.635  20.987  25.412  1.00  0.00    -0.352 N 
ATOM     34  C   UNL A   1      38.901  21.090  25.945  1.00  0.00     0.251 C 
ATOM     35  H   UNL A   1      37.429  20.078  25.094  1.00  0.00     0.163 HD
ATOM     36  O   UNL A   1      39.616  20.088  25.908  1.00  0.00    -0.269 OA
BRANCH  34  37
ATOM     37  C   UNL A   1      39.456  22.354  26.495  1.00  0.00     0.039 A 
ATOM     38  C   UNL A   1      38.976  23.606  26.135  1.00  0.00     0.014 A 
ATOM     39  C   UNL A   1      40.484  22.286  27.451  1.00  0.00     0.014 A 
ATOM     40  C   UNL A   1      39.638  24.760  26.543  1.00  0.00     0.010 A 
ATOM     41  C   UNL A   1      41.068  23.455  27.964  1.00  0.00     0.010 A 
ATOM     42  C   UNL A   1      40.688  24.711  27.472  1.00  0.00    -0.014 A 
BRANCH  42  43
ATOM     43  C   UNL A   1      41.334  25.984  27.904  1.00  0.00     0.031 A 
ATOM     44  C   UNL A   1      42.723  26.353  27.444  1.00  0.00     0.074 A 
ATOM     45  C   UNL A   1      40.632  26.861  28.653  1.00  0.00     0.049 A 
ATOM     46  N   UNL A   1      43.408  27.439  27.697  1.00  0.00    -0.248 NA
ATOM     47  C   UNL A   1      43.444  25.383  26.602  1.00  0.00     0.031 C 
ATOM     48  C   UNL A   1      39.289  26.621  29.190  1.00  0.00     0.029 A 
ATOM     49  N   UNL A   1      40.921  28.140  29.058  1.00  0.00    -0.354 N 
ATOM     50  C   UNL A   1      44.651  27.259  27.105  1.00  0.00     0.074 A 
ATOM     51  C   UNL A   1      44.630  25.962  26.467  1.00  0.00     0.031 C 
ATOM     52  C   UNL A   1      38.834  27.743  29.763  1.00  0.00     0.029 A 
ATOM     53  C   UNL A   1      39.880  28.759  29.713  1.00  0.00     0.049 A 
ATOM     54  H   UNL A   1      41.790  28.574  28.896  1.00  0.00     0.167 HD
ATOM     55  C   UNL A   1      45.710  28.102  27.078  1.00  0.00     0.034 A 
ATOM     56  C   UNL A   1      39.771  30.000  30.226  1.00  0.00     0.034 A 
ATOM     57  C   UNL A   1      45.709  29.427  27.638  1.00  0.00     0.049 A 
ATOM     58  C   UNL A   1      40.941  30.933  30.141  1.00  0.00     0.074 A 
ATOM     59  C   UNL A   1      46.726  30.366  27.620  1.00  0.00     0.029 A 
ATOM     60  N   UNL A   1      44.639  30.008  28.296  1.00  0.00    -0.354 N 
ATOM     61  N   UNL A   1      42.091  30.750  29.541  1.00  0.00    -0.248 NA
ATOM     62  C   UNL A   1      40.805  32.235  30.807  1.00  0.00     0.031 C 
ATOM     63  C   UNL A   1      46.268  31.519  28.264  1.00  0.00     0.029 A 
ATOM     64  C   UNL A   1      44.967  31.295  28.685  1.00  0.00     0.049 A 
ATOM     65  H   UNL A   1      43.772  29.571  28.463  1.00  0.00     0.167 HD
ATOM     66  C   UNL A   1      42.824  31.907  29.767  1.00  0.00     0.074 A 
ATOM     67  C   UNL A   1      41.974  32.802  30.526  1.00  0.00     0.031 C 
ATOM     68  C   UNL A   1      44.098  32.186  29.407  1.00  0.00     0.034 A 
BRANCH  55  69
ATOM     69  C   UNL A   1      46.960  27.647  26.376  1.00  0.00     0.023 A 
ATOM     70  C   UNL A   1      47.908  26.883  27.083  1.00  0.00     0.012 A 
ATOM     71  C   UNL A   1      47.145  27.890  25.001  1.00  0.00     0.148 A 
ATOM     72  C   UNL A   1      49.031  26.373  26.432  1.00  0.00     0.002 A 
ATOM     73  C   UNL A   1      48.253  27.355  24.354  1.00  0.00     0.091 A 
ATOM     74  F   UNL A   1      46.235  28.631  24.356  1.00  0.00    -0.205 F 
ATOM     75  C   UNL A   1      49.198  26.600  25.068  1.00  0.00     0.022 A 
BRANCH  73  76
ATOM     76  S   UNL A   1      48.538  27.546  22.590  1.00  0.00     0.127 S 
ATOM     77  O   UNL A   1      49.799  28.287  22.575  1.00  0.00    -0.237 OA
ATOM     78  O   UNL A   1      48.642  26.156  22.145  1.00  0.00    -0.237 OA
ATOM     79  O   UNL A   1      47.386  28.270  22.071  1.00  0.00    -0.744 OA
ENDBRANCH  73  76
ENDBRANCH  55  69
BRANCH  56  80
ATOM     80  C   UNL A   1      38.480  30.426  30.836  1.00  0.00     0.023 A 
ATOM     81  C   UNL A   1      38.196  30.070  32.168  1.00  0.00     0.012 A 
ATOM     82  C   UNL A   1      37.587  31.262  30.138  1.00  0.00     0.148 A 
ATOM     83  C   UNL A   1      37.045  30.546  32.797  1.00  0.00     0.002 A 
ATOM     84  C   UNL A   1      36.472  31.776  30.789  1.00  0.00     0.091 A 
ATOM     85  F   UNL A   1      37.871  31.569  28.865  1.00  0.00    -0.205 F 
ATOM     86  C   UNL A   1      36.193  31.411  32.115  1.00  0.00     0.022 A 
BRANCH  84  87
ATOM     87  S   UNL A   1      35.409  33.011  30.032  1.00  0.00     0.127 S 
ATOM     88  O   UNL A   1      34.355  33.152  31.041  1.00  0.00    -0.237 OA
ATOM     89  O   UNL A   1      36.315  34.161  29.930  1.00  0.00    -0.237 OA
ATOM     90  O   UNL A   1      34.997  32.456  28.760  1.00  0.00    -0.744 OA
ENDBRANCH  84  87
ENDBRANCH  56  80
BRANCH  68  91
ATOM     91  C   UNL A   1      44.671  33.504  29.839  1.00  0.00     0.023 A 
ATOM     92  C   UNL A   1      45.410  33.566  31.036  1.00  0.00     0.012 A 
ATOM     93  C   UNL A   1      44.571  34.645  29.021  1.00  0.00     0.148 A 
ATOM     94  C   UNL A   1      46.036  34.751  31.419  1.00  0.00     0.002 A 
ATOM     95  C   UNL A   1      45.221  35.815  29.394  1.00  0.00     0.091 A 
ATOM     96  F   UNL A   1      43.849  34.560  27.894  1.00  0.00    -0.205 F 
ATOM     97  C   UNL A   1      45.950  35.870  30.594  1.00  0.00     0.022 A 
BRANCH  95  98
ATOM     98  S   UNL A   1      45.225  37.287  28.366  1.00  0.00     0.127 S 
ATOM     99  O   UNL A   1      43.820  37.686  28.414  1.00  0.00    -0.237 OA
ATOM    100  O   UNL A   1      46.137  38.170  29.092  1.00  0.00    -0.237 OA
ATOM    101  O   UNL A   1      45.708  36.862  27.058  1.00  0.00    -0.744 OA
ENDBRANCH  95  98
ENDBRANCH  68  91
ENDBRANCH  42  43
ENDBRANCH  34  37
ENDBRANCH  32  33
ENDBRANCH   1  32
TORSDOF 16
ENDMDL
MODEL 3
REMARK VINA RESULT:     -12.2      1.125      7.374
REMARK SMILES COc1cc(/C=C2/CCc3c2nc2ccccc2c3C(=O)NCCCNC(=O)c2ccc(-c3c4nc(c(-c5cccc(S(=O)(=O)[O-])c5F)c5ccc([nH]5)c(-c5cccc(S(=O)(=O)[O-])c5F)c5nc(c(-c6cccc(S(=O)(=O)[O-])c6F)c6ccc3[nH]6)C=C5)C=C4)cc2)cc(Br)c1O
REMARK SMILES IDX 24 1 23 2 22 3 20 4 21 5 19 7 6 8 7 9 8 10 11 11 9 12 10 13
REMARK SMILES IDX 12 14 13 15 18 16 14 17 17 18 15 19 16 20 5 21 3 22 4 23
REMARK SMILES IDX 95 24 93 25 92 26 94 27 2 28 1 29 96 30 25 32 26 33 27 34
REMARK SMILES IDX 28 36 29 37 30 38 91 39 31 40 90 41 32 42 33 43 34 44 84 45
REMARK SMILES IDX 35 46 89 47 83 48 85 49 36 50 88 51 82 52 81 53 37 55 69 56
REMARK SMILES IDX 49 57 68 58 50 59 53 60 67 61 86 62 51 63 52 64 66 66 87 67
REMARK SMILES IDX 54 68 38 69 39 70 47 71 40 72 42 73 48 74 41 75 43 76 44 77
REMARK SMILES IDX 45 78 46 79 70 80 71 81 79 82 72 83 74 84 80 85 73 86 75 87
REMARK SMILES IDX 76 88 77 89 78 90 55 91 56 92 64 93 57 94 59 95 65 96 58 97
REMARK SMILES IDX 60 98 61 99 62 100 63 101
REMARK H PARENT 22 6 96 31 26 35 85 54 53 65
REMARK Flexibility Score: inf
ROOT
ATOM      1  C   UNL A   1      31.820  28.591  26.867  1.00  0.00     0.042 C 
ENDROOT
BRANCH   1   2
ATOM      2  C   UNL A   1      31.548  27.259  26.186  1.00  0.00     0.118 C 
BRANCH   2   3
ATOM      3  N   UNL A   1      30.473  27.177  25.217  1.00  0.00    -0.352 N 
ATOM      4  C   UNL A   1      29.987  26.097  24.498  1.00  0.00     0.252 C 
ATOM      5  O   UNL A   1      28.879  26.229  23.978  1.00  0.00    -0.269 OA
ATOM      6  H   UNL A   1      30.012  28.029  25.041  1.00  0.00     0.163 HD
BRANCH   4   7
ATOM      7  C   UNL A   1      30.768  24.844  24.246  1.00  0.00     0.054 A 
ATOM      8  C   UNL A   1      33.605  22.991  26.839  1.00  0.00     0.014 C 
ATOM      9  C   UNL A   1      32.333  22.817  26.417  1.00  0.00    -0.021 C 
ATOM     10  C   UNL A   1      31.097  22.950  27.284  1.00  0.00     0.042 C 
ATOM     11  C   UNL A   1      31.850  22.919  25.019  1.00  0.00     0.071 A 
ATOM     12  C   UNL A   1      29.979  23.312  26.291  1.00  0.00     0.043 C 
ATOM     13  C   UNL A   1      30.761  23.758  25.106  1.00  0.00    -0.008 A 
ATOM     14  N   UNL A   1      32.593  22.738  23.934  1.00  0.00    -0.248 NA
ATOM     15  C   UNL A   1      32.427  23.617  22.948  1.00  0.00     0.072 A 
ATOM     16  C   UNL A   1      31.634  24.780  23.089  1.00  0.00     0.013 A 
ATOM     17  C   UNL A   1      33.162  23.396  21.792  1.00  0.00     0.029 A 
ATOM     18  C   UNL A   1      31.799  25.772  22.081  1.00  0.00     0.011 A 
ATOM     19  C   UNL A   1      33.260  24.354  20.791  1.00  0.00     0.002 A 
ATOM     20  C   UNL A   1      32.608  25.564  20.956  1.00  0.00     0.001 A 
BRANCH   8  21
ATOM     21  C   UNL A   1      34.746  22.550  26.026  1.00  0.00    -0.020 A 
ATOM     22  C   UNL A   1      36.228  20.799  25.211  1.00  0.00     0.162 A 
ATOM     23  C   UNL A   1      34.928  21.275  25.471  1.00  0.00     0.058 A 
ATOM     24  C   UNL A   1      37.313  21.639  25.495  1.00  0.00     0.172 A 
ATOM     25  C   UNL A   1      37.099  22.974  25.855  1.00  0.00     0.064 A 
ATOM     26  C   UNL A   1      35.819  23.438  26.090  1.00  0.00     0.028 A 
ATOM     27  Br  UNL A   1      38.544  24.158  26.180  1.00  0.00    -0.047 Br
BRANCH  22  28
ATOM     28  O   UNL A   1      36.273  19.491  24.794  1.00  0.00    -0.493 OA
ATOM     29  C   UNL A   1      35.045  18.779  24.702  1.00  0.00     0.278 C 
ENDBRANCH  22  28
BRANCH  24  30
ATOM     30  O   UNL A   1      38.596  21.158  25.537  1.00  0.00    -0.503 OA
ATOM     31  H   UNL A   1      38.930  20.781  26.327  1.00  0.00     0.293 HD
ENDBRANCH  24  30
ENDBRANCH   8  21
ENDBRANCH   4   7
ENDBRANCH   2   3
ENDBRANCH   1   2
BRANCH   1  32
ATOM     32  C   UNL A   1      32.626  29.575  26.031  1.00  0.00     0.118 C 
BRANCH  32  33
ATOM     33  N   UNL A   1      32.605  30.952  26.515  1.00  0.00    -0.352 N 
ATOM     34  C   UNL A   1      33.450  31.713  27.292  1.00  0.00     0.251 C 
ATOM     35  H   UNL A   1      31.808  31.449  26.220  1.00  0.00     0.163 HD
ATOM     36  O   UNL A   1      33.093  32.860  27.563  1.00  0.00    -0.269 OA
BRANCH  34  37
ATOM     37  C   UNL A   1      34.723  31.199  27.863  1.00  0.00     0.039 A 
ATOM     38  C   UNL A   1      34.880  29.886  28.286  1.00  0.00     0.014 A 
ATOM     39  C   UNL A   1      35.829  32.061  27.944  1.00  0.00     0.014 A 
ATOM     40  C   UNL A   1      36.029  29.497  28.969  1.00  0.00     0.010 A 
ATOM     41  C   UNL A   1      37.036  31.631  28.518  1.00  0.00     0.010 A 
ATOM     42  C   UNL A   1      37.133  30.355  29.089  1.00  0.00    -0.014 A 
BRANCH  42  43
ATOM     43  C   UNL A   1      38.353  29.871  29.797  1.00  0.00     0.031 A 
ATOM     44  C   UNL A   1      39.350  28.967  29.114  1.00  0.00     0.074 A 
ATOM     45  C   UNL A   1      38.613  30.317  31.046  1.00  0.00     0.049 A 
ATOM     46  N   UNL A   1      40.478  28.493  29.579  1.00  0.00    -0.248 NA
ATOM     47  C   UNL A   1      39.045  28.529  27.742  1.00  0.00     0.031 C 
ATOM     48  C   UNL A   1      37.722  31.173  31.835  1.00  0.00     0.029 A 
ATOM     49  N   UNL A   1      39.710  30.154  31.855  1.00  0.00    -0.354 N 
ATOM     50  C   UNL A   1      40.982  27.659  28.590  1.00  0.00     0.074 A 
ATOM     51  C   UNL A   1      40.045  27.694  27.490  1.00  0.00     0.031 C 
ATOM     52  C   UNL A   1      38.345  31.539  32.963  1.00  0.00     0.029 A 
ATOM     53  C   UNL A   1      39.645  30.880  33.023  1.00  0.00     0.049 A 
ATOM     54  H   UNL A   1      40.471  29.575  31.621  1.00  0.00     0.167 HD
ATOM     55  C   UNL A   1      42.129  26.940  28.588  1.00  0.00     0.034 A 
ATOM     56  C   UNL A   1      40.522  31.002  34.038  1.00  0.00     0.034 A 
ATOM     57  C   UNL A   1      43.107  26.965  29.643  1.00  0.00     0.049 A 
ATOM     58  C   UNL A   1      41.809  30.234  33.990  1.00  0.00     0.074 A 
ATOM     59  C   UNL A   1      44.319  26.299  29.705  1.00  0.00     0.029 A 
ATOM     60  N   UNL A   1      42.996  27.707  30.807  1.00  0.00    -0.354 N 
ATOM     61  N   UNL A   1      42.277  29.482  33.025  1.00  0.00    -0.248 NA
ATOM     62  C   UNL A   1      42.681  30.321  35.169  1.00  0.00     0.031 C 
ATOM     63  C   UNL A   1      44.945  26.642  30.907  1.00  0.00     0.029 A 
ATOM     64  C   UNL A   1      44.121  27.519  31.593  1.00  0.00     0.049 A 
ATOM     65  H   UNL A   1      42.232  28.282  31.042  1.00  0.00     0.167 HD
ATOM     66  C   UNL A   1      43.493  28.995  33.483  1.00  0.00     0.074 A 
ATOM     67  C   UNL A   1      43.709  29.567  34.796  1.00  0.00     0.031 C 
ATOM     68  C   UNL A   1      44.337  28.124  32.881  1.00  0.00     0.034 A 
BRANCH  55  69
ATOM     69  C   UNL A   1      42.432  26.092  27.384  1.00  0.00     0.023 A 
ATOM     70  C   UNL A   1      43.006  26.689  26.246  1.00  0.00     0.012 A 
ATOM     71  C   UNL A   1      42.240  24.696  27.417  1.00  0.00     0.148 A 
ATOM     72  C   UNL A   1      43.378  25.911  25.151  1.00  0.00     0.002 A 
ATOM     73  C   UNL A   1      42.640  23.924  26.332  1.00  0.00     0.091 A 
ATOM     74  F   UNL A   1      41.679  24.155  28.506  1.00  0.00    -0.205 F 
ATOM     75  C   UNL A   1      43.205  24.530  25.198  1.00  0.00     0.022 A 
BRANCH  73  76
ATOM     76  S   UNL A   1      42.506  22.132  26.310  1.00  0.00     0.127 S 
ATOM     77  O   UNL A   1      43.216  21.770  27.538  1.00  0.00    -0.237 OA
ATOM     78  O   UNL A   1      41.058  21.932  26.361  1.00  0.00    -0.237 OA
ATOM     79  O   UNL A   1      43.141  21.695  25.075  1.00  0.00    -0.744 OA
ENDBRANCH  73  76
ENDBRANCH  55  69
BRANCH  56  80
ATOM     80  C   UNL A   1      40.208  31.922  35.167  1.00  0.00     0.023 A 
ATOM     81  C   UNL A   1      40.777  33.209  35.187  1.00  0.00     0.012 A 
ATOM     82  C   UNL A   1      39.273  31.564  36.158  1.00  0.00     0.148 A 
ATOM     83  C   UNL A   1      40.416  34.127  36.174  1.00  0.00     0.002 A 
ATOM     84  C   UNL A   1      38.878  32.502  37.105  1.00  0.00     0.091 A 
ATOM     85  F   UNL A   1      38.761  30.326  36.128  1.00  0.00    -0.205 F 
ATOM     86  C   UNL A   1      39.456  33.780  37.121  1.00  0.00     0.022 A 
BRANCH  84  87
ATOM     87  S   UNL A   1      37.541  32.185  38.263  1.00  0.00     0.127 S 
ATOM     88  O   UNL A   1      38.138  32.621  39.529  1.00  0.00    -0.237 OA
ATOM     89  O   UNL A   1      36.487  33.066  37.748  1.00  0.00    -0.237 OA
ATOM     90  O   UNL A   1      37.249  30.771  38.155  1.00  0.00    -0.744 OA
ENDBRANCH  84  87
ENDBRANCH  56  80
BRANCH  68  91
ATOM     91  C   UNL A   1      45.569  27.713  33.634  1.00  0.00     0.023 A 
ATOM     92  C   UNL A   1      46.725  28.512  33.537  1.00  0.00     0.012 A 
ATOM     93  C   UNL A   1      45.553  26.611  34.510  1.00  0.00     0.148 A 
ATOM     94  C   UNL A   1      47.854  28.214  34.296  1.00  0.00     0.002 A 
ATOM     95  C   UNL A   1      46.673  26.337  35.285  1.00  0.00     0.091 A 
ATOM     96  F   UNL A   1      44.443  25.862  34.571  1.00  0.00    -0.205 F 
ATOM     97  C   UNL A   1      47.825  27.135  35.176  1.00  0.00     0.022 A 
BRANCH  95  98
ATOM     98  S   UNL A   1      46.707  25.011  36.496  1.00  0.00     0.127 S 
ATOM     99  O   UNL A   1      48.046  25.163  37.062  1.00  0.00    -0.237 OA
ATOM    100  O   UNL A   1      45.616  25.384  37.395  1.00  0.00    -0.237 OA
ATOM    101  O   UNL A   1      46.483  23.780  35.750  1.00  0.00    -0.744 OA
ENDBRANCH  95  98
ENDBRANCH  68  91
ENDBRANCH  42  43
ENDBRANCH  34  37
ENDBRANCH  32  33
ENDBRANCH   1  32
TORSDOF 16
ENDMDL
