MODEL 1
REMARK VINA RESULT:     -11.3      0.000      0.000
REMARK SMILES O=C(NCCCNC(=O)C1([NH+]2CCOCC2)CCC1)c1ccc(-c2c3nc(c(-c4cccc(S(=O)(=O)[O-])c4F)c4ccc([nH]4)c(-c4cccc(S(=O)(=O)[O-])c4F)c4nc(c(-c5cccc(S(=O)(=O)[O-])c5F)c5ccc2[nH]5)C=C4)C=C3)cc1
REMARK SMILES IDX 4 1 3 2 1 3 2 4 20 6 21 7 82 8 22 9 81 10 23 11 24 12 25 13
REMARK SMILES IDX 75 14 26 15 80 16 74 17 76 18 27 19 79 20 73 21 72 22 28 24
REMARK SMILES IDX 60 25 40 26 59 27 41 28 44 29 58 30 77 31 42 32 43 33 57 35
REMARK SMILES IDX 78 36 45 37 29 38 30 39 38 40 31 41 33 42 39 43 32 44 34 45
REMARK SMILES IDX 35 46 36 47 37 48 61 49 62 50 70 51 63 52 65 53 71 54 64 55
REMARK SMILES IDX 66 56 67 57 68 58 69 59 46 60 47 61 55 62 48 63 50 64 56 65
REMARK SMILES IDX 49 66 51 67 52 68 53 69 54 70 5 71 6 72 7 73 8 74 9 76 10 77
REMARK SMILES IDX 17 78 19 79 18 80 11 81 12 82 16 83 13 85 15 86 14 87
REMARK H PARENT 3 5 76 23 44 34 7 75 11 84
REMARK Flexibility Score: inf
ROOT
ATOM      1  C   UNL A   1      33.283  29.265  25.152  1.00  0.00     0.118 C 
ENDROOT
BRANCH   1   2
ATOM      2  N   UNL A   1      32.641  30.450  25.712  1.00  0.00    -0.352 N 
ATOM      3  O   UNL A   1      32.213  32.041  27.249  1.00  0.00    -0.269 OA
ATOM      4  C   UNL A   1      32.989  31.192  26.817  1.00  0.00     0.251 C 
ATOM      5  H   UNL A   1      31.842  30.762  25.230  1.00  0.00     0.163 HD
BRANCH   4   6
ATOM      6  C   UNL A   1      34.283  30.940  27.487  1.00  0.00     0.039 A 
ATOM      7  C   UNL A   1      34.576  29.668  27.978  1.00  0.00     0.014 A 
ATOM      8  C   UNL A   1      35.203  31.981  27.644  1.00  0.00     0.014 A 
ATOM      9  C   UNL A   1      35.683  29.484  28.789  1.00  0.00     0.010 A 
ATOM     10  C   UNL A   1      36.389  31.756  28.354  1.00  0.00     0.010 A 
ATOM     11  C   UNL A   1      36.622  30.515  28.962  1.00  0.00    -0.014 A 
BRANCH  11  12
ATOM     12  C   UNL A   1      37.873  30.204  29.701  1.00  0.00     0.031 A 
ATOM     13  C   UNL A   1      38.113  30.688  31.103  1.00  0.00     0.074 A 
ATOM     14  C   UNL A   1      38.777  29.411  29.090  1.00  0.00     0.049 A 
ATOM     15  N   UNL A   1      39.114  30.414  31.899  1.00  0.00    -0.248 NA
ATOM     16  C   UNL A   1      37.117  31.600  31.688  1.00  0.00     0.031 C 
ATOM     17  C   UNL A   1      38.672  28.932  27.707  1.00  0.00     0.029 A 
ATOM     18  N   UNL A   1      39.937  28.843  29.547  1.00  0.00    -0.354 N 
ATOM     19  C   UNL A   1      38.894  31.145  33.060  1.00  0.00     0.074 A 
ATOM     20  C   UNL A   1      37.663  31.881  32.865  1.00  0.00     0.031 C 
ATOM     21  C   UNL A   1      39.683  28.094  27.451  1.00  0.00     0.029 A 
ATOM     22  C   UNL A   1      40.546  28.024  28.623  1.00  0.00     0.049 A 
ATOM     23  H   UNL A   1      40.300  29.005  30.447  1.00  0.00     0.167 HD
ATOM     24  C   UNL A   1      39.642  31.183  34.189  1.00  0.00     0.034 A 
ATOM     25  C   UNL A   1      41.677  27.299  28.704  1.00  0.00     0.034 A 
ATOM     26  C   UNL A   1      40.844  30.414  34.387  1.00  0.00     0.049 A 
ATOM     27  C   UNL A   1      42.445  27.312  29.991  1.00  0.00     0.074 A 
ATOM     28  C   UNL A   1      41.657  30.361  35.507  1.00  0.00     0.029 A 
ATOM     29  N   UNL A   1      41.405  29.562  33.448  1.00  0.00    -0.354 N 
ATOM     30  N   UNL A   1      42.159  27.930  31.112  1.00  0.00    -0.248 NA
ATOM     31  C   UNL A   1      43.675  26.514  30.035  1.00  0.00     0.031 C 
ATOM     32  C   UNL A   1      42.709  29.477  35.244  1.00  0.00     0.029 A 
ATOM     33  C   UNL A   1      42.549  28.974  33.963  1.00  0.00     0.049 A 
ATOM     34  H   UNL A   1      41.043  29.399  32.547  1.00  0.00     0.167 HD
ATOM     35  C   UNL A   1      43.176  27.597  31.996  1.00  0.00     0.074 A 
ATOM     36  C   UNL A   1      44.054  26.681  31.295  1.00  0.00     0.031 C 
ATOM     37  C   UNL A   1      43.386  28.037  33.261  1.00  0.00     0.034 A 
BRANCH  24  38
ATOM     38  C   UNL A   1      39.160  32.044  35.328  1.00  0.00     0.023 A 
ATOM     39  C   UNL A   1      38.239  31.512  36.252  1.00  0.00     0.012 A 
ATOM     40  C   UNL A   1      39.682  33.336  35.538  1.00  0.00     0.148 A 
ATOM     41  C   UNL A   1      37.830  32.257  37.358  1.00  0.00     0.002 A 
ATOM     42  C   UNL A   1      39.295  34.061  36.661  1.00  0.00     0.091 A 
ATOM     43  F   UNL A   1      40.543  33.832  34.638  1.00  0.00    -0.205 F 
ATOM     44  C   UNL A   1      38.365  33.525  37.568  1.00  0.00     0.022 A 
BRANCH  42  45
ATOM     45  S   UNL A   1      39.977  35.675  37.061  1.00  0.00     0.127 S 
ATOM     46  O   UNL A   1      41.397  35.363  37.220  1.00  0.00    -0.237 OA
ATOM     47  O   UNL A   1      39.654  36.452  35.864  1.00  0.00    -0.237 OA
ATOM     48  O   UNL A   1      39.294  36.110  38.271  1.00  0.00    -0.744 OA
ENDBRANCH  42  45
ENDBRANCH  24  38
BRANCH  25  49
ATOM     49  C   UNL A   1      42.109  26.476  27.541  1.00  0.00     0.023 A 
ATOM     50  C   UNL A   1      42.958  27.034  26.566  1.00  0.00     0.012 A 
ATOM     51  C   UNL A   1      41.739  25.122  27.432  1.00  0.00     0.148 A 
ATOM     52  C   UNL A   1      43.412  26.263  25.495  1.00  0.00     0.002 A 
ATOM     53  C   UNL A   1      42.250  24.343  26.401  1.00  0.00     0.091 A 
ATOM     54  F   UNL A   1      40.911  24.607  28.353  1.00  0.00    -0.205 F 
ATOM     55  C   UNL A   1      43.073  24.915  25.420  1.00  0.00     0.022 A 
BRANCH  53  56
ATOM     56  S   UNL A   1      41.986  22.566  26.363  1.00  0.00     0.127 S 
ATOM     57  O   UNL A   1      42.659  22.186  25.124  1.00  0.00    -0.237 OA
ATOM     58  O   UNL A   1      42.652  22.121  27.588  1.00  0.00    -0.237 OA
ATOM     59  O   UNL A   1      40.537  22.407  26.389  1.00  0.00    -0.744 OA
ENDBRANCH  53  56
ENDBRANCH  25  49
BRANCH  37  60
ATOM     60  C   UNL A   1      44.622  27.537  33.954  1.00  0.00     0.023 A 
ATOM     61  C   UNL A   1      45.816  28.280  33.854  1.00  0.00     0.012 A 
ATOM     62  C   UNL A   1      44.600  26.362  34.727  1.00  0.00     0.148 A 
ATOM     63  C   UNL A   1      46.979  27.841  34.483  1.00  0.00     0.002 A 
ATOM     64  C   UNL A   1      45.754  25.951  35.385  1.00  0.00     0.091 A 
ATOM     65  F   UNL A   1      43.463  25.654  34.789  1.00  0.00    -0.205 F 
ATOM     66  C   UNL A   1      46.946  26.683  35.256  1.00  0.00     0.022 A 
BRANCH  64  67
ATOM     67  S   UNL A   1      45.771  24.515  36.462  1.00  0.00     0.127 S 
ATOM     68  O   UNL A   1      44.735  24.856  37.435  1.00  0.00    -0.237 OA
ATOM     69  O   UNL A   1      45.414  23.429  35.548  1.00  0.00    -0.237 OA
ATOM     70  O   UNL A   1      47.129  24.433  36.984  1.00  0.00    -0.744 OA
ENDBRANCH  64  67
ENDBRANCH  37  60
ENDBRANCH  11  12
ENDBRANCH   4   6
ENDBRANCH   1   2
BRANCH   1  71
ATOM     71  C   UNL A   1      32.630  28.801  23.864  1.00  0.00     0.042 C 
BRANCH  71  72
ATOM     72  C   UNL A   1      32.119  27.377  23.943  1.00  0.00     0.118 C 
BRANCH  72  73
ATOM     73  N   UNL A   1      32.549  26.565  22.824  1.00  0.00    -0.351 N 
ATOM     74  C   UNL A   1      33.113  25.307  22.811  1.00  0.00     0.281 C 
ATOM     75  H   UNL A   1      32.418  26.974  21.938  1.00  0.00     0.163 HD
ATOM     76  O   UNL A   1      33.281  24.814  21.688  1.00  0.00    -0.268 OA
BRANCH  74  77
ATOM     77  C   UNL A   1      33.506  24.580  24.194  1.00  0.00     0.177 C 
ATOM     78  C   UNL A   1      34.871  23.803  24.045  1.00  0.00     0.079 C 
ATOM     79  C   UNL A   1      34.204  25.412  25.302  1.00  0.00     0.079 C 
ATOM     80  C   UNL A   1      35.357  24.403  25.372  1.00  0.00     0.014 C 
BRANCH  77  81
ATOM     81  N   UNL A   1      32.455  23.626  24.676  1.00  0.00    -0.318 N 
ATOM     82  C   UNL A   1      31.111  24.197  24.874  1.00  0.00     0.291 C 
ATOM     83  C   UNL A   1      32.735  22.664  25.750  1.00  0.00     0.291 C 
ATOM     84  H   UNL A   1      32.485  23.054  23.832  1.00  0.00     0.349 HD
ATOM     85  C   UNL A   1      30.839  24.683  26.309  1.00  0.00     0.221 C 
ATOM     86  C   UNL A   1      32.397  23.147  27.171  1.00  0.00     0.221 C 
ATOM     87  O   UNL A   1      31.052  23.632  27.256  1.00  0.00    -0.370 OA
ENDBRANCH  77  81
ENDBRANCH  74  77
ENDBRANCH  72  73
ENDBRANCH  71  72
ENDBRANCH   1  71
TORSDOF 14
ENDMDL
MODEL 2
REMARK VINA RESULT:     -11.2      1.609      2.318
REMARK SMILES O=C(NCCCNC(=O)C1([NH+]2CCOCC2)CCC1)c1ccc(-c2c3nc(c(-c4cccc(S(=O)(=O)[O-])c4F)c4ccc([nH]4)c(-c4cccc(S(=O)(=O)[O-])c4F)c4nc(c(-c5cccc(S(=O)(=O)[O-])c5F)c5ccc2[nH]5)C=C4)C=C3)cc1
REMARK SMILES IDX 4 1 3 2 1 3 2 4 20 6 21 7 82 8 22 9 81 10 23 11 24 12 25 13
REMARK SMILES IDX 75 14 26 15 80 16 74 17 76 18 27 19 79 20 73 21 72 22 28 24
REMARK SMILES IDX 60 25 40 26 59 27 41 28 44 29 58 30 77 31 42 32 43 33 57 35
REMARK SMILES IDX 78 36 45 37 29 38 30 39 38 40 31 41 33 42 39 43 32 44 34 45
REMARK SMILES IDX 35 46 36 47 37 48 61 49 62 50 70 51 63 52 65 53 71 54 64 55
REMARK SMILES IDX 66 56 67 57 68 58 69 59 46 60 47 61 55 62 48 63 50 64 56 65
REMARK SMILES IDX 49 66 51 67 52 68 53 69 54 70 5 71 6 72 7 73 8 74 9 76 10 77
REMARK SMILES IDX 17 78 19 79 18 80 11 81 12 82 16 83 13 85 15 86 14 87
REMARK H PARENT 3 5 76 23 44 34 7 75 11 84
REMARK Flexibility Score: inf
ROOT
ATOM      1  C   UNL A   1      32.921  29.350  25.513  1.00  0.00     0.118 C 
ENDROOT
BRANCH   1   2
ATOM      2  N   UNL A   1      32.406  30.651  25.924  1.00  0.00    -0.352 N 
ATOM      3  O   UNL A   1      32.173  32.463  27.243  1.00  0.00    -0.269 OA
ATOM      4  C   UNL A   1      32.856  31.497  26.911  1.00  0.00     0.251 C 
ATOM      5  H   UNL A   1      31.621  30.970  25.422  1.00  0.00     0.163 HD
BRANCH   4   6
ATOM      6  C   UNL A   1      34.144  31.218  27.580  1.00  0.00     0.039 A 
ATOM      7  C   UNL A   1      34.443  29.922  28.000  1.00  0.00     0.014 A 
ATOM      8  C   UNL A   1      35.054  32.254  27.807  1.00  0.00     0.014 A 
ATOM      9  C   UNL A   1      35.544  29.700  28.812  1.00  0.00     0.010 A 
ATOM     10  C   UNL A   1      36.234  31.999  28.515  1.00  0.00     0.010 A 
ATOM     11  C   UNL A   1      36.472  30.727  29.054  1.00  0.00    -0.014 A 
BRANCH  11  12
ATOM     12  C   UNL A   1      37.717  30.383  29.787  1.00  0.00     0.031 A 
ATOM     13  C   UNL A   1      37.951  30.813  31.207  1.00  0.00     0.074 A 
ATOM     14  C   UNL A   1      38.622  29.610  29.152  1.00  0.00     0.049 A 
ATOM     15  N   UNL A   1      38.947  30.506  31.998  1.00  0.00    -0.248 NA
ATOM     16  C   UNL A   1      36.956  31.706  31.821  1.00  0.00     0.031 C 
ATOM     17  C   UNL A   1      38.523  29.184  27.751  1.00  0.00     0.029 A 
ATOM     18  N   UNL A   1      39.778  29.021  29.593  1.00  0.00    -0.354 N 
ATOM     19  C   UNL A   1      38.723  31.194  33.184  1.00  0.00     0.074 A 
ATOM     20  C   UNL A   1      37.496  31.942  33.011  1.00  0.00     0.031 C 
ATOM     21  C   UNL A   1      39.533  28.352  27.469  1.00  0.00     0.029 A 
ATOM     22  C   UNL A   1      40.388  28.235  28.643  1.00  0.00     0.049 A 
ATOM     23  H   UNL A   1      40.136  29.148  30.501  1.00  0.00     0.167 HD
ATOM     24  C   UNL A   1      39.465  31.187  34.318  1.00  0.00     0.034 A 
ATOM     25  C   UNL A   1      41.516  27.504  28.702  1.00  0.00     0.034 A 
ATOM     26  C   UNL A   1      40.663  30.407  34.494  1.00  0.00     0.049 A 
ATOM     27  C   UNL A   1      42.277  27.465  29.993  1.00  0.00     0.074 A 
ATOM     28  C   UNL A   1      41.469  30.308  35.615  1.00  0.00     0.029 A 
ATOM     29  N   UNL A   1      41.227  29.588  33.526  1.00  0.00    -0.354 N 
ATOM     30  N   UNL A   1      41.987  28.042  31.135  1.00  0.00    -0.248 NA
ATOM     31  C   UNL A   1      43.505  26.662  30.014  1.00  0.00     0.031 C 
ATOM     32  C   UNL A   1      42.520  29.431  35.325  1.00  0.00     0.029 A 
ATOM     33  C   UNL A   1      42.366  28.977  34.025  1.00  0.00     0.049 A 
ATOM     34  H   UNL A   1      40.869  29.460  32.618  1.00  0.00     0.167 HD
ATOM     35  C   UNL A   1      42.998  27.672  32.011  1.00  0.00     0.074 A 
ATOM     36  C   UNL A   1      43.878  26.780  31.281  1.00  0.00     0.031 C 
ATOM     37  C   UNL A   1      43.203  28.064  33.292  1.00  0.00     0.034 A 
BRANCH  24  38
ATOM     38  C   UNL A   1      38.980  32.006  35.486  1.00  0.00     0.023 A 
ATOM     39  C   UNL A   1      39.125  33.407  35.453  1.00  0.00     0.012 A 
ATOM     40  C   UNL A   1      38.305  31.406  36.568  1.00  0.00     0.148 A 
ATOM     41  C   UNL A   1      38.621  34.200  36.484  1.00  0.00     0.002 A 
ATOM     42  C   UNL A   1      37.775  32.205  37.576  1.00  0.00     0.091 A 
ATOM     43  F   UNL A   1      38.194  30.071  36.591  1.00  0.00    -0.205 F 
ATOM     44  C   UNL A   1      37.937  33.600  37.539  1.00  0.00     0.022 A 
BRANCH  42  45
ATOM     45  S   UNL A   1      36.818  31.539  38.945  1.00  0.00     0.127 S 
ATOM     46  O   UNL A   1      36.593  30.163  38.504  1.00  0.00    -0.237 OA
ATOM     47  O   UNL A   1      37.746  31.676  40.067  1.00  0.00    -0.237 OA
ATOM     48  O   UNL A   1      35.624  32.367  39.039  1.00  0.00    -0.744 OA
ENDBRANCH  42  45
ENDBRANCH  24  38
BRANCH  25  49
ATOM     49  C   UNL A   1      41.952  26.724  27.511  1.00  0.00     0.023 A 
ATOM     50  C   UNL A   1      42.711  27.350  26.505  1.00  0.00     0.012 A 
ATOM     51  C   UNL A   1      41.677  25.346  27.405  1.00  0.00     0.148 A 
ATOM     52  C   UNL A   1      43.170  26.622  25.405  1.00  0.00     0.002 A 
ATOM     53  C   UNL A   1      42.195  24.614  26.343  1.00  0.00     0.091 A 
ATOM     54  F   UNL A   1      40.933  24.766  28.358  1.00  0.00    -0.205 F 
ATOM     55  C   UNL A   1      42.926  25.253  25.332  1.00  0.00     0.022 A 
BRANCH  53  56
ATOM     56  S   UNL A   1      42.059  22.824  26.298  1.00  0.00     0.127 S 
ATOM     57  O   UNL A   1      40.614  22.628  26.369  1.00  0.00    -0.237 OA
ATOM     58  O   UNL A   1      42.663  22.493  25.006  1.00  0.00    -0.237 OA
ATOM     59  O   UNL A   1      42.833  22.365  27.445  1.00  0.00    -0.744 OA
ENDBRANCH  53  56
ENDBRANCH  25  49
BRANCH  37  60
ATOM     60  C   UNL A   1      44.434  27.534  33.974  1.00  0.00     0.023 A 
ATOM     61  C   UNL A   1      45.633  28.271  33.900  1.00  0.00     0.012 A 
ATOM     62  C   UNL A   1      44.401  26.335  34.709  1.00  0.00     0.148 A 
ATOM     63  C   UNL A   1      46.791  27.804  34.518  1.00  0.00     0.002 A 
ATOM     64  C   UNL A   1      45.550  25.896  35.357  1.00  0.00     0.091 A 
ATOM     65  F   UNL A   1      43.258  25.634  34.746  1.00  0.00    -0.205 F 
ATOM     66  C   UNL A   1      46.747  26.623  35.254  1.00  0.00     0.022 A 
BRANCH  64  67
ATOM     67  S   UNL A   1      45.553  24.426  36.389  1.00  0.00     0.127 S 
ATOM     68  O   UNL A   1      44.519  24.746  37.370  1.00  0.00    -0.237 OA
ATOM     69  O   UNL A   1      45.189  23.373  35.440  1.00  0.00    -0.237 OA
ATOM     70  O   UNL A   1      46.911  24.317  36.909  1.00  0.00    -0.744 OA
ENDBRANCH  64  67
ENDBRANCH  37  60
ENDBRANCH  11  12
ENDBRANCH   4   6
ENDBRANCH   1   2
BRANCH   1  71
ATOM     71  C   UNL A   1      31.826  28.312  25.355  1.00  0.00     0.042 C 
BRANCH  71  72
ATOM     72  C   UNL A   1      31.945  27.175  26.349  1.00  0.00     0.118 C 
BRANCH  72  73
ATOM     73  N   UNL A   1      33.104  26.341  26.111  1.00  0.00    -0.351 N 
ATOM     74  C   UNL A   1      33.181  25.059  25.611  1.00  0.00     0.281 C 
ATOM     75  H   UNL A   1      33.969  26.753  26.340  1.00  0.00     0.163 HD
ATOM     76  O   UNL A   1      34.328  24.635  25.415  1.00  0.00    -0.268 OA
BRANCH  74  77
ATOM     77  C   UNL A   1      31.837  24.220  25.321  1.00  0.00     0.177 C 
ATOM     78  C   UNL A   1      31.972  22.746  25.867  1.00  0.00     0.079 C 
ATOM     79  C   UNL A   1      30.637  24.373  26.293  1.00  0.00     0.079 C 
ATOM     80  C   UNL A   1      30.582  22.856  26.510  1.00  0.00     0.014 C 
BRANCH  77  81
ATOM     81  N   UNL A   1      31.479  24.166  23.866  1.00  0.00    -0.318 N 
ATOM     82  C   UNL A   1      31.979  22.994  23.124  1.00  0.00     0.291 C 
ATOM     83  C   UNL A   1      31.581  25.357  23.012  1.00  0.00     0.291 C 
ATOM     84  H   UNL A   1      30.478  24.084  24.041  1.00  0.00     0.349 HD
ATOM     85  C   UNL A   1      33.334  23.219  22.431  1.00  0.00     0.221 C 
ATOM     86  C   UNL A   1      32.922  25.528  22.278  1.00  0.00     0.221 C 
ATOM     87  O   UNL A   1      33.280  24.348  21.553  1.00  0.00    -0.370 OA
ENDBRANCH  77  81
ENDBRANCH  74  77
ENDBRANCH  72  73
ENDBRANCH  71  72
ENDBRANCH   1  71
TORSDOF 14
ENDMDL
MODEL 3
REMARK VINA RESULT:     -11.2      1.473      1.777
REMARK SMILES O=C(NCCCNC(=O)C1([NH+]2CCOCC2)CCC1)c1ccc(-c2c3nc(c(-c4cccc(S(=O)(=O)[O-])c4F)c4ccc([nH]4)c(-c4cccc(S(=O)(=O)[O-])c4F)c4nc(c(-c5cccc(S(=O)(=O)[O-])c5F)c5ccc2[nH]5)C=C4)C=C3)cc1
REMARK SMILES IDX 4 1 3 2 1 3 2 4 20 6 21 7 82 8 22 9 81 10 23 11 24 12 25 13
REMARK SMILES IDX 75 14 26 15 80 16 74 17 76 18 27 19 79 20 73 21 72 22 28 24
REMARK SMILES IDX 60 25 40 26 59 27 41 28 44 29 58 30 77 31 42 32 43 33 57 35
REMARK SMILES IDX 78 36 45 37 29 38 30 39 38 40 31 41 33 42 39 43 32 44 34 45
REMARK SMILES IDX 35 46 36 47 37 48 61 49 62 50 70 51 63 52 65 53 71 54 64 55
REMARK SMILES IDX 66 56 67 57 68 58 69 59 46 60 47 61 55 62 48 63 50 64 56 65
REMARK SMILES IDX 49 66 51 67 52 68 53 69 54 70 5 71 6 72 7 73 8 74 9 76 10 77
REMARK SMILES IDX 17 78 19 79 18 80 11 81 12 82 16 83 13 85 15 86 14 87
REMARK H PARENT 3 5 76 23 44 34 7 75 11 84
REMARK Flexibility Score: inf
ROOT
ATOM      1  C   UNL A   1      33.505  29.009  25.381  1.00  0.00     0.118 C 
ENDROOT
BRANCH   1   2
ATOM      2  N   UNL A   1      32.914  30.235  25.907  1.00  0.00    -0.352 N 
ATOM      3  O   UNL A   1      32.591  31.912  27.375  1.00  0.00    -0.269 OA
ATOM      4  C   UNL A   1      33.328  31.025  26.954  1.00  0.00     0.251 C 
ATOM      5  H   UNL A   1      32.100  30.540  25.445  1.00  0.00     0.163 HD
BRANCH   4   6
ATOM      6  C   UNL A   1      34.646  30.778  27.578  1.00  0.00     0.039 A 
ATOM      7  C   UNL A   1      34.939  29.523  28.112  1.00  0.00     0.014 A 
ATOM      8  C   UNL A   1      35.590  31.807  27.648  1.00  0.00     0.014 A 
ATOM      9  C   UNL A   1      36.078  29.354  28.881  1.00  0.00     0.010 A 
ATOM     10  C   UNL A   1      36.802  31.591  28.315  1.00  0.00     0.010 A 
ATOM     11  C   UNL A   1      37.040  30.374  28.967  1.00  0.00    -0.014 A 
BRANCH  11  12
ATOM     12  C   UNL A   1      38.317  30.071  29.664  1.00  0.00     0.031 A 
ATOM     13  C   UNL A   1      38.610  30.577  31.048  1.00  0.00     0.074 A 
ATOM     14  C   UNL A   1      39.197  29.266  29.034  1.00  0.00     0.049 A 
ATOM     15  N   UNL A   1      39.640  30.315  31.811  1.00  0.00    -0.248 NA
ATOM     16  C   UNL A   1      37.639  31.502  31.654  1.00  0.00     0.031 C 
ATOM     17  C   UNL A   1      39.039  28.764  27.664  1.00  0.00     0.029 A 
ATOM     18  N   UNL A   1      40.372  28.702  29.456  1.00  0.00    -0.354 N 
ATOM     19  C   UNL A   1      39.464  31.065  32.967  1.00  0.00     0.074 A 
ATOM     20  C   UNL A   1      38.229  31.802  32.805  1.00  0.00     0.031 C 
ATOM     21  C   UNL A   1      40.038  27.919  27.384  1.00  0.00     0.029 A 
ATOM     22  C   UNL A   1      40.943  27.866  28.524  1.00  0.00     0.049 A 
ATOM     23  H   UNL A   1      40.768  28.878  30.340  1.00  0.00     0.167 HD
ATOM     24  C   UNL A   1      40.255  31.120  34.066  1.00  0.00     0.034 A 
ATOM     25  C   UNL A   1      42.075  27.140  28.575  1.00  0.00     0.034 A 
ATOM     26  C   UNL A   1      41.461  30.351  34.232  1.00  0.00     0.049 A 
ATOM     27  C   UNL A   1      42.890  27.171  29.833  1.00  0.00     0.074 A 
ATOM     28  C   UNL A   1      42.315  30.314  35.322  1.00  0.00     0.029 A 
ATOM     29  N   UNL A   1      41.985  29.482  33.288  1.00  0.00    -0.354 N 
ATOM     30  N   UNL A   1      42.648  27.809  30.953  1.00  0.00    -0.248 NA
ATOM     31  C   UNL A   1      44.120  26.371  29.844  1.00  0.00     0.031 C 
ATOM     32  C   UNL A   1      43.355  29.423  35.035  1.00  0.00     0.029 A 
ATOM     33  C   UNL A   1      43.146  28.899  33.769  1.00  0.00     0.049 A 
ATOM     34  H   UNL A   1      41.589  29.305  32.404  1.00  0.00     0.167 HD
ATOM     35  C   UNL A   1      43.696  27.488  31.803  1.00  0.00     0.074 A 
ATOM     36  C   UNL A   1      44.546  26.558  31.086  1.00  0.00     0.031 C 
ATOM     37  C   UNL A   1      43.954  27.949  33.052  1.00  0.00     0.034 A 
BRANCH  24  38
ATOM     38  C   UNL A   1      39.817  32.001  35.208  1.00  0.00     0.023 A 
ATOM     39  C   UNL A   1      40.170  33.365  35.200  1.00  0.00     0.012 A 
ATOM     40  C   UNL A   1      38.989  31.507  36.235  1.00  0.00     0.148 A 
ATOM     41  C   UNL A   1      39.719  34.223  36.204  1.00  0.00     0.002 A 
ATOM     42  C   UNL A   1      38.515  32.375  37.214  1.00  0.00     0.091 A 
ATOM     43  F   UNL A   1      38.680  30.203  36.236  1.00  0.00    -0.205 F 
ATOM     44  C   UNL A   1      38.884  33.730  37.204  1.00  0.00     0.022 A 
BRANCH  42  45
ATOM     45  S   UNL A   1      37.379  31.857  38.508  1.00  0.00     0.127 S 
ATOM     46  O   UNL A   1      38.190  32.055  39.708  1.00  0.00    -0.237 OA
ATOM     47  O   UNL A   1      36.278  32.808  38.352  1.00  0.00    -0.237 OA
ATOM     48  O   UNL A   1      37.035  30.474  38.209  1.00  0.00    -0.744 OA
ENDBRANCH  42  45
ENDBRANCH  24  38
BRANCH  25  49
ATOM     49  C   UNL A   1      42.462  26.297  27.410  1.00  0.00     0.023 A 
ATOM     50  C   UNL A   1      43.310  26.822  26.418  1.00  0.00     0.012 A 
ATOM     51  C   UNL A   1      42.049  24.953  27.317  1.00  0.00     0.148 A 
ATOM     52  C   UNL A   1      43.723  26.030  25.344  1.00  0.00     0.002 A 
ATOM     53  C   UNL A   1      42.519  24.152  26.284  1.00  0.00     0.091 A 
ATOM     54  F   UNL A   1      41.222  24.470  28.256  1.00  0.00    -0.205 F 
ATOM     55  C   UNL A   1      43.341  24.692  25.285  1.00  0.00     0.022 A 
BRANCH  53  56
ATOM     56  S   UNL A   1      42.200  22.384  26.263  1.00  0.00     0.127 S 
ATOM     57  O   UNL A   1      42.987  21.948  25.113  1.00  0.00    -0.237 OA
ATOM     58  O   UNL A   1      42.717  21.954  27.563  1.00  0.00    -0.237 OA
ATOM     59  O   UNL A   1      40.752  22.271  26.137  1.00  0.00    -0.744 OA
ENDBRANCH  53  56
ENDBRANCH  25  49
BRANCH  37  60
ATOM     60  C   UNL A   1      45.215  27.457  33.708  1.00  0.00     0.023 A 
ATOM     61  C   UNL A   1      46.400  28.209  33.572  1.00  0.00     0.012 A 
ATOM     62  C   UNL A   1      45.224  26.280  34.479  1.00  0.00     0.148 A 
ATOM     63  C   UNL A   1      47.584  27.778  34.166  1.00  0.00     0.002 A 
ATOM     64  C   UNL A   1      46.400  25.878  35.102  1.00  0.00     0.091 A 
ATOM     65  F   UNL A   1      44.094  25.565  34.575  1.00  0.00    -0.205 F 
ATOM     66  C   UNL A   1      47.582  26.618  34.938  1.00  0.00     0.022 A 
BRANCH  64  67
ATOM     67  S   UNL A   1      46.460  24.440  36.176  1.00  0.00     0.127 S 
ATOM     68  O   UNL A   1      46.370  23.343  35.214  1.00  0.00    -0.237 OA
ATOM     69  O   UNL A   1      47.766  24.580  36.821  1.00  0.00    -0.237 OA
ATOM     70  O   UNL A   1      45.328  24.583  37.083  1.00  0.00    -0.744 OA
ENDBRANCH  64  67
ENDBRANCH  37  60
ENDBRANCH  11  12
ENDBRANCH   4   6
ENDBRANCH   1   2
BRANCH   1  71
ATOM     71  C   UNL A   1      32.811  27.760  25.893  1.00  0.00     0.042 C 
BRANCH  71  72
ATOM     72  C   UNL A   1      32.040  27.031  24.812  1.00  0.00     0.118 C 
BRANCH  72  73
ATOM     73  N   UNL A   1      32.780  26.924  23.572  1.00  0.00    -0.351 N 
ATOM     74  C   UNL A   1      33.415  25.835  23.015  1.00  0.00     0.281 C 
ATOM     75  H   UNL A   1      32.837  27.755  23.046  1.00  0.00     0.163 HD
ATOM     76  O   UNL A   1      33.880  26.015  21.881  1.00  0.00    -0.268 OA
BRANCH  74  77
ATOM     77  C   UNL A   1      33.514  24.449  23.830  1.00  0.00     0.177 C 
ATOM     78  C   UNL A   1      34.748  23.600  23.335  1.00  0.00     0.079 C 
ATOM     79  C   UNL A   1      34.192  24.452  25.227  1.00  0.00     0.079 C 
ATOM     80  C   UNL A   1      35.154  23.340  24.793  1.00  0.00     0.014 C 
BRANCH  77  81
ATOM     81  N   UNL A   1      32.275  23.612  23.721  1.00  0.00    -0.318 N 
ATOM     82  C   UNL A   1      31.525  23.408  24.974  1.00  0.00     0.291 C 
ATOM     83  C   UNL A   1      32.264  22.366  22.943  1.00  0.00     0.291 C 
ATOM     84  H   UNL A   1      31.794  24.276  23.114  1.00  0.00     0.349 HD
ATOM     85  C   UNL A   1      31.909  22.128  25.736  1.00  0.00     0.221 C 
ATOM     86  C   UNL A   1      32.588  21.091  23.738  1.00  0.00     0.221 C 
ATOM     87  O   UNL A   1      31.765  20.972  24.904  1.00  0.00    -0.370 OA
ENDBRANCH  77  81
ENDBRANCH  74  77
ENDBRANCH  72  73
ENDBRANCH  71  72
ENDBRANCH   1  71
TORSDOF 14
ENDMDL
