MODEL 1
REMARK VINA RESULT:     -12.6      0.000      0.000
REMARK SMILES CC(C)CN(C)c1cc2c(cc1Cl)C=C(C(=O)NCCCNC(=O)c1ccc(-c3c4nc(c(-c5cccc(S(=O)(=O)[O-])c5F)c5ccc([nH]5)c(-c5cccc(S(=O)(=O)[O-])c5F)c5nc(c(-c6cccc(S(=O)(=O)[O-])c6F)c6ccc3[nH]6)C=C5)C=C4)cc1)[C@H](C(F)(F)F)O2
REMARK SMILES IDX 20 1 19 2 18 3 16 4 17 5 15 7 7 8 8 9 12 10 9 11 11 12 13 13
REMARK SMILES IDX 10 14 93 15 14 16 88 17 5 18 6 19 4 20 2 21 1 22 3 23 89 24
REMARK SMILES IDX 90 25 91 26 92 27 21 28 22 29 23 30 24 32 25 33 26 34 87 35
REMARK SMILES IDX 27 36 86 37 28 38 29 39 30 40 80 41 31 42 85 43 79 44 81 45
REMARK SMILES IDX 32 46 84 47 78 48 77 49 33 51 65 52 45 53 64 54 46 55 49 56
REMARK SMILES IDX 63 57 82 58 47 59 48 60 62 62 83 63 50 64 34 65 35 66 43 67
REMARK SMILES IDX 36 68 38 69 44 70 37 71 39 72 40 73 41 74 42 75 66 76 67 77
REMARK SMILES IDX 75 78 68 79 70 80 76 81 69 82 71 83 72 84 73 85 74 86 51 87
REMARK SMILES IDX 52 88 60 89 53 90 55 91 61 92 54 93 56 94 57 95 58 96 59 97
REMARK H PARENT 18 6 22 31 81 50 49 61
REMARK Flexibility Score: inf
ROOT
ATOM      1  C   UNL A   1      36.054  20.866  24.938  1.00  0.00     0.042 C 
ENDROOT
BRANCH   1   2
ATOM      2  C   UNL A   1      35.026  21.501  25.866  1.00  0.00     0.118 C 
BRANCH   2   3
ATOM      3  N   UNL A   1      33.741  20.834  25.750  1.00  0.00    -0.352 N 
ATOM      4  C   UNL A   1      32.498  21.199  25.365  1.00  0.00     0.251 C 
ATOM      5  O   UNL A   1      31.638  20.314  25.377  1.00  0.00    -0.270 OA
ATOM      6  H   UNL A   1      33.786  19.887  26.016  1.00  0.00     0.163 HD
BRANCH   4   7
ATOM      7  C   UNL A   1      32.145  22.564  24.895  1.00  0.00     0.067 C 
ATOM      8  C   UNL A   1      31.705  27.603  24.825  1.00  0.00     0.059 A 
ATOM      9  C   UNL A   1      31.653  26.587  23.856  1.00  0.00     0.074 A 
ATOM     10  C   UNL A   1      31.788  27.207  26.176  1.00  0.00     0.065 A 
ATOM     11  C   UNL A   1      31.752  25.240  24.208  1.00  0.00     0.130 A 
ATOM     12  C   UNL A   1      31.946  25.862  26.523  1.00  0.00     0.034 A 
ATOM     13  Cl  UNL A   1      31.681  28.343  27.478  1.00  0.00    -0.082 Cl
ATOM     14  C   UNL A   1      31.948  24.877  25.534  1.00  0.00     0.019 A 
ATOM     15  O   UNL A   1      31.648  24.346  23.189  1.00  0.00    -0.475 OA
ATOM     16  C   UNL A   1      32.178  23.486  25.871  1.00  0.00     0.025 C 
ATOM     17  C   UNL A   1      31.869  22.931  23.457  1.00  0.00     0.314 C 
BRANCH   8  18
ATOM     18  N   UNL A   1      31.720  28.954  24.436  1.00  0.00    -0.373 N 
ATOM     19  C   UNL A   1      32.901  29.704  24.862  1.00  0.00     0.143 C 
BRANCH  18  20
ATOM     20  C   UNL A   1      30.427  29.667  24.549  1.00  0.00     0.119 C 
BRANCH  20  21
ATOM     21  C   UNL A   1      29.658  29.725  23.211  1.00  0.00     0.002 C 
ATOM     22  C   UNL A   1      30.592  29.631  22.001  1.00  0.00     0.009 C 
ATOM     23  C   UNL A   1      28.624  28.599  23.120  1.00  0.00     0.009 C 
ENDBRANCH  20  21
ENDBRANCH  18  20
ENDBRANCH   8  18
BRANCH  17  24
ATOM     24  C   UNL A   1      32.901  22.427  22.431  1.00  0.00     0.429 C 
ATOM     25  F   UNL A   1      32.875  23.108  21.265  1.00  0.00    -0.167 F 
ATOM     26  F   UNL A   1      34.154  22.561  22.939  1.00  0.00    -0.167 F 
ATOM     27  F   UNL A   1      32.735  21.119  22.127  1.00  0.00    -0.167 F 
ENDBRANCH  17  24
ENDBRANCH   4   7
ENDBRANCH   2   3
ENDBRANCH   1   2
BRANCH   1  28
ATOM     28  C   UNL A   1      37.452  21.448  25.117  1.00  0.00     0.118 C 
BRANCH  28  29
ATOM     29  N   UNL A   1      38.414  20.440  25.541  1.00  0.00    -0.352 N 
ATOM     30  C   UNL A   1      39.640  20.601  26.147  1.00  0.00     0.251 C 
ATOM     31  H   UNL A   1      38.150  19.507  25.368  1.00  0.00     0.163 HD
ATOM     32  O   UNL A   1      40.411  19.649  26.222  1.00  0.00    -0.269 OA
BRANCH  30  33
ATOM     33  C   UNL A   1      40.032  21.929  26.672  1.00  0.00     0.039 A 
ATOM     34  C   UNL A   1      39.464  23.091  26.149  1.00  0.00     0.014 A 
ATOM     35  C   UNL A   1      40.998  22.015  27.678  1.00  0.00     0.014 A 
ATOM     36  C   UNL A   1      40.003  24.328  26.479  1.00  0.00     0.010 A 
ATOM     37  C   UNL A   1      41.464  23.270  28.085  1.00  0.00     0.010 A 
ATOM     38  C   UNL A   1      41.014  24.436  27.447  1.00  0.00    -0.014 A 
BRANCH  38  39
ATOM     39  C   UNL A   1      41.581  25.774  27.768  1.00  0.00     0.031 A 
ATOM     40  C   UNL A   1      42.953  26.169  27.284  1.00  0.00     0.074 A 
ATOM     41  C   UNL A   1      40.836  26.657  28.462  1.00  0.00     0.049 A 
ATOM     42  N   UNL A   1      43.602  27.289  27.484  1.00  0.00    -0.248 NA
ATOM     43  C   UNL A   1      43.697  25.189  26.475  1.00  0.00     0.031 C 
ATOM     44  C   UNL A   1      39.496  26.395  28.992  1.00  0.00     0.029 A 
ATOM     45  N   UNL A   1      41.090  27.954  28.829  1.00  0.00    -0.354 N 
ATOM     46  C   UNL A   1      44.840  27.130  26.871  1.00  0.00     0.074 A 
ATOM     47  C   UNL A   1      44.856  25.806  26.289  1.00  0.00     0.031 C 
ATOM     48  C   UNL A   1      39.025  27.509  29.570  1.00  0.00     0.029 A 
ATOM     49  C   UNL A   1      40.051  28.544  29.511  1.00  0.00     0.049 A 
ATOM     50  H   UNL A   1      41.932  28.419  28.623  1.00  0.00     0.167 HD
ATOM     51  C   UNL A   1      45.862  28.013  26.783  1.00  0.00     0.034 A 
ATOM     52  C   UNL A   1      39.938  29.775  30.048  1.00  0.00     0.034 A 
ATOM     53  C   UNL A   1      45.823  29.353  27.303  1.00  0.00     0.049 A 
ATOM     54  C   UNL A   1      41.082  30.736  29.930  1.00  0.00     0.074 A 
ATOM     55  C   UNL A   1      46.799  30.331  27.225  1.00  0.00     0.029 A 
ATOM     56  N   UNL A   1      44.752  29.909  27.985  1.00  0.00    -0.354 N 
ATOM     57  N   UNL A   1      42.223  30.578  29.307  1.00  0.00    -0.248 NA
ATOM     58  C   UNL A   1      40.924  32.043  30.583  1.00  0.00     0.031 C 
ATOM     59  C   UNL A   1      46.319  31.478  27.863  1.00  0.00     0.029 A 
ATOM     60  C   UNL A   1      45.043  31.216  28.332  1.00  0.00     0.049 A 
ATOM     61  H   UNL A   1      43.910  29.442  28.192  1.00  0.00     0.167 HD
ATOM     62  C   UNL A   1      42.918  31.768  29.482  1.00  0.00     0.074 A 
ATOM     63  C   UNL A   1      42.059  32.646  30.251  1.00  0.00     0.031 C 
ATOM     64  C   UNL A   1      44.163  32.093  29.059  1.00  0.00     0.034 A 
BRANCH  51  65
ATOM     65  C   UNL A   1      47.106  27.590  26.052  1.00  0.00     0.023 A 
ATOM     66  C   UNL A   1      48.088  26.848  26.738  1.00  0.00     0.012 A 
ATOM     67  C   UNL A   1      47.252  27.826  24.671  1.00  0.00     0.148 A 
ATOM     68  C   UNL A   1      49.202  26.353  26.061  1.00  0.00     0.002 A 
ATOM     69  C   UNL A   1      48.351  27.306  23.998  1.00  0.00     0.091 A 
ATOM     70  F   UNL A   1      46.309  28.545  24.044  1.00  0.00    -0.205 F 
ATOM     71  C   UNL A   1      49.328  26.573  24.692  1.00  0.00     0.022 A 
BRANCH  69  72
ATOM     72  S   UNL A   1      48.583  27.484  22.225  1.00  0.00     0.127 S 
ATOM     73  O   UNL A   1      49.852  28.210  22.166  1.00  0.00    -0.237 OA
ATOM     74  O   UNL A   1      48.657  26.091  21.784  1.00  0.00    -0.237 OA
ATOM     75  O   UNL A   1      47.426  28.221  21.737  1.00  0.00    -0.744 OA
ENDBRANCH  69  72
ENDBRANCH  51  65
BRANCH  52  76
ATOM     76  C   UNL A   1      38.664  30.162  30.712  1.00  0.00     0.023 A 
ATOM     77  C   UNL A   1      38.487  29.878  32.079  1.00  0.00     0.012 A 
ATOM     78  C   UNL A   1      37.673  30.883  30.021  1.00  0.00     0.148 A 
ATOM     79  C   UNL A   1      37.340  30.305  32.747  1.00  0.00     0.002 A 
ATOM     80  C   UNL A   1      36.554  31.346  30.703  1.00  0.00     0.091 A 
ATOM     81  F   UNL A   1      37.865  31.135  28.718  1.00  0.00    -0.205 F 
ATOM     82  C   UNL A   1      36.381  31.049  32.064  1.00  0.00     0.022 A 
BRANCH  80  83
ATOM     83  S   UNL A   1      35.326  32.412  29.939  1.00  0.00     0.127 S 
ATOM     84  O   UNL A   1      34.400  32.640  31.046  1.00  0.00    -0.237 OA
ATOM     85  O   UNL A   1      36.132  33.571  29.559  1.00  0.00    -0.237 OA
ATOM     86  O   UNL A   1      34.788  31.654  28.817  1.00  0.00    -0.744 OA
ENDBRANCH  80  83
ENDBRANCH  52  76
BRANCH  64  87
ATOM     87  C   UNL A   1      44.688  33.456  29.408  1.00  0.00     0.023 A 
ATOM     88  C   UNL A   1      45.402  33.632  30.609  1.00  0.00     0.012 A 
ATOM     89  C   UNL A   1      44.572  34.527  28.501  1.00  0.00     0.148 A 
ATOM     90  C   UNL A   1      45.988  34.860  30.907  1.00  0.00     0.002 A 
ATOM     91  C   UNL A   1      45.187  35.739  28.791  1.00  0.00     0.091 A 
ATOM     92  F   UNL A   1      43.877  34.334  27.371  1.00  0.00    -0.205 F 
ATOM     93  C   UNL A   1      45.891  35.908  29.994  1.00  0.00     0.022 A 
BRANCH  91  94
ATOM     94  S   UNL A   1      45.180  37.124  27.648  1.00  0.00     0.127 S 
ATOM     95  O   UNL A   1      45.881  36.561  26.494  1.00  0.00    -0.237 OA
ATOM     96  O   UNL A   1      43.750  37.350  27.443  1.00  0.00    -0.237 OA
ATOM     97  O   UNL A   1      45.876  38.211  28.324  1.00  0.00    -0.744 OA
ENDBRANCH  91  94
ENDBRANCH  64  87
ENDBRANCH  38  39
ENDBRANCH  30  33
ENDBRANCH  28  29
ENDBRANCH   1  28
TORSDOF 17
ENDMDL
MODEL 2
REMARK VINA RESULT:     -12.5      5.325     10.789
REMARK SMILES CC(C)CN(C)c1cc2c(cc1Cl)C=C(C(=O)NCCCNC(=O)c1ccc(-c3c4nc(c(-c5cccc(S(=O)(=O)[O-])c5F)c5ccc([nH]5)c(-c5cccc(S(=O)(=O)[O-])c5F)c5nc(c(-c6cccc(S(=O)(=O)[O-])c6F)c6ccc3[nH]6)C=C5)C=C4)cc1)[C@H](C(F)(F)F)O2
REMARK SMILES IDX 20 1 19 2 18 3 16 4 17 5 15 7 7 8 8 9 12 10 9 11 11 12 13 13
REMARK SMILES IDX 10 14 93 15 14 16 88 17 5 18 6 19 4 20 2 21 1 22 3 23 89 24
REMARK SMILES IDX 90 25 91 26 92 27 21 28 22 29 23 30 24 32 25 33 26 34 87 35
REMARK SMILES IDX 27 36 86 37 28 38 29 39 30 40 80 41 31 42 85 43 79 44 81 45
REMARK SMILES IDX 32 46 84 47 78 48 77 49 33 51 65 52 45 53 64 54 46 55 49 56
REMARK SMILES IDX 63 57 82 58 47 59 48 60 62 62 83 63 50 64 34 65 35 66 43 67
REMARK SMILES IDX 36 68 38 69 44 70 37 71 39 72 40 73 41 74 42 75 66 76 67 77
REMARK SMILES IDX 75 78 68 79 70 80 76 81 69 82 71 83 72 84 73 85 74 86 51 87
REMARK SMILES IDX 52 88 60 89 53 90 55 91 61 92 54 93 56 94 57 95 58 96 59 97
REMARK H PARENT 18 6 22 31 81 50 49 61
REMARK Flexibility Score: inf
ROOT
ATOM      1  C   UNL A   1      31.376  32.333  26.561  1.00  0.00     0.042 C 
ENDROOT
BRANCH   1   2
ATOM      2  C   UNL A   1      31.564  30.840  26.324  1.00  0.00     0.118 C 
BRANCH   2   3
ATOM      3  N   UNL A   1      31.014  30.447  25.038  1.00  0.00    -0.352 N 
ATOM      4  C   UNL A   1      31.060  29.335  24.271  1.00  0.00     0.251 C 
ATOM      5  O   UNL A   1      30.423  29.372  23.214  1.00  0.00    -0.270 OA
ATOM      6  H   UNL A   1      30.481  31.164  24.625  1.00  0.00     0.163 HD
BRANCH   4   7
ATOM      7  C   UNL A   1      31.778  28.093  24.657  1.00  0.00     0.067 C 
ATOM      8  C   UNL A   1      32.592  23.241  25.834  1.00  0.00     0.059 A 
ATOM      9  C   UNL A   1      33.397  24.308  25.402  1.00  0.00     0.074 A 
ATOM     10  C   UNL A   1      31.246  23.529  26.144  1.00  0.00     0.065 A 
ATOM     11  C   UNL A   1      32.872  25.587  25.215  1.00  0.00     0.130 A 
ATOM     12  C   UNL A   1      30.708  24.797  25.901  1.00  0.00     0.034 A 
ATOM     13  Cl  UNL A   1      30.192  22.354  26.855  1.00  0.00    -0.082 Cl
ATOM     14  C   UNL A   1      31.519  25.823  25.416  1.00  0.00     0.019 A 
ATOM     15  O   UNL A   1      33.756  26.548  24.832  1.00  0.00    -0.475 OA
ATOM     16  C   UNL A   1      30.960  27.122  25.095  1.00  0.00     0.025 C 
ATOM     17  C   UNL A   1      33.263  27.876  24.493  1.00  0.00     0.314 C 
BRANCH   8  18
ATOM     18  N   UNL A   1      33.116  21.939  25.904  1.00  0.00    -0.373 N 
ATOM     19  C   UNL A   1      34.010  21.695  27.036  1.00  0.00     0.143 C 
BRANCH  18  20
ATOM     20  C   UNL A   1      33.533  21.346  24.612  1.00  0.00     0.119 C 
BRANCH  20  21
ATOM     21  C   UNL A   1      32.344  20.789  23.799  1.00  0.00     0.002 C 
ATOM     22  C   UNL A   1      32.153  21.529  22.471  1.00  0.00     0.009 C 
ATOM     23  C   UNL A   1      32.528  19.297  23.505  1.00  0.00     0.009 C 
ENDBRANCH  20  21
ENDBRANCH  18  20
ENDBRANCH   8  18
BRANCH  17  24
ATOM     24  C   UNL A   1      33.842  28.240  23.113  1.00  0.00     0.429 C 
ATOM     25  F   UNL A   1      33.829  27.212  22.238  1.00  0.00    -0.167 F 
ATOM     26  F   UNL A   1      33.109  29.241  22.560  1.00  0.00    -0.167 F 
ATOM     27  F   UNL A   1      35.119  28.680  23.186  1.00  0.00    -0.167 F 
ENDBRANCH  17  24
ENDBRANCH   4   7
ENDBRANCH   2   3
ENDBRANCH   1   2
BRANCH   1  28
ATOM     28  C   UNL A   1      32.697  33.072  26.750  1.00  0.00     0.118 C 
BRANCH  28  29
ATOM     29  N   UNL A   1      32.561  34.219  27.639  1.00  0.00    -0.352 N 
ATOM     30  C   UNL A   1      33.238  34.508  28.802  1.00  0.00     0.251 C 
ATOM     31  H   UNL A   1      31.886  34.883  27.369  1.00  0.00     0.163 HD
ATOM     32  O   UNL A   1      32.829  35.403  29.536  1.00  0.00    -0.269 OA
BRANCH  30  33
ATOM     33  C   UNL A   1      34.432  33.717  29.175  1.00  0.00     0.039 A 
ATOM     34  C   UNL A   1      34.289  32.465  29.775  1.00  0.00     0.014 A 
ATOM     35  C   UNL A   1      35.707  34.242  28.951  1.00  0.00     0.014 A 
ATOM     36  C   UNL A   1      35.398  31.838  30.331  1.00  0.00     0.010 A 
ATOM     37  C   UNL A   1      36.832  33.555  29.419  1.00  0.00     0.010 A 
ATOM     38  C   UNL A   1      36.684  32.376  30.166  1.00  0.00    -0.014 A 
BRANCH  38  39
ATOM     39  C   UNL A   1      37.850  31.690  30.786  1.00  0.00     0.031 A 
ATOM     40  C   UNL A   1      38.239  31.964  32.216  1.00  0.00     0.074 A 
ATOM     41  C   UNL A   1      38.536  30.778  30.069  1.00  0.00     0.049 A 
ATOM     42  N   UNL A   1      39.233  31.463  32.906  1.00  0.00    -0.248 NA
ATOM     43  C   UNL A   1      37.415  32.922  32.973  1.00  0.00     0.031 C 
ATOM     44  C   UNL A   1      38.263  30.425  28.673  1.00  0.00     0.029 A 
ATOM     45  N   UNL A   1      39.590  29.970  30.414  1.00  0.00    -0.354 N 
ATOM     46  C   UNL A   1      39.183  32.076  34.153  1.00  0.00     0.074 A 
ATOM     47  C   UNL A   1      38.061  32.988  34.130  1.00  0.00     0.031 C 
ATOM     48  C   UNL A   1      39.092  29.440  28.297  1.00  0.00     0.029 A 
ATOM     49  C   UNL A   1      39.997  29.135  29.400  1.00  0.00     0.049 A 
ATOM     50  H   UNL A   1      40.014  29.986  31.302  1.00  0.00     0.167 HD
ATOM     51  C   UNL A   1      39.986  31.882  35.225  1.00  0.00     0.034 A 
ATOM     52  C   UNL A   1      40.998  28.235  29.349  1.00  0.00     0.034 A 
ATOM     53  C   UNL A   1      41.061  30.929  35.273  1.00  0.00     0.049 A 
ATOM     54  C   UNL A   1      41.867  28.035  30.554  1.00  0.00     0.074 A 
ATOM     55  C   UNL A   1      41.901  30.637  36.333  1.00  0.00     0.029 A 
ATOM     56  N   UNL A   1      41.436  30.104  34.225  1.00  0.00    -0.354 N 
ATOM     57  N   UNL A   1      41.771  28.593  31.735  1.00  0.00    -0.248 NA
ATOM     58  C   UNL A   1      42.977  27.081  30.424  1.00  0.00     0.031 C 
ATOM     59  C   UNL A   1      42.789  29.638  35.924  1.00  0.00     0.029 A 
ATOM     60  C   UNL A   1      42.495  29.303  34.612  1.00  0.00     0.049 A 
ATOM     61  H   UNL A   1      41.012  30.090  33.336  1.00  0.00     0.167 HD
ATOM     62  C   UNL A   1      42.801  28.053  32.495  1.00  0.00     0.074 A 
ATOM     63  C   UNL A   1      43.495  27.105  31.646  1.00  0.00     0.031 C 
ATOM     64  C   UNL A   1      43.149  28.334  33.773  1.00  0.00     0.034 A 
BRANCH  51  65
ATOM     65  C   UNL A   1      39.711  32.679  36.471  1.00  0.00     0.023 A 
ATOM     66  C   UNL A   1      40.349  33.923  36.647  1.00  0.00     0.012 A 
ATOM     67  C   UNL A   1      38.746  32.255  37.406  1.00  0.00     0.148 A 
ATOM     68  C   UNL A   1      40.036  34.730  37.740  1.00  0.00     0.002 A 
ATOM     69  C   UNL A   1      38.419  33.078  38.477  1.00  0.00     0.091 A 
ATOM     70  F   UNL A   1      38.162  31.062  37.221  1.00  0.00    -0.205 F 
ATOM     71  C   UNL A   1      39.066  34.313  38.648  1.00  0.00     0.022 A 
BRANCH  69  72
ATOM     72  S   UNL A   1      37.146  32.661  39.674  1.00  0.00     0.127 S 
ATOM     73  O   UNL A   1      35.950  32.624  38.831  1.00  0.00    -0.237 OA
ATOM     74  O   UNL A   1      37.593  31.353  40.154  1.00  0.00    -0.237 OA
ATOM     75  O   UNL A   1      37.165  33.720  40.672  1.00  0.00    -0.744 OA
ENDBRANCH  69  72
ENDBRANCH  51  65
BRANCH  52  76
ATOM     76  C   UNL A   1      41.191  27.433  28.111  1.00  0.00     0.023 A 
ATOM     77  C   UNL A   1      41.855  28.013  27.014  1.00  0.00     0.012 A 
ATOM     78  C   UNL A   1      40.800  26.082  28.050  1.00  0.00     0.148 A 
ATOM     79  C   UNL A   1      42.126  27.257  25.873  1.00  0.00     0.002 A 
ATOM     80  C   UNL A   1      41.115  25.323  26.930  1.00  0.00     0.091 A 
ATOM     81  F   UNL A   1      40.165  25.558  29.107  1.00  0.00    -0.205 F 
ATOM     82  C   UNL A   1      41.768  25.912  25.836  1.00  0.00     0.022 A 
BRANCH  80  83
ATOM     83  S   UNL A   1      40.802  23.557  26.837  1.00  0.00     0.127 S 
ATOM     84  O   UNL A   1      39.380  23.523  26.504  1.00  0.00    -0.237 OA
ATOM     85  O   UNL A   1      41.700  23.151  25.756  1.00  0.00    -0.237 OA
ATOM     86  O   UNL A   1      41.152  23.024  28.147  1.00  0.00    -0.744 OA
ENDBRANCH  80  83
ENDBRANCH  52  76
BRANCH  64  87
ATOM     87  C   UNL A   1      44.332  27.612  34.351  1.00  0.00     0.023 A 
ATOM     88  C   UNL A   1      45.608  28.202  34.265  1.00  0.00     0.012 A 
ATOM     89  C   UNL A   1      44.164  26.415  35.073  1.00  0.00     0.148 A 
ATOM     90  C   UNL A   1      46.704  27.605  34.882  1.00  0.00     0.002 A 
ATOM     91  C   UNL A   1      45.257  25.842  35.714  1.00  0.00     0.091 A 
ATOM     92  F   UNL A   1      42.941  25.870  35.130  1.00  0.00    -0.205 F 
ATOM     93  C   UNL A   1      46.527  26.433  35.616  1.00  0.00     0.022 A 
BRANCH  91  94
ATOM     94  S   UNL A   1      45.116  24.376  36.742  1.00  0.00     0.127 S 
ATOM     95  O   UNL A   1      46.497  24.192  37.187  1.00  0.00    -0.237 OA
ATOM     96  O   UNL A   1      44.191  24.817  37.786  1.00  0.00    -0.237 OA
ATOM     97  O   UNL A   1      44.599  23.324  35.877  1.00  0.00    -0.744 OA
ENDBRANCH  91  94
ENDBRANCH  64  87
ENDBRANCH  38  39
ENDBRANCH  30  33
ENDBRANCH  28  29
ENDBRANCH   1  28
TORSDOF 17
ENDMDL
MODEL 3
REMARK VINA RESULT:     -12.5      1.678      7.536
REMARK SMILES CC(C)CN(C)c1cc2c(cc1Cl)C=C(C(=O)NCCCNC(=O)c1ccc(-c3c4nc(c(-c5cccc(S(=O)(=O)[O-])c5F)c5ccc([nH]5)c(-c5cccc(S(=O)(=O)[O-])c5F)c5nc(c(-c6cccc(S(=O)(=O)[O-])c6F)c6ccc3[nH]6)C=C5)C=C4)cc1)[C@H](C(F)(F)F)O2
REMARK SMILES IDX 20 1 19 2 18 3 16 4 17 5 15 7 7 8 8 9 12 10 9 11 11 12 13 13
REMARK SMILES IDX 10 14 93 15 14 16 88 17 5 18 6 19 4 20 2 21 1 22 3 23 89 24
REMARK SMILES IDX 90 25 91 26 92 27 21 28 22 29 23 30 24 32 25 33 26 34 87 35
REMARK SMILES IDX 27 36 86 37 28 38 29 39 30 40 80 41 31 42 85 43 79 44 81 45
REMARK SMILES IDX 32 46 84 47 78 48 77 49 33 51 65 52 45 53 64 54 46 55 49 56
REMARK SMILES IDX 63 57 82 58 47 59 48 60 62 62 83 63 50 64 34 65 35 66 43 67
REMARK SMILES IDX 36 68 38 69 44 70 37 71 39 72 40 73 41 74 42 75 66 76 67 77
REMARK SMILES IDX 75 78 68 79 70 80 76 81 69 82 71 83 72 84 73 85 74 86 51 87
REMARK SMILES IDX 52 88 60 89 53 90 55 91 61 92 54 93 56 94 57 95 58 96 59 97
REMARK H PARENT 18 6 22 31 81 50 49 61
REMARK Flexibility Score: inf
ROOT
ATOM      1  C   UNL A   1      36.016  21.364  25.346  1.00  0.00     0.042 C 
ENDROOT
BRANCH   1   2
ATOM      2  C   UNL A   1      35.521  22.664  25.966  1.00  0.00     0.118 C 
BRANCH   2   3
ATOM      3  N   UNL A   1      34.575  22.400  27.037  1.00  0.00    -0.352 N 
ATOM      4  C   UNL A   1      33.284  22.716  27.281  1.00  0.00     0.251 C 
ATOM      5  O   UNL A   1      32.799  22.273  28.326  1.00  0.00    -0.270 OA
ATOM      6  H   UNL A   1      34.970  21.860  27.759  1.00  0.00     0.163 HD
BRANCH   4   7
ATOM      7  C   UNL A   1      32.437  23.507  26.351  1.00  0.00     0.067 C 
ATOM      8  C   UNL A   1      30.627  27.457  23.761  1.00  0.00     0.059 A 
ATOM      9  C   UNL A   1      30.545  26.061  23.630  1.00  0.00     0.074 A 
ATOM     10  C   UNL A   1      31.249  27.964  24.921  1.00  0.00     0.065 A 
ATOM     11  C   UNL A   1      31.120  25.207  24.572  1.00  0.00     0.130 A 
ATOM     12  C   UNL A   1      31.875  27.110  25.833  1.00  0.00     0.034 A 
ATOM     13  Cl  UNL A   1      31.262  29.654  25.297  1.00  0.00    -0.082 Cl
ATOM     14  C   UNL A   1      31.828  25.728  25.647  1.00  0.00     0.019 A 
ATOM     15  O   UNL A   1      30.942  23.875  24.361  1.00  0.00    -0.475 OA
ATOM     16  C   UNL A   1      32.529  24.833  26.547  1.00  0.00     0.025 C 
ATOM     17  C   UNL A   1      31.620  22.919  25.227  1.00  0.00     0.314 C 
BRANCH   8  18
ATOM     18  N   UNL A   1      30.142  28.295  22.742  1.00  0.00    -0.373 N 
ATOM     19  C   UNL A   1      31.133  29.207  22.172  1.00  0.00     0.143 C 
BRANCH  18  20
ATOM     20  C   UNL A   1      28.793  28.865  22.968  1.00  0.00     0.119 C 
BRANCH  20  21
ATOM     21  C   UNL A   1      28.703  30.357  22.583  1.00  0.00     0.002 C 
ATOM     22  C   UNL A   1      28.087  30.561  21.195  1.00  0.00     0.009 C 
ATOM     23  C   UNL A   1      27.875  31.141  23.605  1.00  0.00     0.009 C 
ENDBRANCH  20  21
ENDBRANCH  18  20
ENDBRANCH   8  18
BRANCH  17  24
ATOM     24  C   UNL A   1      32.359  21.922  24.316  1.00  0.00     0.429 C 
ATOM     25  F   UNL A   1      32.684  20.767  24.937  1.00  0.00    -0.167 F 
ATOM     26  F   UNL A   1      31.568  21.595  23.260  1.00  0.00    -0.167 F 
ATOM     27  F   UNL A   1      33.504  22.433  23.808  1.00  0.00    -0.167 F 
ENDBRANCH  17  24
ENDBRANCH   4   7
ENDBRANCH   2   3
ENDBRANCH   1   2
BRANCH   1  28
ATOM     28  C   UNL A   1      37.451  21.460  24.837  1.00  0.00     0.118 C 
BRANCH  28  29
ATOM     29  N   UNL A   1      38.299  20.411  25.387  1.00  0.00    -0.352 N 
ATOM     30  C   UNL A   1      39.471  20.519  26.101  1.00  0.00     0.251 C 
ATOM     31  H   UNL A   1      37.989  19.491  25.224  1.00  0.00     0.163 HD
ATOM     32  O   UNL A   1      40.165  19.522  26.284  1.00  0.00    -0.269 OA
BRANCH  30  33
ATOM     33  C   UNL A   1      39.903  21.839  26.612  1.00  0.00     0.039 A 
ATOM     34  C   UNL A   1      39.316  23.009  26.130  1.00  0.00     0.014 A 
ATOM     35  C   UNL A   1      40.925  21.911  27.563  1.00  0.00     0.014 A 
ATOM     36  C   UNL A   1      39.882  24.240  26.436  1.00  0.00     0.010 A 
ATOM     37  C   UNL A   1      41.423  23.159  27.951  1.00  0.00     0.010 A 
ATOM     38  C   UNL A   1      40.947  24.333  27.346  1.00  0.00    -0.014 A 
BRANCH  38  39
ATOM     39  C   UNL A   1      41.542  25.664  27.644  1.00  0.00     0.031 A 
ATOM     40  C   UNL A   1      40.765  26.707  28.406  1.00  0.00     0.074 A 
ATOM     41  C   UNL A   1      42.811  25.918  27.267  1.00  0.00     0.049 A 
ATOM     42  N   UNL A   1      41.129  27.921  28.738  1.00  0.00    -0.248 NA
ATOM     43  C   UNL A   1      39.406  26.352  28.850  1.00  0.00     0.031 C 
ATOM     44  C   UNL A   1      43.669  24.995  26.520  1.00  0.00     0.029 A 
ATOM     45  N   UNL A   1      43.606  27.018  27.470  1.00  0.00    -0.354 N 
ATOM     46  C   UNL A   1      40.035  28.486  29.384  1.00  0.00     0.074 A 
ATOM     47  C   UNL A   1      38.990  27.486  29.399  1.00  0.00     0.031 C 
ATOM     48  C   UNL A   1      44.883  25.544  26.372  1.00  0.00     0.029 A 
ATOM     49  C   UNL A   1      44.874  26.881  26.953  1.00  0.00     0.049 A 
ATOM     50  H   UNL A   1      43.300  27.826  27.940  1.00  0.00     0.167 HD
ATOM     51  C   UNL A   1      39.918  29.718  29.933  1.00  0.00     0.034 A 
ATOM     52  C   UNL A   1      45.912  27.739  26.931  1.00  0.00     0.034 A 
ATOM     53  C   UNL A   1      40.976  30.690  29.977  1.00  0.00     0.049 A 
ATOM     54  C   UNL A   1      45.757  29.095  27.551  1.00  0.00     0.074 A 
ATOM     55  C   UNL A   1      40.958  31.951  30.548  1.00  0.00     0.029 A 
ATOM     56  N   UNL A   1      42.242  30.509  29.444  1.00  0.00    -0.354 N 
ATOM     57  N   UNL A   1      44.729  29.589  28.196  1.00  0.00    -0.248 NA
ATOM     58  C   UNL A   1      46.903  30.009  27.448  1.00  0.00     0.031 C 
ATOM     59  C   UNL A   1      42.214  32.534  30.357  1.00  0.00     0.029 A 
ATOM     60  C   UNL A   1      43.014  31.634  29.673  1.00  0.00     0.049 A 
ATOM     61  H   UNL A   1      42.547  29.701  28.972  1.00  0.00     0.167 HD
ATOM     62  C   UNL A   1      45.105  30.868  28.585  1.00  0.00     0.074 A 
ATOM     63  C   UNL A   1      46.465  31.065  28.123  1.00  0.00     0.031 C 
ATOM     64  C   UNL A   1      44.379  31.801  29.247  1.00  0.00     0.034 A 
BRANCH  51  65
ATOM     65  C   UNL A   1      38.613  30.085  30.583  1.00  0.00     0.023 A 
ATOM     66  C   UNL A   1      38.400  29.751  31.936  1.00  0.00     0.012 A 
ATOM     67  C   UNL A   1      37.650  30.852  29.897  1.00  0.00     0.148 A 
ATOM     68  C   UNL A   1      37.244  30.169  32.594  1.00  0.00     0.002 A 
ATOM     69  C   UNL A   1      36.514  31.288  30.568  1.00  0.00     0.091 A 
ATOM     70  F   UNL A   1      37.871  31.146  28.607  1.00  0.00    -0.205 F 
ATOM     71  C   UNL A   1      36.307  30.944  31.915  1.00  0.00     0.022 A 
BRANCH  69  72
ATOM     72  S   UNL A   1      35.271  32.336  29.803  1.00  0.00     0.127 S 
ATOM     73  O   UNL A   1      36.077  33.476  29.365  1.00  0.00    -0.237 OA
ATOM     74  O   UNL A   1      34.779  31.486  28.719  1.00  0.00    -0.237 OA
ATOM     75  O   UNL A   1      34.295  32.632  30.842  1.00  0.00    -0.744 OA
ENDBRANCH  69  72
ENDBRANCH  51  65
BRANCH  52  76
ATOM     76  C   UNL A   1      47.199  27.305  26.323  1.00  0.00     0.023 A 
ATOM     77  C   UNL A   1      47.508  27.705  25.010  1.00  0.00     0.012 A 
ATOM     78  C   UNL A   1      48.147  26.579  27.068  1.00  0.00     0.148 A 
ATOM     79  C   UNL A   1      48.744  27.385  24.447  1.00  0.00     0.002 A 
ATOM     80  C   UNL A   1      49.393  26.304  26.518  1.00  0.00     0.091 A 
ATOM     81  F   UNL A   1      47.823  26.207  28.314  1.00  0.00    -0.205 F 
ATOM     82  C   UNL A   1      49.689  26.697  25.203  1.00  0.00     0.022 A 
BRANCH  80  83
ATOM     83  S   UNL A   1      50.716  25.530  27.454  1.00  0.00     0.127 S 
ATOM     84  O   UNL A   1      50.133  24.229  27.774  1.00  0.00    -0.237 OA
ATOM     85  O   UNL A   1      51.797  25.496  26.470  1.00  0.00    -0.237 OA
ATOM     86  O   UNL A   1      50.960  26.405  28.593  1.00  0.00    -0.744 OA
ENDBRANCH  80  83
ENDBRANCH  52  76
BRANCH  64  87
ATOM     87  C   UNL A   1      45.028  33.126  29.524  1.00  0.00     0.023 A 
ATOM     88  C   UNL A   1      45.801  33.283  30.690  1.00  0.00     0.012 A 
ATOM     89  C   UNL A   1      44.966  34.170  28.581  1.00  0.00     0.148 A 
ATOM     90  C   UNL A   1      46.498  34.467  30.921  1.00  0.00     0.002 A 
ATOM     91  C   UNL A   1      45.691  35.336  28.802  1.00  0.00     0.091 A 
ATOM     92  F   UNL A   1      44.214  33.997  27.485  1.00  0.00    -0.205 F 
ATOM     93  C   UNL A   1      46.452  35.487  29.972  1.00  0.00     0.022 A 
BRANCH  91  94
ATOM     94  S   UNL A   1      45.755  36.675  27.607  1.00  0.00     0.127 S 
ATOM     95  O   UNL A   1      46.614  37.642  28.290  1.00  0.00    -0.237 OA
ATOM     96  O   UNL A   1      46.366  36.026  26.447  1.00  0.00    -0.237 OA
ATOM     97  O   UNL A   1      44.377  37.105  27.406  1.00  0.00    -0.744 OA
ENDBRANCH  91  94
ENDBRANCH  64  87
ENDBRANCH  38  39
ENDBRANCH  30  33
ENDBRANCH  28  29
ENDBRANCH   1  28
TORSDOF 17
ENDMDL
