MODEL 1
REMARK VINA RESULT:     -12.2      0.000      0.000
REMARK SMILES Nc1c(CC(=O)NCCCNC(=O)c2ccc(-c3c4nc(c(-c5cccc(S(=O)(=O)[O-])c5F)c5ccc([nH]5)c(-c5cccc(S(=O)(=O)[O-])c5F)c5nc(c(-c6cccc(S(=O)(=O)[O-])c6F)c6ccc3[nH]6)C=C5)C=C4)cc2)cccc1C(=O)c1ccc(Br)cc1
REMARK SMILES IDX 9 1 8 2 7 3 5 4 6 5 4 7 3 8 2 9 80 10 77 11 79 12 78 13 1 14
REMARK SMILES IDX 81 17 82 18 83 19 84 20 89 21 85 22 88 23 86 24 87 25 10 26
REMARK SMILES IDX 11 27 12 28 13 30 14 31 15 32 76 33 16 34 75 35 17 36 18 37
REMARK SMILES IDX 19 38 69 39 20 40 74 41 68 42 70 43 21 44 73 45 67 46 66 47
REMARK SMILES IDX 22 49 54 50 34 51 53 52 35 53 38 54 52 55 71 56 36 57 37 58
REMARK SMILES IDX 51 60 72 61 39 62 23 63 24 64 32 65 25 66 27 67 33 68 26 69
REMARK SMILES IDX 28 70 29 71 30 72 31 73 55 74 56 75 64 76 57 77 59 78 65 79
REMARK SMILES IDX 58 80 60 81 61 82 62 83 63 84 40 85 41 86 49 87 42 88 44 89
REMARK SMILES IDX 50 90 43 91 45 92 46 93 47 94 48 95
REMARK H PARENT 7 6 1 15 1 16 11 29 70 48 38 59
REMARK Flexibility Score: inf
ROOT
ATOM      1  C   UNL A   1      33.234  27.999  25.121  1.00  0.00     0.042 C 
ENDROOT
BRANCH   1   2
ATOM      2  C   UNL A   1      32.992  29.162  24.163  1.00  0.00     0.117 C 
BRANCH   2   3
ATOM      3  N   UNL A   1      31.651  29.702  24.274  1.00  0.00    -0.356 N 
ATOM      4  C   UNL A   1      30.559  29.460  23.492  1.00  0.00     0.224 C 
ATOM      5  O   UNL A   1      29.509  30.050  23.758  1.00  0.00    -0.275 OA
ATOM      6  H   UNL A   1      31.508  30.332  25.017  1.00  0.00     0.163 HD
BRANCH   4   7
ATOM      7  C   UNL A   1      30.618  28.430  22.376  1.00  0.00     0.137 C 
BRANCH   7   8
ATOM      8  C   UNL A   1      30.788  26.995  22.842  1.00  0.00    -0.015 A 
ATOM      9  C   UNL A   1      31.799  26.132  22.336  1.00  0.00     0.046 A 
ATOM     10  C   UNL A   1      31.842  24.786  22.789  1.00  0.00     0.046 A 
ATOM     11  C   UNL A   1      29.863  26.515  23.789  1.00  0.00     0.006 A 
ATOM     12  C   UNL A   1      30.882  24.341  23.720  1.00  0.00     0.014 A 
ATOM     13  C   UNL A   1      29.905  25.197  24.218  1.00  0.00     0.001 A 
BRANCH   9  14
ATOM     14  N   UNL A   1      32.682  26.631  21.383  1.00  0.00    -0.398 N 
ATOM     15  H   UNL A   1      33.611  26.838  21.633  1.00  0.00     0.156 HD
ATOM     16  H   UNL A   1      32.376  26.775  20.459  1.00  0.00     0.156 HD
ENDBRANCH   9  14
BRANCH  10  17
ATOM     17  C   UNL A   1      32.825  23.733  22.356  1.00  0.00     0.195 C 
ATOM     18  O   UNL A   1      33.654  23.969  21.481  1.00  0.00    -0.289 OA
BRANCH  17  19
ATOM     19  C   UNL A   1      32.895  22.391  22.953  1.00  0.00     0.023 A 
ATOM     20  C   UNL A   1      33.719  22.206  24.069  1.00  0.00     0.013 A 
ATOM     21  C   UNL A   1      32.144  21.331  22.438  1.00  0.00     0.013 A 
ATOM     22  C   UNL A   1      33.735  20.972  24.720  1.00  0.00     0.016 A 
ATOM     23  C   UNL A   1      32.153  20.100  23.097  1.00  0.00     0.016 A 
ATOM     24  C   UNL A   1      32.937  19.931  24.241  1.00  0.00     0.018 A 
ATOM     25  Br  UNL A   1      32.904  18.280  25.160  1.00  0.00    -0.051 Br
ENDBRANCH  17  19
ENDBRANCH  10  17
ENDBRANCH   7   8
ENDBRANCH   4   7
ENDBRANCH   2   3
ENDBRANCH   1   2
BRANCH   1  26
ATOM     26  C   UNL A   1      33.948  28.405  26.407  1.00  0.00     0.118 C 
BRANCH  26  27
ATOM     27  N   UNL A   1      33.802  29.826  26.698  1.00  0.00    -0.352 N 
ATOM     28  C   UNL A   1      34.557  30.655  27.485  1.00  0.00     0.251 C 
ATOM     29  H   UNL A   1      33.036  30.260  26.257  1.00  0.00     0.163 HD
ATOM     30  O   UNL A   1      34.130  31.780  27.745  1.00  0.00    -0.269 OA
BRANCH  28  31
ATOM     31  C   UNL A   1      35.861  30.217  28.026  1.00  0.00     0.039 A 
ATOM     32  C   UNL A   1      35.907  29.702  29.325  1.00  0.00     0.014 A 
ATOM     33  C   UNL A   1      37.040  30.349  27.288  1.00  0.00     0.014 A 
ATOM     34  C   UNL A   1      37.122  29.272  29.861  1.00  0.00     0.010 A 
ATOM     35  C   UNL A   1      38.238  29.849  27.794  1.00  0.00     0.010 A 
ATOM     36  C   UNL A   1      38.294  29.314  29.088  1.00  0.00    -0.014 A 
BRANCH  36  37
ATOM     37  C   UNL A   1      39.570  28.764  29.612  1.00  0.00     0.031 A 
ATOM     38  C   UNL A   1      40.296  29.434  30.746  1.00  0.00     0.074 A 
ATOM     39  C   UNL A   1      40.123  27.698  29.003  1.00  0.00     0.049 A 
ATOM     40  N   UNL A   1      41.423  29.096  31.317  1.00  0.00    -0.248 NA
ATOM     41  C   UNL A   1      39.693  30.663  31.288  1.00  0.00     0.031 C 
ATOM     42  C   UNL A   1      39.575  27.023  27.825  1.00  0.00     0.029 A 
ATOM     43  N   UNL A   1      41.284  27.015  29.267  1.00  0.00    -0.354 N 
ATOM     44  C   UNL A   1      41.685  30.084  32.259  1.00  0.00     0.074 A 
ATOM     45  C   UNL A   1      40.615  31.054  32.156  1.00  0.00     0.031 C 
ATOM     46  C   UNL A   1      40.397  26.026  27.467  1.00  0.00     0.029 A 
ATOM     47  C   UNL A   1      41.542  26.006  28.371  1.00  0.00     0.049 A 
ATOM     48  H   UNL A   1      41.874  27.228  30.026  1.00  0.00     0.167 HD
ATOM     49  C   UNL A   1      42.707  30.165  33.145  1.00  0.00     0.034 A 
ATOM     50  C   UNL A   1      42.590  25.164  28.277  1.00  0.00     0.034 A 
ATOM     51  C   UNL A   1      43.752  29.182  33.262  1.00  0.00     0.049 A 
ATOM     52  C   UNL A   1      43.680  25.229  29.307  1.00  0.00     0.074 A 
ATOM     53  C   UNL A   1      44.766  29.110  34.201  1.00  0.00     0.029 A 
ATOM     54  N   UNL A   1      43.934  28.113  32.398  1.00  0.00    -0.354 N 
ATOM     55  N   UNL A   1      43.809  26.056  30.317  1.00  0.00    -0.248 NA
ATOM     56  C   UNL A   1      44.746  24.223  29.212  1.00  0.00     0.031 C 
ATOM     57  C   UNL A   1      45.581  28.016  33.884  1.00  0.00     0.029 A 
ATOM     58  C   UNL A   1      45.055  27.386  32.766  1.00  0.00     0.049 A 
ATOM     59  H   UNL A   1      43.351  27.900  31.633  1.00  0.00     0.167 HD
ATOM     60  C   UNL A   1      44.960  25.660  30.989  1.00  0.00     0.074 A 
ATOM     61  C   UNL A   1      45.471  24.500  30.288  1.00  0.00     0.031 C 
ATOM     62  C   UNL A   1      45.545  26.217  32.078  1.00  0.00     0.034 A 
BRANCH  49  63
ATOM     63  C   UNL A   1      42.716  31.344  34.087  1.00  0.00     0.023 A 
ATOM     64  C   UNL A   1      43.405  32.520  33.728  1.00  0.00     0.012 A 
ATOM     65  C   UNL A   1      42.027  31.298  35.315  1.00  0.00     0.148 A 
ATOM     66  C   UNL A   1      43.454  33.612  34.595  1.00  0.00     0.002 A 
ATOM     67  C   UNL A   1      42.039  32.408  36.153  1.00  0.00     0.091 A 
ATOM     68  F   UNL A   1      41.394  30.166  35.655  1.00  0.00    -0.205 F 
ATOM     69  C   UNL A   1      42.764  33.558  35.803  1.00  0.00     0.022 A 
BRANCH  67  70
ATOM     70  S   UNL A   1      41.112  32.464  37.691  1.00  0.00     0.127 S 
ATOM     71  O   UNL A   1      41.903  31.579  38.544  1.00  0.00    -0.237 OA
ATOM     72  O   UNL A   1      41.189  33.882  38.048  1.00  0.00    -0.237 OA
ATOM     73  O   UNL A   1      39.772  31.997  37.365  1.00  0.00    -0.744 OA
ENDBRANCH  67  70
ENDBRANCH  49  63
BRANCH  50  74
ATOM     74  C   UNL A   1      42.609  24.151  27.187  1.00  0.00     0.023 A 
ATOM     75  C   UNL A   1      43.339  24.406  26.011  1.00  0.00     0.012 A 
ATOM     76  C   UNL A   1      41.974  22.904  27.349  1.00  0.00     0.148 A 
ATOM     77  C   UNL A   1      43.424  23.441  25.006  1.00  0.00     0.002 A 
ATOM     78  C   UNL A   1      42.110  21.928  26.371  1.00  0.00     0.091 A 
ATOM     79  F   UNL A   1      41.282  22.689  28.476  1.00  0.00    -0.205 F 
ATOM     80  C   UNL A   1      42.821  22.199  25.191  1.00  0.00     0.022 A 
BRANCH  78  81
ATOM     81  S   UNL A   1      41.489  20.257  26.584  1.00  0.00     0.127 S 
ATOM     82  O   UNL A   1      40.042  20.477  26.606  1.00  0.00    -0.237 OA
ATOM     83  O   UNL A   1      41.991  19.600  25.376  1.00  0.00    -0.237 OA
ATOM     84  O   UNL A   1      42.070  19.774  27.824  1.00  0.00    -0.744 OA
ENDBRANCH  78  81
ENDBRANCH  50  74
BRANCH  62  85
ATOM     85  C   UNL A   1      46.809  25.575  32.591  1.00  0.00     0.023 A 
ATOM     86  C   UNL A   1      48.060  26.002  32.100  1.00  0.00     0.012 A 
ATOM     87  C   UNL A   1      46.763  24.587  33.595  1.00  0.00     0.148 A 
ATOM     88  C   UNL A   1      49.241  25.429  32.573  1.00  0.00     0.002 A 
ATOM     89  C   UNL A   1      47.945  24.057  34.097  1.00  0.00     0.091 A 
ATOM     90  F   UNL A   1      45.564  24.179  34.036  1.00  0.00    -0.205 F 
ATOM     91  C   UNL A   1      49.185  24.466  33.577  1.00  0.00     0.022 A 
BRANCH  89  92
ATOM     92  S   UNL A   1      47.973  22.884  35.457  1.00  0.00     0.127 S 
ATOM     93  O   UNL A   1      49.407  22.673  35.641  1.00  0.00    -0.237 OA
ATOM     94  O   UNL A   1      47.324  23.636  36.531  1.00  0.00    -0.237 OA
ATOM     95  O   UNL A   1      47.223  21.722  34.998  1.00  0.00    -0.744 OA
ENDBRANCH  89  92
ENDBRANCH  62  85
ENDBRANCH  36  37
ENDBRANCH  28  31
ENDBRANCH  26  27
ENDBRANCH   1  26
TORSDOF 17
ENDMDL
MODEL 2
REMARK VINA RESULT:     -12.1      4.908      9.833
REMARK SMILES Nc1c(CC(=O)NCCCNC(=O)c2ccc(-c3c4nc(c(-c5cccc(S(=O)(=O)[O-])c5F)c5ccc([nH]5)c(-c5cccc(S(=O)(=O)[O-])c5F)c5nc(c(-c6cccc(S(=O)(=O)[O-])c6F)c6ccc3[nH]6)C=C5)C=C4)cc2)cccc1C(=O)c1ccc(Br)cc1
REMARK SMILES IDX 9 1 8 2 7 3 5 4 6 5 4 7 3 8 2 9 80 10 77 11 79 12 78 13 1 14
REMARK SMILES IDX 81 17 82 18 83 19 84 20 89 21 85 22 88 23 86 24 87 25 10 26
REMARK SMILES IDX 11 27 12 28 13 30 14 31 15 32 76 33 16 34 75 35 17 36 18 37
REMARK SMILES IDX 19 38 69 39 20 40 74 41 68 42 70 43 21 44 73 45 67 46 66 47
REMARK SMILES IDX 22 49 54 50 34 51 53 52 35 53 38 54 52 55 71 56 36 57 37 58
REMARK SMILES IDX 51 60 72 61 39 62 23 63 24 64 32 65 25 66 27 67 33 68 26 69
REMARK SMILES IDX 28 70 29 71 30 72 31 73 55 74 56 75 64 76 57 77 59 78 65 79
REMARK SMILES IDX 58 80 60 81 61 82 62 83 63 84 40 85 41 86 49 87 42 88 44 89
REMARK SMILES IDX 50 90 43 91 45 92 46 93 47 94 48 95
REMARK H PARENT 7 6 1 15 1 16 11 29 70 48 38 59
REMARK Flexibility Score: inf
ROOT
ATOM      1  C   UNL A   1      35.501  22.778  25.543  1.00  0.00     0.042 C 
ENDROOT
BRANCH   1   2
ATOM      2  C   UNL A   1      35.223  21.470  26.279  1.00  0.00     0.117 C 
BRANCH   2   3
ATOM      3  N   UNL A   1      35.014  20.357  25.373  1.00  0.00    -0.356 N 
ATOM      4  C   UNL A   1      33.850  19.737  25.026  1.00  0.00     0.224 C 
ATOM      5  O   UNL A   1      33.906  18.786  24.242  1.00  0.00    -0.275 OA
ATOM      6  H   UNL A   1      35.828  19.999  24.949  1.00  0.00     0.163 HD
BRANCH   4   7
ATOM      7  C   UNL A   1      32.514  20.259  25.529  1.00  0.00     0.137 C 
BRANCH   7   8
ATOM      8  C   UNL A   1      32.099  21.604  24.959  1.00  0.00    -0.015 A 
ATOM      9  C   UNL A   1      31.747  22.715  25.775  1.00  0.00     0.046 A 
ATOM     10  C   UNL A   1      31.314  23.914  25.150  1.00  0.00     0.046 A 
ATOM     11  C   UNL A   1      32.034  21.712  23.557  1.00  0.00     0.006 A 
ATOM     12  C   UNL A   1      31.241  23.972  23.744  1.00  0.00     0.014 A 
ATOM     13  C   UNL A   1      31.600  22.884  22.954  1.00  0.00     0.001 A 
BRANCH   9  14
ATOM     14  N   UNL A   1      31.800  22.566  27.157  1.00  0.00    -0.398 N 
ATOM     15  H   UNL A   1      31.755  23.358  27.740  1.00  0.00     0.156 HD
ATOM     16  H   UNL A   1      31.881  21.667  27.551  1.00  0.00     0.156 HD
ENDBRANCH   9  14
BRANCH  10  17
ATOM     17  C   UNL A   1      30.891  25.177  25.848  1.00  0.00     0.195 C 
ATOM     18  O   UNL A   1      29.735  25.323  26.237  1.00  0.00    -0.289 OA
BRANCH  17  19
ATOM     19  C   UNL A   1      31.806  26.290  26.143  1.00  0.00     0.023 A 
ATOM     20  C   UNL A   1      31.394  27.258  27.066  1.00  0.00     0.013 A 
ATOM     21  C   UNL A   1      33.063  26.371  25.539  1.00  0.00     0.013 A 
ATOM     22  C   UNL A   1      32.275  28.272  27.444  1.00  0.00     0.016 A 
ATOM     23  C   UNL A   1      33.947  27.380  25.927  1.00  0.00     0.016 A 
ATOM     24  C   UNL A   1      33.553  28.317  26.886  1.00  0.00     0.018 A 
ATOM     25  Br  UNL A   1      34.772  29.649  27.445  1.00  0.00    -0.051 Br
ENDBRANCH  17  19
ENDBRANCH  10  17
ENDBRANCH   7   8
ENDBRANCH   4   7
ENDBRANCH   2   3
ENDBRANCH   1   2
BRANCH   1  26
ATOM     26  C   UNL A   1      36.823  23.431  25.936  1.00  0.00     0.118 C 
BRANCH  26  27
ATOM     27  N   UNL A   1      37.914  22.467  26.018  1.00  0.00    -0.352 N 
ATOM     28  C   UNL A   1      39.244  22.651  26.289  1.00  0.00     0.251 C 
ATOM     29  H   UNL A   1      37.653  21.534  25.849  1.00  0.00     0.163 HD
ATOM     30  O   UNL A   1      40.023  21.716  26.108  1.00  0.00    -0.269 OA
BRANCH  28  31
ATOM     31  C   UNL A   1      39.751  23.948  26.787  1.00  0.00     0.039 A 
ATOM     32  C   UNL A   1      40.230  24.878  25.860  1.00  0.00     0.014 A 
ATOM     33  C   UNL A   1      39.800  24.238  28.153  1.00  0.00     0.014 A 
ATOM     34  C   UNL A   1      40.706  26.115  26.297  1.00  0.00     0.010 A 
ATOM     35  C   UNL A   1      40.203  25.501  28.583  1.00  0.00     0.010 A 
ATOM     36  C   UNL A   1      40.669  26.450  27.661  1.00  0.00    -0.014 A 
BRANCH  36  37
ATOM     37  C   UNL A   1      41.077  27.800  28.124  1.00  0.00     0.031 A 
ATOM     38  C   UNL A   1      42.527  28.195  28.180  1.00  0.00     0.074 A 
ATOM     39  C   UNL A   1      40.136  28.648  28.581  1.00  0.00     0.049 A 
ATOM     40  N   UNL A   1      43.058  29.326  28.568  1.00  0.00    -0.248 NA
ATOM     41  C   UNL A   1      43.511  27.178  27.776  1.00  0.00     0.031 C 
ATOM     42  C   UNL A   1      38.707  28.345  28.683  1.00  0.00     0.029 A 
ATOM     43  N   UNL A   1      40.241  29.924  29.076  1.00  0.00    -0.354 N 
ATOM     44  C   UNL A   1      44.434  29.147  28.492  1.00  0.00     0.074 A 
ATOM     45  C   UNL A   1      44.655  27.785  28.053  1.00  0.00     0.031 C 
ATOM     46  C   UNL A   1      38.070  29.401  29.208  1.00  0.00     0.029 A 
ATOM     47  C   UNL A   1      39.045  30.446  29.504  1.00  0.00     0.049 A 
ATOM     48  H   UNL A   1      41.092  30.416  29.119  1.00  0.00     0.167 HD
ATOM     49  C   UNL A   1      45.423  30.040  28.737  1.00  0.00     0.034 A 
ATOM     50  C   UNL A   1      38.761  31.629  30.083  1.00  0.00     0.034 A 
ATOM     51  C   UNL A   1      45.196  31.402  29.146  1.00  0.00     0.049 A 
ATOM     52  C   UNL A   1      39.863  32.629  30.289  1.00  0.00     0.074 A 
ATOM     53  C   UNL A   1      46.122  32.417  29.309  1.00  0.00     0.029 A 
ATOM     54  N   UNL A   1      43.960  31.932  29.480  1.00  0.00    -0.354 N 
ATOM     55  N   UNL A   1      41.141  32.510  30.024  1.00  0.00    -0.248 NA
ATOM     56  C   UNL A   1      39.478  33.938  30.833  1.00  0.00     0.031 C 
ATOM     57  C   UNL A   1      45.448  33.554  29.774  1.00  0.00     0.029 A 
ATOM     58  C   UNL A   1      44.098  33.255  29.870  1.00  0.00     0.049 A 
ATOM     59  H   UNL A   1      43.108  31.441  29.446  1.00  0.00     0.167 HD
ATOM     60  C   UNL A   1      41.713  33.734  30.352  1.00  0.00     0.074 A 
ATOM     61  C   UNL A   1      40.634  34.589  30.805  1.00  0.00     0.031 C 
ATOM     62  C   UNL A   1      43.016  34.108  30.296  1.00  0.00     0.034 A 
BRANCH  49  63
ATOM     63  C   UNL A   1      46.844  29.576  28.530  1.00  0.00     0.023 A 
ATOM     64  C   UNL A   1      47.463  29.756  27.276  1.00  0.00     0.012 A 
ATOM     65  C   UNL A   1      47.575  28.982  29.579  1.00  0.00     0.148 A 
ATOM     66  C   UNL A   1      48.765  29.308  27.052  1.00  0.00     0.002 A 
ATOM     67  C   UNL A   1      48.889  28.582  29.362  1.00  0.00     0.091 A 
ATOM     68  F   UNL A   1      46.968  28.796  30.759  1.00  0.00    -0.205 F 
ATOM     69  C   UNL A   1      49.479  28.729  28.096  1.00  0.00     0.022 A 
BRANCH  67  70
ATOM     70  S   UNL A   1      49.917  27.902  30.669  1.00  0.00     0.127 S 
ATOM     71  O   UNL A   1      50.007  29.032  31.592  1.00  0.00    -0.237 OA
ATOM     72  O   UNL A   1      49.103  26.785  31.152  1.00  0.00    -0.237 OA
ATOM     73  O   UNL A   1      51.163  27.508  30.029  1.00  0.00    -0.744 OA
ENDBRANCH  67  70
ENDBRANCH  49  63
BRANCH  50  74
ATOM     74  C   UNL A   1      37.352  31.937  30.450  1.00  0.00     0.023 A 
ATOM     75  C   UNL A   1      36.886  31.632  31.743  1.00  0.00     0.012 A 
ATOM     76  C   UNL A   1      36.501  32.605  29.548  1.00  0.00     0.148 A 
ATOM     77  C   UNL A   1      35.589  31.974  32.127  1.00  0.00     0.002 A 
ATOM     78  C   UNL A   1      35.231  32.992  29.956  1.00  0.00     0.091 A 
ATOM     79  F   UNL A   1      36.968  32.879  28.323  1.00  0.00    -0.205 F 
ATOM     80  C   UNL A   1      34.766  32.664  31.239  1.00  0.00     0.022 A 
BRANCH  78  81
ATOM     81  S   UNL A   1      34.159  34.006  28.933  1.00  0.00     0.127 S 
ATOM     82  O   UNL A   1      33.640  33.023  27.980  1.00  0.00    -0.237 OA
ATOM     83  O   UNL A   1      33.182  34.483  29.914  1.00  0.00    -0.237 OA
ATOM     84  O   UNL A   1      35.008  35.040  28.370  1.00  0.00    -0.744 OA
ENDBRANCH  78  81
ENDBRANCH  50  74
BRANCH  62  85
ATOM     85  C   UNL A   1      43.353  35.512  30.730  1.00  0.00     0.023 A 
ATOM     86  C   UNL A   1      43.700  35.766  32.073  1.00  0.00     0.012 A 
ATOM     87  C   UNL A   1      43.377  36.570  29.800  1.00  0.00     0.148 A 
ATOM     88  C   UNL A   1      44.029  37.056  32.490  1.00  0.00     0.002 A 
ATOM     89  C   UNL A   1      43.755  37.843  30.211  1.00  0.00     0.091 A 
ATOM     90  F   UNL A   1      43.024  36.315  28.531  1.00  0.00    -0.205 F 
ATOM     91  C   UNL A   1      44.067  38.091  31.559  1.00  0.00     0.022 A 
BRANCH  89  92
ATOM     92  S   UNL A   1      43.924  39.215  29.064  1.00  0.00     0.127 S 
ATOM     93  O   UNL A   1      44.316  40.304  29.957  1.00  0.00    -0.237 OA
ATOM     94  O   UNL A   1      44.985  38.746  28.172  1.00  0.00    -0.237 OA
ATOM     95  O   UNL A   1      42.623  39.366  28.426  1.00  0.00    -0.744 OA
ENDBRANCH  89  92
ENDBRANCH  62  85
ENDBRANCH  36  37
ENDBRANCH  28  31
ENDBRANCH  26  27
ENDBRANCH   1  26
TORSDOF 17
ENDMDL
MODEL 3
REMARK VINA RESULT:     -12.0      3.611      8.740
REMARK SMILES Nc1c(CC(=O)NCCCNC(=O)c2ccc(-c3c4nc(c(-c5cccc(S(=O)(=O)[O-])c5F)c5ccc([nH]5)c(-c5cccc(S(=O)(=O)[O-])c5F)c5nc(c(-c6cccc(S(=O)(=O)[O-])c6F)c6ccc3[nH]6)C=C5)C=C4)cc2)cccc1C(=O)c1ccc(Br)cc1
REMARK SMILES IDX 9 1 8 2 7 3 5 4 6 5 4 7 3 8 2 9 80 10 77 11 79 12 78 13 1 14
REMARK SMILES IDX 81 17 82 18 83 19 84 20 89 21 85 22 88 23 86 24 87 25 10 26
REMARK SMILES IDX 11 27 12 28 13 30 14 31 15 32 76 33 16 34 75 35 17 36 18 37
REMARK SMILES IDX 19 38 69 39 20 40 74 41 68 42 70 43 21 44 73 45 67 46 66 47
REMARK SMILES IDX 22 49 54 50 34 51 53 52 35 53 38 54 52 55 71 56 36 57 37 58
REMARK SMILES IDX 51 60 72 61 39 62 23 63 24 64 32 65 25 66 27 67 33 68 26 69
REMARK SMILES IDX 28 70 29 71 30 72 31 73 55 74 56 75 64 76 57 77 59 78 65 79
REMARK SMILES IDX 58 80 60 81 61 82 62 83 63 84 40 85 41 86 49 87 42 88 44 89
REMARK SMILES IDX 50 90 43 91 45 92 46 93 47 94 48 95
REMARK H PARENT 7 6 1 15 1 16 11 29 70 48 38 59
REMARK Flexibility Score: inf
ROOT
ATOM      1  C   UNL A   1      31.413  32.189  26.798  1.00  0.00     0.042 C 
ENDROOT
BRANCH   1   2
ATOM      2  C   UNL A   1      31.597  30.853  26.082  1.00  0.00     0.117 C 
BRANCH   2   3
ATOM      3  N   UNL A   1      31.822  29.756  27.003  1.00  0.00    -0.356 N 
ATOM      4  C   UNL A   1      31.654  28.417  26.804  1.00  0.00     0.224 C 
ATOM      5  O   UNL A   1      31.888  27.653  27.743  1.00  0.00    -0.275 OA
ATOM      6  H   UNL A   1      32.140  30.014  27.898  1.00  0.00     0.163 HD
BRANCH   4   7
ATOM      7  C   UNL A   1      31.266  27.880  25.436  1.00  0.00     0.137 C 
BRANCH   7   8
ATOM      8  C   UNL A   1      31.625  26.424  25.198  1.00  0.00    -0.015 A 
ATOM      9  C   UNL A   1      32.826  26.019  24.552  1.00  0.00     0.046 A 
ATOM     10  C   UNL A   1      33.046  24.635  24.320  1.00  0.00     0.046 A 
ATOM     11  C   UNL A   1      30.689  25.458  25.613  1.00  0.00     0.006 A 
ATOM     12  C   UNL A   1      32.072  23.703  24.731  1.00  0.00     0.014 A 
ATOM     13  C   UNL A   1      30.907  24.108  25.374  1.00  0.00     0.001 A 
BRANCH   9  14
ATOM     14  N   UNL A   1      33.718  27.001  24.132  1.00  0.00    -0.398 N 
ATOM     15  H   UNL A   1      34.687  26.832  24.165  1.00  0.00     0.156 HD
ATOM     16  H   UNL A   1      33.378  27.864  23.803  1.00  0.00     0.156 HD
ENDBRANCH   9  14
BRANCH  10  17
ATOM     17  C   UNL A   1      34.243  24.026  23.642  1.00  0.00     0.195 C 
ATOM     18  O   UNL A   1      34.295  23.939  22.418  1.00  0.00    -0.289 OA
BRANCH  17  19
ATOM     19  C   UNL A   1      35.427  23.538  24.366  1.00  0.00     0.023 A 
ATOM     20  C   UNL A   1      36.111  22.434  23.844  1.00  0.00     0.013 A 
ATOM     21  C   UNL A   1      35.873  24.167  25.531  1.00  0.00     0.013 A 
ATOM     22  C   UNL A   1      37.293  22.004  24.449  1.00  0.00     0.016 A 
ATOM     23  C   UNL A   1      37.061  23.742  26.128  1.00  0.00     0.016 A 
ATOM     24  C   UNL A   1      37.771  22.673  25.576  1.00  0.00     0.018 A 
ATOM     25  Br  UNL A   1      39.407  22.136  26.358  1.00  0.00    -0.051 Br
ENDBRANCH  17  19
ENDBRANCH  10  17
ENDBRANCH   7   8
ENDBRANCH   4   7
ENDBRANCH   2   3
ENDBRANCH   1   2
BRANCH   1  26
ATOM     26  C   UNL A   1      32.724  32.824  27.252  1.00  0.00     0.118 C 
BRANCH  26  27
ATOM     27  N   UNL A   1      32.546  34.200  27.702  1.00  0.00    -0.352 N 
ATOM     28  C   UNL A   1      33.150  34.887  28.722  1.00  0.00     0.251 C 
ATOM     29  H   UNL A   1      31.886  34.719  27.190  1.00  0.00     0.163 HD
ATOM     30  O   UNL A   1      32.699  35.984  29.049  1.00  0.00    -0.269 OA
BRANCH  28  31
ATOM     31  C   UNL A   1      34.321  34.329  29.432  1.00  0.00     0.039 A 
ATOM     32  C   UNL A   1      34.110  33.643  30.632  1.00  0.00     0.014 A 
ATOM     33  C   UNL A   1      35.621  34.511  28.953  1.00  0.00     0.014 A 
ATOM     34  C   UNL A   1      35.194  33.097  31.321  1.00  0.00     0.010 A 
ATOM     35  C   UNL A   1      36.693  33.900  29.601  1.00  0.00     0.010 A 
ATOM     36  C   UNL A   1      36.494  33.195  30.796  1.00  0.00    -0.014 A 
BRANCH  36  37
ATOM     37  C   UNL A   1      37.637  32.529  31.468  1.00  0.00     0.031 A 
ATOM     38  C   UNL A   1      38.344  31.366  30.826  1.00  0.00     0.074 A 
ATOM     39  C   UNL A   1      37.987  32.921  32.707  1.00  0.00     0.049 A 
ATOM     40  N   UNL A   1      39.350  30.663  31.278  1.00  0.00    -0.248 NA
ATOM     41  C   UNL A   1      37.834  30.915  29.522  1.00  0.00     0.031 C 
ATOM     42  C   UNL A   1      37.311  33.963  33.484  1.00  0.00     0.029 A 
ATOM     43  N   UNL A   1      38.975  32.469  33.547  1.00  0.00    -0.354 N 
ATOM     44  C   UNL A   1      39.572  29.666  30.336  1.00  0.00     0.074 A 
ATOM     45  C   UNL A   1      38.571  29.835  29.304  1.00  0.00     0.031 C 
ATOM     46  C   UNL A   1      37.901  34.069  34.683  1.00  0.00     0.029 A 
ATOM     47  C   UNL A   1      38.978  33.089  34.773  1.00  0.00     0.049 A 
ATOM     48  H   UNL A   1      39.619  31.769  33.294  1.00  0.00     0.167 HD
ATOM     49  C   UNL A   1      40.535  28.713  30.316  1.00  0.00     0.034 A 
ATOM     50  C   UNL A   1      39.753  32.885  35.857  1.00  0.00     0.034 A 
ATOM     51  C   UNL A   1      41.546  28.568  31.331  1.00  0.00     0.049 A 
ATOM     52  C   UNL A   1      40.855  31.868  35.791  1.00  0.00     0.074 A 
ATOM     53  C   UNL A   1      42.633  27.712  31.347  1.00  0.00     0.029 A 
ATOM     54  N   UNL A   1      41.581  29.279  32.521  1.00  0.00    -0.354 N 
ATOM     55  N   UNL A   1      41.174  31.063  34.806  1.00  0.00    -0.248 NA
ATOM     56  C   UNL A   1      41.729  31.758  36.967  1.00  0.00     0.031 C 
ATOM     57  C   UNL A   1      43.307  27.882  32.563  1.00  0.00     0.029 A 
ATOM     58  C   UNL A   1      42.657  28.867  33.291  1.00  0.00     0.049 A 
ATOM     59  H   UNL A   1      40.935  29.974  32.782  1.00  0.00     0.167 HD
ATOM     60  C   UNL A   1      42.297  30.364  35.234  1.00  0.00     0.074 A 
ATOM     61  C   UNL A   1      42.618  30.864  36.556  1.00  0.00     0.031 C 
ATOM     62  C   UNL A   1      42.987  29.387  34.596  1.00  0.00     0.034 A 
BRANCH  49  63
ATOM     63  C   UNL A   1      40.561  27.777  29.132  1.00  0.00     0.023 A 
ATOM     64  C   UNL A   1      39.658  26.695  29.077  1.00  0.00     0.012 A 
ATOM     65  C   UNL A   1      41.459  27.979  28.066  1.00  0.00     0.148 A 
ATOM     66  C   UNL A   1      39.683  25.799  28.008  1.00  0.00     0.002 A 
ATOM     67  C   UNL A   1      41.445  27.109  26.980  1.00  0.00     0.091 A 
ATOM     68  F   UNL A   1      42.327  28.997  28.140  1.00  0.00    -0.205 F 
ATOM     69  C   UNL A   1      40.571  26.011  26.958  1.00  0.00     0.022 A 
BRANCH  67  70
ATOM     70  S   UNL A   1      42.493  27.349  25.541  1.00  0.00     0.127 S 
ATOM     71  O   UNL A   1      41.956  28.591  24.988  1.00  0.00    -0.237 OA
ATOM     72  O   UNL A   1      43.822  27.476  26.144  1.00  0.00    -0.237 OA
ATOM     73  O   UNL A   1      42.316  26.162  24.718  1.00  0.00    -0.744 OA
ENDBRANCH  67  70
ENDBRANCH  49  63
BRANCH  50  74
ATOM     74  C   UNL A   1      39.531  33.716  37.072  1.00  0.00     0.023 A 
ATOM     75  C   UNL A   1      39.943  35.062  37.081  1.00  0.00     0.012 A 
ATOM     76  C   UNL A   1      38.841  33.197  38.184  1.00  0.00     0.148 A 
ATOM     77  C   UNL A   1      39.684  35.874  38.186  1.00  0.00     0.002 A 
ATOM     78  C   UNL A   1      38.538  34.026  39.256  1.00  0.00     0.091 A 
ATOM     79  F   UNL A   1      38.465  31.911  38.152  1.00  0.00    -0.205 F 
ATOM     80  C   UNL A   1      38.971  35.361  39.267  1.00  0.00     0.022 A 
BRANCH  78  81
ATOM     81  S   UNL A   1      37.504  33.492  40.624  1.00  0.00     0.127 S 
ATOM     82  O   UNL A   1      36.335  32.959  39.924  1.00  0.00    -0.237 OA
ATOM     83  O   UNL A   1      38.353  32.482  41.258  1.00  0.00    -0.237 OA
ATOM     84  O   UNL A   1      37.268  34.678  41.429  1.00  0.00    -0.744 OA
ENDBRANCH  78  81
ENDBRANCH  50  74
BRANCH  62  85
ATOM     85  C   UNL A   1      44.171  28.792  35.314  1.00  0.00     0.023 A 
ATOM     86  C   UNL A   1      45.458  29.327  35.103  1.00  0.00     0.012 A 
ATOM     87  C   UNL A   1      44.004  27.739  36.236  1.00  0.00     0.148 A 
ATOM     88  C   UNL A   1      46.565  28.799  35.770  1.00  0.00     0.002 A 
ATOM     89  C   UNL A   1      45.102  27.252  36.934  1.00  0.00     0.091 A 
ATOM     90  F   UNL A   1      42.776  27.229  36.409  1.00  0.00    -0.205 F 
ATOM     91  C   UNL A   1      46.386  27.770  36.692  1.00  0.00     0.022 A 
BRANCH  89  92
ATOM     92  S   UNL A   1      44.953  25.995  38.209  1.00  0.00     0.127 S 
ATOM     93  O   UNL A   1      46.318  25.932  38.728  1.00  0.00    -0.237 OA
ATOM     94  O   UNL A   1      43.980  26.594  39.123  1.00  0.00    -0.237 OA
ATOM     95  O   UNL A   1      44.483  24.793  37.533  1.00  0.00    -0.744 OA
ENDBRANCH  89  92
ENDBRANCH  62  85
ENDBRANCH  36  37
ENDBRANCH  28  31
ENDBRANCH  26  27
ENDBRANCH   1  26
TORSDOF 17
ENDMDL
