MODEL 1
REMARK VINA RESULT:     -11.6      0.000      0.000
REMARK SMILES C[C@@H](C(=O)NCCCNC(=O)c1ccc(-c2c3nc(c(-c4cccc(S(=O)(=O)[O-])c4F)c4ccc([nH]4)c(-c4cccc(S(=O)(=O)[O-])c4F)c4nc(c(-c5cccc(S(=O)(=O)[O-])c5F)c5ccc2[nH]5)C=C4)C=C3)cc1)c1ccn(C(F)F)c(=O)c1
REMARK SMILES IDX 7 1 6 2 5 3 3 4 4 5 2 7 1 8 75 9 76 10 84 11 77 12 82 13
REMARK SMILES IDX 78 14 83 15 79 16 80 17 81 18 8 19 9 20 10 21 11 23 12 24
REMARK SMILES IDX 13 25 74 26 14 27 73 28 15 29 16 30 17 31 67 32 18 33 72 34
REMARK SMILES IDX 66 35 68 36 19 37 71 38 65 39 64 40 20 42 52 43 32 44 51 45
REMARK SMILES IDX 33 46 36 47 50 48 69 49 34 50 35 51 49 53 70 54 37 55 21 56
REMARK SMILES IDX 22 57 30 58 23 59 25 60 31 61 24 62 26 63 27 64 28 65 29 66
REMARK SMILES IDX 53 67 54 68 62 69 55 70 57 71 63 72 56 73 58 74 59 75 60 76
REMARK SMILES IDX 61 77 38 78 39 79 47 80 40 81 42 82 48 83 41 84 43 85 44 86
REMARK SMILES IDX 45 87 46 88
REMARK H PARENT 5 6 9 22 68 41 36 52
REMARK Flexibility Score: inf
ROOT
ATOM      1  C   UNL A   1      32.978  29.357  25.009  1.00  0.00     0.042 C 
ENDROOT
BRANCH   1   2
ATOM      2  C   UNL A   1      33.445  27.900  24.969  1.00  0.00     0.117 C 
BRANCH   2   3
ATOM      3  N   UNL A   1      33.327  27.346  23.634  1.00  0.00    -0.356 N 
ATOM      4  C   UNL A   1      32.350  26.577  23.077  1.00  0.00     0.227 C 
ATOM      5  O   UNL A   1      32.675  25.954  22.066  1.00  0.00    -0.274 OA
ATOM      6  H   UNL A   1      34.075  27.562  23.031  1.00  0.00     0.163 HD
BRANCH   4   7
ATOM      7  C   UNL A   1      30.936  26.516  23.714  1.00  0.00     0.105 C 
ATOM      8  C   UNL A   1      30.380  25.100  23.501  1.00  0.00     0.023 C 
BRANCH   7   9
ATOM      9  C   UNL A   1      29.927  27.568  23.215  1.00  0.00    -0.029 A 
ATOM     10  C   UNL A   1      30.456  28.649  22.390  1.00  0.00     0.023 A 
ATOM     11  C   UNL A   1      28.608  27.598  23.493  1.00  0.00     0.076 A 
ATOM     12  C   UNL A   1      29.714  29.724  22.100  1.00  0.00     0.095 A 
ATOM     13  C   UNL A   1      27.749  28.762  23.130  1.00  0.00     0.255 A 
ATOM     14  N   UNL A   1      28.395  29.807  22.497  1.00  0.00    -0.258 N 
ATOM     15  O   UNL A   1      26.557  28.739  23.429  1.00  0.00    -0.269 OA
BRANCH  14  16
ATOM     16  C   UNL A   1      27.636  31.009  22.281  1.00  0.00     0.451 C 
ATOM     17  F   UNL A   1      27.891  31.939  23.235  1.00  0.00    -0.185 F 
ATOM     18  F   UNL A   1      27.925  31.556  21.074  1.00  0.00    -0.185 F 
ENDBRANCH  14  16
ENDBRANCH   7   9
ENDBRANCH   4   7
ENDBRANCH   2   3
ENDBRANCH   1   2
BRANCH   1  19
ATOM     19  C   UNL A   1      32.291  29.771  26.308  1.00  0.00     0.118 C 
BRANCH  19  20
ATOM     20  N   UNL A   1      32.252  31.214  26.488  1.00  0.00    -0.352 N 
ATOM     21  C   UNL A   1      33.065  32.025  27.241  1.00  0.00     0.251 C 
ATOM     22  H   UNL A   1      31.538  31.678  25.995  1.00  0.00     0.163 HD
ATOM     23  O   UNL A   1      32.749  33.201  27.412  1.00  0.00    -0.269 OA
BRANCH  21  24
ATOM     24  C   UNL A   1      34.299  31.491  27.859  1.00  0.00     0.039 A 
ATOM     25  C   UNL A   1      35.386  32.350  28.039  1.00  0.00     0.014 A 
ATOM     26  C   UNL A   1      34.397  30.150  28.241  1.00  0.00     0.014 A 
ATOM     27  C   UNL A   1      36.548  31.880  28.657  1.00  0.00     0.010 A 
ATOM     28  C   UNL A   1      35.526  29.704  28.927  1.00  0.00     0.010 A 
ATOM     29  C   UNL A   1      36.615  30.561  29.139  1.00  0.00    -0.014 A 
BRANCH  29  30
ATOM     30  C   UNL A   1      37.808  30.072  29.882  1.00  0.00     0.031 A 
ATOM     31  C   UNL A   1      38.101  30.574  31.271  1.00  0.00     0.074 A 
ATOM     32  C   UNL A   1      38.669  29.233  29.275  1.00  0.00     0.049 A 
ATOM     33  N   UNL A   1      39.117  30.301  32.047  1.00  0.00    -0.248 NA
ATOM     34  C   UNL A   1      37.139  31.524  31.854  1.00  0.00     0.031 C 
ATOM     35  C   UNL A   1      38.536  28.726  27.907  1.00  0.00     0.029 A 
ATOM     36  N   UNL A   1      39.844  28.676  29.720  1.00  0.00    -0.354 N 
ATOM     37  C   UNL A   1      38.936  31.066  33.195  1.00  0.00     0.074 A 
ATOM     38  C   UNL A   1      37.731  31.841  32.997  1.00  0.00     0.031 C 
ATOM     39  C   UNL A   1      39.580  27.931  27.628  1.00  0.00     0.029 A 
ATOM     40  C   UNL A   1      40.477  27.898  28.778  1.00  0.00     0.049 A 
ATOM     41  H   UNL A   1      40.198  28.819  30.628  1.00  0.00     0.167 HD
ATOM     42  C   UNL A   1      39.688  31.100  34.321  1.00  0.00     0.034 A 
ATOM     43  C   UNL A   1      41.654  27.243  28.828  1.00  0.00     0.034 A 
ATOM     44  C   UNL A   1      40.872  30.309  34.525  1.00  0.00     0.049 A 
ATOM     45  C   UNL A   1      42.463  27.286  30.096  1.00  0.00     0.074 A 
ATOM     46  C   UNL A   1      41.661  30.218  35.658  1.00  0.00     0.029 A 
ATOM     47  N   UNL A   1      41.447  29.481  33.572  1.00  0.00    -0.354 N 
ATOM     48  N   UNL A   1      42.198  27.902  31.223  1.00  0.00    -0.248 NA
ATOM     49  C   UNL A   1      43.714  26.515  30.111  1.00  0.00     0.031 C 
ATOM     50  C   UNL A   1      42.732  29.361  35.379  1.00  0.00     0.029 A 
ATOM     51  C   UNL A   1      42.586  28.886  34.086  1.00  0.00     0.049 A 
ATOM     52  H   UNL A   1      41.096  29.338  32.664  1.00  0.00     0.167 HD
ATOM     53  C   UNL A   1      43.229  27.563  32.092  1.00  0.00     0.074 A 
ATOM     54  C   UNL A   1      44.112  26.672  31.368  1.00  0.00     0.031 C 
ATOM     55  C   UNL A   1      43.432  27.963  33.372  1.00  0.00     0.034 A 
BRANCH  42  56
ATOM     56  C   UNL A   1      39.227  31.994  35.444  1.00  0.00     0.023 A 
ATOM     57  C   UNL A   1      38.293  31.510  36.383  1.00  0.00     0.012 A 
ATOM     58  C   UNL A   1      39.760  33.289  35.608  1.00  0.00     0.148 A 
ATOM     59  C   UNL A   1      37.866  32.310  37.442  1.00  0.00     0.002 A 
ATOM     60  C   UNL A   1      39.366  34.063  36.693  1.00  0.00     0.091 A 
ATOM     61  F   UNL A   1      40.634  33.740  34.697  1.00  0.00    -0.205 F 
ATOM     62  C   UNL A   1      38.410  33.581  37.602  1.00  0.00     0.022 A 
BRANCH  60  63
ATOM     63  S   UNL A   1      40.068  35.680  37.038  1.00  0.00     0.127 S 
ATOM     64  O   UNL A   1      39.653  36.439  35.860  1.00  0.00    -0.237 OA
ATOM     65  O   UNL A   1      39.382  36.053  38.275  1.00  0.00    -0.237 OA
ATOM     66  O   UNL A   1      41.502  35.476  37.175  1.00  0.00    -0.744 OA
ENDBRANCH  60  63
ENDBRANCH  42  56
BRANCH  43  67
ATOM     67  C   UNL A   1      42.110  26.443  27.656  1.00  0.00     0.023 A 
ATOM     68  C   UNL A   1      42.937  27.044  26.686  1.00  0.00     0.012 A 
ATOM     69  C   UNL A   1      41.752  25.089  27.509  1.00  0.00     0.148 A 
ATOM     70  C   UNL A   1      43.370  26.321  25.575  1.00  0.00     0.002 A 
ATOM     71  C   UNL A   1      42.235  24.358  26.430  1.00  0.00     0.091 A 
ATOM     72  F   UNL A   1      40.959  24.538  28.439  1.00  0.00    -0.205 F 
ATOM     73  C   UNL A   1      43.029  24.977  25.452  1.00  0.00     0.022 A 
BRANCH  71  74
ATOM     74  S   UNL A   1      41.960  22.591  26.260  1.00  0.00     0.127 S 
ATOM     75  O   UNL A   1      40.503  22.523  26.169  1.00  0.00    -0.237 OA
ATOM     76  O   UNL A   1      42.670  22.296  25.015  1.00  0.00    -0.237 OA
ATOM     77  O   UNL A   1      42.548  21.983  27.445  1.00  0.00    -0.744 OA
ENDBRANCH  71  74
ENDBRANCH  43  67
BRANCH  55  78
ATOM     78  C   UNL A   1      44.631  27.409  34.098  1.00  0.00     0.023 A 
ATOM     79  C   UNL A   1      45.866  28.084  34.041  1.00  0.00     0.012 A 
ATOM     80  C   UNL A   1      44.510  26.256  34.899  1.00  0.00     0.148 A 
ATOM     81  C   UNL A   1      46.971  27.601  34.739  1.00  0.00     0.002 A 
ATOM     82  C   UNL A   1      45.602  25.811  35.635  1.00  0.00     0.091 A 
ATOM     83  F   UNL A   1      43.332  25.618  34.928  1.00  0.00    -0.205 F 
ATOM     84  C   UNL A   1      46.837  26.473  35.545  1.00  0.00     0.022 A 
BRANCH  82  85
ATOM     85  S   UNL A   1      45.497  24.426  36.775  1.00  0.00     0.127 S 
ATOM     86  O   UNL A   1      46.822  24.449  37.393  1.00  0.00    -0.237 OA
ATOM     87  O   UNL A   1      44.404  24.835  37.658  1.00  0.00    -0.237 OA
ATOM     88  O   UNL A   1      45.211  23.253  35.961  1.00  0.00    -0.744 OA
ENDBRANCH  82  85
ENDBRANCH  55  78
ENDBRANCH  29  30
ENDBRANCH  21  24
ENDBRANCH  19  20
ENDBRANCH   1  19
TORSDOF 15
ENDMDL
MODEL 2
REMARK VINA RESULT:     -11.4      4.314      6.569
REMARK SMILES C[C@@H](C(=O)NCCCNC(=O)c1ccc(-c2c3nc(c(-c4cccc(S(=O)(=O)[O-])c4F)c4ccc([nH]4)c(-c4cccc(S(=O)(=O)[O-])c4F)c4nc(c(-c5cccc(S(=O)(=O)[O-])c5F)c5ccc2[nH]5)C=C4)C=C3)cc1)c1ccn(C(F)F)c(=O)c1
REMARK SMILES IDX 7 1 6 2 5 3 3 4 4 5 2 7 1 8 75 9 76 10 84 11 77 12 82 13
REMARK SMILES IDX 78 14 83 15 79 16 80 17 81 18 8 19 9 20 10 21 11 23 12 24
REMARK SMILES IDX 13 25 74 26 14 27 73 28 15 29 16 30 17 31 67 32 18 33 72 34
REMARK SMILES IDX 66 35 68 36 19 37 71 38 65 39 64 40 20 42 52 43 32 44 51 45
REMARK SMILES IDX 33 46 36 47 50 48 69 49 34 50 35 51 49 53 70 54 37 55 21 56
REMARK SMILES IDX 22 57 30 58 23 59 25 60 31 61 24 62 26 63 27 64 28 65 29 66
REMARK SMILES IDX 53 67 54 68 62 69 55 70 57 71 63 72 56 73 58 74 59 75 60 76
REMARK SMILES IDX 61 77 38 78 39 79 47 80 40 81 42 82 48 83 41 84 43 85 44 86
REMARK SMILES IDX 45 87 46 88
REMARK H PARENT 5 6 9 22 68 41 36 52
REMARK Flexibility Score: inf
ROOT
ATOM      1  C   UNL A   1      34.607  34.582  28.301  1.00  0.00     0.042 C 
ENDROOT
BRANCH   1   2
ATOM      2  C   UNL A   1      33.248  35.166  28.698  1.00  0.00     0.117 C 
BRANCH   2   3
ATOM      3  N   UNL A   1      33.403  36.319  29.563  1.00  0.00    -0.356 N 
ATOM      4  C   UNL A   1      33.008  36.521  30.851  1.00  0.00     0.227 C 
ATOM      5  O   UNL A   1      32.941  37.697  31.209  1.00  0.00    -0.274 OA
ATOM      6  H   UNL A   1      33.871  37.082  29.151  1.00  0.00     0.163 HD
BRANCH   4   7
ATOM      7  C   UNL A   1      32.669  35.316  31.768  1.00  0.00     0.105 C 
ATOM      8  C   UNL A   1      31.629  35.782  32.799  1.00  0.00     0.023 C 
BRANCH   7   9
ATOM      9  C   UNL A   1      33.864  34.651  32.477  1.00  0.00    -0.029 A 
ATOM     10  C   UNL A   1      34.682  35.507  33.331  1.00  0.00     0.023 A 
ATOM     11  C   UNL A   1      34.242  33.362  32.360  1.00  0.00     0.076 A 
ATOM     12  C   UNL A   1      35.860  35.087  33.804  1.00  0.00     0.095 A 
ATOM     13  C   UNL A   1      35.525  32.858  32.928  1.00  0.00     0.255 A 
ATOM     14  N   UNL A   1      36.303  33.800  33.575  1.00  0.00    -0.258 N 
ATOM     15  O   UNL A   1      35.823  31.676  32.770  1.00  0.00    -0.269 OA
BRANCH  14  16
ATOM     16  C   UNL A   1      37.617  33.389  33.989  1.00  0.00     0.451 C 
ATOM     17  F   UNL A   1      38.517  33.504  32.981  1.00  0.00    -0.185 F 
ATOM     18  F   UNL A   1      38.055  34.139  35.030  1.00  0.00    -0.185 F 
ENDBRANCH  14  16
ENDBRANCH   7   9
ENDBRANCH   4   7
ENDBRANCH   2   3
ENDBRANCH   1   2
BRANCH   1  19
ATOM     19  C   UNL A   1      34.866  33.166  28.810  1.00  0.00     0.118 C 
BRANCH  19  20
ATOM     20  N   UNL A   1      34.082  32.164  28.103  1.00  0.00    -0.352 N 
ATOM     21  C   UNL A   1      34.435  30.900  27.700  1.00  0.00     0.251 C 
ATOM     22  H   UNL A   1      33.161  32.433  27.881  1.00  0.00     0.163 HD
ATOM     23  O   UNL A   1      33.689  30.279  26.945  1.00  0.00    -0.269 OA
BRANCH  21  24
ATOM     24  C   UNL A   1      35.707  30.293  28.151  1.00  0.00     0.039 A 
ATOM     25  C   UNL A   1      36.803  30.309  27.284  1.00  0.00     0.014 A 
ATOM     26  C   UNL A   1      35.820  29.693  29.408  1.00  0.00     0.014 A 
ATOM     27  C   UNL A   1      38.027  29.779  27.701  1.00  0.00     0.010 A 
ATOM     28  C   UNL A   1      37.061  29.235  29.850  1.00  0.00     0.010 A 
ATOM     29  C   UNL A   1      38.176  29.268  29.001  1.00  0.00    -0.014 A 
BRANCH  29  30
ATOM     30  C   UNL A   1      39.494  28.786  29.493  1.00  0.00     0.031 A 
ATOM     31  C   UNL A   1      40.213  29.518  30.594  1.00  0.00     0.074 A 
ATOM     32  C   UNL A   1      40.080  27.731  28.894  1.00  0.00     0.049 A 
ATOM     33  N   UNL A   1      41.389  29.276  31.113  1.00  0.00    -0.248 NA
ATOM     34  C   UNL A   1      39.533  30.689  31.172  1.00  0.00     0.031 C 
ATOM     35  C   UNL A   1      39.520  26.976  27.771  1.00  0.00     0.029 A 
ATOM     36  N   UNL A   1      41.290  27.123  29.128  1.00  0.00    -0.354 N 
ATOM     37  C   UNL A   1      41.604  30.277  32.054  1.00  0.00     0.074 A 
ATOM     38  C   UNL A   1      40.453  31.151  32.008  1.00  0.00     0.031 C 
ATOM     39  C   UNL A   1      40.378  26.007  27.419  1.00  0.00     0.029 A 
ATOM     40  C   UNL A   1      41.565  26.090  28.262  1.00  0.00     0.049 A 
ATOM     41  H   UNL A   1      41.902  27.401  29.848  1.00  0.00     0.167 HD
ATOM     42  C   UNL A   1      42.651  30.440  32.898  1.00  0.00     0.034 A 
ATOM     43  C   UNL A   1      42.656  25.306  28.150  1.00  0.00     0.034 A 
ATOM     44  C   UNL A   1      43.783  29.555  32.959  1.00  0.00     0.049 A 
ATOM     45  C   UNL A   1      43.799  25.499  29.108  1.00  0.00     0.074 A 
ATOM     46  C   UNL A   1      44.859  29.593  33.830  1.00  0.00     0.029 A 
ATOM     47  N   UNL A   1      43.996  28.479  32.110  1.00  0.00    -0.354 N 
ATOM     48  N   UNL A   1      43.918  26.363  30.087  1.00  0.00    -0.248 NA
ATOM     49  C   UNL A   1      44.943  24.586  28.971  1.00  0.00     0.031 C 
ATOM     50  C   UNL A   1      45.738  28.561  33.485  1.00  0.00     0.029 A 
ATOM     51  C   UNL A   1      45.190  27.854  32.428  1.00  0.00     0.049 A 
ATOM     52  H   UNL A   1      43.387  28.201  31.389  1.00  0.00     0.167 HD
ATOM     53  C   UNL A   1      45.129  26.074  30.705  1.00  0.00     0.074 A 
ATOM     54  C   UNL A   1      45.698  24.943  30.002  1.00  0.00     0.031 C 
ATOM     55  C   UNL A   1      45.723  26.698  31.753  1.00  0.00     0.034 A 
BRANCH  42  56
ATOM     56  C   UNL A   1      42.602  31.600  33.860  1.00  0.00     0.023 A 
ATOM     57  C   UNL A   1      43.134  32.848  33.475  1.00  0.00     0.012 A 
ATOM     58  C   UNL A   1      41.979  31.477  35.118  1.00  0.00     0.148 A 
ATOM     59  C   UNL A   1      43.083  33.942  34.338  1.00  0.00     0.002 A 
ATOM     60  C   UNL A   1      41.889  32.584  35.953  1.00  0.00     0.091 A 
ATOM     61  F   UNL A   1      41.493  30.280  35.475  1.00  0.00    -0.205 F 
ATOM     62  C   UNL A   1      42.452  33.812  35.571  1.00  0.00     0.022 A 
BRANCH  60  63
ATOM     63  S   UNL A   1      41.023  32.546  37.526  1.00  0.00     0.127 S 
ATOM     64  O   UNL A   1      41.888  31.672  38.318  1.00  0.00    -0.237 OA
ATOM     65  O   UNL A   1      41.050  33.953  37.925  1.00  0.00    -0.237 OA
ATOM     66  O   UNL A   1      39.696  32.019  37.244  1.00  0.00    -0.744 OA
ENDBRANCH  60  63
ENDBRANCH  42  56
BRANCH  43  67
ATOM     67  C   UNL A   1      42.693  24.228  27.121  1.00  0.00     0.023 A 
ATOM     68  C   UNL A   1      43.386  24.446  25.913  1.00  0.00     0.012 A 
ATOM     69  C   UNL A   1      42.072  22.984  27.341  1.00  0.00     0.148 A 
ATOM     70  C   UNL A   1      43.429  23.457  24.930  1.00  0.00     0.002 A 
ATOM     71  C   UNL A   1      42.168  21.982  26.382  1.00  0.00     0.091 A 
ATOM     72  F   UNL A   1      41.413  22.799  28.494  1.00  0.00    -0.205 F 
ATOM     73  C   UNL A   1      42.830  22.223  25.168  1.00  0.00     0.022 A 
BRANCH  71  74
ATOM     74  S   UNL A   1      41.544  20.320  26.656  1.00  0.00     0.127 S 
ATOM     75  O   UNL A   1      42.023  19.620  25.466  1.00  0.00    -0.237 OA
ATOM     76  O   UNL A   1      42.217  19.950  27.902  1.00  0.00    -0.237 OA
ATOM     77  O   UNL A   1      40.099  20.453  26.771  1.00  0.00    -0.744 OA
ENDBRANCH  71  74
ENDBRANCH  43  67
BRANCH  55  78
ATOM     78  C   UNL A   1      47.039  26.148  32.242  1.00  0.00     0.023 A 
ATOM     79  C   UNL A   1      48.250  26.639  31.715  1.00  0.00     0.012 A 
ATOM     80  C   UNL A   1      47.072  25.195  33.280  1.00  0.00     0.148 A 
ATOM     81  C   UNL A   1      49.472  26.164  32.188  1.00  0.00     0.002 A 
ATOM     82  C   UNL A   1      48.295  24.767  33.782  1.00  0.00     0.091 A 
ATOM     83  F   UNL A   1      45.910  24.728  33.756  1.00  0.00    -0.205 F 
ATOM     84  C   UNL A   1      49.496  25.239  33.228  1.00  0.00     0.022 A 
BRANCH  82  85
ATOM     85  S   UNL A   1      48.424  23.653  35.186  1.00  0.00     0.127 S 
ATOM     86  O   UNL A   1      49.831  23.799  35.553  1.00  0.00    -0.237 OA
ATOM     87  O   UNL A   1      47.481  24.243  36.136  1.00  0.00    -0.237 OA
ATOM     88  O   UNL A   1      48.043  22.336  34.692  1.00  0.00    -0.744 OA
ENDBRANCH  82  85
ENDBRANCH  55  78
ENDBRANCH  29  30
ENDBRANCH  21  24
ENDBRANCH  19  20
ENDBRANCH   1  19
TORSDOF 15
ENDMDL
MODEL 3
REMARK VINA RESULT:     -11.4      3.142      4.136
REMARK SMILES C[C@@H](C(=O)NCCCNC(=O)c1ccc(-c2c3nc(c(-c4cccc(S(=O)(=O)[O-])c4F)c4ccc([nH]4)c(-c4cccc(S(=O)(=O)[O-])c4F)c4nc(c(-c5cccc(S(=O)(=O)[O-])c5F)c5ccc2[nH]5)C=C4)C=C3)cc1)c1ccn(C(F)F)c(=O)c1
REMARK SMILES IDX 7 1 6 2 5 3 3 4 4 5 2 7 1 8 75 9 76 10 84 11 77 12 82 13
REMARK SMILES IDX 78 14 83 15 79 16 80 17 81 18 8 19 9 20 10 21 11 23 12 24
REMARK SMILES IDX 13 25 74 26 14 27 73 28 15 29 16 30 17 31 67 32 18 33 72 34
REMARK SMILES IDX 66 35 68 36 19 37 71 38 65 39 64 40 20 42 52 43 32 44 51 45
REMARK SMILES IDX 33 46 36 47 50 48 69 49 34 50 35 51 49 53 70 54 37 55 21 56
REMARK SMILES IDX 22 57 30 58 23 59 25 60 31 61 24 62 26 63 27 64 28 65 29 66
REMARK SMILES IDX 53 67 54 68 62 69 55 70 57 71 63 72 56 73 58 74 59 75 60 76
REMARK SMILES IDX 61 77 38 78 39 79 47 80 40 81 42 82 48 83 41 84 43 85 44 86
REMARK SMILES IDX 45 87 46 88
REMARK H PARENT 5 6 9 22 68 41 36 52
REMARK Flexibility Score: inf
ROOT
ATOM      1  C   UNL A   1      31.763  29.257  26.777  1.00  0.00     0.042 C 
ENDROOT
BRANCH   1   2
ATOM      2  C   UNL A   1      32.023  27.961  27.549  1.00  0.00     0.117 C 
BRANCH   2   3
ATOM      3  N   UNL A   1      31.464  26.816  26.856  1.00  0.00    -0.356 N 
ATOM      4  C   UNL A   1      31.945  26.094  25.805  1.00  0.00     0.227 C 
ATOM      5  O   UNL A   1      31.112  25.423  25.196  1.00  0.00    -0.274 OA
ATOM      6  H   UNL A   1      30.595  26.509  27.203  1.00  0.00     0.163 HD
BRANCH   4   7
ATOM      7  C   UNL A   1      33.451  26.151  25.435  1.00  0.00     0.105 C 
ATOM      8  C   UNL A   1      33.610  27.111  24.245  1.00  0.00     0.023 C 
BRANCH   7   9
ATOM      9  C   UNL A   1      34.120  24.799  25.124  1.00  0.00    -0.029 A 
ATOM     10  C   UNL A   1      34.134  23.810  26.197  1.00  0.00     0.023 A 
ATOM     11  C   UNL A   1      34.719  24.456  23.966  1.00  0.00     0.076 A 
ATOM     12  C   UNL A   1      34.882  22.704  26.107  1.00  0.00     0.095 A 
ATOM     13  C   UNL A   1      35.511  23.201  23.826  1.00  0.00     0.255 A 
ATOM     14  N   UNL A   1      35.597  22.418  24.962  1.00  0.00    -0.258 N 
ATOM     15  O   UNL A   1      36.050  22.953  22.749  1.00  0.00    -0.269 OA
BRANCH  14  16
ATOM     16  C   UNL A   1      36.485  21.289  24.912  1.00  0.00     0.451 C 
ATOM     17  F   UNL A   1      37.506  21.417  25.795  1.00  0.00    -0.185 F 
ATOM     18  F   UNL A   1      35.825  20.138  25.198  1.00  0.00    -0.185 F 
ENDBRANCH  14  16
ENDBRANCH   7   9
ENDBRANCH   4   7
ENDBRANCH   2   3
ENDBRANCH   1   2
BRANCH   1  19
ATOM     19  C   UNL A   1      33.021  30.015  26.361  1.00  0.00     0.118 C 
BRANCH  19  20
ATOM     20  N   UNL A   1      32.978  31.421  26.731  1.00  0.00    -0.352 N 
ATOM     21  C   UNL A   1      33.779  32.124  27.597  1.00  0.00     0.251 C 
ATOM     22  H   UNL A   1      32.270  31.948  26.294  1.00  0.00     0.163 HD
ATOM     23  O   UNL A   1      33.459  33.267  27.920  1.00  0.00    -0.269 OA
BRANCH  21  24
ATOM     24  C   UNL A   1      35.005  31.512  28.156  1.00  0.00     0.039 A 
ATOM     25  C   UNL A   1      36.174  32.274  28.204  1.00  0.00     0.014 A 
ATOM     26  C   UNL A   1      35.012  30.190  28.611  1.00  0.00     0.014 A 
ATOM     27  C   UNL A   1      37.334  31.732  28.765  1.00  0.00     0.010 A 
ATOM     28  C   UNL A   1      36.147  29.679  29.240  1.00  0.00     0.010 A 
ATOM     29  C   UNL A   1      37.322  30.441  29.319  1.00  0.00    -0.014 A 
BRANCH  29  30
ATOM     30  C   UNL A   1      38.520  29.884  30.002  1.00  0.00     0.031 A 
ATOM     31  C   UNL A   1      38.915  30.372  31.371  1.00  0.00     0.074 A 
ATOM     32  C   UNL A   1      39.297  28.992  29.358  1.00  0.00     0.049 A 
ATOM     33  N   UNL A   1      39.952  30.042  32.095  1.00  0.00    -0.248 NA
ATOM     34  C   UNL A   1      38.044  31.380  31.997  1.00  0.00     0.031 C 
ATOM     35  C   UNL A   1      39.061  28.489  28.002  1.00  0.00     0.029 A 
ATOM     36  N   UNL A   1      40.457  28.367  29.745  1.00  0.00    -0.354 N 
ATOM     37  C   UNL A   1      39.878  30.820  33.245  1.00  0.00     0.074 A 
ATOM     38  C   UNL A   1      38.713  31.665  33.105  1.00  0.00     0.031 C 
ATOM     39  C   UNL A   1      40.040  27.631  27.674  1.00  0.00     0.029 A 
ATOM     40  C   UNL A   1      40.993  27.549  28.777  1.00  0.00     0.049 A 
ATOM     41  H   UNL A   1      40.866  28.492  30.631  1.00  0.00     0.167 HD
ATOM     42  C   UNL A   1      40.688  30.813  34.331  1.00  0.00     0.034 A 
ATOM     43  C   UNL A   1      42.129  26.824  28.770  1.00  0.00     0.034 A 
ATOM     44  C   UNL A   1      41.832  29.953  34.478  1.00  0.00     0.049 A 
ATOM     45  C   UNL A   1      43.005  26.823  29.993  1.00  0.00     0.074 A 
ATOM     46  C   UNL A   1      42.672  29.819  35.569  1.00  0.00     0.029 A 
ATOM     47  N   UNL A   1      42.305  29.089  33.502  1.00  0.00    -0.354 N 
ATOM     48  N   UNL A   1      42.837  27.458  31.128  1.00  0.00    -0.248 NA
ATOM     49  C   UNL A   1      44.207  25.979  29.948  1.00  0.00     0.031 C 
ATOM     50  C   UNL A   1      43.674  28.899  35.240  1.00  0.00     0.029 A 
ATOM     51  C   UNL A   1      43.432  28.427  33.960  1.00  0.00     0.049 A 
ATOM     52  H   UNL A   1      41.900  28.963  32.615  1.00  0.00     0.167 HD
ATOM     53  C   UNL A   1      43.889  27.061  31.945  1.00  0.00     0.074 A 
ATOM     54  C   UNL A   1      44.678  26.116  31.181  1.00  0.00     0.031 C 
ATOM     55  C   UNL A   1      44.183  27.453  33.210  1.00  0.00     0.034 A 
BRANCH  42  56
ATOM     56  C   UNL A   1      40.342  31.737  35.470  1.00  0.00     0.023 A 
ATOM     57  C   UNL A   1      41.108  32.902  35.680  1.00  0.00     0.012 A 
ATOM     58  C   UNL A   1      39.227  31.489  36.295  1.00  0.00     0.148 A 
ATOM     59  C   UNL A   1      40.796  33.784  36.714  1.00  0.00     0.002 A 
ATOM     60  C   UNL A   1      38.893  32.397  37.293  1.00  0.00     0.091 A 
ATOM     61  F   UNL A   1      38.519  30.369  36.093  1.00  0.00    -0.205 F 
ATOM     62  C   UNL A   1      39.684  33.537  37.513  1.00  0.00     0.022 A 
BRANCH  60  63
ATOM     63  S   UNL A   1      37.432  32.216  38.322  1.00  0.00     0.127 S 
ATOM     64  O   UNL A   1      37.173  30.781  38.215  1.00  0.00    -0.237 OA
ATOM     65  O   UNL A   1      37.923  32.649  39.630  1.00  0.00    -0.237 OA
ATOM     66  O   UNL A   1      36.416  33.078  37.737  1.00  0.00    -0.744 OA
ENDBRANCH  60  63
ENDBRANCH  42  56
BRANCH  43  67
ATOM     67  C   UNL A   1      42.474  25.994  27.580  1.00  0.00     0.023 A 
ATOM     68  C   UNL A   1      43.236  26.559  26.538  1.00  0.00     0.012 A 
ATOM     69  C   UNL A   1      42.076  24.647  27.488  1.00  0.00     0.148 A 
ATOM     70  C   UNL A   1      43.565  25.807  25.410  1.00  0.00     0.002 A 
ATOM     71  C   UNL A   1      42.457  23.886  26.388  1.00  0.00     0.091 A 
ATOM     72  F   UNL A   1      41.346  24.131  28.487  1.00  0.00    -0.205 F 
ATOM     73  C   UNL A   1      43.185  24.469  25.340  1.00  0.00     0.022 A 
BRANCH  71  74
ATOM     74  S   UNL A   1      42.130  22.123  26.273  1.00  0.00     0.127 S 
ATOM     75  O   UNL A   1      40.677  22.098  26.125  1.00  0.00    -0.237 OA
ATOM     76  O   UNL A   1      42.880  21.757  25.071  1.00  0.00    -0.237 OA
ATOM     77  O   UNL A   1      42.649  21.543  27.504  1.00  0.00    -0.744 OA
ENDBRANCH  71  74
ENDBRANCH  43  67
BRANCH  55  78
ATOM     78  C   UNL A   1      45.383  26.831  33.876  1.00  0.00     0.023 A 
ATOM     79  C   UNL A   1      46.636  27.473  33.819  1.00  0.00     0.012 A 
ATOM     80  C   UNL A   1      45.249  25.643  34.623  1.00  0.00     0.148 A 
ATOM     81  C   UNL A   1      47.743  26.925  34.463  1.00  0.00     0.002 A 
ATOM     82  C   UNL A   1      46.345  25.132  35.307  1.00  0.00     0.091 A 
ATOM     83  F   UNL A   1      44.054  25.038  34.652  1.00  0.00    -0.205 F 
ATOM     84  C   UNL A   1      47.596  25.763  35.217  1.00  0.00     0.022 A 
BRANCH  82  85
ATOM     85  S   UNL A   1      46.228  23.697  36.381  1.00  0.00     0.127 S 
ATOM     86  O   UNL A   1      45.225  24.132  37.351  1.00  0.00    -0.237 OA
ATOM     87  O   UNL A   1      45.774  22.656  35.458  1.00  0.00    -0.237 OA
ATOM     88  O   UNL A   1      47.565  23.486  36.921  1.00  0.00    -0.744 OA
ENDBRANCH  82  85
ENDBRANCH  55  78
ENDBRANCH  29  30
ENDBRANCH  21  24
ENDBRANCH  19  20
ENDBRANCH   1  19
TORSDOF 15
ENDMDL
