MODEL 1
REMARK VINA RESULT:     -10.5      0.000      0.000
REMARK SMILES CC[C@@](O)(C(=O)NCCCNC(=O)c1ccc(-c2c3nc(c(-c4cccc(S(=O)(=O)[O-])c4F)c4ccc([nH]4)c(-c4cccc(S(=O)(=O)[O-])c4F)c4nc(c(-c5cccc(S(=O)(=O)[O-])c5F)c5ccc2[nH]5)C=C4)C=C3)cc1)[C@@H](C)c1ccc(OC)c(OC)c1
REMARK SMILES IDX 9 1 8 2 7 3 5 4 6 5 3 7 2 8 1 9 4 10 77 12 78 13 79 14 80 15
REMARK SMILES IDX 88 16 81 17 85 18 82 19 86 20 87 21 83 22 84 23 10 24 11 25
REMARK SMILES IDX 12 26 13 28 14 29 15 30 76 31 16 32 75 33 17 34 18 35 19 36
REMARK SMILES IDX 69 37 20 38 74 39 68 40 70 41 21 42 73 43 67 44 66 45 22 47
REMARK SMILES IDX 54 48 34 49 53 50 35 51 38 52 52 53 71 54 36 55 37 56 51 58
REMARK SMILES IDX 72 59 39 60 23 61 24 62 32 63 25 64 27 65 33 66 26 67 28 68
REMARK SMILES IDX 29 69 30 70 31 71 55 72 56 73 64 74 57 75 59 76 65 77 58 78
REMARK SMILES IDX 60 79 61 80 62 81 63 82 40 83 41 84 49 85 42 86 44 87 50 88
REMARK SMILES IDX 43 89 45 90 46 91 47 92 48 93
REMARK H PARENT 7 6 4 11 11 27 70 46 38 57
REMARK Flexibility Score: inf
ROOT
ATOM      1  C   UNL A   1      36.897  22.035  24.370  1.00  0.00     0.042 C 
ENDROOT
BRANCH   1   2
ATOM      2  C   UNL A   1      36.052  20.890  24.919  1.00  0.00     0.117 C 
BRANCH   2   3
ATOM      3  N   UNL A   1      35.231  21.233  26.078  1.00  0.00    -0.354 N 
ATOM      4  C   UNL A   1      33.873  21.179  26.273  1.00  0.00     0.252 C 
ATOM      5  O   UNL A   1      33.477  21.332  27.433  1.00  0.00    -0.272 OA
ATOM      6  H   UNL A   1      35.741  21.561  26.854  1.00  0.00     0.163 HD
BRANCH   4   7
ATOM      7  C   UNL A   1      32.879  20.967  25.071  1.00  0.00     0.149 C 
BRANCH   7   8
ATOM      8  C   UNL A   1      33.225  19.572  24.476  1.00  0.00     0.043 C 
ATOM      9  C   UNL A   1      32.956  18.336  25.313  1.00  0.00     0.007 C 
ENDBRANCH   7   8
BRANCH   7  10
ATOM     10  O   UNL A   1      31.566  20.992  25.648  1.00  0.00    -0.379 OA
ATOM     11  H   UNL A   1      31.003  20.341  25.200  1.00  0.00     0.212 HD
ENDBRANCH   7  10
BRANCH   7  12
ATOM     12  C   UNL A   1      32.996  22.180  24.052  1.00  0.00     0.058 C 
ATOM     13  C   UNL A   1      31.891  22.138  22.973  1.00  0.00     0.016 C 
BRANCH  12  14
ATOM     14  C   UNL A   1      33.082  23.617  24.606  1.00  0.00    -0.038 A 
ATOM     15  C   UNL A   1      34.243  24.390  24.571  1.00  0.00     0.008 A 
ATOM     16  C   UNL A   1      31.953  24.195  25.225  1.00  0.00     0.054 A 
ATOM     17  C   UNL A   1      34.333  25.606  25.245  1.00  0.00     0.051 A 
ATOM     18  C   UNL A   1      32.010  25.456  25.852  1.00  0.00     0.160 A 
ATOM     19  C   UNL A   1      33.232  26.137  25.906  1.00  0.00     0.160 A 
BRANCH  18  20
ATOM     20  O   UNL A   1      30.928  26.002  26.491  1.00  0.00    -0.493 OA
ATOM     21  C   UNL A   1      29.662  25.568  25.999  1.00  0.00     0.278 C 
ENDBRANCH  18  20
BRANCH  19  22
ATOM     22  O   UNL A   1      33.511  27.279  26.604  1.00  0.00    -0.493 OA
ATOM     23  C   UNL A   1      33.719  28.442  25.819  1.00  0.00     0.278 C 
ENDBRANCH  19  22
ENDBRANCH  12  14
ENDBRANCH   7  12
ENDBRANCH   4   7
ENDBRANCH   2   3
ENDBRANCH   1   2
BRANCH   1  24
ATOM     24  C   UNL A   1      37.756  22.742  25.406  1.00  0.00     0.118 C 
BRANCH  24  25
ATOM     25  N   UNL A   1      38.682  21.833  26.064  1.00  0.00    -0.352 N 
ATOM     26  C   UNL A   1      39.854  22.092  26.732  1.00  0.00     0.251 C 
ATOM     27  H   UNL A   1      38.428  20.883  26.025  1.00  0.00     0.163 HD
ATOM     28  O   UNL A   1      40.597  21.155  27.012  1.00  0.00    -0.269 OA
BRANCH  26  29
ATOM     29  C   UNL A   1      40.234  23.475  27.109  1.00  0.00     0.039 A 
ATOM     30  C   UNL A   1      40.852  23.690  28.346  1.00  0.00     0.014 A 
ATOM     31  C   UNL A   1      39.934  24.566  26.291  1.00  0.00     0.014 A 
ATOM     32  C   UNL A   1      41.200  24.985  28.739  1.00  0.00     0.010 A 
ATOM     33  C   UNL A   1      40.364  25.845  26.641  1.00  0.00     0.010 A 
ATOM     34  C   UNL A   1      40.976  26.074  27.882  1.00  0.00    -0.014 A 
BRANCH  34  35
ATOM     35  C   UNL A   1      41.339  27.460  28.279  1.00  0.00     0.031 A 
ATOM     36  C   UNL A   1      42.777  27.911  28.236  1.00  0.00     0.074 A 
ATOM     37  C   UNL A   1      40.388  28.294  28.747  1.00  0.00     0.049 A 
ATOM     38  N   UNL A   1      43.291  29.065  28.576  1.00  0.00    -0.248 NA
ATOM     39  C   UNL A   1      43.773  26.926  27.781  1.00  0.00     0.031 C 
ATOM     40  C   UNL A   1      38.975  27.954  28.920  1.00  0.00     0.029 A 
ATOM     41  N   UNL A   1      40.472  29.593  29.184  1.00  0.00    -0.354 N 
ATOM     42  C   UNL A   1      44.666  28.931  28.419  1.00  0.00     0.074 A 
ATOM     43  C   UNL A   1      44.911  27.573  27.987  1.00  0.00     0.031 C 
ATOM     44  C   UNL A   1      38.324  29.019  29.417  1.00  0.00     0.029 A 
ATOM     45  C   UNL A   1      39.273  30.108  29.618  1.00  0.00     0.049 A 
ATOM     46  H   UNL A   1      41.311  30.107  29.185  1.00  0.00     0.167 HD
ATOM     47  C   UNL A   1      45.637  29.862  28.581  1.00  0.00     0.034 A 
ATOM     48  C   UNL A   1      38.972  31.324  30.120  1.00  0.00     0.034 A 
ATOM     49  C   UNL A   1      45.386  31.230  28.947  1.00  0.00     0.049 A 
ATOM     50  C   UNL A   1      40.057  32.362  30.221  1.00  0.00     0.074 A 
ATOM     51  C   UNL A   1      46.287  32.274  29.042  1.00  0.00     0.029 A 
ATOM     52  N   UNL A   1      44.141  31.743  29.277  1.00  0.00    -0.354 N 
ATOM     53  N   UNL A   1      41.326  32.264  29.905  1.00  0.00    -0.248 NA
ATOM     54  C   UNL A   1      39.661  33.691  30.707  1.00  0.00     0.031 C 
ATOM     55  C   UNL A   1      45.588  33.418  29.443  1.00  0.00     0.029 A 
ATOM     56  C   UNL A   1      44.250  33.089  29.578  1.00  0.00     0.049 A 
ATOM     57  H   UNL A   1      43.304  31.225  29.295  1.00  0.00     0.167 HD
ATOM     58  C   UNL A   1      41.871  33.525  30.117  1.00  0.00     0.074 A 
ATOM     59  C   UNL A   1      40.789  34.376  30.567  1.00  0.00     0.031 C 
ATOM     60  C   UNL A   1      43.154  33.938  29.967  1.00  0.00     0.034 A 
BRANCH  47  61
ATOM     61  C   UNL A   1      47.059  29.448  28.299  1.00  0.00     0.023 A 
ATOM     62  C   UNL A   1      47.596  29.644  27.010  1.00  0.00     0.012 A 
ATOM     63  C   UNL A   1      47.879  28.920  29.316  1.00  0.00     0.148 A 
ATOM     64  C   UNL A   1      48.913  29.287  26.726  1.00  0.00     0.002 A 
ATOM     65  C   UNL A   1      49.205  28.608  29.036  1.00  0.00     0.091 A 
ATOM     66  F   UNL A   1      47.346  28.720  30.529  1.00  0.00    -0.205 F 
ATOM     67  C   UNL A   1      49.721  28.781  27.740  1.00  0.00     0.022 A 
BRANCH  65  68
ATOM     68  S   UNL A   1      50.348  28.023  30.293  1.00  0.00     0.127 S 
ATOM     69  O   UNL A   1      51.614  28.020  29.563  1.00  0.00    -0.237 OA
ATOM     70  O   UNL A   1      50.237  29.062  31.318  1.00  0.00    -0.237 OA
ATOM     71  O   UNL A   1      49.857  26.715  30.703  1.00  0.00    -0.744 OA
ENDBRANCH  65  68
ENDBRANCH  47  61
BRANCH  48  72
ATOM     72  C   UNL A   1      37.564  31.650  30.480  1.00  0.00     0.023 A 
ATOM     73  C   UNL A   1      37.075  31.284  31.749  1.00  0.00     0.012 A 
ATOM     74  C   UNL A   1      36.718  32.345  29.593  1.00  0.00     0.148 A 
ATOM     75  C   UNL A   1      35.761  31.574  32.117  1.00  0.00     0.002 A 
ATOM     76  C   UNL A   1      35.427  32.678  29.987  1.00  0.00     0.091 A 
ATOM     77  F   UNL A   1      37.197  32.673  28.385  1.00  0.00    -0.205 F 
ATOM     78  C   UNL A   1      34.940  32.279  31.241  1.00  0.00     0.022 A 
BRANCH  76  79
ATOM     79  S   UNL A   1      34.347  33.698  28.977  1.00  0.00     0.127 S 
ATOM     80  O   UNL A   1      33.858  32.735  27.994  1.00  0.00    -0.237 OA
ATOM     81  O   UNL A   1      33.353  34.145  29.951  1.00  0.00    -0.237 OA
ATOM     82  O   UNL A   1      35.194  34.763  28.454  1.00  0.00    -0.744 OA
ENDBRANCH  76  79
ENDBRANCH  48  72
BRANCH  60  83
ATOM     83  C   UNL A   1      43.460  35.384  30.255  1.00  0.00     0.023 A 
ATOM     84  C   UNL A   1      43.838  35.774  31.554  1.00  0.00     0.012 A 
ATOM     85  C   UNL A   1      43.444  36.342  29.223  1.00  0.00     0.148 A 
ATOM     86  C   UNL A   1      44.163  37.102  31.830  1.00  0.00     0.002 A 
ATOM     87  C   UNL A   1      43.815  37.654  29.494  1.00  0.00     0.091 A 
ATOM     88  F   UNL A   1      43.062  35.956  27.996  1.00  0.00    -0.205 F 
ATOM     89  C   UNL A   1      44.163  38.038  30.798  1.00  0.00     0.022 A 
BRANCH  87  90
ATOM     90  S   UNL A   1      43.935  38.899  28.204  1.00  0.00     0.127 S 
ATOM     91  O   UNL A   1      42.605  38.834  27.601  1.00  0.00    -0.237 OA
ATOM     92  O   UNL A   1      44.198  40.118  28.971  1.00  0.00    -0.237 OA
ATOM     93  O   UNL A   1      45.037  38.480  27.348  1.00  0.00    -0.744 OA
ENDBRANCH  87  90
ENDBRANCH  60  83
ENDBRANCH  34  35
ENDBRANCH  26  29
ENDBRANCH  24  25
ENDBRANCH   1  24
TORSDOF 19
ENDMDL
MODEL 2
REMARK VINA RESULT:     -10.4      2.112      2.745
REMARK SMILES CC[C@@](O)(C(=O)NCCCNC(=O)c1ccc(-c2c3nc(c(-c4cccc(S(=O)(=O)[O-])c4F)c4ccc([nH]4)c(-c4cccc(S(=O)(=O)[O-])c4F)c4nc(c(-c5cccc(S(=O)(=O)[O-])c5F)c5ccc2[nH]5)C=C4)C=C3)cc1)[C@@H](C)c1ccc(OC)c(OC)c1
REMARK SMILES IDX 9 1 8 2 7 3 5 4 6 5 3 7 2 8 1 9 4 10 77 12 78 13 79 14 80 15
REMARK SMILES IDX 88 16 81 17 85 18 82 19 86 20 87 21 83 22 84 23 10 24 11 25
REMARK SMILES IDX 12 26 13 28 14 29 15 30 76 31 16 32 75 33 17 34 18 35 19 36
REMARK SMILES IDX 69 37 20 38 74 39 68 40 70 41 21 42 73 43 67 44 66 45 22 47
REMARK SMILES IDX 54 48 34 49 53 50 35 51 38 52 52 53 71 54 36 55 37 56 51 58
REMARK SMILES IDX 72 59 39 60 23 61 24 62 32 63 25 64 27 65 33 66 26 67 28 68
REMARK SMILES IDX 29 69 30 70 31 71 55 72 56 73 64 74 57 75 59 76 65 77 58 78
REMARK SMILES IDX 60 79 61 80 62 81 63 82 40 83 41 84 49 85 42 86 44 87 50 88
REMARK SMILES IDX 43 89 45 90 46 91 47 92 48 93
REMARK H PARENT 7 6 4 11 11 27 70 46 38 57
REMARK Flexibility Score: inf
ROOT
ATOM      1  C   UNL A   1      37.314  20.334  24.860  1.00  0.00     0.042 C 
ENDROOT
BRANCH   1   2
ATOM      2  C   UNL A   1      36.056  21.157  24.597  1.00  0.00     0.117 C 
BRANCH   2   3
ATOM      3  N   UNL A   1      35.286  21.499  25.791  1.00  0.00    -0.354 N 
ATOM      4  C   UNL A   1      33.997  21.196  26.154  1.00  0.00     0.252 C 
ATOM      5  O   UNL A   1      33.681  21.442  27.322  1.00  0.00    -0.272 OA
ATOM      6  H   UNL A   1      35.777  22.041  26.449  1.00  0.00     0.163 HD
BRANCH   4   7
ATOM      7  C   UNL A   1      32.971  20.599  25.119  1.00  0.00     0.149 C 
BRANCH   7   8
ATOM      8  C   UNL A   1      33.431  19.135  24.865  1.00  0.00     0.043 C 
ATOM      9  C   UNL A   1      32.586  18.001  25.413  1.00  0.00     0.007 C 
ENDBRANCH   7   8
BRANCH   7  10
ATOM     10  O   UNL A   1      31.693  20.653  25.769  1.00  0.00    -0.379 OA
ATOM     11  H   UNL A   1      31.716  21.317  26.475  1.00  0.00     0.212 HD
ENDBRANCH   7  10
BRANCH   7  12
ATOM     12  C   UNL A   1      32.910  21.519  23.826  1.00  0.00     0.058 C 
ATOM     13  C   UNL A   1      32.194  20.818  22.649  1.00  0.00     0.016 C 
BRANCH  12  14
ATOM     14  C   UNL A   1      32.351  22.952  23.952  1.00  0.00    -0.038 A 
ATOM     15  C   UNL A   1      31.023  23.289  23.694  1.00  0.00     0.008 A 
ATOM     16  C   UNL A   1      33.216  24.009  24.309  1.00  0.00     0.054 A 
ATOM     17  C   UNL A   1      30.602  24.616  23.637  1.00  0.00     0.051 A 
ATOM     18  C   UNL A   1      32.787  25.351  24.324  1.00  0.00     0.160 A 
ATOM     19  C   UNL A   1      31.479  25.654  23.929  1.00  0.00     0.160 A 
BRANCH  18  20
ATOM     20  O   UNL A   1      33.635  26.383  24.629  1.00  0.00    -0.493 OA
ATOM     21  C   UNL A   1      33.565  26.835  25.979  1.00  0.00     0.278 C 
ENDBRANCH  18  20
BRANCH  19  22
ATOM     22  O   UNL A   1      30.944  26.896  23.727  1.00  0.00    -0.493 OA
ATOM     23  C   UNL A   1      29.531  26.979  23.827  1.00  0.00     0.278 C 
ENDBRANCH  19  22
ENDBRANCH  12  14
ENDBRANCH   7  12
ENDBRANCH   4   7
ENDBRANCH   2   3
ENDBRANCH   1   2
BRANCH   1  24
ATOM     24  C   UNL A   1      38.406  21.072  25.617  1.00  0.00     0.118 C 
BRANCH  24  25
ATOM     25  N   UNL A   1      39.473  20.182  26.047  1.00  0.00    -0.352 N 
ATOM     26  C   UNL A   1      40.734  20.469  26.510  1.00  0.00     0.251 C 
ATOM     27  H   UNL A   1      39.258  19.223  25.999  1.00  0.00     0.163 HD
ATOM     28  O   UNL A   1      41.555  19.559  26.599  1.00  0.00    -0.269 OA
BRANCH  26  29
ATOM     29  C   UNL A   1      41.117  21.850  26.892  1.00  0.00     0.039 A 
ATOM     30  C   UNL A   1      41.236  22.819  25.890  1.00  0.00     0.014 A 
ATOM     31  C   UNL A   1      41.419  22.187  28.214  1.00  0.00     0.014 A 
ATOM     32  C   UNL A   1      41.619  24.122  26.217  1.00  0.00     0.010 A 
ATOM     33  C   UNL A   1      41.709  23.507  28.552  1.00  0.00     0.010 A 
ATOM     34  C   UNL A   1      41.840  24.484  27.556  1.00  0.00    -0.014 A 
BRANCH  34  35
ATOM     35  C   UNL A   1      42.247  25.865  27.927  1.00  0.00     0.031 A 
ATOM     36  C   UNL A   1      43.683  26.301  27.773  1.00  0.00     0.074 A 
ATOM     37  C   UNL A   1      41.344  26.708  28.468  1.00  0.00     0.049 A 
ATOM     38  N   UNL A   1      44.233  27.449  28.075  1.00  0.00    -0.248 NA
ATOM     39  C   UNL A   1      44.630  25.308  27.241  1.00  0.00     0.031 C 
ATOM     40  C   UNL A   1      39.945  26.381  28.750  1.00  0.00     0.029 A 
ATOM     41  N   UNL A   1      41.476  28.005  28.900  1.00  0.00    -0.354 N 
ATOM     42  C   UNL A   1      45.591  27.302  27.811  1.00  0.00     0.074 A 
ATOM     43  C   UNL A   1      45.787  25.943  27.359  1.00  0.00     0.031 C 
ATOM     44  C   UNL A   1      39.346  27.451  29.298  1.00  0.00     0.029 A 
ATOM     45  C   UNL A   1      40.319  28.530  29.427  1.00  0.00     0.049 A 
ATOM     46  H   UNL A   1      42.317  28.510  28.837  1.00  0.00     0.167 HD
ATOM     47  C   UNL A   1      46.581  28.222  27.900  1.00  0.00     0.034 A 
ATOM     48  C   UNL A   1      40.071  29.748  29.953  1.00  0.00     0.034 A 
ATOM     49  C   UNL A   1      46.373  29.591  28.287  1.00  0.00     0.049 A 
ATOM     50  C   UNL A   1      41.171  30.774  29.972  1.00  0.00     0.074 A 
ATOM     51  C   UNL A   1      47.290  30.626  28.314  1.00  0.00     0.029 A 
ATOM     52  N   UNL A   1      45.163  30.116  28.714  1.00  0.00    -0.354 N 
ATOM     53  N   UNL A   1      42.410  30.664  29.559  1.00  0.00    -0.248 NA
ATOM     54  C   UNL A   1      40.827  32.107  30.490  1.00  0.00     0.031 C 
ATOM     55  C   UNL A   1      46.636  31.776  28.770  1.00  0.00     0.029 A 
ATOM     56  C   UNL A   1      45.309  31.461  29.008  1.00  0.00     0.049 A 
ATOM     57  H   UNL A   1      44.325  29.607  28.795  1.00  0.00     0.167 HD
ATOM     58  C   UNL A   1      42.983  31.919  29.730  1.00  0.00     0.074 A 
ATOM     59  C   UNL A   1      41.948  32.780  30.264  1.00  0.00     0.031 C 
ATOM     60  C   UNL A   1      44.255  32.320  29.483  1.00  0.00     0.034 A 
BRANCH  47  61
ATOM     61  C   UNL A   1      47.972  27.794  27.508  1.00  0.00     0.023 A 
ATOM     62  C   UNL A   1      48.867  27.349  28.502  1.00  0.00     0.012 A 
ATOM     63  C   UNL A   1      48.376  27.778  26.158  1.00  0.00     0.148 A 
ATOM     64  C   UNL A   1      50.153  26.931  28.166  1.00  0.00     0.002 A 
ATOM     65  C   UNL A   1      49.646  27.317  25.826  1.00  0.00     0.091 A 
ATOM     66  F   UNL A   1      47.520  28.225  25.228  1.00  0.00    -0.205 F 
ATOM     67  C   UNL A   1      50.539  26.903  26.829  1.00  0.00     0.022 A 
BRANCH  65  68
ATOM     68  S   UNL A   1      50.208  27.169  24.126  1.00  0.00     0.127 S 
ATOM     69  O   UNL A   1      51.489  26.488  24.297  1.00  0.00    -0.237 OA
ATOM     70  O   UNL A   1      49.156  26.348  23.523  1.00  0.00    -0.237 OA
ATOM     71  O   UNL A   1      50.284  28.528  23.610  1.00  0.00    -0.744 OA
ENDBRANCH  65  68
ENDBRANCH  47  61
BRANCH  48  72
ATOM     72  C   UNL A   1      38.698  30.088  30.421  1.00  0.00     0.023 A 
ATOM     73  C   UNL A   1      38.312  29.743  31.732  1.00  0.00     0.012 A 
ATOM     74  C   UNL A   1      37.786  30.774  29.596  1.00  0.00     0.148 A 
ATOM     75  C   UNL A   1      37.034  30.046  32.201  1.00  0.00     0.002 A 
ATOM     76  C   UNL A   1      36.533  31.120  30.088  1.00  0.00     0.091 A 
ATOM     77  F   UNL A   1      38.166  31.081  28.348  1.00  0.00    -0.205 F 
ATOM     78  C   UNL A   1      36.148  30.742  31.384  1.00  0.00     0.022 A 
BRANCH  76  79
ATOM     79  S   UNL A   1      35.378  32.131  29.154  1.00  0.00     0.127 S 
ATOM     80  O   UNL A   1      36.221  33.252  28.749  1.00  0.00    -0.237 OA
ATOM     81  O   UNL A   1      34.989  31.227  28.073  1.00  0.00    -0.237 OA
ATOM     82  O   UNL A   1      34.301  32.450  30.083  1.00  0.00    -0.744 OA
ENDBRANCH  76  79
ENDBRANCH  48  72
BRANCH  60  83
ATOM     83  C   UNL A   1      44.597  33.761  29.749  1.00  0.00     0.023 A 
ATOM     84  C   UNL A   1      45.071  34.145  31.019  1.00  0.00     0.012 A 
ATOM     85  C   UNL A   1      44.520  34.720  28.721  1.00  0.00     0.148 A 
ATOM     86  C   UNL A   1      45.430  35.469  31.271  1.00  0.00     0.002 A 
ATOM     87  C   UNL A   1      44.925  36.028  28.965  1.00  0.00     0.091 A 
ATOM     88  F   UNL A   1      44.048  34.341  27.524  1.00  0.00    -0.205 F 
ATOM     89  C   UNL A   1      45.368  36.406  30.243  1.00  0.00     0.022 A 
BRANCH  87  90
ATOM     90  S   UNL A   1      44.969  37.273  27.672  1.00  0.00     0.127 S 
ATOM     91  O   UNL A   1      45.429  38.451  28.406  1.00  0.00    -0.237 OA
ATOM     92  O   UNL A   1      45.948  36.718  26.736  1.00  0.00    -0.237 OA
ATOM     93  O   UNL A   1      43.613  37.349  27.145  1.00  0.00    -0.744 OA
ENDBRANCH  87  90
ENDBRANCH  60  83
ENDBRANCH  34  35
ENDBRANCH  26  29
ENDBRANCH  24  25
ENDBRANCH   1  24
TORSDOF 19
ENDMDL
MODEL 3
REMARK VINA RESULT:     -10.4      2.493      3.317
REMARK SMILES CC[C@@](O)(C(=O)NCCCNC(=O)c1ccc(-c2c3nc(c(-c4cccc(S(=O)(=O)[O-])c4F)c4ccc([nH]4)c(-c4cccc(S(=O)(=O)[O-])c4F)c4nc(c(-c5cccc(S(=O)(=O)[O-])c5F)c5ccc2[nH]5)C=C4)C=C3)cc1)[C@@H](C)c1ccc(OC)c(OC)c1
REMARK SMILES IDX 9 1 8 2 7 3 5 4 6 5 3 7 2 8 1 9 4 10 77 12 78 13 79 14 80 15
REMARK SMILES IDX 88 16 81 17 85 18 82 19 86 20 87 21 83 22 84 23 10 24 11 25
REMARK SMILES IDX 12 26 13 28 14 29 15 30 76 31 16 32 75 33 17 34 18 35 19 36
REMARK SMILES IDX 69 37 20 38 74 39 68 40 70 41 21 42 73 43 67 44 66 45 22 47
REMARK SMILES IDX 54 48 34 49 53 50 35 51 38 52 52 53 71 54 36 55 37 56 51 58
REMARK SMILES IDX 72 59 39 60 23 61 24 62 32 63 25 64 27 65 33 66 26 67 28 68
REMARK SMILES IDX 29 69 30 70 31 71 55 72 56 73 64 74 57 75 59 76 65 77 58 78
REMARK SMILES IDX 60 79 61 80 62 81 63 82 40 83 41 84 49 85 42 86 44 87 50 88
REMARK SMILES IDX 43 89 45 90 46 91 47 92 48 93
REMARK H PARENT 7 6 4 11 11 27 70 46 38 57
REMARK Flexibility Score: inf
ROOT
ATOM      1  C   UNL A   1      38.310  19.369  25.216  1.00  0.00     0.042 C 
ENDROOT
BRANCH   1   2
ATOM      2  C   UNL A   1      37.291  20.308  24.578  1.00  0.00     0.117 C 
BRANCH   2   3
ATOM      3  N   UNL A   1      35.916  20.124  25.036  1.00  0.00    -0.354 N 
ATOM      4  C   UNL A   1      34.882  21.016  25.179  1.00  0.00     0.252 C 
ATOM      5  O   UNL A   1      33.764  20.535  25.386  1.00  0.00    -0.272 OA
ATOM      6  H   UNL A   1      35.691  19.198  25.285  1.00  0.00     0.163 HD
BRANCH   4   7
ATOM      7  C   UNL A   1      35.125  22.570  25.116  1.00  0.00     0.149 C 
BRANCH   7   8
ATOM      8  C   UNL A   1      36.233  22.868  26.166  1.00  0.00     0.043 C 
ATOM      9  C   UNL A   1      37.340  23.839  25.801  1.00  0.00     0.007 C 
ENDBRANCH   7   8
BRANCH   7  10
ATOM     10  O   UNL A   1      35.570  22.837  23.778  1.00  0.00    -0.379 OA
ATOM     11  H   UNL A   1      35.209  23.687  23.481  1.00  0.00     0.212 HD
ENDBRANCH   7  10
BRANCH   7  12
ATOM     12  C   UNL A   1      33.755  23.342  25.346  1.00  0.00     0.058 C 
ATOM     13  C   UNL A   1      33.269  23.237  26.809  1.00  0.00     0.016 C 
BRANCH  12  14
ATOM     14  C   UNL A   1      33.642  24.814  24.900  1.00  0.00    -0.038 A 
ATOM     15  C   UNL A   1      33.897  25.898  25.740  1.00  0.00     0.008 A 
ATOM     16  C   UNL A   1      33.222  25.115  23.587  1.00  0.00     0.054 A 
ATOM     17  C   UNL A   1      33.604  27.205  25.358  1.00  0.00     0.051 A 
ATOM     18  C   UNL A   1      32.988  26.438  23.163  1.00  0.00     0.160 A 
ATOM     19  C   UNL A   1      33.130  27.484  24.081  1.00  0.00     0.160 A 
BRANCH  18  20
ATOM     20  O   UNL A   1      32.539  26.731  21.901  1.00  0.00    -0.493 OA
ATOM     21  C   UNL A   1      32.513  25.624  21.004  1.00  0.00     0.278 C 
ENDBRANCH  18  20
BRANCH  19  22
ATOM     22  O   UNL A   1      32.793  28.797  23.897  1.00  0.00    -0.493 OA
ATOM     23  C   UNL A   1      31.439  29.126  24.165  1.00  0.00     0.278 C 
ENDBRANCH  19  22
ENDBRANCH  12  14
ENDBRANCH   7  12
ENDBRANCH   4   7
ENDBRANCH   2   3
ENDBRANCH   1   2
BRANCH   1  24
ATOM     24  C   UNL A   1      39.348  20.058  26.088  1.00  0.00     0.118 C 
BRANCH  24  25
ATOM     25  N   UNL A   1      40.605  19.328  26.127  1.00  0.00    -0.352 N 
ATOM     26  C   UNL A   1      41.895  19.789  26.225  1.00  0.00     0.251 C 
ATOM     27  H   UNL A   1      40.517  18.349  26.076  1.00  0.00     0.163 HD
ATOM     28  O   UNL A   1      42.821  19.011  26.009  1.00  0.00    -0.269 OA
BRANCH  26  29
ATOM     29  C   UNL A   1      42.182  21.201  26.578  1.00  0.00     0.039 A 
ATOM     30  C   UNL A   1      42.346  21.538  27.925  1.00  0.00     0.014 A 
ATOM     31  C   UNL A   1      42.230  22.203  25.606  1.00  0.00     0.014 A 
ATOM     32  C   UNL A   1      42.593  22.865  28.290  1.00  0.00     0.010 A 
ATOM     33  C   UNL A   1      42.569  23.507  25.961  1.00  0.00     0.010 A 
ATOM     34  C   UNL A   1      42.726  23.860  27.309  1.00  0.00    -0.014 A 
BRANCH  34  35
ATOM     35  C   UNL A   1      42.990  25.277  27.674  1.00  0.00     0.031 A 
ATOM     36  C   UNL A   1      44.393  25.828  27.613  1.00  0.00     0.074 A 
ATOM     37  C   UNL A   1      41.984  26.051  28.127  1.00  0.00     0.049 A 
ATOM     38  N   UNL A   1      44.824  27.023  27.924  1.00  0.00    -0.248 NA
ATOM     39  C   UNL A   1      45.455  24.907  27.175  1.00  0.00     0.031 C 
ATOM     40  C   UNL A   1      40.599  25.614  28.316  1.00  0.00     0.029 A 
ATOM     41  N   UNL A   1      41.977  27.362  28.535  1.00  0.00    -0.354 N 
ATOM     42  C   UNL A   1      46.205  26.985  27.763  1.00  0.00     0.074 A 
ATOM     43  C   UNL A   1      46.544  25.638  27.360  1.00  0.00     0.031 C 
ATOM     44  C   UNL A   1      39.876  26.641  28.793  1.00  0.00     0.029 A 
ATOM     45  C   UNL A   1      40.746  27.799  28.965  1.00  0.00     0.049 A 
ATOM     46  H   UNL A   1      42.777  27.935  28.521  1.00  0.00     0.167 HD
ATOM     47  C   UNL A   1      47.107  27.986  27.899  1.00  0.00     0.034 A 
ATOM     48  C   UNL A   1      40.360  29.001  29.441  1.00  0.00     0.034 A 
ATOM     49  C   UNL A   1      46.760  29.340  28.237  1.00  0.00     0.049 A 
ATOM     50  C   UNL A   1      41.369  30.116  29.514  1.00  0.00     0.074 A 
ATOM     51  C   UNL A   1      47.584  30.448  28.303  1.00  0.00     0.029 A 
ATOM     52  N   UNL A   1      45.483  29.770  28.562  1.00  0.00    -0.354 N 
ATOM     53  N   UNL A   1      42.640  30.102  29.194  1.00  0.00    -0.248 NA
ATOM     54  C   UNL A   1      40.880  31.425  29.972  1.00  0.00     0.031 C 
ATOM     55  C   UNL A   1      46.807  31.548  28.683  1.00  0.00     0.029 A 
ATOM     56  C   UNL A   1      45.496  31.127  28.833  1.00  0.00     0.049 A 
ATOM     57  H   UNL A   1      44.685  29.194  28.596  1.00  0.00     0.167 HD
ATOM     58  C   UNL A   1      43.094  31.404  29.374  1.00  0.00     0.074 A 
ATOM     59  C   UNL A   1      41.955  32.185  29.811  1.00  0.00     0.031 C 
ATOM     60  C   UNL A   1      44.343  31.904  29.209  1.00  0.00     0.034 A 
BRANCH  47  61
ATOM     61  C   UNL A   1      48.554  27.668  27.619  1.00  0.00     0.023 A 
ATOM     62  C   UNL A   1      49.380  27.214  28.667  1.00  0.00     0.012 A 
ATOM     63  C   UNL A   1      49.081  27.764  26.316  1.00  0.00     0.148 A 
ATOM     64  C   UNL A   1      50.716  26.895  28.432  1.00  0.00     0.002 A 
ATOM     65  C   UNL A   1      50.403  27.402  26.081  1.00  0.00     0.091 A 
ATOM     66  F   UNL A   1      48.288  28.218  25.336  1.00  0.00    -0.205 F 
ATOM     67  C   UNL A   1      51.225  26.978  27.139  1.00  0.00     0.022 A 
BRANCH  65  68
ATOM     68  S   UNL A   1      51.129  27.398  24.438  1.00  0.00     0.127 S 
ATOM     69  O   UNL A   1      51.239  28.829  24.161  1.00  0.00    -0.237 OA
ATOM     70  O   UNL A   1      52.407  26.721  24.666  1.00  0.00    -0.237 OA
ATOM     71  O   UNL A   1      50.199  26.666  23.591  1.00  0.00    -0.744 OA
ENDBRANCH  65  68
ENDBRANCH  47  61
BRANCH  48  72
ATOM     72  C   UNL A   1      38.933  29.234  29.801  1.00  0.00     0.023 A 
ATOM     73  C   UNL A   1      38.498  28.950  31.110  1.00  0.00     0.012 A 
ATOM     74  C   UNL A   1      38.015  29.763  28.873  1.00  0.00     0.148 A 
ATOM     75  C   UNL A   1      37.169  29.155  31.480  1.00  0.00     0.002 A 
ATOM     76  C   UNL A   1      36.705  30.016  29.263  1.00  0.00     0.091 A 
ATOM     77  F   UNL A   1      38.445  30.015  27.628  1.00  0.00    -0.205 F 
ATOM     78  C   UNL A   1      36.275  29.697  30.561  1.00  0.00     0.022 A 
BRANCH  76  79
ATOM     79  S   UNL A   1      35.523  30.834  28.187  1.00  0.00     0.127 S 
ATOM     80  O   UNL A   1      36.315  31.936  27.651  1.00  0.00    -0.237 OA
ATOM     81  O   UNL A   1      35.205  29.778  27.227  1.00  0.00    -0.237 OA
ATOM     82  O   UNL A   1      34.410  31.213  29.049  1.00  0.00    -0.744 OA
ENDBRANCH  76  79
ENDBRANCH  48  72
BRANCH  60  83
ATOM     83  C   UNL A   1      44.546  33.374  29.463  1.00  0.00     0.023 A 
ATOM     84  C   UNL A   1      44.949  33.815  30.739  1.00  0.00     0.012 A 
ATOM     85  C   UNL A   1      44.409  34.310  28.419  1.00  0.00     0.148 A 
ATOM     86  C   UNL A   1      45.179  35.168  30.981  1.00  0.00     0.002 A 
ATOM     87  C   UNL A   1      44.687  35.651  28.656  1.00  0.00     0.091 A 
ATOM     88  F   UNL A   1      44.006  33.875  27.217  1.00  0.00    -0.205 F 
ATOM     89  C   UNL A   1      45.060  36.084  29.938  1.00  0.00     0.022 A 
BRANCH  87  90
ATOM     90  S   UNL A   1      44.652  36.880  27.346  1.00  0.00     0.127 S 
ATOM     91  O   UNL A   1      45.659  36.361  26.422  1.00  0.00    -0.237 OA
ATOM     92  O   UNL A   1      43.274  36.782  26.862  1.00  0.00    -0.237 OA
ATOM     93  O   UNL A   1      44.976  38.150  27.982  1.00  0.00    -0.744 OA
ENDBRANCH  87  90
ENDBRANCH  60  83
ENDBRANCH  34  35
ENDBRANCH  26  29
ENDBRANCH  24  25
ENDBRANCH   1  24
TORSDOF 19
ENDMDL
