MODEL 1
REMARK VINA RESULT:      -9.1      0.000      0.000
REMARK SMILES C[C@@H](C(=O)NCCCNC(=O)c1ccc(-c2c3nc(c(-c4cccc(S(=O)(=O)[O-])c4F)c4ccc([nH]4)c(-c4cccc(S(=O)(=O)[O-])c4F)c4nc(c(-c5cccc(S(=O)(=O)[O-])c5F)c5ccc2[nH]5)C=C4)C=C3)cc1)c1ccc(-c2cccc(OC(=O)NCCCc3ccccc3)c2)c(F)c1
REMARK SMILES IDX 1 1 2 2 3 3 4 4 5 5 6 7 7 8 8 9 9 10 10 11 11 13 12 14 13 15
REMARK SMILES IDX 74 16 14 17 73 18 15 19 16 20 17 21 67 22 18 23 72 24 66 25
REMARK SMILES IDX 68 26 19 27 71 28 65 29 64 30 20 32 52 33 32 34 51 35 33 36
REMARK SMILES IDX 36 37 50 38 69 39 34 40 35 41 49 43 70 44 37 45 21 46 22 47
REMARK SMILES IDX 30 48 23 49 25 50 31 51 24 52 26 53 27 54 28 55 29 56 53 57
REMARK SMILES IDX 54 58 62 59 55 60 57 61 63 62 56 63 58 64 59 65 60 66 61 67
REMARK SMILES IDX 38 68 39 69 47 70 40 71 42 72 48 73 41 74 43 75 44 76 45 77
REMARK SMILES IDX 46 78 75 79 76 80 100 81 77 82 98 83 78 84 99 85 79 86 80 87
REMARK SMILES IDX 97 88 81 89 83 90 82 91 84 92 85 93 86 94 87 95 88 97 89 98
REMARK SMILES IDX 90 99 91 100 92 101 96 102 93 103 95 104 94 105
REMARK H PARENT 5 6 9 12 68 31 36 42 87 96
REMARK Flexibility Score: inf
ROOT
ATOM      1  C   UNL A   1      42.835  23.827  28.425  1.00  0.00     0.023 C 
ATOM      2  C   UNL A   1      42.101  24.324  27.179  1.00  0.00     0.105 C 
ENDROOT
BRANCH   2   3
ATOM      3  C   UNL A   1      41.354  23.213  26.422  1.00  0.00     0.227 C 
ATOM      4  O   UNL A   1      40.222  22.826  26.716  1.00  0.00    -0.274 OA
ATOM      5  N   UNL A   1      41.929  22.636  25.329  1.00  0.00    -0.356 N 
ATOM      6  H   UNL A   1      41.345  22.024  24.825  1.00  0.00     0.163 HD
BRANCH   5   7
ATOM      7  C   UNL A   1      43.266  22.789  24.794  1.00  0.00     0.117 C 
BRANCH   7   8
ATOM      8  C   UNL A   1      44.201  21.714  25.335  1.00  0.00     0.042 C 
BRANCH   8   9
ATOM      9  C   UNL A   1      45.461  22.272  25.981  1.00  0.00     0.118 C 
BRANCH   9  10
ATOM     10  N   UNL A   1      46.374  22.855  25.005  1.00  0.00    -0.352 N 
ATOM     11  C   UNL A   1      46.691  24.175  24.798  1.00  0.00     0.251 C 
ATOM     12  H   UNL A   1      46.827  22.212  24.412  1.00  0.00     0.163 HD
ATOM     13  O   UNL A   1      47.324  24.508  23.801  1.00  0.00    -0.269 OA
BRANCH  11  14
ATOM     14  C   UNL A   1      46.250  25.188  25.777  1.00  0.00     0.039 A 
ATOM     15  C   UNL A   1      45.025  25.834  25.591  1.00  0.00     0.014 A 
ATOM     16  C   UNL A   1      47.043  25.482  26.889  1.00  0.00     0.014 A 
ATOM     17  C   UNL A   1      44.565  26.731  26.558  1.00  0.00     0.010 A 
ATOM     18  C   UNL A   1      46.545  26.304  27.889  1.00  0.00     0.010 A 
ATOM     19  C   UNL A   1      45.307  26.948  27.729  1.00  0.00    -0.014 A 
BRANCH  19  20
ATOM     20  C   UNL A   1      44.840  27.856  28.806  1.00  0.00     0.031 A 
ATOM     21  C   UNL A   1      44.839  29.341  28.569  1.00  0.00     0.074 A 
ATOM     22  C   UNL A   1      44.550  27.363  30.026  1.00  0.00     0.049 A 
ATOM     23  N   UNL A   1      44.644  30.314  29.419  1.00  0.00    -0.248 NA
ATOM     24  C   UNL A   1      45.139  29.790  27.200  1.00  0.00     0.031 C 
ATOM     25  C   UNL A   1      44.574  25.948  30.395  1.00  0.00     0.029 A 
ATOM     26  N   UNL A   1      44.225  28.008  31.194  1.00  0.00    -0.354 N 
ATOM     27  C   UNL A   1      44.851  31.486  28.703  1.00  0.00     0.074 A 
ATOM     28  C   UNL A   1      45.220  31.101  27.358  1.00  0.00     0.031 C 
ATOM     29  C   UNL A   1      44.293  25.830  31.702  1.00  0.00     0.029 A 
ATOM     30  C   UNL A   1      44.114  27.163  32.273  1.00  0.00     0.049 A 
ATOM     31  H   UNL A   1      44.084  28.981  31.253  1.00  0.00     0.167 HD
ATOM     32  C   UNL A   1      44.726  32.768  29.119  1.00  0.00     0.034 A 
ATOM     33  C   UNL A   1      43.921  27.430  33.580  1.00  0.00     0.034 A 
ATOM     34  C   UNL A   1      44.328  33.141  30.449  1.00  0.00     0.049 A 
ATOM     35  C   UNL A   1      43.759  28.859  34.020  1.00  0.00     0.074 A 
ATOM     36  C   UNL A   1      44.086  34.406  30.952  1.00  0.00     0.029 A 
ATOM     37  N   UNL A   1      44.126  32.249  31.491  1.00  0.00    -0.354 N 
ATOM     38  N   UNL A   1      43.828  29.954  33.303  1.00  0.00    -0.248 NA
ATOM     39  C   UNL A   1      43.460  29.091  35.440  1.00  0.00     0.031 C 
ATOM     40  C   UNL A   1      43.776  34.283  32.309  1.00  0.00     0.029 A 
ATOM     41  C   UNL A   1      43.774  32.936  32.640  1.00  0.00     0.049 A 
ATOM     42  H   UNL A   1      44.219  31.271  31.425  1.00  0.00     0.167 HD
ATOM     43  C   UNL A   1      43.534  31.000  34.170  1.00  0.00     0.074 A 
ATOM     44  C   UNL A   1      43.287  30.407  35.469  1.00  0.00     0.031 C 
ATOM     45  C   UNL A   1      43.476  32.329  33.912  1.00  0.00     0.034 A 
BRANCH  32  46
ATOM     46  C   UNL A   1      45.003  33.856  28.114  1.00  0.00     0.023 A 
ATOM     47  C   UNL A   1      43.946  34.394  27.349  1.00  0.00     0.012 A 
ATOM     48  C   UNL A   1      46.306  34.360  27.936  1.00  0.00     0.148 A 
ATOM     49  C   UNL A   1      44.191  35.372  26.386  1.00  0.00     0.002 A 
ATOM     50  C   UNL A   1      46.533  35.374  27.013  1.00  0.00     0.091 A 
ATOM     51  F   UNL A   1      47.304  33.825  28.655  1.00  0.00    -0.205 F 
ATOM     52  C   UNL A   1      45.482  35.867  26.225  1.00  0.00     0.022 A 
BRANCH  50  53
ATOM     53  S   UNL A   1      48.143  36.139  26.797  1.00  0.00     0.127 S 
ATOM     54  O   UNL A   1      47.851  37.162  25.794  1.00  0.00    -0.237 OA
ATOM     55  O   UNL A   1      48.419  36.660  28.136  1.00  0.00    -0.237 OA
ATOM     56  O   UNL A   1      49.038  35.074  26.365  1.00  0.00    -0.744 OA
ENDBRANCH  50  53
ENDBRANCH  32  46
BRANCH  33  57
ATOM     57  C   UNL A   1      43.828  26.306  34.553  1.00  0.00     0.023 A 
ATOM     58  C   UNL A   1      42.574  25.727  34.825  1.00  0.00     0.012 A 
ATOM     59  C   UNL A   1      44.980  25.769  35.160  1.00  0.00     0.148 A 
ATOM     60  C   UNL A   1      42.465  24.648  35.703  1.00  0.00     0.002 A 
ATOM     61  C   UNL A   1      44.871  24.659  35.989  1.00  0.00     0.091 A 
ATOM     62  F   UNL A   1      46.163  26.337  34.887  1.00  0.00    -0.205 F 
ATOM     63  C   UNL A   1      43.614  24.107  36.276  1.00  0.00     0.022 A 
BRANCH  61  64
ATOM     64  S   UNL A   1      46.305  23.812  36.664  1.00  0.00     0.127 S 
ATOM     65  O   UNL A   1      45.707  23.023  37.739  1.00  0.00    -0.237 OA
ATOM     66  O   UNL A   1      46.763  23.037  35.511  1.00  0.00    -0.237 OA
ATOM     67  O   UNL A   1      47.222  24.860  37.092  1.00  0.00    -0.744 OA
ENDBRANCH  61  64
ENDBRANCH  33  57
BRANCH  45  68
ATOM     68  C   UNL A   1      43.062  33.251  35.029  1.00  0.00     0.023 A 
ATOM     69  C   UNL A   1      44.028  33.817  35.881  1.00  0.00     0.012 A 
ATOM     70  C   UNL A   1      41.714  33.646  35.150  1.00  0.00     0.148 A 
ATOM     71  C   UNL A   1      43.655  34.750  36.850  1.00  0.00     0.002 A 
ATOM     72  C   UNL A   1      41.359  34.614  36.080  1.00  0.00     0.091 A 
ATOM     73  F   UNL A   1      40.809  33.079  34.338  1.00  0.00    -0.205 F 
ATOM     74  C   UNL A   1      42.327  35.158  36.940  1.00  0.00     0.022 A 
BRANCH  72  75
ATOM     75  S   UNL A   1      39.694  35.277  36.193  1.00  0.00     0.127 S 
ATOM     76  O   UNL A   1      39.442  35.686  34.812  1.00  0.00    -0.237 OA
ATOM     77  O   UNL A   1      38.928  34.111  36.634  1.00  0.00    -0.237 OA
ATOM     78  O   UNL A   1      39.755  36.365  37.161  1.00  0.00    -0.744 OA
ENDBRANCH  72  75
ENDBRANCH  45  68
ENDBRANCH  19  20
ENDBRANCH  11  14
ENDBRANCH   9  10
ENDBRANCH   8   9
ENDBRANCH   7   8
ENDBRANCH   5   7
ENDBRANCH   2   3
BRANCH   2  79
ATOM     79  C   UNL A   1      41.180  25.465  27.584  1.00  0.00    -0.033 A 
ATOM     80  C   UNL A   1      40.396  25.379  28.745  1.00  0.00     0.005 A 
ATOM     81  C   UNL A   1      41.117  26.626  26.808  1.00  0.00     0.044 A 
ATOM     82  C   UNL A   1      39.557  26.427  29.118  1.00  0.00     0.012 A 
ATOM     83  C   UNL A   1      40.279  27.668  27.190  1.00  0.00     0.131 A 
ATOM     84  C   UNL A   1      39.478  27.589  28.340  1.00  0.00     0.018 A 
ATOM     85  F   UNL A   1      40.241  28.762  26.411  1.00  0.00    -0.206 F 
BRANCH  84  86
ATOM     86  C   UNL A   1      38.507  28.632  28.673  1.00  0.00    -0.012 A 
ATOM     87  C   UNL A   1      38.218  29.691  27.799  1.00  0.00     0.009 A 
ATOM     88  C   UNL A   1      37.889  28.610  29.932  1.00  0.00     0.056 A 
ATOM     89  C   UNL A   1      37.336  30.706  28.178  1.00  0.00     0.004 A 
ATOM     90  C   UNL A   1      37.027  29.627  30.312  1.00  0.00     0.133 A 
ATOM     91  C   UNL A   1      36.742  30.677  29.438  1.00  0.00     0.047 A 
BRANCH  90  92
ATOM     92  O   UNL A   1      36.372  29.671  31.562  1.00  0.00    -0.410 OA
BRANCH  92  93
ATOM     93  C   UNL A   1      36.965  29.420  32.797  1.00  0.00     0.412 C 
ATOM     94  O   UNL A   1      37.381  28.350  33.216  1.00  0.00    -0.224 OA
ATOM     95  N   UNL A   1      37.077  30.543  33.564  1.00  0.00    -0.321 N 
ATOM     96  H   UNL A   1      37.391  30.429  34.491  1.00  0.00     0.167 HD
BRANCH  95  97
ATOM     97  C   UNL A   1      36.774  31.883  33.132  1.00  0.00     0.120 C 
BRANCH  97  98
ATOM     98  C   UNL A   1      37.990  32.801  33.044  1.00  0.00     0.026 C 
BRANCH  98  99
ATOM     99  C   UNL A   1      38.708  32.927  31.695  1.00  0.00     0.037 C 
BRANCH  99 100
ATOM    100  C   UNL A   1      39.731  31.899  31.265  1.00  0.00    -0.048 A 
ATOM    101  C   UNL A   1      40.384  31.893  30.029  1.00  0.00     0.004 A 
ATOM    102  C   UNL A   1      39.991  30.837  32.149  1.00  0.00     0.004 A 
ATOM    103  C   UNL A   1      41.258  30.857  29.681  1.00  0.00     0.000 A 
ATOM    104  C   UNL A   1      40.873  29.808  31.809  1.00  0.00     0.000 A 
ATOM    105  C   UNL A   1      41.502  29.816  30.569  1.00  0.00     0.000 A 
ENDBRANCH  99 100
ENDBRANCH  98  99
ENDBRANCH  97  98
ENDBRANCH  95  97
ENDBRANCH  92  93
ENDBRANCH  90  92
ENDBRANCH  84  86
ENDBRANCH   2  79
TORSDOF 21
ENDMDL
MODEL 2
REMARK VINA RESULT:      -8.9      2.024      2.711
REMARK SMILES C[C@@H](C(=O)NCCCNC(=O)c1ccc(-c2c3nc(c(-c4cccc(S(=O)(=O)[O-])c4F)c4ccc([nH]4)c(-c4cccc(S(=O)(=O)[O-])c4F)c4nc(c(-c5cccc(S(=O)(=O)[O-])c5F)c5ccc2[nH]5)C=C4)C=C3)cc1)c1ccc(-c2cccc(OC(=O)NCCCc3ccccc3)c2)c(F)c1
REMARK SMILES IDX 1 1 2 2 3 3 4 4 5 5 6 7 7 8 8 9 9 10 10 11 11 13 12 14 13 15
REMARK SMILES IDX 74 16 14 17 73 18 15 19 16 20 17 21 67 22 18 23 72 24 66 25
REMARK SMILES IDX 68 26 19 27 71 28 65 29 64 30 20 32 52 33 32 34 51 35 33 36
REMARK SMILES IDX 36 37 50 38 69 39 34 40 35 41 49 43 70 44 37 45 21 46 22 47
REMARK SMILES IDX 30 48 23 49 25 50 31 51 24 52 26 53 27 54 28 55 29 56 53 57
REMARK SMILES IDX 54 58 62 59 55 60 57 61 63 62 56 63 58 64 59 65 60 66 61 67
REMARK SMILES IDX 38 68 39 69 47 70 40 71 42 72 48 73 41 74 43 75 44 76 45 77
REMARK SMILES IDX 46 78 75 79 76 80 100 81 77 82 98 83 78 84 99 85 79 86 80 87
REMARK SMILES IDX 97 88 81 89 83 90 82 91 84 92 85 93 86 94 87 95 88 97 89 98
REMARK SMILES IDX 90 99 91 100 92 101 96 102 93 103 95 104 94 105
REMARK H PARENT 5 6 9 12 68 31 36 42 87 96
REMARK Flexibility Score: inf
ROOT
ATOM      1  C   UNL A   1      40.125  24.066  27.449  1.00  0.00     0.023 C 
ATOM      2  C   UNL A   1      41.242  25.098  27.290  1.00  0.00     0.105 C 
ENDROOT
BRANCH   2   3
ATOM      3  C   UNL A   1      41.805  25.179  25.862  1.00  0.00     0.227 C 
ATOM      4  O   UNL A   1      41.382  25.953  25.001  1.00  0.00    -0.274 OA
ATOM      5  N   UNL A   1      42.864  24.397  25.508  1.00  0.00    -0.356 N 
ATOM      6  H   UNL A   1      43.247  24.590  24.621  1.00  0.00     0.163 HD
BRANCH   5   7
ATOM      7  C   UNL A   1      43.513  23.328  26.238  1.00  0.00     0.117 C 
BRANCH   7   8
ATOM      8  C   UNL A   1      44.893  23.028  25.664  1.00  0.00     0.042 C 
BRANCH   8   9
ATOM      9  C   UNL A   1      45.998  23.891  26.254  1.00  0.00     0.118 C 
BRANCH   9  10
ATOM     10  N   UNL A   1      46.701  24.666  25.239  1.00  0.00    -0.352 N 
ATOM     11  C   UNL A   1      46.657  26.018  25.000  1.00  0.00     0.251 C 
ATOM     12  H   UNL A   1      47.288  24.149  24.642  1.00  0.00     0.163 HD
ATOM     13  O   UNL A   1      47.153  26.479  23.976  1.00  0.00    -0.269 OA
BRANCH  11  14
ATOM     14  C   UNL A   1      45.995  26.907  25.975  1.00  0.00     0.039 A 
ATOM     15  C   UNL A   1      44.642  27.215  25.815  1.00  0.00     0.014 A 
ATOM     16  C   UNL A   1      46.714  27.416  27.060  1.00  0.00     0.014 A 
ATOM     17  C   UNL A   1      43.992  27.986  26.781  1.00  0.00     0.010 A 
ATOM     18  C   UNL A   1      46.046  28.106  28.062  1.00  0.00     0.010 A 
ATOM     19  C   UNL A   1      44.682  28.409  27.927  1.00  0.00    -0.014 A 
BRANCH  19  20
ATOM     20  C   UNL A   1      44.024  29.192  29.004  1.00  0.00     0.031 A 
ATOM     21  C   UNL A   1      43.859  30.678  28.840  1.00  0.00     0.074 A 
ATOM     22  C   UNL A   1      43.703  28.598  30.170  1.00  0.00     0.049 A 
ATOM     23  N   UNL A   1      43.481  31.570  29.716  1.00  0.00    -0.248 NA
ATOM     24  C   UNL A   1      44.208  31.238  27.524  1.00  0.00     0.031 C 
ATOM     25  C   UNL A   1      43.872  27.176  30.471  1.00  0.00     0.029 A 
ATOM     26  N   UNL A   1      43.210  29.131  31.335  1.00  0.00    -0.354 N 
ATOM     27  C   UNL A   1      43.597  32.797  29.078  1.00  0.00     0.074 A 
ATOM     28  C   UNL A   1      44.114  32.537  27.752  1.00  0.00     0.031 C 
ATOM     29  C   UNL A   1      43.506  26.950  31.742  1.00  0.00     0.029 A 
ATOM     30  C   UNL A   1      43.120  28.217  32.360  1.00  0.00     0.049 A 
ATOM     31  H   UNL A   1      42.947  30.074  31.430  1.00  0.00     0.167 HD
ATOM     32  C   UNL A   1      43.283  34.029  29.543  1.00  0.00     0.034 A 
ATOM     33  C   UNL A   1      42.795  28.383  33.657  1.00  0.00     0.034 A 
ATOM     34  C   UNL A   1      42.741  34.274  30.851  1.00  0.00     0.049 A 
ATOM     35  C   UNL A   1      42.424  29.755  34.150  1.00  0.00     0.074 A 
ATOM     36  C   UNL A   1      42.307  35.471  31.392  1.00  0.00     0.029 A 
ATOM     37  N   UNL A   1      42.569  33.306  31.828  1.00  0.00    -0.354 N 
ATOM     38  N   UNL A   1      42.414  30.890  33.495  1.00  0.00    -0.248 NA
ATOM     39  C   UNL A   1      41.989  29.866  35.549  1.00  0.00     0.031 C 
ATOM     40  C   UNL A   1      41.909  35.233  32.711  1.00  0.00     0.029 A 
ATOM     41  C   UNL A   1      42.047  33.878  32.975  1.00  0.00     0.049 A 
ATOM     42  H   UNL A   1      42.786  32.351  31.723  1.00  0.00     0.167 HD
ATOM     43  C   UNL A   1      41.928  31.841  34.384  1.00  0.00     0.074 A 
ATOM     44  C   UNL A   1      41.655  31.148  35.627  1.00  0.00     0.031 C 
ATOM     45  C   UNL A   1      41.727  33.167  34.187  1.00  0.00     0.034 A 
BRANCH  32  46
ATOM     46  C   UNL A   1      43.502  35.199  28.619  1.00  0.00     0.023 A 
ATOM     47  C   UNL A   1      42.453  35.646  27.789  1.00  0.00     0.012 A 
ATOM     48  C   UNL A   1      44.741  35.868  28.582  1.00  0.00     0.148 A 
ATOM     49  C   UNL A   1      42.650  36.701  26.897  1.00  0.00     0.002 A 
ATOM     50  C   UNL A   1      44.913  36.953  27.731  1.00  0.00     0.091 A 
ATOM     51  F   UNL A   1      45.736  35.419  29.361  1.00  0.00    -0.205 F 
ATOM     52  C   UNL A   1      43.876  37.359  26.876  1.00  0.00     0.022 A 
BRANCH  50  53
ATOM     53  S   UNL A   1      46.425  37.921  27.696  1.00  0.00     0.127 S 
ATOM     54  O   UNL A   1      46.188  38.797  26.549  1.00  0.00    -0.237 OA
ATOM     55  O   UNL A   1      46.390  38.595  28.994  1.00  0.00    -0.237 OA
ATOM     56  O   UNL A   1      47.510  36.963  27.539  1.00  0.00    -0.744 OA
ENDBRANCH  50  53
ENDBRANCH  32  46
BRANCH  33  57
ATOM     57  C   UNL A   1      42.765  27.201  34.563  1.00  0.00     0.023 A 
ATOM     58  C   UNL A   1      41.558  26.502  34.750  1.00  0.00     0.012 A 
ATOM     59  C   UNL A   1      43.937  26.731  35.188  1.00  0.00     0.148 A 
ATOM     60  C   UNL A   1      41.512  25.369  35.563  1.00  0.00     0.002 A 
ATOM     61  C   UNL A   1      43.895  25.570  35.951  1.00  0.00     0.091 A 
ATOM     62  F   UNL A   1      45.074  27.413  34.996  1.00  0.00    -0.205 F 
ATOM     63  C   UNL A   1      42.681  24.897  36.154  1.00  0.00     0.022 A 
BRANCH  61  64
ATOM     64  S   UNL A   1      45.371  24.812  36.639  1.00  0.00     0.127 S 
ATOM     65  O   UNL A   1      45.801  25.818  37.607  1.00  0.00    -0.237 OA
ATOM     66  O   UNL A   1      44.831  23.584  37.223  1.00  0.00    -0.237 OA
ATOM     67  O   UNL A   1      46.272  24.600  35.514  1.00  0.00    -0.744 OA
ENDBRANCH  61  64
ENDBRANCH  33  57
BRANCH  45  68
ATOM     68  C   UNL A   1      41.117  33.967  35.307  1.00  0.00     0.023 A 
ATOM     69  C   UNL A   1      39.720  34.015  35.471  1.00  0.00     0.012 A 
ATOM     70  C   UNL A   1      41.949  34.574  36.270  1.00  0.00     0.148 A 
ATOM     71  C   UNL A   1      39.160  34.671  36.568  1.00  0.00     0.002 A 
ATOM     72  C   UNL A   1      41.386  35.179  37.386  1.00  0.00     0.091 A 
ATOM     73  F   UNL A   1      43.277  34.531  36.082  1.00  0.00    -0.205 F 
ATOM     74  C   UNL A   1      39.991  35.239  37.531  1.00  0.00     0.022 A 
BRANCH  72  75
ATOM     75  S   UNL A   1      42.380  35.841  38.727  1.00  0.00     0.127 S 
ATOM     76  O   UNL A   1      41.354  36.361  39.629  1.00  0.00    -0.237 OA
ATOM     77  O   UNL A   1      43.072  34.647  39.215  1.00  0.00    -0.237 OA
ATOM     78  O   UNL A   1      43.250  36.846  38.131  1.00  0.00    -0.744 OA
ENDBRANCH  72  75
ENDBRANCH  45  68
ENDBRANCH  19  20
ENDBRANCH  11  14
ENDBRANCH   9  10
ENDBRANCH   8   9
ENDBRANCH   7   8
ENDBRANCH   5   7
ENDBRANCH   2   3
BRANCH   2  79
ATOM     79  C   UNL A   1      40.731  26.443  27.785  1.00  0.00    -0.033 A 
ATOM     80  C   UNL A   1      40.403  27.465  26.880  1.00  0.00     0.005 A 
ATOM     81  C   UNL A   1      40.565  26.672  29.154  1.00  0.00     0.044 A 
ATOM     82  C   UNL A   1      39.931  28.695  27.333  1.00  0.00     0.012 A 
ATOM     83  C   UNL A   1      40.089  27.901  29.597  1.00  0.00     0.131 A 
ATOM     84  C   UNL A   1      39.773  28.937  28.704  1.00  0.00     0.018 A 
ATOM     85  F   UNL A   1      39.953  28.082  30.921  1.00  0.00    -0.206 F 
BRANCH  84  86
ATOM     86  C   UNL A   1      39.390  30.268  29.176  1.00  0.00    -0.012 A 
ATOM     87  C   UNL A   1      40.151  30.973  30.122  1.00  0.00     0.009 A 
ATOM     88  C   UNL A   1      38.193  30.835  28.718  1.00  0.00     0.056 A 
ATOM     89  C   UNL A   1      39.720  32.213  30.600  1.00  0.00     0.004 A 
ATOM     90  C   UNL A   1      37.759  32.058  29.206  1.00  0.00     0.133 A 
ATOM     91  C   UNL A   1      38.520  32.756  30.145  1.00  0.00     0.047 A 
BRANCH  90  92
ATOM     92  O   UNL A   1      36.564  32.686  28.793  1.00  0.00    -0.410 OA
BRANCH  92  93
ATOM     93  C   UNL A   1      35.279  32.177  28.964  1.00  0.00     0.412 C 
ATOM     94  O   UNL A   1      34.837  31.121  28.537  1.00  0.00    -0.224 OA
ATOM     95  N   UNL A   1      34.486  32.995  29.717  1.00  0.00    -0.321 N 
ATOM     96  H   UNL A   1      33.534  32.754  29.795  1.00  0.00     0.167 HD
BRANCH  95  97
ATOM     97  C   UNL A   1      34.926  34.181  30.406  1.00  0.00     0.120 C 
BRANCH  97  98
ATOM     98  C   UNL A   1      35.385  33.935  31.841  1.00  0.00     0.026 C 
BRANCH  98  99
ATOM     99  C   UNL A   1      35.126  32.555  32.458  1.00  0.00     0.037 C 
BRANCH  99 100
ATOM    100  C   UNL A   1      36.275  31.636  32.807  1.00  0.00    -0.048 A 
ATOM    101  C   UNL A   1      37.287  31.938  33.724  1.00  0.00     0.004 A 
ATOM    102  C   UNL A   1      36.366  30.420  32.107  1.00  0.00     0.004 A 
ATOM    103  C   UNL A   1      38.359  31.062  33.927  1.00  0.00     0.000 A 
ATOM    104  C   UNL A   1      37.429  29.538  32.318  1.00  0.00     0.000 A 
ATOM    105  C   UNL A   1      38.430  29.864  33.225  1.00  0.00     0.000 A 
ENDBRANCH  99 100
ENDBRANCH  98  99
ENDBRANCH  97  98
ENDBRANCH  95  97
ENDBRANCH  92  93
ENDBRANCH  90  92
ENDBRANCH  84  86
ENDBRANCH   2  79
TORSDOF 21
ENDMDL
MODEL 3
REMARK VINA RESULT:      -8.3      1.972      2.701
REMARK SMILES C[C@@H](C(=O)NCCCNC(=O)c1ccc(-c2c3nc(c(-c4cccc(S(=O)(=O)[O-])c4F)c4ccc([nH]4)c(-c4cccc(S(=O)(=O)[O-])c4F)c4nc(c(-c5cccc(S(=O)(=O)[O-])c5F)c5ccc2[nH]5)C=C4)C=C3)cc1)c1ccc(-c2cccc(OC(=O)NCCCc3ccccc3)c2)c(F)c1
REMARK SMILES IDX 1 1 2 2 3 3 4 4 5 5 6 7 7 8 8 9 9 10 10 11 11 13 12 14 13 15
REMARK SMILES IDX 74 16 14 17 73 18 15 19 16 20 17 21 67 22 18 23 72 24 66 25
REMARK SMILES IDX 68 26 19 27 71 28 65 29 64 30 20 32 52 33 32 34 51 35 33 36
REMARK SMILES IDX 36 37 50 38 69 39 34 40 35 41 49 43 70 44 37 45 21 46 22 47
REMARK SMILES IDX 30 48 23 49 25 50 31 51 24 52 26 53 27 54 28 55 29 56 53 57
REMARK SMILES IDX 54 58 62 59 55 60 57 61 63 62 56 63 58 64 59 65 60 66 61 67
REMARK SMILES IDX 38 68 39 69 47 70 40 71 42 72 48 73 41 74 43 75 44 76 45 77
REMARK SMILES IDX 46 78 75 79 76 80 100 81 77 82 98 83 78 84 99 85 79 86 80 87
REMARK SMILES IDX 97 88 81 89 83 90 82 91 84 92 85 93 86 94 87 95 88 97 89 98
REMARK SMILES IDX 90 99 91 100 92 101 96 102 93 103 95 104 94 105
REMARK H PARENT 5 6 9 12 68 31 36 42 87 96
REMARK Flexibility Score: inf
ROOT
ATOM      1  C   UNL A   1      41.606  23.642  28.787  1.00  0.00     0.023 C 
ATOM      2  C   UNL A   1      41.812  24.576  27.594  1.00  0.00     0.105 C 
ENDROOT
BRANCH   2   3
ATOM      3  C   UNL A   1      41.237  24.026  26.278  1.00  0.00     0.227 C 
ATOM      4  O   UNL A   1      40.047  24.101  25.966  1.00  0.00    -0.274 OA
ATOM      5  N   UNL A   1      42.071  23.461  25.360  1.00  0.00    -0.356 N 
ATOM      6  H   UNL A   1      41.654  23.245  24.494  1.00  0.00     0.163 HD
BRANCH   5   7
ATOM      7  C   UNL A   1      43.478  23.133  25.463  1.00  0.00     0.117 C 
BRANCH   7   8
ATOM      8  C   UNL A   1      44.336  24.144  24.710  1.00  0.00     0.042 C 
BRANCH   8   9
ATOM      9  C   UNL A   1      45.749  24.270  25.259  1.00  0.00     0.118 C 
BRANCH   9  10
ATOM     10  N   UNL A   1      46.508  25.328  24.603  1.00  0.00    -0.352 N 
ATOM     11  C   UNL A   1      46.548  26.670  24.892  1.00  0.00     0.251 C 
ATOM     12  H   UNL A   1      47.069  25.040  23.846  1.00  0.00     0.163 HD
ATOM     13  O   UNL A   1      47.082  27.453  24.112  1.00  0.00    -0.269 OA
BRANCH  11  14
ATOM     14  C   UNL A   1      45.932  27.162  26.140  1.00  0.00     0.039 A 
ATOM     15  C   UNL A   1      46.749  27.506  27.219  1.00  0.00     0.014 A 
ATOM     16  C   UNL A   1      44.544  27.299  26.229  1.00  0.00     0.014 A 
ATOM     17  C   UNL A   1      46.175  28.052  28.371  1.00  0.00     0.010 A 
ATOM     18  C   UNL A   1      43.987  27.922  27.337  1.00  0.00     0.010 A 
ATOM     19  C   UNL A   1      44.794  28.293  28.425  1.00  0.00    -0.014 A 
BRANCH  19  20
ATOM     20  C   UNL A   1      44.143  28.911  29.607  1.00  0.00     0.031 A 
ATOM     21  C   UNL A   1      43.785  30.371  29.572  1.00  0.00     0.074 A 
ATOM     22  C   UNL A   1      44.001  28.204  30.745  1.00  0.00     0.049 A 
ATOM     23  N   UNL A   1      43.379  31.146  30.542  1.00  0.00    -0.248 NA
ATOM     24  C   UNL A   1      43.945  31.057  28.280  1.00  0.00     0.031 C 
ATOM     25  C   UNL A   1      44.368  26.799  30.921  1.00  0.00     0.029 A 
ATOM     26  N   UNL A   1      43.552  28.590  31.984  1.00  0.00    -0.354 N 
ATOM     27  C   UNL A   1      43.288  32.419  29.993  1.00  0.00     0.074 A 
ATOM     28  C   UNL A   1      43.713  32.316  28.614  1.00  0.00     0.031 C 
ATOM     29  C   UNL A   1      44.146  26.444  32.197  1.00  0.00     0.029 A 
ATOM     30  C   UNL A   1      43.665  27.606  32.939  1.00  0.00     0.049 A 
ATOM     31  H   UNL A   1      43.185  29.484  32.172  1.00  0.00     0.167 HD
ATOM     32  C   UNL A   1      42.868  33.566  30.576  1.00  0.00     0.034 A 
ATOM     33  C   UNL A   1      43.438  27.642  34.266  1.00  0.00     0.034 A 
ATOM     34  C   UNL A   1      42.417  33.652  31.938  1.00  0.00     0.049 A 
ATOM     35  C   UNL A   1      42.947  28.919  34.892  1.00  0.00     0.074 A 
ATOM     36  C   UNL A   1      41.890  34.744  32.602  1.00  0.00     0.029 A 
ATOM     37  N   UNL A   1      42.452  32.607  32.848  1.00  0.00    -0.354 N 
ATOM     38  N   UNL A   1      42.741  30.085  34.329  1.00  0.00    -0.248 NA
ATOM     39  C   UNL A   1      42.627  28.881  36.326  1.00  0.00     0.031 C 
ATOM     40  C   UNL A   1      41.642  34.370  33.926  1.00  0.00     0.029 A 
ATOM     41  C   UNL A   1      41.967  33.030  34.073  1.00  0.00     0.049 A 
ATOM     42  H   UNL A   1      42.774  31.697  32.652  1.00  0.00     0.167 HD
ATOM     43  C   UNL A   1      42.222  30.904  35.325  1.00  0.00     0.074 A 
ATOM     44  C   UNL A   1      42.147  30.101  36.529  1.00  0.00     0.031 C 
ATOM     45  C   UNL A   1      41.844  32.204  35.247  1.00  0.00     0.034 A 
BRANCH  32  46
ATOM     46  C   UNL A   1      42.860  34.814  29.730  1.00  0.00     0.023 A 
ATOM     47  C   UNL A   1      41.704  35.164  29.002  1.00  0.00     0.012 A 
ATOM     48  C   UNL A   1      43.992  35.651  29.667  1.00  0.00     0.148 A 
ATOM     49  C   UNL A   1      41.692  36.291  28.182  1.00  0.00     0.002 A 
ATOM     50  C   UNL A   1      43.954  36.803  28.891  1.00  0.00     0.091 A 
ATOM     51  F   UNL A   1      45.091  35.295  30.347  1.00  0.00    -0.205 F 
ATOM     52  C   UNL A   1      42.813  37.115  28.135  1.00  0.00     0.022 A 
BRANCH  50  53
ATOM     53  S   UNL A   1      45.315  37.973  28.835  1.00  0.00     0.127 S 
ATOM     54  O   UNL A   1      46.352  37.187  28.169  1.00  0.00    -0.237 OA
ATOM     55  O   UNL A   1      44.757  39.056  28.025  1.00  0.00    -0.237 OA
ATOM     56  O   UNL A   1      45.591  38.333  30.219  1.00  0.00    -0.744 OA
ENDBRANCH  50  53
ENDBRANCH  32  46
BRANCH  33  57
ATOM     57  C   UNL A   1      43.632  26.408  35.078  1.00  0.00     0.023 A 
ATOM     58  C   UNL A   1      42.562  25.507  35.236  1.00  0.00     0.012 A 
ATOM     59  C   UNL A   1      44.886  26.094  35.640  1.00  0.00     0.148 A 
ATOM     60  C   UNL A   1      42.730  24.325  35.959  1.00  0.00     0.002 A 
ATOM     61  C   UNL A   1      45.060  24.890  36.311  1.00  0.00     0.091 A 
ATOM     62  F   UNL A   1      45.888  26.968  35.477  1.00  0.00    -0.205 F 
ATOM     63  C   UNL A   1      43.980  24.012  36.486  1.00  0.00     0.022 A 
BRANCH  61  64
ATOM     64  S   UNL A   1      46.663  24.339  36.906  1.00  0.00     0.127 S 
ATOM     65  O   UNL A   1      47.241  25.584  37.406  1.00  0.00    -0.237 OA
ATOM     66  O   UNL A   1      46.282  23.376  37.939  1.00  0.00    -0.237 OA
ATOM     67  O   UNL A   1      47.336  23.754  35.754  1.00  0.00    -0.744 OA
ENDBRANCH  61  64
ENDBRANCH  33  57
BRANCH  45  68
ATOM     68  C   UNL A   1      41.243  32.842  36.471  1.00  0.00     0.023 A 
ATOM     69  C   UNL A   1      41.902  33.904  37.119  1.00  0.00     0.012 A 
ATOM     70  C   UNL A   1      39.957  32.458  36.904  1.00  0.00     0.148 A 
ATOM     71  C   UNL A   1      41.297  34.562  38.191  1.00  0.00     0.002 A 
ATOM     72  C   UNL A   1      39.340  33.152  37.935  1.00  0.00     0.091 A 
ATOM     73  F   UNL A   1      39.357  31.432  36.282  1.00  0.00    -0.205 F 
ATOM     74  C   UNL A   1      40.013  34.197  38.588  1.00  0.00     0.022 A 
BRANCH  72  75
ATOM     75  S   UNL A   1      37.648  32.822  38.442  1.00  0.00     0.127 S 
ATOM     76  O   UNL A   1      37.655  31.365  38.569  1.00  0.00    -0.237 OA
ATOM     77  O   UNL A   1      37.562  33.545  39.711  1.00  0.00    -0.237 OA
ATOM     78  O   UNL A   1      36.797  33.349  37.384  1.00  0.00    -0.744 OA
ENDBRANCH  72  75
ENDBRANCH  45  68
ENDBRANCH  19  20
ENDBRANCH  11  14
ENDBRANCH   9  10
ENDBRANCH   8   9
ENDBRANCH   7   8
ENDBRANCH   5   7
ENDBRANCH   2   3
BRANCH   2  79
ATOM     79  C   UNL A   1      41.243  25.942  27.946  1.00  0.00    -0.033 A 
ATOM     80  C   UNL A   1      41.000  26.298  29.282  1.00  0.00     0.005 A 
ATOM     81  C   UNL A   1      40.969  26.870  26.937  1.00  0.00     0.044 A 
ATOM     82  C   UNL A   1      40.483  27.551  29.604  1.00  0.00     0.012 A 
ATOM     83  C   UNL A   1      40.457  28.120  27.268  1.00  0.00     0.131 A 
ATOM     84  C   UNL A   1      40.195  28.483  28.598  1.00  0.00     0.018 A 
ATOM     85  F   UNL A   1      40.199  28.979  26.267  1.00  0.00    -0.206 F 
BRANCH  84  86
ATOM     86  C   UNL A   1      39.542  29.749  28.935  1.00  0.00    -0.012 A 
ATOM     87  C   UNL A   1      40.238  30.816  29.523  1.00  0.00     0.009 A 
ATOM     88  C   UNL A   1      38.163  29.882  28.721  1.00  0.00     0.056 A 
ATOM     89  C   UNL A   1      39.569  31.985  29.892  1.00  0.00     0.004 A 
ATOM     90  C   UNL A   1      37.497  31.037  29.104  1.00  0.00     0.133 A 
ATOM     91  C   UNL A   1      38.195  32.095  29.686  1.00  0.00     0.047 A 
BRANCH  90  92
ATOM     92  O   UNL A   1      36.112  31.238  28.921  1.00  0.00    -0.410 OA
BRANCH  92  93
ATOM     93  C   UNL A   1      35.507  32.441  28.566  1.00  0.00     0.412 C 
ATOM     94  O   UNL A   1      35.472  32.955  27.458  1.00  0.00    -0.224 OA
ATOM     95  N   UNL A   1      34.891  33.051  29.621  1.00  0.00    -0.321 N 
ATOM     96  H   UNL A   1      34.530  33.955  29.473  1.00  0.00     0.167 HD
BRANCH  95  97
ATOM     97  C   UNL A   1      34.724  32.481  30.933  1.00  0.00     0.120 C 
BRANCH  97  98
ATOM     98  C   UNL A   1      35.673  33.050  31.985  1.00  0.00     0.026 C 
BRANCH  98  99
ATOM     99  C   UNL A   1      36.121  32.132  33.129  1.00  0.00     0.037 C 
BRANCH  99 100
ATOM    100  C   UNL A   1      37.133  31.035  32.889  1.00  0.00    -0.048 A 
ATOM    101  C   UNL A   1      36.832  29.774  32.364  1.00  0.00     0.004 A 
ATOM    102  C   UNL A   1      38.460  31.280  33.285  1.00  0.00     0.004 A 
ATOM    103  C   UNL A   1      37.818  28.788  32.249  1.00  0.00     0.000 A 
ATOM    104  C   UNL A   1      39.448  30.302  33.160  1.00  0.00     0.000 A 
ATOM    105  C   UNL A   1      39.124  29.051  32.647  1.00  0.00     0.000 A 
ENDBRANCH  99 100
ENDBRANCH  98  99
ENDBRANCH  97  98
ENDBRANCH  95  97
ENDBRANCH  92  93
ENDBRANCH  90  92
ENDBRANCH  84  86
ENDBRANCH   2  79
TORSDOF 21
ENDMDL
