MODEL 1
REMARK VINA RESULT:     -11.7      0.000      0.000
REMARK SMILES C=CCN1C(=O)/C(=C/c2ccc(OCc3cccc(C(=O)NCCCNC(=O)c4ccc(-c5c6nc(c(-c7cccc(S(=O)(=O)[O-])c7F)c7ccc([nH]7)c(-c7cccc(S(=O)(=O)[O-])c7F)c7nc(c(-c8cccc(S(=O)(=O)[O-])c8F)c8ccc5[nH]8)C=C7)C=C6)cc4)c3)cc2)C(=O)NC1=S
REMARK SMILES IDX 20 1 21 2 22 3 19 5 15 6 16 7 92 8 17 9 18 10 14 11 13 12
REMARK SMILES IDX 12 13 9 14 10 15 94 16 11 17 93 18 8 19 4 20 5 21 98 22 6 23
REMARK SMILES IDX 7 24 97 25 99 26 95 27 96 29 3 30 2 31 1 32 23 33 24 34
REMARK SMILES IDX 25 35 26 36 27 37 28 39 29 40 30 41 91 42 31 43 90 44 32 45
REMARK SMILES IDX 33 46 34 47 84 48 35 49 89 50 83 51 85 52 36 53 88 54 82 55
REMARK SMILES IDX 81 56 37 58 69 59 49 60 68 61 50 62 53 63 67 64 86 65 51 66
REMARK SMILES IDX 52 67 66 69 87 70 54 71 38 72 39 73 47 74 40 75 42 76 48 77
REMARK SMILES IDX 41 78 43 79 44 80 45 81 46 82 70 83 71 84 79 85 72 86 74 87
REMARK SMILES IDX 80 88 73 89 75 90 76 91 77 92 78 93 55 94 56 95 64 96 57 97
REMARK SMILES IDX 59 98 65 99 58 100 60 101 61 102 62 103 63 104
REMARK H PARENT 22 4 97 28 26 38 85 57 53 68
REMARK Flexibility Score: inf
ROOT
ATOM      1  C   UNL A   1      31.035  28.414  24.662  1.00  0.00     0.251 C 
ATOM      2  O   UNL A   1      30.623  29.133  23.748  1.00  0.00    -0.269 OA
ATOM      3  N   UNL A   1      31.463  29.062  25.788  1.00  0.00    -0.352 N 
ATOM      4  H   UNL A   1      31.375  30.041  25.722  1.00  0.00     0.163 HD
ENDROOT
BRANCH   1   5
ATOM      5  C   UNL A   1      30.967  26.930  24.498  1.00  0.00     0.040 A 
ATOM      6  C   UNL A   1      30.598  24.627  25.238  1.00  0.00    -0.010 A 
ATOM      7  C   UNL A   1      30.674  24.200  23.906  1.00  0.00     0.007 A 
ATOM      8  C   UNL A   1      30.807  25.989  25.525  1.00  0.00     0.021 A 
ATOM      9  C   UNL A   1      30.936  25.105  22.883  1.00  0.00     0.001 A 
ATOM     10  C   UNL A   1      31.059  26.460  23.177  1.00  0.00     0.014 A 
BRANCH   6  11
ATOM     11  C   UNL A   1      30.269  23.647  26.351  1.00  0.00     0.265 C 
BRANCH  11  12
ATOM     12  O   UNL A   1      30.769  22.323  26.146  1.00  0.00    -0.489 OA
BRANCH  12  13
ATOM     13  C   UNL A   1      32.124  22.199  26.024  1.00  0.00     0.119 A 
ATOM     14  C   UNL A   1      34.825  21.566  25.715  1.00  0.00    -0.024 A 
ATOM     15  C   UNL A   1      33.915  21.285  24.688  1.00  0.00     0.012 A 
ATOM     16  C   UNL A   1      34.400  22.260  26.845  1.00  0.00     0.012 A 
ATOM     17  C   UNL A   1      32.566  21.606  24.843  1.00  0.00     0.047 A 
ATOM     18  C   UNL A   1      33.052  22.599  26.986  1.00  0.00     0.047 A 
BRANCH  14  19
ATOM     19  C   UNL A   1      36.197  21.073  25.607  1.00  0.00     0.027 C 
ATOM     20  N   UNL A   1      39.461  22.107  26.331  1.00  0.00    -0.281 N 
ATOM     21  C   UNL A   1      38.586  21.257  25.647  1.00  0.00     0.265 C 
ATOM     22  C   UNL A   1      39.328  23.496  26.307  1.00  0.00     0.183 C 
ATOM     23  O   UNL A   1      38.826  20.088  25.360  1.00  0.00    -0.268 OA
ATOM     24  C   UNL A   1      37.265  21.859  25.368  1.00  0.00     0.106 C 
ATOM     25  N   UNL A   1      38.261  23.995  25.600  1.00  0.00    -0.298 N 
ATOM     26  S   UNL A   1      40.320  24.639  27.025  1.00  0.00    -0.040 S 
ATOM     27  C   UNL A   1      37.204  23.300  25.075  1.00  0.00     0.263 C 
ATOM     28  H   UNL A   1      38.257  24.969  25.451  1.00  0.00     0.172 HD
ATOM     29  O   UNL A   1      36.331  23.846  24.422  1.00  0.00    -0.269 OA
BRANCH  20  30
ATOM     30  C   UNL A   1      40.426  21.412  27.193  1.00  0.00     0.155 C 
BRANCH  30  31
ATOM     31  C   UNL A   1      41.775  21.232  26.564  1.00  0.00    -0.013 C 
ATOM     32  C   UNL A   1      42.344  20.025  26.418  1.00  0.00     0.006 C 
ENDBRANCH  30  31
ENDBRANCH  20  30
ENDBRANCH  14  19
ENDBRANCH  12  13
ENDBRANCH  11  12
ENDBRANCH   6  11
ENDBRANCH   1   5
BRANCH   3  33
ATOM     33  C   UNL A   1      32.017  28.631  27.055  1.00  0.00     0.118 C 
BRANCH  33  34
ATOM     34  C   UNL A   1      33.426  28.072  26.873  1.00  0.00     0.042 C 
BRANCH  34  35
ATOM     35  C   UNL A   1      34.388  29.074  26.232  1.00  0.00     0.118 C 
BRANCH  35  36
ATOM     36  N   UNL A   1      34.031  30.451  26.555  1.00  0.00    -0.352 N 
ATOM     37  C   UNL A   1      34.401  31.245  27.610  1.00  0.00     0.251 C 
ATOM     38  H   UNL A   1      33.424  30.881  25.911  1.00  0.00     0.163 HD
ATOM     39  O   UNL A   1      33.754  32.262  27.846  1.00  0.00    -0.269 OA
BRANCH  37  40
ATOM     40  C   UNL A   1      35.571  30.902  28.447  1.00  0.00     0.039 A 
ATOM     41  C   UNL A   1      36.742  31.656  28.311  1.00  0.00     0.014 A 
ATOM     42  C   UNL A   1      35.550  29.799  29.303  1.00  0.00     0.014 A 
ATOM     43  C   UNL A   1      37.873  31.325  29.060  1.00  0.00     0.010 A 
ATOM     44  C   UNL A   1      36.650  29.519  30.108  1.00  0.00     0.010 A 
ATOM     45  C   UNL A   1      37.830  30.265  29.981  1.00  0.00    -0.014 A 
BRANCH  45  46
ATOM     46  C   UNL A   1      39.011  29.924  30.815  1.00  0.00     0.031 A 
ATOM     47  C   UNL A   1      39.195  30.553  32.171  1.00  0.00     0.074 A 
ATOM     48  C   UNL A   1      39.958  29.108  30.313  1.00  0.00     0.049 A 
ATOM     49  N   UNL A   1      40.173  30.396  33.025  1.00  0.00    -0.248 NA
ATOM     50  C   UNL A   1      38.164  31.507  32.613  1.00  0.00     0.031 C 
ATOM     51  C   UNL A   1      39.940  28.516  28.973  1.00  0.00     0.029 A 
ATOM     52  N   UNL A   1      41.129  28.650  30.861  1.00  0.00    -0.354 N 
ATOM     53  C   UNL A   1      39.899  31.257  34.082  1.00  0.00     0.074 A 
ATOM     54  C   UNL A   1      38.682  31.962  33.746  1.00  0.00     0.031 C 
ATOM     55  C   UNL A   1      41.041  27.766  28.808  1.00  0.00     0.029 A 
ATOM     56  C   UNL A   1      41.852  27.838  30.019  1.00  0.00     0.049 A 
ATOM     57  H   UNL A   1      41.424  28.883  31.771  1.00  0.00     0.167 HD
ATOM     58  C   UNL A   1      40.577  31.421  35.242  1.00  0.00     0.034 A 
ATOM     59  C   UNL A   1      43.031  27.216  30.206  1.00  0.00     0.034 A 
ATOM     60  C   UNL A   1      41.753  30.673  35.596  1.00  0.00     0.049 A 
ATOM     61  C   UNL A   1      43.719  27.347  31.537  1.00  0.00     0.074 A 
ATOM     62  C   UNL A   1      42.460  30.688  36.786  1.00  0.00     0.029 A 
ATOM     63  N   UNL A   1      42.397  29.773  34.761  1.00  0.00    -0.354 N 
ATOM     64  N   UNL A   1      43.350  28.033  32.592  1.00  0.00    -0.248 NA
ATOM     65  C   UNL A   1      44.960  26.582  31.720  1.00  0.00     0.031 C 
ATOM     66  C   UNL A   1      43.538  29.804  36.665  1.00  0.00     0.029 A 
ATOM     67  C   UNL A   1      43.492  29.226  35.406  1.00  0.00     0.049 A 
ATOM     68  H   UNL A   1      42.115  29.554  33.843  1.00  0.00     0.167 HD
ATOM     69  C   UNL A   1      44.295  27.761  33.573  1.00  0.00     0.074 A 
ATOM     70  C   UNL A   1      45.236  26.822  32.995  1.00  0.00     0.031 C 
ATOM     71  C   UNL A   1      44.390  28.256  34.832  1.00  0.00     0.034 A 
BRANCH  58  72
ATOM     72  C   UNL A   1      40.022  32.400  36.246  1.00  0.00     0.023 A 
ATOM     73  C   UNL A   1      40.502  33.727  36.259  1.00  0.00     0.012 A 
ATOM     74  C   UNL A   1      38.998  32.030  37.141  1.00  0.00     0.148 A 
ATOM     75  C   UNL A   1      40.000  34.658  37.166  1.00  0.00     0.002 A 
ATOM     76  C   UNL A   1      38.472  32.976  38.014  1.00  0.00     0.091 A 
ATOM     77  F   UNL A   1      38.568  30.760  37.132  1.00  0.00    -0.205 F 
ATOM     78  C   UNL A   1      38.979  34.286  38.036  1.00  0.00     0.022 A 
BRANCH  76  79
ATOM     79  S   UNL A   1      37.101  32.618  39.120  1.00  0.00     0.127 S 
ATOM     80  O   UNL A   1      35.951  32.852  38.248  1.00  0.00    -0.237 OA
ATOM     81  O   UNL A   1      37.335  31.213  39.455  1.00  0.00    -0.237 OA
ATOM     82  O   UNL A   1      37.239  33.539  40.240  1.00  0.00    -0.744 OA
ENDBRANCH  76  79
ENDBRANCH  58  72
BRANCH  59  83
ATOM     83  C   UNL A   1      43.584  26.337  29.136  1.00  0.00     0.023 A 
ATOM     84  C   UNL A   1      43.339  24.951  29.191  1.00  0.00     0.012 A 
ATOM     85  C   UNL A   1      44.306  26.864  28.048  1.00  0.00     0.148 A 
ATOM     86  C   UNL A   1      43.831  24.101  28.200  1.00  0.00     0.002 A 
ATOM     87  C   UNL A   1      44.746  26.020  27.036  1.00  0.00     0.091 A 
ATOM     88  F   UNL A   1      44.537  28.184  28.020  1.00  0.00    -0.205 F 
ATOM     89  C   UNL A   1      44.525  24.636  27.117  1.00  0.00     0.022 A 
BRANCH  87  90
ATOM     90  S   UNL A   1      45.528  26.639  25.542  1.00  0.00     0.127 S 
ATOM     91  O   UNL A   1      45.647  25.426  24.739  1.00  0.00    -0.237 OA
ATOM     92  O   UNL A   1      44.538  27.603  25.057  1.00  0.00    -0.237 OA
ATOM     93  O   UNL A   1      46.781  27.240  25.978  1.00  0.00    -0.744 OA
ENDBRANCH  87  90
ENDBRANCH  59  83
BRANCH  71  94
ATOM     94  C   UNL A   1      45.538  27.777  35.680  1.00  0.00     0.023 A 
ATOM     95  C   UNL A   1      46.784  28.430  35.598  1.00  0.00     0.012 A 
ATOM     96  C   UNL A   1      45.369  26.721  36.596  1.00  0.00     0.148 A 
ATOM     97  C   UNL A   1      47.856  28.014  36.386  1.00  0.00     0.002 A 
ATOM     98  C   UNL A   1      46.428  26.344  37.414  1.00  0.00     0.091 A 
ATOM     99  F   UNL A   1      44.183  26.097  36.646  1.00  0.00    -0.205 F 
ATOM    100  C   UNL A   1      47.675  26.980  37.301  1.00  0.00     0.022 A 
BRANCH  98 101
ATOM    101  S   UNL A   1      46.251  25.085  38.684  1.00  0.00     0.127 S 
ATOM    102  O   UNL A   1      45.970  23.893  37.887  1.00  0.00    -0.237 OA
ATOM    103  O   UNL A   1      47.567  25.095  39.323  1.00  0.00    -0.237 OA
ATOM    104  O   UNL A   1      45.164  25.542  39.542  1.00  0.00    -0.744 OA
ENDBRANCH  98 101
ENDBRANCH  71  94
ENDBRANCH  45  46
ENDBRANCH  37  40
ENDBRANCH  35  36
ENDBRANCH  34  35
ENDBRANCH  33  34
ENDBRANCH   3  33
TORSDOF 19
ENDMDL
MODEL 2
REMARK VINA RESULT:     -11.5      5.019      9.028
REMARK SMILES C=CCN1C(=O)/C(=C/c2ccc(OCc3cccc(C(=O)NCCCNC(=O)c4ccc(-c5c6nc(c(-c7cccc(S(=O)(=O)[O-])c7F)c7ccc([nH]7)c(-c7cccc(S(=O)(=O)[O-])c7F)c7nc(c(-c8cccc(S(=O)(=O)[O-])c8F)c8ccc5[nH]8)C=C7)C=C6)cc4)c3)cc2)C(=O)NC1=S
REMARK SMILES IDX 20 1 21 2 22 3 19 5 15 6 16 7 92 8 17 9 18 10 14 11 13 12
REMARK SMILES IDX 12 13 9 14 10 15 94 16 11 17 93 18 8 19 4 20 5 21 98 22 6 23
REMARK SMILES IDX 7 24 97 25 99 26 95 27 96 29 3 30 2 31 1 32 23 33 24 34
REMARK SMILES IDX 25 35 26 36 27 37 28 39 29 40 30 41 91 42 31 43 90 44 32 45
REMARK SMILES IDX 33 46 34 47 84 48 35 49 89 50 83 51 85 52 36 53 88 54 82 55
REMARK SMILES IDX 81 56 37 58 69 59 49 60 68 61 50 62 53 63 67 64 86 65 51 66
REMARK SMILES IDX 52 67 66 69 87 70 54 71 38 72 39 73 47 74 40 75 42 76 48 77
REMARK SMILES IDX 41 78 43 79 44 80 45 81 46 82 70 83 71 84 79 85 72 86 74 87
REMARK SMILES IDX 80 88 73 89 75 90 76 91 77 92 78 93 55 94 56 95 64 96 57 97
REMARK SMILES IDX 59 98 65 99 58 100 60 101 61 102 62 103 63 104
REMARK H PARENT 22 4 97 28 26 38 85 57 53 68
REMARK Flexibility Score: inf
ROOT
ATOM      1  C   UNL A   1      37.816  33.725  29.840  1.00  0.00     0.251 C 
ATOM      2  O   UNL A   1      38.746  34.467  29.514  1.00  0.00    -0.269 OA
ATOM      3  N   UNL A   1      36.886  34.266  30.685  1.00  0.00    -0.352 N 
ATOM      4  H   UNL A   1      37.082  35.202  30.920  1.00  0.00     0.163 HD
ENDROOT
BRANCH   1   5
ATOM      5  C   UNL A   1      37.743  32.356  29.243  1.00  0.00     0.040 A 
ATOM      6  C   UNL A   1      38.486  30.057  28.859  1.00  0.00    -0.010 A 
ATOM      7  C   UNL A   1      37.280  29.790  28.199  1.00  0.00     0.007 A 
ATOM      8  C   UNL A   1      38.728  31.364  29.323  1.00  0.00     0.021 A 
ATOM      9  C   UNL A   1      36.331  30.792  28.018  1.00  0.00     0.001 A 
ATOM     10  C   UNL A   1      36.554  32.056  28.556  1.00  0.00     0.014 A 
BRANCH   6  11
ATOM     11  C   UNL A   1      39.504  28.955  29.094  1.00  0.00     0.265 C 
BRANCH  11  12
ATOM     12  O   UNL A   1      39.457  27.888  28.143  1.00  0.00    -0.489 OA
BRANCH  12  13
ATOM     13  C   UNL A   1      40.656  27.324  27.807  1.00  0.00     0.119 A 
ATOM     14  C   UNL A   1      42.897  25.849  27.037  1.00  0.00    -0.024 A 
ATOM     15  C   UNL A   1      41.842  26.046  26.138  1.00  0.00     0.012 A 
ATOM     16  C   UNL A   1      42.874  26.480  28.279  1.00  0.00     0.012 A 
ATOM     17  C   UNL A   1      40.725  26.787  26.523  1.00  0.00     0.047 A 
ATOM     18  C   UNL A   1      41.763  27.240  28.652  1.00  0.00     0.047 A 
BRANCH  14  19
ATOM     19  C   UNL A   1      43.979  24.934  26.679  1.00  0.00     0.027 C 
ATOM     20  N   UNL A   1      44.435  21.607  25.693  1.00  0.00    -0.281 N 
ATOM     21  C   UNL A   1      44.957  22.798  26.207  1.00  0.00     0.265 C 
ATOM     22  C   UNL A   1      43.296  20.998  26.222  1.00  0.00     0.183 C 
ATOM     23  O   UNL A   1      46.101  23.201  26.016  1.00  0.00    -0.268 OA
ATOM     24  C   UNL A   1      43.971  23.613  26.947  1.00  0.00     0.106 C 
ATOM     25  N   UNL A   1      42.683  21.651  27.265  1.00  0.00    -0.298 N 
ATOM     26  S   UNL A   1      42.586  19.555  25.753  1.00  0.00    -0.040 S 
ATOM     27  C   UNL A   1      42.934  22.916  27.725  1.00  0.00     0.263 C 
ATOM     28  H   UNL A   1      41.981  21.148  27.738  1.00  0.00     0.172 HD
ATOM     29  O   UNL A   1      42.356  23.379  28.694  1.00  0.00    -0.269 OA
BRANCH  20  30
ATOM     30  C   UNL A   1      45.089  21.144  24.462  1.00  0.00     0.155 C 
BRANCH  30  31
ATOM     31  C   UNL A   1      46.349  20.370  24.706  1.00  0.00    -0.013 C 
ATOM     32  C   UNL A   1      46.360  19.209  25.380  1.00  0.00     0.006 C 
ENDBRANCH  30  31
ENDBRANCH  20  30
ENDBRANCH  14  19
ENDBRANCH  12  13
ENDBRANCH  11  12
ENDBRANCH   6  11
ENDBRANCH   1   5
BRANCH   3  33
ATOM     33  C   UNL A   1      35.678  33.769  31.311  1.00  0.00     0.118 C 
BRANCH  33  34
ATOM     34  C   UNL A   1      35.990  33.110  32.653  1.00  0.00     0.042 C 
BRANCH  34  35
ATOM     35  C   UNL A   1      36.763  34.027  33.604  1.00  0.00     0.118 C 
BRANCH  35  36
ATOM     36  N   UNL A   1      36.942  33.418  34.917  1.00  0.00    -0.352 N 
ATOM     37  C   UNL A   1      37.697  32.342  35.306  1.00  0.00     0.251 C 
ATOM     38  H   UNL A   1      36.438  33.850  35.643  1.00  0.00     0.163 HD
ATOM     39  O   UNL A   1      37.472  31.819  36.394  1.00  0.00    -0.269 OA
BRANCH  37  40
ATOM     40  C   UNL A   1      38.781  31.821  34.445  1.00  0.00     0.039 A 
ATOM     41  C   UNL A   1      38.475  30.845  33.491  1.00  0.00     0.014 A 
ATOM     42  C   UNL A   1      40.105  32.229  34.624  1.00  0.00     0.014 A 
ATOM     43  C   UNL A   1      39.489  30.307  32.697  1.00  0.00     0.010 A 
ATOM     44  C   UNL A   1      41.101  31.752  33.776  1.00  0.00     0.010 A 
ATOM     45  C   UNL A   1      40.809  30.772  32.819  1.00  0.00    -0.014 A 
BRANCH  45  46
ATOM     46  C   UNL A   1      41.894  30.241  31.953  1.00  0.00     0.031 A 
ATOM     47  C   UNL A   1      42.513  28.899  32.243  1.00  0.00     0.074 A 
ATOM     48  C   UNL A   1      42.373  31.006  30.954  1.00  0.00     0.049 A 
ATOM     49  N   UNL A   1      43.484  28.288  31.615  1.00  0.00    -0.248 NA
ATOM     50  C   UNL A   1      41.999  28.161  33.409  1.00  0.00     0.031 C 
ATOM     51  C   UNL A   1      41.922  32.363  30.637  1.00  0.00     0.029 A 
ATOM     52  N   UNL A   1      43.359  30.762  30.032  1.00  0.00    -0.354 N 
ATOM     53  C   UNL A   1      43.724  27.119  32.328  1.00  0.00     0.074 A 
ATOM     54  C   UNL A   1      42.823  27.124  33.459  1.00  0.00     0.031 C 
ATOM     55  C   UNL A   1      42.621  32.827  29.589  1.00  0.00     0.029 A 
ATOM     56  C   UNL A   1      43.581  31.812  29.171  1.00  0.00     0.049 A 
ATOM     57  H   UNL A   1      43.861  29.916  29.992  1.00  0.00     0.167 HD
ATOM     58  C   UNL A   1      44.590  26.116  32.050  1.00  0.00     0.034 A 
ATOM     59  C   UNL A   1      44.454  31.937  28.154  1.00  0.00     0.034 A 
ATOM     60  C   UNL A   1      45.441  26.090  30.891  1.00  0.00     0.049 A 
ATOM     61  C   UNL A   1      45.344  30.773  27.813  1.00  0.00     0.074 A 
ATOM     62  C   UNL A   1      46.282  25.079  30.460  1.00  0.00     0.029 A 
ATOM     63  N   UNL A   1      45.559  27.125  29.975  1.00  0.00    -0.354 N 
ATOM     64  N   UNL A   1      45.433  29.603  28.399  1.00  0.00    -0.248 NA
ATOM     65  C   UNL A   1      46.220  30.928  26.644  1.00  0.00     0.031 C 
ATOM     66  C   UNL A   1      46.916  25.508  29.288  1.00  0.00     0.029 A 
ATOM     67  C   UNL A   1      46.457  26.779  28.981  1.00  0.00     0.049 A 
ATOM     68  H   UNL A   1      45.073  27.980  30.025  1.00  0.00     0.167 HD
ATOM     69  C   UNL A   1      46.350  28.872  27.655  1.00  0.00     0.074 A 
ATOM     70  C   UNL A   1      46.766  29.722  26.557  1.00  0.00     0.031 C 
ATOM     71  C   UNL A   1      46.822  27.619  27.868  1.00  0.00     0.034 A 
BRANCH  58  72
ATOM     72  C   UNL A   1      44.610  24.929  32.979  1.00  0.00     0.023 A 
ATOM     73  C   UNL A   1      43.759  23.834  32.723  1.00  0.00     0.012 A 
ATOM     74  C   UNL A   1      45.498  24.870  34.072  1.00  0.00     0.148 A 
ATOM     75  C   UNL A   1      43.762  22.717  33.556  1.00  0.00     0.002 A 
ATOM     76  C   UNL A   1      45.527  23.733  34.874  1.00  0.00     0.091 A 
ATOM     77  F   UNL A   1      46.285  25.927  34.316  1.00  0.00    -0.205 F 
ATOM     78  C   UNL A   1      44.653  22.662  34.624  1.00  0.00     0.022 A 
BRANCH  76  79
ATOM     79  S   UNL A   1      46.691  23.531  36.227  1.00  0.00     0.127 S 
ATOM     80  O   UNL A   1      47.902  23.126  35.516  1.00  0.00    -0.237 OA
ATOM     81  O   UNL A   1      46.741  24.880  36.795  1.00  0.00    -0.237 OA
ATOM     82  O   UNL A   1      46.113  22.525  37.107  1.00  0.00    -0.744 OA
ENDBRANCH  76  79
ENDBRANCH  58  72
BRANCH  59  83
ATOM     83  C   UNL A   1      44.460  33.178  27.329  1.00  0.00     0.023 A 
ATOM     84  C   UNL A   1      43.776  33.187  26.097  1.00  0.00     0.012 A 
ATOM     85  C   UNL A   1      45.093  34.355  27.772  1.00  0.00     0.148 A 
ATOM     86  C   UNL A   1      43.751  34.336  25.306  1.00  0.00     0.002 A 
ATOM     87  C   UNL A   1      45.017  35.512  27.004  1.00  0.00     0.091 A 
ATOM     88  F   UNL A   1      45.747  34.323  28.941  1.00  0.00    -0.205 F 
ATOM     89  C   UNL A   1      44.362  35.500  25.763  1.00  0.00     0.022 A 
BRANCH  87  90
ATOM     90  S   UNL A   1      45.658  37.088  27.579  1.00  0.00     0.127 S 
ATOM     91  O   UNL A   1      44.877  37.306  28.793  1.00  0.00    -0.237 OA
ATOM     92  O   UNL A   1      47.072  36.780  27.803  1.00  0.00    -0.237 OA
ATOM     93  O   UNL A   1      45.419  38.027  26.491  1.00  0.00    -0.744 OA
ENDBRANCH  87  90
ENDBRANCH  59  83
BRANCH  71  94
ATOM     94  C   UNL A   1      47.827  27.080  26.885  1.00  0.00     0.023 A 
ATOM     95  C   UNL A   1      47.380  26.454  25.704  1.00  0.00     0.012 A 
ATOM     96  C   UNL A   1      49.209  27.242  27.102  1.00  0.00     0.148 A 
ATOM     97  C   UNL A   1      48.293  25.963  24.773  1.00  0.00     0.002 A 
ATOM     98  C   UNL A   1      50.112  26.793  26.145  1.00  0.00     0.091 A 
ATOM     99  F   UNL A   1      49.618  27.820  28.240  1.00  0.00    -0.205 F 
ATOM    100  C   UNL A   1      49.657  26.143  24.987  1.00  0.00     0.022 A 
BRANCH  98 101
ATOM    101  S   UNL A   1      51.881  27.069  26.300  1.00  0.00     0.127 S 
ATOM    102  O   UNL A   1      52.279  25.972  27.179  1.00  0.00    -0.237 OA
ATOM    103  O   UNL A   1      52.342  26.942  24.918  1.00  0.00    -0.237 OA
ATOM    104  O   UNL A   1      52.023  28.409  26.858  1.00  0.00    -0.744 OA
ENDBRANCH  98 101
ENDBRANCH  71  94
ENDBRANCH  45  46
ENDBRANCH  37  40
ENDBRANCH  35  36
ENDBRANCH  34  35
ENDBRANCH  33  34
ENDBRANCH   3  33
TORSDOF 19
ENDMDL
MODEL 3
REMARK VINA RESULT:     -11.3      4.994      8.739
REMARK SMILES C=CCN1C(=O)/C(=C/c2ccc(OCc3cccc(C(=O)NCCCNC(=O)c4ccc(-c5c6nc(c(-c7cccc(S(=O)(=O)[O-])c7F)c7ccc([nH]7)c(-c7cccc(S(=O)(=O)[O-])c7F)c7nc(c(-c8cccc(S(=O)(=O)[O-])c8F)c8ccc5[nH]8)C=C7)C=C6)cc4)c3)cc2)C(=O)NC1=S
REMARK SMILES IDX 20 1 21 2 22 3 19 5 15 6 16 7 92 8 17 9 18 10 14 11 13 12
REMARK SMILES IDX 12 13 9 14 10 15 94 16 11 17 93 18 8 19 4 20 5 21 98 22 6 23
REMARK SMILES IDX 7 24 97 25 99 26 95 27 96 29 3 30 2 31 1 32 23 33 24 34
REMARK SMILES IDX 25 35 26 36 27 37 28 39 29 40 30 41 91 42 31 43 90 44 32 45
REMARK SMILES IDX 33 46 34 47 84 48 35 49 89 50 83 51 85 52 36 53 88 54 82 55
REMARK SMILES IDX 81 56 37 58 69 59 49 60 68 61 50 62 53 63 67 64 86 65 51 66
REMARK SMILES IDX 52 67 66 69 87 70 54 71 38 72 39 73 47 74 40 75 42 76 48 77
REMARK SMILES IDX 41 78 43 79 44 80 45 81 46 82 70 83 71 84 79 85 72 86 74 87
REMARK SMILES IDX 80 88 73 89 75 90 76 91 77 92 78 93 55 94 56 95 64 96 57 97
REMARK SMILES IDX 59 98 65 99 58 100 60 101 61 102 62 103 63 104
REMARK H PARENT 22 4 97 28 26 38 85 57 53 68
REMARK Flexibility Score: inf
ROOT
ATOM      1  C   UNL A   1      37.229  33.596  30.030  1.00  0.00     0.251 C 
ATOM      2  O   UNL A   1      38.158  34.362  29.757  1.00  0.00    -0.269 OA
ATOM      3  N   UNL A   1      36.042  34.188  30.363  1.00  0.00    -0.352 N 
ATOM      4  H   UNL A   1      36.084  35.172  30.331  1.00  0.00     0.163 HD
ENDROOT
BRANCH   1   5
ATOM      5  C   UNL A   1      37.451  32.123  29.909  1.00  0.00     0.040 A 
ATOM      6  C   UNL A   1      38.788  30.091  29.643  1.00  0.00    -0.010 A 
ATOM      7  C   UNL A   1      37.655  29.322  29.936  1.00  0.00     0.007 A 
ATOM      8  C   UNL A   1      38.656  31.491  29.574  1.00  0.00     0.021 A 
ATOM      9  C   UNL A   1      36.425  29.927  30.169  1.00  0.00     0.001 A 
ATOM     10  C   UNL A   1      36.331  31.316  30.177  1.00  0.00     0.014 A 
BRANCH   6  11
ATOM     11  C   UNL A   1      40.140  29.434  29.430  1.00  0.00     0.265 C 
BRANCH  11  12
ATOM     12  O   UNL A   1      40.096  28.011  29.289  1.00  0.00    -0.489 OA
BRANCH  12  13
ATOM     13  C   UNL A   1      41.218  27.418  28.784  1.00  0.00     0.119 A 
ATOM     14  C   UNL A   1      43.291  25.882  27.718  1.00  0.00    -0.024 A 
ATOM     15  C   UNL A   1      42.101  26.051  27.000  1.00  0.00     0.012 A 
ATOM     16  C   UNL A   1      43.481  26.569  28.915  1.00  0.00     0.012 A 
ATOM     17  C   UNL A   1      41.067  26.823  27.533  1.00  0.00     0.047 A 
ATOM     18  C   UNL A   1      42.451  27.358  29.434  1.00  0.00     0.047 A 
BRANCH  14  19
ATOM     19  C   UNL A   1      44.293  24.938  27.226  1.00  0.00     0.027 C 
ATOM     20  N   UNL A   1      44.481  21.699  25.914  1.00  0.00    -0.281 N 
ATOM     21  C   UNL A   1      45.103  22.799  26.512  1.00  0.00     0.265 C 
ATOM     22  C   UNL A   1      43.325  21.116  26.438  1.00  0.00     0.183 C 
ATOM     23  O   UNL A   1      46.263  23.145  26.306  1.00  0.00    -0.268 OA
ATOM     24  C   UNL A   1      44.205  23.601  27.370  1.00  0.00     0.106 C 
ATOM     25  N   UNL A   1      42.801  21.703  27.564  1.00  0.00    -0.298 N 
ATOM     26  S   UNL A   1      42.500  19.772  25.871  1.00  0.00    -0.040 S 
ATOM     27  C   UNL A   1      43.156  22.900  28.128  1.00  0.00     0.263 C 
ATOM     28  H   UNL A   1      42.086  21.203  28.021  1.00  0.00     0.172 HD
ATOM     29  O   UNL A   1      42.651  23.304  29.161  1.00  0.00    -0.269 OA
BRANCH  20  30
ATOM     30  C   UNL A   1      45.051  21.314  24.617  1.00  0.00     0.155 C 
BRANCH  30  31
ATOM     31  C   UNL A   1      46.293  20.482  24.728  1.00  0.00    -0.013 C 
ATOM     32  C   UNL A   1      46.285  19.248  25.256  1.00  0.00     0.006 C 
ENDBRANCH  30  31
ENDBRANCH  20  30
ENDBRANCH  14  19
ENDBRANCH  12  13
ENDBRANCH  11  12
ENDBRANCH   6  11
ENDBRANCH   1   5
BRANCH   3  33
ATOM     33  C   UNL A   1      34.738  33.692  30.752  1.00  0.00     0.118 C 
BRANCH  33  34
ATOM     34  C   UNL A   1      34.573  33.722  32.270  1.00  0.00     0.042 C 
BRANCH  34  35
ATOM     35  C   UNL A   1      35.491  34.740  32.950  1.00  0.00     0.118 C 
BRANCH  35  36
ATOM     36  N   UNL A   1      35.580  34.511  34.389  1.00  0.00    -0.352 N 
ATOM     37  C   UNL A   1      36.399  33.684  35.111  1.00  0.00     0.251 C 
ATOM     38  H   UNL A   1      34.948  35.038  34.929  1.00  0.00     0.163 HD
ATOM     39  O   UNL A   1      36.107  33.425  36.276  1.00  0.00    -0.269 OA
BRANCH  37  40
ATOM     40  C   UNL A   1      37.629  33.119  34.515  1.00  0.00     0.039 A 
ATOM     41  C   UNL A   1      37.526  31.988  33.699  1.00  0.00     0.014 A 
ATOM     42  C   UNL A   1      38.887  33.648  34.817  1.00  0.00     0.014 A 
ATOM     43  C   UNL A   1      38.678  31.412  33.160  1.00  0.00     0.010 A 
ATOM     44  C   UNL A   1      40.026  33.123  34.214  1.00  0.00     0.010 A 
ATOM     45  C   UNL A   1      39.938  31.988  33.397  1.00  0.00    -0.014 A 
BRANCH  45  46
ATOM     46  C   UNL A   1      41.170  31.413  32.798  1.00  0.00     0.031 A 
ATOM     47  C   UNL A   1      41.827  32.078  31.618  1.00  0.00     0.074 A 
ATOM     48  C   UNL A   1      41.648  30.245  33.270  1.00  0.00     0.049 A 
ATOM     49  N   UNL A   1      42.889  31.708  30.950  1.00  0.00    -0.248 NA
ATOM     50  C   UNL A   1      41.193  33.302  31.099  1.00  0.00     0.031 C 
ATOM     51  C   UNL A   1      41.040  29.455  34.343  1.00  0.00     0.029 A 
ATOM     52  N   UNL A   1      42.742  29.507  32.895  1.00  0.00    -0.354 N 
ATOM     53  C   UNL A   1      43.027  32.623  29.913  1.00  0.00     0.074 A 
ATOM     54  C   UNL A   1      41.919  33.546  30.016  1.00  0.00     0.031 C 
ATOM     55  C   UNL A   1      41.775  28.351  34.548  1.00  0.00     0.029 A 
ATOM     56  C   UNL A   1      42.893  28.342  33.610  1.00  0.00     0.049 A 
ATOM     57  H   UNL A   1      43.360  29.786  32.181  1.00  0.00     0.167 HD
ATOM     58  C   UNL A   1      44.004  32.709  28.980  1.00  0.00     0.034 A 
ATOM     59  C   UNL A   1      43.831  27.380  33.524  1.00  0.00     0.034 A 
ATOM     60  C   UNL A   1      45.135  31.823  28.919  1.00  0.00     0.049 A 
ATOM     61  C   UNL A   1      44.954  27.547  32.537  1.00  0.00     0.074 A 
ATOM     62  C   UNL A   1      46.234  31.882  28.079  1.00  0.00     0.029 A 
ATOM     63  N   UNL A   1      45.315  30.716  29.734  1.00  0.00    -0.354 N 
ATOM     64  N   UNL A   1      45.159  28.516  31.678  1.00  0.00    -0.248 NA
ATOM     65  C   UNL A   1      45.998  26.513  32.539  1.00  0.00     0.031 C 
ATOM     66  C   UNL A   1      47.072  30.802  28.380  1.00  0.00     0.029 A 
ATOM     67  C   UNL A   1      46.504  30.082  29.418  1.00  0.00     0.049 A 
ATOM     68  H   UNL A   1      44.688  30.423  30.435  1.00  0.00     0.167 HD
ATOM     69  C   UNL A   1      46.368  28.226  31.058  1.00  0.00     0.074 A 
ATOM     70  C   UNL A   1      46.864  27.006  31.664  1.00  0.00     0.031 C 
ATOM     71  C   UNL A   1      47.005  28.895  30.065  1.00  0.00     0.034 A 
BRANCH  58  72
ATOM     72  C   UNL A   1      43.931  33.845  27.990  1.00  0.00     0.023 A 
ATOM     73  C   UNL A   1      43.584  33.575  26.650  1.00  0.00     0.012 A 
ATOM     74  C   UNL A   1      44.154  35.178  28.389  1.00  0.00     0.148 A 
ATOM     75  C   UNL A   1      43.496  34.604  25.715  1.00  0.00     0.002 A 
ATOM     76  C   UNL A   1      44.021  36.205  27.459  1.00  0.00     0.091 A 
ATOM     77  F   UNL A   1      44.504  35.417  29.661  1.00  0.00    -0.205 F 
ATOM     78  C   UNL A   1      43.703  35.919  26.121  1.00  0.00     0.022 A 
BRANCH  76  79
ATOM     79  S   UNL A   1      44.192  37.938  27.900  1.00  0.00     0.127 S 
ATOM     80  O   UNL A   1      45.612  38.018  28.239  1.00  0.00    -0.237 OA
ATOM     81  O   UNL A   1      43.826  38.611  26.653  1.00  0.00    -0.237 OA
ATOM     82  O   UNL A   1      43.269  38.165  29.003  1.00  0.00    -0.744 OA
ENDBRANCH  76  79
ENDBRANCH  58  72
BRANCH  59  83
ATOM     83  C   UNL A   1      43.797  26.225  34.465  1.00  0.00     0.023 A 
ATOM     84  C   UNL A   1      43.177  25.026  34.058  1.00  0.00     0.012 A 
ATOM     85  C   UNL A   1      44.408  26.287  35.731  1.00  0.00     0.148 A 
ATOM     86  C   UNL A   1      43.138  23.921  34.909  1.00  0.00     0.002 A 
ATOM     87  C   UNL A   1      44.413  25.165  36.552  1.00  0.00     0.091 A 
ATOM     88  F   UNL A   1      44.983  27.439  36.104  1.00  0.00    -0.205 F 
ATOM     89  C   UNL A   1      43.764  23.986  36.151  1.00  0.00     0.022 A 
BRANCH  87  90
ATOM     90  S   UNL A   1      45.312  25.118  38.107  1.00  0.00     0.127 S 
ATOM     91  O   UNL A   1      44.606  26.125  38.893  1.00  0.00    -0.237 OA
ATOM     92  O   UNL A   1      45.098  23.736  38.542  1.00  0.00    -0.237 OA
ATOM     93  O   UNL A   1      46.694  25.428  37.768  1.00  0.00    -0.744 OA
ENDBRANCH  87  90
ENDBRANCH  59  83
BRANCH  71  94
ATOM     94  C   UNL A   1      48.317  28.336  29.583  1.00  0.00     0.023 A 
ATOM     95  C   UNL A   1      49.520  28.778  30.169  1.00  0.00     0.012 A 
ATOM     96  C   UNL A   1      48.356  27.337  28.591  1.00  0.00     0.148 A 
ATOM     97  C   UNL A   1      50.744  28.261  29.749  1.00  0.00     0.002 A 
ATOM     98  C   UNL A   1      49.577  26.792  28.212  1.00  0.00     0.091 A 
ATOM     99  F   UNL A   1      47.204  26.944  28.029  1.00  0.00    -0.205 F 
ATOM    100  C   UNL A   1      50.773  27.262  28.780  1.00  0.00     0.022 A 
BRANCH  98 101
ATOM    101  S   UNL A   1      49.693  25.436  27.040  1.00  0.00     0.127 S 
ATOM    102  O   UNL A   1      49.435  26.113  25.771  1.00  0.00    -0.237 OA
ATOM    103  O   UNL A   1      51.072  24.981  27.219  1.00  0.00    -0.237 OA
ATOM    104  O   UNL A   1      48.685  24.468  27.456  1.00  0.00    -0.744 OA
ENDBRANCH  98 101
ENDBRANCH  71  94
ENDBRANCH  45  46
ENDBRANCH  37  40
ENDBRANCH  35  36
ENDBRANCH  34  35
ENDBRANCH  33  34
ENDBRANCH   3  33
TORSDOF 19
ENDMDL
