MODEL 1
REMARK VINA RESULT:     -10.8      0.000      0.000
REMARK SMILES O=C(CSc1ccnc(C(=O)NCCCNC(=O)c2ccc(-c3c4nc(c(-c5cccc(S(=O)(=O)[O-])c5F)c5ccc([nH]5)c(-c5cccc(S(=O)(=O)[O-])c5F)c5nc(c(-c6cccc(S(=O)(=O)[O-])c6F)c6ccc3[nH]6)C=C5)C=C4)cc2)c1)NCC(F)(F)F
REMARK SMILES IDX 13 1 12 2 10 3 11 4 9 6 5 7 6 8 82 9 7 10 8 11 4 12 3 13
REMARK SMILES IDX 2 14 1 15 83 16 84 18 85 19 86 20 87 21 88 22 14 23 15 24
REMARK SMILES IDX 16 25 17 26 18 28 19 29 20 30 81 31 21 32 80 33 22 34 23 35
REMARK SMILES IDX 24 36 74 37 25 38 79 39 73 40 75 41 26 42 78 43 72 44 71 45
REMARK SMILES IDX 27 47 59 48 39 49 58 50 40 51 43 52 57 53 76 54 41 55 42 56
REMARK SMILES IDX 56 58 77 59 44 60 28 61 29 62 37 63 30 64 32 65 38 66 31 67
REMARK SMILES IDX 33 68 34 69 35 70 36 71 60 72 61 73 69 74 62 75 64 76 70 77
REMARK SMILES IDX 63 78 65 79 66 80 67 81 68 82 45 83 46 84 54 85 47 86 49 87
REMARK SMILES IDX 55 88 48 89 50 90 51 91 52 92 53 93
REMARK H PARENT 12 5 83 17 16 27 75 46 43 57
REMARK Flexibility Score: inf
ROOT
ATOM      1  C   UNL A   1      35.793  21.140  25.617  1.00  0.00     0.118 C 
ENDROOT
BRANCH   1   2
ATOM      2  N   UNL A   1      34.853  20.121  25.203  1.00  0.00    -0.351 N 
ATOM      3  C   UNL A   1      33.578  20.179  24.689  1.00  0.00     0.269 C 
ATOM      4  O   UNL A   1      33.070  19.091  24.404  1.00  0.00    -0.268 OA
ATOM      5  H   UNL A   1      35.193  19.203  25.310  1.00  0.00     0.163 HD
BRANCH   3   6
ATOM      6  C   UNL A   1      32.803  21.454  24.445  1.00  0.00     0.129 A 
ATOM      7  C   UNL A   1      32.328  23.566  23.392  1.00  0.00     0.012 A 
ATOM      8  C   UNL A   1      31.295  23.756  24.307  1.00  0.00     0.035 A 
ATOM      9  C   UNL A   1      33.113  22.412  23.484  1.00  0.00     0.049 A 
ATOM     10  C   UNL A   1      31.066  22.774  25.248  1.00  0.00     0.113 A 
ATOM     11  N   UNL A   1      31.778  21.635  25.322  1.00  0.00    -0.251 NA
BRANCH   7  12
ATOM     12  S   UNL A   1      32.670  24.891  22.238  1.00  0.00    -0.116 SA
BRANCH  12  13
ATOM     13  C   UNL A   1      33.505  26.133  23.290  1.00  0.00     0.174 C 
BRANCH  13  14
ATOM     14  C   UNL A   1      32.550  27.220  23.749  1.00  0.00     0.230 C 
ATOM     15  O   UNL A   1      31.912  27.886  22.937  1.00  0.00    -0.274 OA
ATOM     16  N   UNL A   1      32.441  27.387  25.111  1.00  0.00    -0.346 N 
ATOM     17  H   UNL A   1      32.923  26.763  25.700  1.00  0.00     0.163 HD
BRANCH  16  18
ATOM     18  C   UNL A   1      31.640  28.455  25.725  1.00  0.00     0.231 C 
BRANCH  18  19
ATOM     19  C   UNL A   1      31.925  28.741  27.196  1.00  0.00     0.405 C 
ATOM     20  F   UNL A   1      33.090  28.172  27.573  1.00  0.00    -0.169 F 
ATOM     21  F   UNL A   1      32.013  30.072  27.408  1.00  0.00    -0.169 F 
ATOM     22  F   UNL A   1      30.945  28.255  27.987  1.00  0.00    -0.169 F 
ENDBRANCH  18  19
ENDBRANCH  16  18
ENDBRANCH  13  14
ENDBRANCH  12  13
ENDBRANCH   7  12
ENDBRANCH   3   6
ENDBRANCH   1   2
BRANCH   1  23
ATOM     23  C   UNL A   1      37.135  20.956  24.912  1.00  0.00     0.042 C 
BRANCH  23  24
ATOM     24  C   UNL A   1      38.321  21.630  25.586  1.00  0.00     0.118 C 
BRANCH  24  25
ATOM     25  N   UNL A   1      39.344  20.687  26.008  1.00  0.00    -0.352 N 
ATOM     26  C   UNL A   1      40.538  20.861  26.656  1.00  0.00     0.251 C 
ATOM     27  H   UNL A   1      39.141  19.750  25.786  1.00  0.00     0.163 HD
ATOM     28  O   UNL A   1      41.240  19.868  26.846  1.00  0.00    -0.269 OA
BRANCH  26  29
ATOM     29  C   UNL A   1      41.025  22.191  27.096  1.00  0.00     0.039 A 
ATOM     30  C   UNL A   1      40.888  23.256  26.197  1.00  0.00     0.014 A 
ATOM     31  C   UNL A   1      41.646  22.416  28.326  1.00  0.00     0.014 A 
ATOM     32  C   UNL A   1      41.341  24.532  26.540  1.00  0.00     0.010 A 
ATOM     33  C   UNL A   1      42.014  23.709  28.706  1.00  0.00     0.010 A 
ATOM     34  C   UNL A   1      41.883  24.778  27.810  1.00  0.00    -0.014 A 
BRANCH  34  35
ATOM     35  C   UNL A   1      42.303  26.153  28.192  1.00  0.00     0.031 A 
ATOM     36  C   UNL A   1      43.730  26.604  28.024  1.00  0.00     0.074 A 
ATOM     37  C   UNL A   1      41.392  26.992  28.724  1.00  0.00     0.049 A 
ATOM     38  N   UNL A   1      44.254  27.781  28.257  1.00  0.00    -0.248 NA
ATOM     39  C   UNL A   1      44.703  25.602  27.560  1.00  0.00     0.031 C 
ATOM     40  C   UNL A   1      39.999  26.648  29.019  1.00  0.00     0.029 A 
ATOM     41  N   UNL A   1      41.498  28.303  29.114  1.00  0.00    -0.354 N 
ATOM     42  C   UNL A   1      45.614  27.655  27.995  1.00  0.00     0.074 A 
ATOM     43  C   UNL A   1      45.843  26.275  27.626  1.00  0.00     0.031 C 
ATOM     44  C   UNL A   1      39.375  27.726  29.519  1.00  0.00     0.029 A 
ATOM     45  C   UNL A   1      40.326  28.829  29.606  1.00  0.00     0.049 A 
ATOM     46  H   UNL A   1      42.335  28.819  29.050  1.00  0.00     0.167 HD
ATOM     47  C   UNL A   1      46.580  28.605  28.029  1.00  0.00     0.034 A 
ATOM     48  C   UNL A   1      40.045  30.062  30.068  1.00  0.00     0.034 A 
ATOM     49  C   UNL A   1      46.341  29.984  28.366  1.00  0.00     0.049 A 
ATOM     50  C   UNL A   1      41.121  31.113  30.039  1.00  0.00     0.074 A 
ATOM     51  C   UNL A   1      47.234  31.042  28.354  1.00  0.00     0.029 A 
ATOM     52  N   UNL A   1      45.124  30.497  28.787  1.00  0.00    -0.354 N 
ATOM     53  N   UNL A   1      42.364  31.011  29.635  1.00  0.00    -0.248 NA
ATOM     54  C   UNL A   1      40.741  32.459  30.485  1.00  0.00     0.031 C 
ATOM     55  C   UNL A   1      46.563  32.187  28.797  1.00  0.00     0.029 A 
ATOM     56  C   UNL A   1      45.242  31.853  29.045  1.00  0.00     0.049 A 
ATOM     57  H   UNL A   1      44.295  29.974  28.888  1.00  0.00     0.167 HD
ATOM     58  C   UNL A   1      42.905  32.287  29.745  1.00  0.00     0.074 A 
ATOM     59  C   UNL A   1      41.843  33.148  30.224  1.00  0.00     0.031 C 
ATOM     60  C   UNL A   1      44.169  32.707  29.485  1.00  0.00     0.034 A 
BRANCH  47  61
ATOM     61  C   UNL A   1      47.981  28.195  27.647  1.00  0.00     0.023 A 
ATOM     62  C   UNL A   1      48.934  27.938  28.655  1.00  0.00     0.012 A 
ATOM     63  C   UNL A   1      48.342  28.011  26.297  1.00  0.00     0.148 A 
ATOM     64  C   UNL A   1      50.231  27.545  28.326  1.00  0.00     0.002 A 
ATOM     65  C   UNL A   1      49.622  27.572  25.979  1.00  0.00     0.091 A 
ATOM     66  F   UNL A   1      47.431  28.278  25.350  1.00  0.00    -0.205 F 
ATOM     67  C   UNL A   1      50.572  27.352  26.991  1.00  0.00     0.022 A 
BRANCH  65  68
ATOM     68  S   UNL A   1      50.135  27.212  24.296  1.00  0.00     0.127 S 
ATOM     69  O   UNL A   1      51.402  26.516  24.516  1.00  0.00    -0.237 OA
ATOM     70  O   UNL A   1      49.046  26.358  23.820  1.00  0.00    -0.237 OA
ATOM     71  O   UNL A   1      50.237  28.498  23.622  1.00  0.00    -0.744 OA
ENDBRANCH  65  68
ENDBRANCH  47  61
BRANCH  48  72
ATOM     72  C   UNL A   1      38.664  30.389  30.525  1.00  0.00     0.023 A 
ATOM     73  C   UNL A   1      38.307  30.174  31.870  1.00  0.00     0.012 A 
ATOM     74  C   UNL A   1      37.715  30.937  29.641  1.00  0.00     0.148 A 
ATOM     75  C   UNL A   1      37.018  30.464  32.318  1.00  0.00     0.002 A 
ATOM     76  C   UNL A   1      36.451  31.278  30.108  1.00  0.00     0.091 A 
ATOM     77  F   UNL A   1      38.072  31.126  28.363  1.00  0.00    -0.205 F 
ATOM     78  C   UNL A   1      36.094  31.025  31.441  1.00  0.00     0.022 A 
BRANCH  76  79
ATOM     79  S   UNL A   1      35.246  32.129  29.083  1.00  0.00     0.127 S 
ATOM     80  O   UNL A   1      34.225  32.492  30.062  1.00  0.00    -0.237 OA
ATOM     81  O   UNL A   1      36.030  33.253  28.566  1.00  0.00    -0.237 OA
ATOM     82  O   UNL A   1      34.837  31.167  28.072  1.00  0.00    -0.744 OA
ENDBRANCH  76  79
ENDBRANCH  48  72
BRANCH  60  83
ATOM     83  C   UNL A   1      44.461  34.173  29.676  1.00  0.00     0.023 A 
ATOM     84  C   UNL A   1      44.880  34.654  30.933  1.00  0.00     0.012 A 
ATOM     85  C   UNL A   1      44.350  35.073  28.598  1.00  0.00     0.148 A 
ATOM     86  C   UNL A   1      45.128  36.012  31.128  1.00  0.00     0.002 A 
ATOM     87  C   UNL A   1      44.652  36.416  28.785  1.00  0.00     0.091 A 
ATOM     88  F   UNL A   1      43.932  34.606  27.412  1.00  0.00    -0.205 F 
ATOM     89  C   UNL A   1      45.023  36.891  30.053  1.00  0.00     0.022 A 
BRANCH  87  90
ATOM     90  S   UNL A   1      44.641  37.598  27.433  1.00  0.00     0.127 S 
ATOM     91  O   UNL A   1      44.986  38.842  28.120  1.00  0.00    -0.237 OA
ATOM     92  O   UNL A   1      45.689  37.076  26.553  1.00  0.00    -0.237 OA
ATOM     93  O   UNL A   1      43.300  37.543  26.866  1.00  0.00    -0.744 OA
ENDBRANCH  87  90
ENDBRANCH  60  83
ENDBRANCH  34  35
ENDBRANCH  26  29
ENDBRANCH  24  25
ENDBRANCH  23  24
ENDBRANCH   1  23
TORSDOF 18
ENDMDL
MODEL 2
REMARK VINA RESULT:     -10.5      5.814     11.835
REMARK SMILES O=C(CSc1ccnc(C(=O)NCCCNC(=O)c2ccc(-c3c4nc(c(-c5cccc(S(=O)(=O)[O-])c5F)c5ccc([nH]5)c(-c5cccc(S(=O)(=O)[O-])c5F)c5nc(c(-c6cccc(S(=O)(=O)[O-])c6F)c6ccc3[nH]6)C=C5)C=C4)cc2)c1)NCC(F)(F)F
REMARK SMILES IDX 13 1 12 2 10 3 11 4 9 6 5 7 6 8 82 9 7 10 8 11 4 12 3 13
REMARK SMILES IDX 2 14 1 15 83 16 84 18 85 19 86 20 87 21 88 22 14 23 15 24
REMARK SMILES IDX 16 25 17 26 18 28 19 29 20 30 81 31 21 32 80 33 22 34 23 35
REMARK SMILES IDX 24 36 74 37 25 38 79 39 73 40 75 41 26 42 78 43 72 44 71 45
REMARK SMILES IDX 27 47 59 48 39 49 58 50 40 51 43 52 57 53 76 54 41 55 42 56
REMARK SMILES IDX 56 58 77 59 44 60 28 61 29 62 37 63 30 64 32 65 38 66 31 67
REMARK SMILES IDX 33 68 34 69 35 70 36 71 60 72 61 73 69 74 62 75 64 76 70 77
REMARK SMILES IDX 63 78 65 79 66 80 67 81 68 82 45 83 46 84 54 85 47 86 49 87
REMARK SMILES IDX 55 88 48 89 50 90 51 91 52 92 53 93
REMARK H PARENT 12 5 83 17 16 27 75 46 43 57
REMARK Flexibility Score: inf
ROOT
ATOM      1  C   UNL A   1      34.501  34.701  28.027  1.00  0.00     0.118 C 
ENDROOT
BRANCH   1   2
ATOM      2  N   UNL A   1      33.823  35.979  28.014  1.00  0.00    -0.351 N 
ATOM      3  C   UNL A   1      33.389  36.816  29.015  1.00  0.00     0.269 C 
ATOM      4  O   UNL A   1      32.871  37.871  28.638  1.00  0.00    -0.268 OA
ATOM      5  H   UNL A   1      33.635  36.316  27.108  1.00  0.00     0.163 HD
BRANCH   3   6
ATOM      6  C   UNL A   1      33.523  36.535  30.495  1.00  0.00     0.129 A 
ATOM      7  C   UNL A   1      33.863  35.168  32.446  1.00  0.00     0.012 A 
ATOM      8  C   UNL A   1      33.576  36.278  33.237  1.00  0.00     0.035 A 
ATOM      9  C   UNL A   1      33.804  35.293  31.054  1.00  0.00     0.049 A 
ATOM     10  C   UNL A   1      33.278  37.470  32.609  1.00  0.00     0.113 A 
ATOM     11  N   UNL A   1      33.265  37.622  31.272  1.00  0.00    -0.251 NA
BRANCH   7  12
ATOM     12  S   UNL A   1      34.155  33.610  33.276  1.00  0.00    -0.116 SA
BRANCH  12  13
ATOM     13  C   UNL A   1      35.970  33.423  33.152  1.00  0.00     0.174 C 
BRANCH  13  14
ATOM     14  C   UNL A   1      36.437  33.378  31.708  1.00  0.00     0.230 C 
ATOM     15  O   UNL A   1      36.064  32.485  30.950  1.00  0.00    -0.274 OA
ATOM     16  N   UNL A   1      37.276  34.397  31.317  1.00  0.00    -0.346 N 
ATOM     17  H   UNL A   1      37.466  35.120  31.958  1.00  0.00     0.163 HD
BRANCH  16  18
ATOM     18  C   UNL A   1      37.899  34.456  29.988  1.00  0.00     0.231 C 
BRANCH  18  19
ATOM     19  C   UNL A   1      39.412  34.263  29.950  1.00  0.00     0.405 C 
ATOM     20  F   UNL A   1      39.970  35.071  29.024  1.00  0.00    -0.169 F 
ATOM     21  F   UNL A   1      39.952  34.554  31.152  1.00  0.00    -0.169 F 
ATOM     22  F   UNL A   1      39.733  32.987  29.645  1.00  0.00    -0.169 F 
ENDBRANCH  18  19
ENDBRANCH  16  18
ENDBRANCH  13  14
ENDBRANCH  12  13
ENDBRANCH   7  12
ENDBRANCH   3   6
ENDBRANCH   1   2
BRANCH   1  23
ATOM     23  C   UNL A   1      33.518  33.564  27.760  1.00  0.00     0.042 C 
BRANCH  23  24
ATOM     24  C   UNL A   1      33.892  32.222  28.372  1.00  0.00     0.118 C 
BRANCH  24  25
ATOM     25  N   UNL A   1      33.759  31.115  27.438  1.00  0.00    -0.352 N 
ATOM     26  C   UNL A   1      34.577  30.054  27.154  1.00  0.00     0.251 C 
ATOM     27  H   UNL A   1      32.928  31.134  26.911  1.00  0.00     0.163 HD
ATOM     28  O   UNL A   1      34.226  29.280  26.263  1.00  0.00    -0.269 OA
BRANCH  26  29
ATOM     29  C   UNL A   1      35.868  29.828  27.848  1.00  0.00     0.039 A 
ATOM     30  C   UNL A   1      35.816  29.361  29.167  1.00  0.00     0.014 A 
ATOM     31  C   UNL A   1      37.110  30.101  27.272  1.00  0.00     0.014 A 
ATOM     32  C   UNL A   1      36.994  29.143  29.885  1.00  0.00     0.010 A 
ATOM     33  C   UNL A   1      38.289  29.796  27.957  1.00  0.00     0.010 A 
ATOM     34  C   UNL A   1      38.244  29.331  29.279  1.00  0.00    -0.014 A 
BRANCH  34  35
ATOM     35  C   UNL A   1      39.494  29.035  30.028  1.00  0.00     0.031 A 
ATOM     36  C   UNL A   1      39.837  29.780  31.291  1.00  0.00     0.074 A 
ATOM     37  C   UNL A   1      40.342  28.104  29.547  1.00  0.00     0.049 A 
ATOM     38  N   UNL A   1      40.856  29.611  32.096  1.00  0.00    -0.248 NA
ATOM     39  C   UNL A   1      38.937  30.873  31.695  1.00  0.00     0.031 C 
ATOM     40  C   UNL A   1      40.167  27.375  28.288  1.00  0.00     0.029 A 
ATOM     41  N   UNL A   1      41.518  27.613  30.053  1.00  0.00    -0.354 N 
ATOM     42  C   UNL A   1      40.736  30.587  33.078  1.00  0.00     0.074 A 
ATOM     43  C   UNL A   1      39.567  31.373  32.748  1.00  0.00     0.031 C 
ATOM     44  C   UNL A   1      41.185  26.513  28.134  1.00  0.00     0.029 A 
ATOM     45  C   UNL A   1      42.097  26.645  29.265  1.00  0.00     0.049 A 
ATOM     46  H   UNL A   1      41.913  27.925  30.900  1.00  0.00     0.167 HD
ATOM     47  C   UNL A   1      41.508  30.794  34.172  1.00  0.00     0.034 A 
ATOM     48  C   UNL A   1      43.229  25.938  29.436  1.00  0.00     0.034 A 
ATOM     49  C   UNL A   1      42.652  29.990  34.514  1.00  0.00     0.049 A 
ATOM     50  C   UNL A   1      44.036  26.146  30.688  1.00  0.00     0.074 A 
ATOM     51  C   UNL A   1      43.455  30.066  35.640  1.00  0.00     0.029 A 
ATOM     52  N   UNL A   1      43.165  28.969  33.730  1.00  0.00    -0.354 N 
ATOM     53  N   UNL A   1      43.815  26.968  31.686  1.00  0.00    -0.248 NA
ATOM     54  C   UNL A   1      45.222  25.297  30.859  1.00  0.00     0.031 C 
ATOM     55  C   UNL A   1      44.470  29.111  35.520  1.00  0.00     0.029 A 
ATOM     56  C   UNL A   1      44.277  28.411  34.340  1.00  0.00     0.049 A 
ATOM     57  H   UNL A   1      42.793  28.680  32.864  1.00  0.00     0.167 HD
ATOM     58  C   UNL A   1      44.813  26.710  32.619  1.00  0.00     0.074 A 
ATOM     59  C   UNL A   1      45.618  25.635  32.078  1.00  0.00     0.031 C 
ATOM     60  C   UNL A   1      45.048  27.316  33.810  1.00  0.00     0.034 A 
BRANCH  47  61
ATOM     61  C   UNL A   1      41.114  31.911  35.109  1.00  0.00     0.023 A 
ATOM     62  C   UNL A   1      41.881  33.094  35.147  1.00  0.00     0.012 A 
ATOM     63  C   UNL A   1      39.959  31.814  35.909  1.00  0.00     0.148 A 
ATOM     64  C   UNL A   1      41.529  34.144  35.995  1.00  0.00     0.002 A 
ATOM     65  C   UNL A   1      39.586  32.884  36.715  1.00  0.00     0.091 A 
ATOM     66  F   UNL A   1      39.252  30.675  35.876  1.00  0.00    -0.205 F 
ATOM     67  C   UNL A   1      40.378  34.044  36.769  1.00  0.00     0.022 A 
BRANCH  65  68
ATOM     68  S   UNL A   1      38.076  32.888  37.687  1.00  0.00     0.127 S 
ATOM     69  O   UNL A   1      38.144  31.583  38.343  1.00  0.00    -0.237 OA
ATOM     70  O   UNL A   1      38.287  34.030  38.577  1.00  0.00    -0.237 OA
ATOM     71  O   UNL A   1      36.986  33.052  36.736  1.00  0.00    -0.744 OA
ENDBRANCH  65  68
ENDBRANCH  47  61
BRANCH  48  72
ATOM     72  C   UNL A   1      43.624  24.911  28.430  1.00  0.00     0.023 A 
ATOM     73  C   UNL A   1      42.962  23.669  28.406  1.00  0.00     0.012 A 
ATOM     74  C   UNL A   1      44.632  25.171  27.482  1.00  0.00     0.148 A 
ATOM     75  C   UNL A   1      43.321  22.689  27.479  1.00  0.00     0.002 A 
ATOM     76  C   UNL A   1      44.944  24.213  26.524  1.00  0.00     0.091 A 
ATOM     77  F   UNL A   1      45.257  26.356  27.527  1.00  0.00    -0.205 F 
ATOM     78  C   UNL A   1      44.304  22.964  26.534  1.00  0.00     0.022 A 
BRANCH  76  79
ATOM     79  S   UNL A   1      46.100  24.533  25.187  1.00  0.00     0.127 S 
ATOM     80  O   UNL A   1      45.742  25.897  24.804  1.00  0.00    -0.237 OA
ATOM     81  O   UNL A   1      47.391  24.403  25.866  1.00  0.00    -0.237 OA
ATOM     82  O   UNL A   1      45.842  23.508  24.187  1.00  0.00    -0.744 OA
ENDBRANCH  76  79
ENDBRANCH  48  72
BRANCH  60  83
ATOM     83  C   UNL A   1      46.204  26.801  34.629  1.00  0.00     0.023 A 
ATOM     84  C   UNL A   1      47.480  27.385  34.497  1.00  0.00     0.012 A 
ATOM     85  C   UNL A   1      46.018  25.754  35.554  1.00  0.00     0.148 A 
ATOM     86  C   UNL A   1      48.563  26.899  35.230  1.00  0.00     0.002 A 
ATOM     87  C   UNL A   1      47.089  25.312  36.321  1.00  0.00     0.091 A 
ATOM     88  F   UNL A   1      44.803  25.196  35.655  1.00  0.00    -0.205 F 
ATOM     89  C   UNL A   1      48.366  25.870  36.147  1.00  0.00     0.022 A 
BRANCH  87  90
ATOM     90  S   UNL A   1      46.901  24.063  37.597  1.00  0.00     0.127 S 
ATOM     91  O   UNL A   1      48.250  24.003  38.157  1.00  0.00    -0.237 OA
ATOM     92  O   UNL A   1      45.901  24.665  38.479  1.00  0.00    -0.237 OA
ATOM     93  O   UNL A   1      46.450  22.859  36.912  1.00  0.00    -0.744 OA
ENDBRANCH  87  90
ENDBRANCH  60  83
ENDBRANCH  34  35
ENDBRANCH  26  29
ENDBRANCH  24  25
ENDBRANCH  23  24
ENDBRANCH   1  23
TORSDOF 18
ENDMDL
MODEL 3
REMARK VINA RESULT:     -10.3      5.317     11.048
REMARK SMILES O=C(CSc1ccnc(C(=O)NCCCNC(=O)c2ccc(-c3c4nc(c(-c5cccc(S(=O)(=O)[O-])c5F)c5ccc([nH]5)c(-c5cccc(S(=O)(=O)[O-])c5F)c5nc(c(-c6cccc(S(=O)(=O)[O-])c6F)c6ccc3[nH]6)C=C5)C=C4)cc2)c1)NCC(F)(F)F
REMARK SMILES IDX 13 1 12 2 10 3 11 4 9 6 5 7 6 8 82 9 7 10 8 11 4 12 3 13
REMARK SMILES IDX 2 14 1 15 83 16 84 18 85 19 86 20 87 21 88 22 14 23 15 24
REMARK SMILES IDX 16 25 17 26 18 28 19 29 20 30 81 31 21 32 80 33 22 34 23 35
REMARK SMILES IDX 24 36 74 37 25 38 79 39 73 40 75 41 26 42 78 43 72 44 71 45
REMARK SMILES IDX 27 47 59 48 39 49 58 50 40 51 43 52 57 53 76 54 41 55 42 56
REMARK SMILES IDX 56 58 77 59 44 60 28 61 29 62 37 63 30 64 32 65 38 66 31 67
REMARK SMILES IDX 33 68 34 69 35 70 36 71 60 72 61 73 69 74 62 75 64 76 70 77
REMARK SMILES IDX 63 78 65 79 66 80 67 81 68 82 45 83 46 84 54 85 47 86 49 87
REMARK SMILES IDX 55 88 48 89 50 90 51 91 52 92 53 93
REMARK H PARENT 12 5 83 17 16 27 75 46 43 57
REMARK Flexibility Score: inf
ROOT
ATOM      1  C   UNL A   1      34.802  32.460  30.571  1.00  0.00     0.118 C 
ENDROOT
BRANCH   1   2
ATOM      2  N   UNL A   1      34.372  32.958  31.859  1.00  0.00    -0.351 N 
ATOM      3  C   UNL A   1      35.033  33.167  33.048  1.00  0.00     0.269 C 
ATOM      4  O   UNL A   1      34.352  33.650  33.956  1.00  0.00    -0.268 OA
ATOM      5  H   UNL A   1      33.417  33.194  31.892  1.00  0.00     0.163 HD
BRANCH   3   6
ATOM      6  C   UNL A   1      36.495  32.866  33.288  1.00  0.00     0.129 A 
ATOM      7  C   UNL A   1      38.421  31.461  33.618  1.00  0.00     0.012 A 
ATOM      8  C   UNL A   1      39.174  32.604  33.874  1.00  0.00     0.035 A 
ATOM      9  C   UNL A   1      37.054  31.594  33.352  1.00  0.00     0.049 A 
ATOM     10  C   UNL A   1      38.543  33.829  33.819  1.00  0.00     0.113 A 
ATOM     11  N   UNL A   1      37.241  33.982  33.517  1.00  0.00    -0.251 NA
BRANCH   7  12
ATOM     12  S   UNL A   1      39.234  29.875  33.785  1.00  0.00    -0.116 SA
BRANCH  12  13
ATOM     13  C   UNL A   1      40.681  30.274  34.829  1.00  0.00     0.174 C 
BRANCH  13  14
ATOM     14  C   UNL A   1      41.276  29.034  35.472  1.00  0.00     0.230 C 
ATOM     15  O   UNL A   1      41.698  29.059  36.626  1.00  0.00    -0.274 OA
ATOM     16  N   UNL A   1      41.288  27.901  34.690  1.00  0.00    -0.346 N 
ATOM     17  H   UNL A   1      40.859  27.937  33.805  1.00  0.00     0.163 HD
BRANCH  16  18
ATOM     18  C   UNL A   1      41.912  26.641  35.116  1.00  0.00     0.231 C 
BRANCH  18  19
ATOM     19  C   UNL A   1      43.359  26.431  34.679  1.00  0.00     0.405 C 
ATOM     20  F   UNL A   1      43.982  25.563  35.503  1.00  0.00    -0.169 F 
ATOM     21  F   UNL A   1      43.403  25.935  33.424  1.00  0.00    -0.169 F 
ATOM     22  F   UNL A   1      44.046  27.594  34.694  1.00  0.00    -0.169 F 
ENDBRANCH  18  19
ENDBRANCH  16  18
ENDBRANCH  13  14
ENDBRANCH  12  13
ENDBRANCH   7  12
ENDBRANCH   3   6
ENDBRANCH   1   2
BRANCH   1  23
ATOM     23  C   UNL A   1      34.370  33.407  29.454  1.00  0.00     0.042 C 
BRANCH  23  24
ATOM     24  C   UNL A   1      34.721  32.953  28.044  1.00  0.00     0.118 C 
BRANCH  24  25
ATOM     25  N   UNL A   1      34.039  31.729  27.656  1.00  0.00    -0.352 N 
ATOM     26  C   UNL A   1      34.438  30.419  27.658  1.00  0.00     0.251 C 
ATOM     27  H   UNL A   1      33.120  31.869  27.331  1.00  0.00     0.163 HD
ATOM     28  O   UNL A   1      33.653  29.578  27.221  1.00  0.00    -0.269 OA
BRANCH  26  29
ATOM     29  C   UNL A   1      35.778  29.990  28.128  1.00  0.00     0.039 A 
ATOM     30  C   UNL A   1      36.843  30.105  27.226  1.00  0.00     0.014 A 
ATOM     31  C   UNL A   1      36.012  29.441  29.390  1.00  0.00     0.014 A 
ATOM     32  C   UNL A   1      38.127  29.703  27.596  1.00  0.00     0.010 A 
ATOM     33  C   UNL A   1      37.313  29.126  29.793  1.00  0.00     0.010 A 
ATOM     34  C   UNL A   1      38.382  29.236  28.894  1.00  0.00    -0.014 A 
BRANCH  34  35
ATOM     35  C   UNL A   1      39.765  28.872  29.302  1.00  0.00     0.031 A 
ATOM     36  C   UNL A   1      40.621  29.832  30.085  1.00  0.00     0.074 A 
ATOM     37  C   UNL A   1      40.262  27.673  28.938  1.00  0.00     0.049 A 
ATOM     38  N   UNL A   1      41.826  29.656  30.567  1.00  0.00    -0.248 NA
ATOM     39  C   UNL A   1      40.070  31.173  30.341  1.00  0.00     0.031 C 
ATOM     40  C   UNL A   1      39.566  26.689  28.105  1.00  0.00     0.029 A 
ATOM     41  N   UNL A   1      41.467  27.078  29.215  1.00  0.00    -0.354 N 
ATOM     42  C   UNL A   1      42.185  30.864  31.155  1.00  0.00     0.074 A 
ATOM     43  C   UNL A   1      41.088  31.780  30.933  1.00  0.00     0.031 C 
ATOM     44  C   UNL A   1      40.344  25.605  27.961  1.00  0.00     0.029 A 
ATOM     45  C   UNL A   1      41.602  25.824  28.666  1.00  0.00     0.049 A 
ATOM     46  H   UNL A   1      42.169  27.508  29.755  1.00  0.00     0.167 HD
ATOM     47  C   UNL A   1      43.311  31.175  31.842  1.00  0.00     0.034 A 
ATOM     48  C   UNL A   1      42.620  24.946  28.728  1.00  0.00     0.034 A 
ATOM     49  C   UNL A   1      44.387  30.251  32.086  1.00  0.00     0.049 A 
ATOM     50  C   UNL A   1      43.833  25.294  29.546  1.00  0.00     0.074 A 
ATOM     51  C   UNL A   1      45.535  30.442  32.837  1.00  0.00     0.029 A 
ATOM     52  N   UNL A   1      44.455  28.963  31.577  1.00  0.00    -0.354 N 
ATOM     53  N   UNL A   1      44.084  26.385  30.229  1.00  0.00    -0.248 NA
ATOM     54  C   UNL A   1      44.882  24.271  29.641  1.00  0.00     0.031 C 
ATOM     55  C   UNL A   1      46.310  29.280  32.755  1.00  0.00     0.029 A 
ATOM     56  C   UNL A   1      45.627  28.350  31.989  1.00  0.00     0.049 A 
ATOM     57  H   UNL A   1      43.771  28.545  31.006  1.00  0.00     0.167 HD
ATOM     58  C   UNL A   1      45.302  26.167  30.862  1.00  0.00     0.074 A 
ATOM     59  C   UNL A   1      45.720  24.827  30.504  1.00  0.00     0.031 C 
ATOM     60  C   UNL A   1      46.015  27.003  31.658  1.00  0.00     0.034 A 
BRANCH  47  61
ATOM     61  C   UNL A   1      43.418  32.565  32.420  1.00  0.00     0.023 A 
ATOM     62  C   UNL A   1      43.057  32.793  33.765  1.00  0.00     0.012 A 
ATOM     63  C   UNL A   1      43.924  33.635  31.654  1.00  0.00     0.148 A 
ATOM     64  C   UNL A   1      43.159  34.066  34.325  1.00  0.00     0.002 A 
ATOM     65  C   UNL A   1      44.070  34.890  32.234  1.00  0.00     0.091 A 
ATOM     66  F   UNL A   1      44.244  33.407  30.372  1.00  0.00    -0.205 F 
ATOM     67  C   UNL A   1      43.675  35.110  33.565  1.00  0.00     0.022 A 
BRANCH  65  68
ATOM     68  S   UNL A   1      44.802  36.281  31.365  1.00  0.00     0.127 S 
ATOM     69  O   UNL A   1      43.842  36.489  30.280  1.00  0.00    -0.237 OA
ATOM     70  O   UNL A   1      44.795  37.323  32.393  1.00  0.00    -0.237 OA
ATOM     71  O   UNL A   1      46.127  35.845  30.951  1.00  0.00    -0.744 OA
ENDBRANCH  65  68
ENDBRANCH  47  61
BRANCH  48  72
ATOM     72  C   UNL A   1      42.502  23.620  28.056  1.00  0.00     0.023 A 
ATOM     73  C   UNL A   1      41.491  22.725  28.456  1.00  0.00     0.012 A 
ATOM     74  C   UNL A   1      43.367  23.256  27.007  1.00  0.00     0.148 A 
ATOM     75  C   UNL A   1      41.366  21.475  27.848  1.00  0.00     0.002 A 
ATOM     76  C   UNL A   1      43.200  22.034  26.366  1.00  0.00     0.091 A 
ATOM     77  F   UNL A   1      44.328  24.118  26.647  1.00  0.00    -0.205 F 
ATOM     78  C   UNL A   1      42.214  21.134  26.798  1.00  0.00     0.022 A 
BRANCH  76  79
ATOM     79  S   UNL A   1      44.157  21.570  24.919  1.00  0.00     0.127 S 
ATOM     80  O   UNL A   1      43.734  22.575  23.946  1.00  0.00    -0.237 OA
ATOM     81  O   UNL A   1      45.531  21.724  25.403  1.00  0.00    -0.237 OA
ATOM     82  O   UNL A   1      43.777  20.199  24.616  1.00  0.00    -0.744 OA
ENDBRANCH  76  79
ENDBRANCH  48  72
BRANCH  60  83
ATOM     83  C   UNL A   1      47.307  26.476  32.229  1.00  0.00     0.023 A 
ATOM     84  C   UNL A   1      47.309  25.789  33.460  1.00  0.00     0.012 A 
ATOM     85  C   UNL A   1      48.519  26.636  31.528  1.00  0.00     0.148 A 
ATOM     86  C   UNL A   1      48.502  25.321  34.010  1.00  0.00     0.002 A 
ATOM     87  C   UNL A   1      49.695  26.118  32.056  1.00  0.00     0.091 A 
ATOM     88  F   UNL A   1      48.505  27.307  30.367  1.00  0.00    -0.205 F 
ATOM     89  C   UNL A   1      49.692  25.477  33.305  1.00  0.00     0.022 A 
BRANCH  87  90
ATOM     90  S   UNL A   1      51.254  26.185  31.167  1.00  0.00     0.127 S 
ATOM     91  O   UNL A   1      51.524  27.622  31.145  1.00  0.00    -0.237 OA
ATOM     92  O   UNL A   1      52.142  25.411  32.035  1.00  0.00    -0.237 OA
ATOM     93  O   UNL A   1      51.000  25.573  29.870  1.00  0.00    -0.744 OA
ENDBRANCH  87  90
ENDBRANCH  60  83
ENDBRANCH  34  35
ENDBRANCH  26  29
ENDBRANCH  24  25
ENDBRANCH  23  24
ENDBRANCH   1  23
TORSDOF 18
ENDMDL
