MODEL 1
REMARK VINA RESULT:     -12.5      0.000      0.000
REMARK SMILES O=C(NCCCNC(=O)c1cccc2c1ccn2Cc1ccncc1)c1ccc(-c2c3nc(c(-c4cccc(S(=O)(=O)[O-])c4F)c4ccc([nH]4)c(-c4cccc(S(=O)(=O)[O-])c4F)c4nc(c(-c5cccc(S(=O)(=O)[O-])c5F)c5ccc2[nH]5)C=C4)C=C3)cc1
REMARK SMILES IDX 4 1 3 2 1 3 2 4 26 6 27 7 88 8 28 9 87 10 29 11 30 12 31 13
REMARK SMILES IDX 81 14 32 15 86 16 80 17 82 18 33 19 85 20 79 21 78 22 34 24
REMARK SMILES IDX 66 25 46 26 65 27 47 28 50 29 64 30 83 31 48 32 49 33 63 35
REMARK SMILES IDX 84 36 51 37 35 38 36 39 44 40 37 41 39 42 45 43 38 44 40 45
REMARK SMILES IDX 41 46 42 47 43 48 67 49 68 50 76 51 69 52 71 53 77 54 70 55
REMARK SMILES IDX 72 56 73 57 74 58 75 59 52 60 53 61 61 62 54 63 56 64 62 65
REMARK SMILES IDX 55 66 57 67 58 68 59 69 60 70 5 71 6 72 7 73 8 74 9 76 10 77
REMARK SMILES IDX 11 78 15 79 12 80 14 81 16 82 13 83 18 84 17 85 19 86 20 87
REMARK SMILES IDX 21 88 25 89 22 90 24 91 23 92
REMARK H PARENT 3 5 82 23 50 34 7 75
REMARK Flexibility Score: inf
ROOT
ATOM      1  C   UNL A   1      39.032  20.101  25.848  1.00  0.00     0.118 C 
ENDROOT
BRANCH   1   2
ATOM      2  N   UNL A   1      40.202  19.205  25.781  1.00  0.00    -0.352 N 
ATOM      3  O   UNL A   1      42.424  18.758  25.525  1.00  0.00    -0.269 OA
ATOM      4  C   UNL A   1      41.543  19.543  25.892  1.00  0.00     0.251 C 
ATOM      5  H   UNL A   1      40.007  18.251  25.638  1.00  0.00     0.163 HD
BRANCH   4   6
ATOM      6  C   UNL A   1      41.893  20.853  26.465  1.00  0.00     0.039 A 
ATOM      7  C   UNL A   1      42.515  21.885  25.767  1.00  0.00     0.014 A 
ATOM      8  C   UNL A   1      41.504  21.052  27.778  1.00  0.00     0.014 A 
ATOM      9  C   UNL A   1      42.709  23.088  26.443  1.00  0.00     0.010 A 
ATOM     10  C   UNL A   1      41.253  22.311  28.202  1.00  0.00     0.010 A 
ATOM     11  C   UNL A   1      42.075  23.274  27.687  1.00  0.00    -0.014 A 
BRANCH  11  12
ATOM     12  C   UNL A   1      42.207  24.470  28.496  1.00  0.00     0.031 A 
ATOM     13  C   UNL A   1      41.090  25.401  28.289  1.00  0.00     0.074 A 
ATOM     14  C   UNL A   1      43.165  24.649  29.437  1.00  0.00     0.049 A 
ATOM     15  N   UNL A   1      41.093  26.418  27.498  1.00  0.00    -0.248 NA
ATOM     16  C   UNL A   1      39.766  25.033  28.807  1.00  0.00     0.031 C 
ATOM     17  C   UNL A   1      44.152  23.694  29.972  1.00  0.00     0.029 A 
ATOM     18  N   UNL A   1      43.398  25.748  30.198  1.00  0.00    -0.354 N 
ATOM     19  C   UNL A   1      39.843  26.988  27.652  1.00  0.00     0.074 A 
ATOM     20  C   UNL A   1      39.006  25.984  28.257  1.00  0.00     0.031 C 
ATOM     21  C   UNL A   1      44.704  24.188  31.105  1.00  0.00     0.029 A 
ATOM     22  C   UNL A   1      44.257  25.554  31.277  1.00  0.00     0.049 A 
ATOM     23  H   UNL A   1      42.988  26.622  30.002  1.00  0.00     0.167 HD
ATOM     24  C   UNL A   1      39.691  28.334  27.553  1.00  0.00     0.034 A 
ATOM     25  C   UNL A   1      44.551  26.467  32.237  1.00  0.00     0.034 A 
ATOM     26  C   UNL A   1      40.861  28.962  26.991  1.00  0.00     0.049 A 
ATOM     27  C   UNL A   1      44.275  27.791  31.629  1.00  0.00     0.074 A 
ATOM     28  C   UNL A   1      41.549  28.850  25.798  1.00  0.00     0.029 A 
ATOM     29  N   UNL A   1      41.740  29.515  27.892  1.00  0.00    -0.354 N 
ATOM     30  N   UNL A   1      44.936  28.272  30.613  1.00  0.00    -0.248 NA
ATOM     31  C   UNL A   1      42.972  28.387  31.874  1.00  0.00     0.031 C 
ATOM     32  C   UNL A   1      42.927  28.923  26.159  1.00  0.00     0.029 A 
ATOM     33  C   UNL A   1      43.011  29.147  27.535  1.00  0.00     0.049 A 
ATOM     34  H   UNL A   1      41.498  30.078  28.662  1.00  0.00     0.167 HD
ATOM     35  C   UNL A   1      43.964  28.884  29.833  1.00  0.00     0.074 A 
ATOM     36  C   UNL A   1      42.801  29.016  30.709  1.00  0.00     0.031 C 
ATOM     37  C   UNL A   1      44.096  28.958  28.476  1.00  0.00     0.034 A 
BRANCH  24  38
ATOM     38  C   UNL A   1      38.671  29.111  28.334  1.00  0.00     0.023 A 
ATOM     39  C   UNL A   1      37.874  30.034  27.633  1.00  0.00     0.012 A 
ATOM     40  C   UNL A   1      38.638  29.160  29.748  1.00  0.00     0.148 A 
ATOM     41  C   UNL A   1      37.082  30.968  28.309  1.00  0.00     0.002 A 
ATOM     42  C   UNL A   1      37.790  30.032  30.414  1.00  0.00     0.091 A 
ATOM     43  F   UNL A   1      39.529  28.462  30.460  1.00  0.00    -0.205 F 
ATOM     44  C   UNL A   1      37.026  30.956  29.700  1.00  0.00     0.022 A 
BRANCH  42  45
ATOM     45  S   UNL A   1      37.662  30.032  32.205  1.00  0.00     0.127 S 
ATOM     46  O   UNL A   1      37.358  28.629  32.474  1.00  0.00    -0.237 OA
ATOM     47  O   UNL A   1      39.003  30.464  32.598  1.00  0.00    -0.237 OA
ATOM     48  O   UNL A   1      36.611  30.990  32.519  1.00  0.00    -0.744 OA
ENDBRANCH  42  45
ENDBRANCH  24  38
BRANCH  25  49
ATOM     49  C   UNL A   1      44.719  26.314  33.709  1.00  0.00     0.023 A 
ATOM     50  C   UNL A   1      45.941  26.717  34.295  1.00  0.00     0.012 A 
ATOM     51  C   UNL A   1      43.614  26.114  34.565  1.00  0.00     0.148 A 
ATOM     52  C   UNL A   1      46.037  26.999  35.664  1.00  0.00     0.002 A 
ATOM     53  C   UNL A   1      43.716  26.389  35.929  1.00  0.00     0.091 A 
ATOM     54  F   UNL A   1      42.440  25.751  34.033  1.00  0.00    -0.205 F 
ATOM     55  C   UNL A   1      44.918  26.853  36.477  1.00  0.00     0.022 A 
BRANCH  53  56
ATOM     56  S   UNL A   1      42.316  26.238  37.050  1.00  0.00     0.127 S 
ATOM     57  O   UNL A   1      42.945  26.448  38.354  1.00  0.00    -0.237 OA
ATOM     58  O   UNL A   1      41.452  27.328  36.605  1.00  0.00    -0.237 OA
ATOM     59  O   UNL A   1      41.793  24.892  36.848  1.00  0.00    -0.744 OA
ENDBRANCH  53  56
ENDBRANCH  25  49
BRANCH  37  60
ATOM     60  C   UNL A   1      45.438  28.616  27.879  1.00  0.00     0.023 A 
ATOM     61  C   UNL A   1      46.532  29.507  27.892  1.00  0.00     0.012 A 
ATOM     62  C   UNL A   1      45.644  27.288  27.471  1.00  0.00     0.148 A 
ATOM     63  C   UNL A   1      47.808  29.075  27.509  1.00  0.00     0.002 A 
ATOM     64  C   UNL A   1      46.917  26.853  27.127  1.00  0.00     0.091 A 
ATOM     65  F   UNL A   1      44.590  26.460  27.475  1.00  0.00    -0.205 F 
ATOM     66  C   UNL A   1      48.003  27.744  27.142  1.00  0.00     0.022 A 
BRANCH  64  67
ATOM     67  S   UNL A   1      47.255  25.135  26.743  1.00  0.00     0.127 S 
ATOM     68  O   UNL A   1      48.692  25.157  26.476  1.00  0.00    -0.237 OA
ATOM     69  O   UNL A   1      46.872  24.460  27.984  1.00  0.00    -0.237 OA
ATOM     70  O   UNL A   1      46.419  24.801  25.596  1.00  0.00    -0.744 OA
ENDBRANCH  64  67
ENDBRANCH  37  60
ENDBRANCH  11  12
ENDBRANCH   4   6
ENDBRANCH   1   2
BRANCH   1  71
ATOM     71  C   UNL A   1      37.874  19.694  24.971  1.00  0.00     0.042 C 
BRANCH  71  72
ATOM     72  C   UNL A   1      36.807  20.780  24.878  1.00  0.00     0.118 C 
BRANCH  72  73
ATOM     73  N   UNL A   1      36.100  21.049  26.125  1.00  0.00    -0.352 N 
ATOM     74  C   UNL A   1      34.813  21.489  26.334  1.00  0.00     0.251 C 
ATOM     75  H   UNL A   1      36.625  20.893  26.944  1.00  0.00     0.163 HD
ATOM     76  O   UNL A   1      34.399  21.661  27.475  1.00  0.00    -0.269 OA
BRANCH  74  77
ATOM     77  C   UNL A   1      33.933  21.741  25.179  1.00  0.00     0.049 A 
ATOM     78  C   UNL A   1      33.173  20.697  24.631  1.00  0.00     0.014 A 
ATOM     79  C   UNL A   1      33.858  23.034  24.618  1.00  0.00     0.012 A 
ATOM     80  C   UNL A   1      32.454  20.890  23.459  1.00  0.00     0.003 A 
ATOM     81  C   UNL A   1      33.068  23.223  23.475  1.00  0.00     0.049 A 
ATOM     82  C   UNL A   1      34.457  24.288  24.925  1.00  0.00     0.029 A 
ATOM     83  C   UNL A   1      32.393  22.152  22.859  1.00  0.00     0.027 A 
ATOM     84  N   UNL A   1      33.127  24.570  23.163  1.00  0.00    -0.343 N 
ATOM     85  C   UNL A   1      34.037  25.195  23.982  1.00  0.00     0.087 A 
BRANCH  84  86
ATOM     86  C   UNL A   1      32.398  25.241  22.091  1.00  0.00     0.157 C 
BRANCH  86  87
ATOM     87  C   UNL A   1      31.224  26.050  22.594  1.00  0.00    -0.025 A 
ATOM     88  C   UNL A   1      30.322  25.525  23.528  1.00  0.00     0.025 A 
ATOM     89  C   UNL A   1      31.024  27.368  22.169  1.00  0.00     0.025 A 
ATOM     90  C   UNL A   1      29.279  26.317  23.982  1.00  0.00     0.111 A 
ATOM     91  C   UNL A   1      29.958  28.088  22.694  1.00  0.00     0.111 A 
ATOM     92  N   UNL A   1      29.084  27.595  23.594  1.00  0.00    -0.265 NA
ENDBRANCH  86  87
ENDBRANCH  84  86
ENDBRANCH  74  77
ENDBRANCH  72  73
ENDBRANCH  71  72
ENDBRANCH   1  71
TORSDOF 15
ENDMDL
MODEL 2
REMARK VINA RESULT:     -12.3      4.214      9.621
REMARK SMILES O=C(NCCCNC(=O)c1cccc2c1ccn2Cc1ccncc1)c1ccc(-c2c3nc(c(-c4cccc(S(=O)(=O)[O-])c4F)c4ccc([nH]4)c(-c4cccc(S(=O)(=O)[O-])c4F)c4nc(c(-c5cccc(S(=O)(=O)[O-])c5F)c5ccc2[nH]5)C=C4)C=C3)cc1
REMARK SMILES IDX 4 1 3 2 1 3 2 4 26 6 27 7 88 8 28 9 87 10 29 11 30 12 31 13
REMARK SMILES IDX 81 14 32 15 86 16 80 17 82 18 33 19 85 20 79 21 78 22 34 24
REMARK SMILES IDX 66 25 46 26 65 27 47 28 50 29 64 30 83 31 48 32 49 33 63 35
REMARK SMILES IDX 84 36 51 37 35 38 36 39 44 40 37 41 39 42 45 43 38 44 40 45
REMARK SMILES IDX 41 46 42 47 43 48 67 49 68 50 76 51 69 52 71 53 77 54 70 55
REMARK SMILES IDX 72 56 73 57 74 58 75 59 52 60 53 61 61 62 54 63 56 64 62 65
REMARK SMILES IDX 55 66 57 67 58 68 59 69 60 70 5 71 6 72 7 73 8 74 9 76 10 77
REMARK SMILES IDX 11 78 15 79 12 80 14 81 16 82 13 83 18 84 17 85 19 86 20 87
REMARK SMILES IDX 21 88 25 89 22 90 24 91 23 92
REMARK H PARENT 3 5 82 23 50 34 7 75
REMARK Flexibility Score: inf
ROOT
ATOM      1  C   UNL A   1      32.361  32.397  27.272  1.00  0.00     0.118 C 
ENDROOT
BRANCH   1   2
ATOM      2  N   UNL A   1      32.210  33.815  27.649  1.00  0.00    -0.352 N 
ATOM      3  O   UNL A   1      32.555  35.620  29.000  1.00  0.00    -0.269 OA
ATOM      4  C   UNL A   1      32.964  34.541  28.560  1.00  0.00     0.251 C 
ATOM      5  H   UNL A   1      31.484  34.305  27.202  1.00  0.00     0.163 HD
BRANCH   4   6
ATOM      6  C   UNL A   1      34.268  34.001  28.981  1.00  0.00     0.039 A 
ATOM      7  C   UNL A   1      34.513  33.380  30.203  1.00  0.00     0.014 A 
ATOM      8  C   UNL A   1      35.279  34.084  28.040  1.00  0.00     0.014 A 
ATOM      9  C   UNL A   1      35.789  32.863  30.412  1.00  0.00     0.010 A 
ATOM     10  C   UNL A   1      36.276  33.172  28.070  1.00  0.00     0.010 A 
ATOM     11  C   UNL A   1      36.674  32.784  29.319  1.00  0.00    -0.014 A 
BRANCH  11  12
ATOM     12  C   UNL A   1      38.030  32.280  29.405  1.00  0.00     0.031 A 
ATOM     13  C   UNL A   1      38.123  30.874  28.991  1.00  0.00     0.074 A 
ATOM     14  C   UNL A   1      39.110  33.047  29.694  1.00  0.00     0.049 A 
ATOM     15  N   UNL A   1      38.119  29.854  29.779  1.00  0.00    -0.248 NA
ATOM     16  C   UNL A   1      37.949  30.550  27.570  1.00  0.00     0.031 C 
ATOM     17  C   UNL A   1      39.219  34.511  29.824  1.00  0.00     0.029 A 
ATOM     18  N   UNL A   1      40.400  32.654  29.850  1.00  0.00    -0.354 N 
ATOM     19  C   UNL A   1      38.239  28.761  28.941  1.00  0.00     0.074 A 
ATOM     20  C   UNL A   1      37.886  29.216  27.620  1.00  0.00     0.031 C 
ATOM     21  C   UNL A   1      40.522  34.879  29.809  1.00  0.00     0.029 A 
ATOM     22  C   UNL A   1      41.338  33.684  29.856  1.00  0.00     0.049 A 
ATOM     23  H   UNL A   1      40.655  31.709  29.950  1.00  0.00     0.167 HD
ATOM     24  C   UNL A   1      38.915  27.657  29.353  1.00  0.00     0.034 A 
ATOM     25  C   UNL A   1      42.687  33.535  29.885  1.00  0.00     0.034 A 
ATOM     26  C   UNL A   1      39.167  27.686  30.772  1.00  0.00     0.049 A 
ATOM     27  C   UNL A   1      42.928  32.192  30.469  1.00  0.00     0.074 A 
ATOM     28  C   UNL A   1      38.375  27.747  31.902  1.00  0.00     0.029 A 
ATOM     29  N   UNL A   1      40.414  28.121  31.154  1.00  0.00    -0.354 N 
ATOM     30  N   UNL A   1      42.612  31.869  31.693  1.00  0.00    -0.248 NA
ATOM     31  C   UNL A   1      43.119  31.082  29.552  1.00  0.00     0.031 C 
ATOM     32  C   UNL A   1      39.060  28.631  32.787  1.00  0.00     0.029 A 
ATOM     33  C   UNL A   1      40.264  29.007  32.188  1.00  0.00     0.049 A 
ATOM     34  H   UNL A   1      41.270  27.844  30.752  1.00  0.00     0.167 HD
ATOM     35  C   UNL A   1      42.117  30.575  31.585  1.00  0.00     0.074 A 
ATOM     36  C   UNL A   1      42.554  30.109  30.270  1.00  0.00     0.031 C 
ATOM     37  C   UNL A   1      41.161  30.116  32.444  1.00  0.00     0.034 A 
BRANCH  24  38
ATOM     38  C   UNL A   1      39.696  26.772  28.425  1.00  0.00     0.023 A 
ATOM     39  C   UNL A   1      39.530  25.381  28.553  1.00  0.00     0.012 A 
ATOM     40  C   UNL A   1      40.765  27.231  27.620  1.00  0.00     0.148 A 
ATOM     41  C   UNL A   1      40.392  24.486  27.911  1.00  0.00     0.002 A 
ATOM     42  C   UNL A   1      41.566  26.342  26.919  1.00  0.00     0.091 A 
ATOM     43  F   UNL A   1      41.104  28.525  27.635  1.00  0.00    -0.205 F 
ATOM     44  C   UNL A   1      41.399  24.965  27.080  1.00  0.00     0.022 A 
BRANCH  42  45
ATOM     45  S   UNL A   1      42.858  26.915  25.813  1.00  0.00     0.127 S 
ATOM     46  O   UNL A   1      42.090  27.699  24.850  1.00  0.00    -0.237 OA
ATOM     47  O   UNL A   1      43.702  27.694  26.719  1.00  0.00    -0.237 OA
ATOM     48  O   UNL A   1      43.492  25.708  25.299  1.00  0.00    -0.744 OA
ENDBRANCH  42  45
ENDBRANCH  24  38
BRANCH  25  49
ATOM     49  C   UNL A   1      43.765  34.268  29.166  1.00  0.00     0.023 A 
ATOM     50  C   UNL A   1      44.605  35.131  29.907  1.00  0.00     0.012 A 
ATOM     51  C   UNL A   1      44.191  33.883  27.877  1.00  0.00     0.148 A 
ATOM     52  C   UNL A   1      45.860  35.521  29.423  1.00  0.00     0.002 A 
ATOM     53  C   UNL A   1      45.439  34.280  27.396  1.00  0.00     0.091 A 
ATOM     54  F   UNL A   1      43.423  33.051  27.162  1.00  0.00    -0.205 F 
ATOM     55  C   UNL A   1      46.285  35.080  28.175  1.00  0.00     0.022 A 
BRANCH  53  56
ATOM     56  S   UNL A   1      46.071  33.745  25.798  1.00  0.00     0.127 S 
ATOM     57  O   UNL A   1      46.084  32.289  25.947  1.00  0.00    -0.237 OA
ATOM     58  O   UNL A   1      45.054  34.256  24.883  1.00  0.00    -0.237 OA
ATOM     59  O   UNL A   1      47.393  34.346  25.674  1.00  0.00    -0.744 OA
ENDBRANCH  53  56
ENDBRANCH  25  49
BRANCH  37  60
ATOM     60  C   UNL A   1      40.862  30.940  33.672  1.00  0.00     0.023 A 
ATOM     61  C   UNL A   1      41.683  30.931  34.819  1.00  0.00     0.012 A 
ATOM     62  C   UNL A   1      39.830  31.887  33.578  1.00  0.00     0.148 A 
ATOM     63  C   UNL A   1      41.478  31.857  35.849  1.00  0.00     0.002 A 
ATOM     64  C   UNL A   1      39.652  32.827  34.585  1.00  0.00     0.091 A 
ATOM     65  F   UNL A   1      39.068  31.879  32.474  1.00  0.00    -0.205 F 
ATOM     66  C   UNL A   1      40.473  32.815  35.724  1.00  0.00     0.022 A 
BRANCH  64  67
ATOM     67  S   UNL A   1      38.445  34.146  34.441  1.00  0.00     0.127 S 
ATOM     68  O   UNL A   1      38.767  34.714  33.133  1.00  0.00    -0.237 OA
ATOM     69  O   UNL A   1      37.179  33.414  34.497  1.00  0.00    -0.237 OA
ATOM     70  O   UNL A   1      38.676  35.034  35.574  1.00  0.00    -0.744 OA
ENDBRANCH  64  67
ENDBRANCH  37  60
ENDBRANCH  11  12
ENDBRANCH   4   6
ENDBRANCH   1   2
BRANCH   1  71
ATOM     71  C   UNL A   1      31.288  31.872  26.350  1.00  0.00     0.042 C 
BRANCH  71  72
ATOM     72  C   UNL A   1      31.663  30.531  25.729  1.00  0.00     0.118 C 
BRANCH  72  73
ATOM     73  N   UNL A   1      30.835  30.129  24.596  1.00  0.00    -0.352 N 
ATOM     74  C   UNL A   1      30.662  28.891  24.023  1.00  0.00     0.251 C 
ATOM     75  H   UNL A   1      30.323  30.858  24.176  1.00  0.00     0.163 HD
ATOM     76  O   UNL A   1      29.915  28.757  23.060  1.00  0.00    -0.269 OA
BRANCH  74  77
ATOM     77  C   UNL A   1      31.370  27.725  24.581  1.00  0.00     0.049 A 
ATOM     78  C   UNL A   1      31.155  27.341  25.913  1.00  0.00     0.014 A 
ATOM     79  C   UNL A   1      32.270  26.994  23.776  1.00  0.00     0.012 A 
ATOM     80  C   UNL A   1      31.922  26.336  26.488  1.00  0.00     0.003 A 
ATOM     81  C   UNL A   1      32.982  25.936  24.359  1.00  0.00     0.049 A 
ATOM     82  C   UNL A   1      32.697  27.090  22.422  1.00  0.00     0.029 A 
ATOM     83  C   UNL A   1      32.850  25.621  25.724  1.00  0.00     0.027 A 
ATOM     84  N   UNL A   1      33.746  25.365  23.356  1.00  0.00    -0.343 N 
ATOM     85  C   UNL A   1      33.644  26.117  22.211  1.00  0.00     0.087 A 
BRANCH  84  86
ATOM     86  C   UNL A   1      34.593  24.183  23.483  1.00  0.00     0.157 C 
BRANCH  86  87
ATOM     87  C   UNL A   1      33.807  22.891  23.478  1.00  0.00    -0.025 A 
ATOM     88  C   UNL A   1      33.980  21.929  24.481  1.00  0.00     0.025 A 
ATOM     89  C   UNL A   1      32.851  22.634  22.490  1.00  0.00     0.025 A 
ATOM     90  C   UNL A   1      33.213  20.774  24.452  1.00  0.00     0.111 A 
ATOM     91  C   UNL A   1      32.121  21.454  22.554  1.00  0.00     0.111 A 
ATOM     92  N   UNL A   1      32.276  20.521  23.514  1.00  0.00    -0.265 NA
ENDBRANCH  86  87
ENDBRANCH  84  86
ENDBRANCH  74  77
ENDBRANCH  72  73
ENDBRANCH  71  72
ENDBRANCH   1  71
TORSDOF 15
ENDMDL
MODEL 3
REMARK VINA RESULT:     -12.2      1.527      2.049
REMARK SMILES O=C(NCCCNC(=O)c1cccc2c1ccn2Cc1ccncc1)c1ccc(-c2c3nc(c(-c4cccc(S(=O)(=O)[O-])c4F)c4ccc([nH]4)c(-c4cccc(S(=O)(=O)[O-])c4F)c4nc(c(-c5cccc(S(=O)(=O)[O-])c5F)c5ccc2[nH]5)C=C4)C=C3)cc1
REMARK SMILES IDX 4 1 3 2 1 3 2 4 26 6 27 7 88 8 28 9 87 10 29 11 30 12 31 13
REMARK SMILES IDX 81 14 32 15 86 16 80 17 82 18 33 19 85 20 79 21 78 22 34 24
REMARK SMILES IDX 66 25 46 26 65 27 47 28 50 29 64 30 83 31 48 32 49 33 63 35
REMARK SMILES IDX 84 36 51 37 35 38 36 39 44 40 37 41 39 42 45 43 38 44 40 45
REMARK SMILES IDX 41 46 42 47 43 48 67 49 68 50 76 51 69 52 71 53 77 54 70 55
REMARK SMILES IDX 72 56 73 57 74 58 75 59 52 60 53 61 61 62 54 63 56 64 62 65
REMARK SMILES IDX 55 66 57 67 58 68 59 69 60 70 5 71 6 72 7 73 8 74 9 76 10 77
REMARK SMILES IDX 11 78 15 79 12 80 14 81 16 82 13 83 18 84 17 85 19 86 20 87
REMARK SMILES IDX 21 88 25 89 22 90 24 91 23 92
REMARK H PARENT 3 5 82 23 50 34 7 75
REMARK Flexibility Score: inf
ROOT
ATOM      1  C   UNL A   1      38.746  20.363  25.479  1.00  0.00     0.118 C 
ENDROOT
BRANCH   1   2
ATOM      2  N   UNL A   1      39.822  19.366  25.637  1.00  0.00    -0.352 N 
ATOM      3  O   UNL A   1      42.005  18.713  25.742  1.00  0.00    -0.269 OA
ATOM      4  C   UNL A   1      41.160  19.594  25.930  1.00  0.00     0.251 C 
ATOM      5  H   UNL A   1      39.560  18.425  25.518  1.00  0.00     0.163 HD
BRANCH   4   6
ATOM      6  C   UNL A   1      41.546  20.904  26.478  1.00  0.00     0.039 A 
ATOM      7  C   UNL A   1      42.040  21.966  25.725  1.00  0.00     0.014 A 
ATOM      8  C   UNL A   1      41.328  21.070  27.835  1.00  0.00     0.014 A 
ATOM      9  C   UNL A   1      42.290  23.162  26.394  1.00  0.00     0.010 A 
ATOM     10  C   UNL A   1      41.101  22.314  28.313  1.00  0.00     0.010 A 
ATOM     11  C   UNL A   1      41.821  23.310  27.714  1.00  0.00    -0.014 A 
BRANCH  11  12
ATOM     12  C   UNL A   1      42.025  24.495  28.522  1.00  0.00     0.031 A 
ATOM     13  C   UNL A   1      40.921  25.453  28.385  1.00  0.00     0.074 A 
ATOM     14  C   UNL A   1      43.038  24.644  29.410  1.00  0.00     0.049 A 
ATOM     15  N   UNL A   1      40.904  26.476  27.601  1.00  0.00    -0.248 NA
ATOM     16  C   UNL A   1      39.620  25.112  28.973  1.00  0.00     0.031 C 
ATOM     17  C   UNL A   1      44.031  23.663  29.883  1.00  0.00     0.029 A 
ATOM     18  N   UNL A   1      43.339  25.732  30.164  1.00  0.00    -0.354 N 
ATOM     19  C   UNL A   1      39.678  27.075  27.829  1.00  0.00     0.074 A 
ATOM     20  C   UNL A   1      38.853  26.085  28.472  1.00  0.00     0.031 C 
ATOM     21  C   UNL A   1      44.656  24.134  30.987  1.00  0.00     0.029 A 
ATOM     22  C   UNL A   1      44.252  25.509  31.193  1.00  0.00     0.049 A 
ATOM     23  H   UNL A   1      42.939  26.616  29.997  1.00  0.00     0.167 HD
ATOM     24  C   UNL A   1      39.552  28.425  27.747  1.00  0.00     0.034 A 
ATOM     25  C   UNL A   1      44.620  26.407  32.141  1.00  0.00     0.034 A 
ATOM     26  C   UNL A   1      40.704  29.030  27.125  1.00  0.00     0.049 A 
ATOM     27  C   UNL A   1      44.341  27.742  31.558  1.00  0.00     0.074 A 
ATOM     28  C   UNL A   1      41.322  28.912  25.895  1.00  0.00     0.029 A 
ATOM     29  N   UNL A   1      41.645  29.554  27.979  1.00  0.00    -0.354 N 
ATOM     30  N   UNL A   1      44.957  28.216  30.510  1.00  0.00    -0.248 NA
ATOM     31  C   UNL A   1      43.069  28.366  31.879  1.00  0.00     0.031 C 
ATOM     32  C   UNL A   1      42.720  28.949  26.179  1.00  0.00     0.029 A 
ATOM     33  C   UNL A   1      42.885  29.160  27.550  1.00  0.00     0.049 A 
ATOM     34  H   UNL A   1      41.459  30.117  28.766  1.00  0.00     0.167 HD
ATOM     35  C   UNL A   1      43.957  28.856  29.789  1.00  0.00     0.074 A 
ATOM     36  C   UNL A   1      42.848  29.009  30.730  1.00  0.00     0.031 C 
ATOM     37  C   UNL A   1      44.016  28.939  28.429  1.00  0.00     0.034 A 
BRANCH  24  38
ATOM     38  C   UNL A   1      38.596  29.218  28.589  1.00  0.00     0.023 A 
ATOM     39  C   UNL A   1      38.597  28.984  29.977  1.00  0.00     0.012 A 
ATOM     40  C   UNL A   1      37.533  29.984  28.057  1.00  0.00     0.148 A 
ATOM     41  C   UNL A   1      37.583  29.487  30.797  1.00  0.00     0.002 A 
ATOM     42  C   UNL A   1      36.575  30.550  28.884  1.00  0.00     0.091 A 
ATOM     43  F   UNL A   1      37.360  30.055  26.733  1.00  0.00    -0.205 F 
ATOM     44  C   UNL A   1      36.581  30.286  30.255  1.00  0.00     0.022 A 
BRANCH  42  45
ATOM     45  S   UNL A   1      35.281  31.611  28.233  1.00  0.00     0.127 S 
ATOM     46  O   UNL A   1      36.064  32.662  27.588  1.00  0.00    -0.237 OA
ATOM     47  O   UNL A   1      34.585  30.704  27.320  1.00  0.00    -0.237 OA
ATOM     48  O   UNL A   1      34.491  32.015  29.389  1.00  0.00    -0.744 OA
ENDBRANCH  42  45
ENDBRANCH  24  38
BRANCH  25  49
ATOM     49  C   UNL A   1      44.865  26.238  33.601  1.00  0.00     0.023 A 
ATOM     50  C   UNL A   1      46.159  26.507  34.103  1.00  0.00     0.012 A 
ATOM     51  C   UNL A   1      43.803  26.160  34.527  1.00  0.00     0.148 A 
ATOM     52  C   UNL A   1      46.373  26.778  35.461  1.00  0.00     0.002 A 
ATOM     53  C   UNL A   1      44.023  26.424  35.880  1.00  0.00     0.091 A 
ATOM     54  F   UNL A   1      42.564  25.926  34.075  1.00  0.00    -0.205 F 
ATOM     55  C   UNL A   1      45.301  26.756  36.345  1.00  0.00     0.022 A 
BRANCH  53  56
ATOM     56  S   UNL A   1      42.690  26.427  37.089  1.00  0.00     0.127 S 
ATOM     57  O   UNL A   1      41.915  27.601  36.686  1.00  0.00    -0.237 OA
ATOM     58  O   UNL A   1      42.039  25.146  36.827  1.00  0.00    -0.237 OA
ATOM     59  O   UNL A   1      43.337  26.555  38.389  1.00  0.00    -0.744 OA
ENDBRANCH  53  56
ENDBRANCH  25  49
BRANCH  37  60
ATOM     60  C   UNL A   1      45.315  28.570  27.755  1.00  0.00     0.023 A 
ATOM     61  C   UNL A   1      46.432  29.431  27.722  1.00  0.00     0.012 A 
ATOM     62  C   UNL A   1      45.461  27.244  27.317  1.00  0.00     0.148 A 
ATOM     63  C   UNL A   1      47.673  28.971  27.266  1.00  0.00     0.002 A 
ATOM     64  C   UNL A   1      46.702  26.781  26.898  1.00  0.00     0.091 A 
ATOM     65  F   UNL A   1      44.386  26.444  27.365  1.00  0.00    -0.205 F 
ATOM     66  C   UNL A   1      47.811  27.642  26.869  1.00  0.00     0.022 A 
BRANCH  64  67
ATOM     67  S   UNL A   1      46.971  25.060  26.471  1.00  0.00     0.127 S 
ATOM     68  O   UNL A   1      47.023  24.423  27.785  1.00  0.00    -0.237 OA
ATOM     69  O   UNL A   1      45.777  24.747  25.685  1.00  0.00    -0.237 OA
ATOM     70  O   UNL A   1      48.216  25.018  25.714  1.00  0.00    -0.744 OA
ENDBRANCH  64  67
ENDBRANCH  37  60
ENDBRANCH  11  12
ENDBRANCH   4   6
ENDBRANCH   1   2
BRANCH   1  71
ATOM     71  C   UNL A   1      37.442  19.806  24.962  1.00  0.00     0.042 C 
BRANCH  71  72
ATOM     72  C   UNL A   1      36.263  20.729  25.250  1.00  0.00     0.118 C 
BRANCH  72  73
ATOM     73  N   UNL A   1      34.954  20.161  24.943  1.00  0.00    -0.352 N 
ATOM     74  C   UNL A   1      33.788  20.784  24.563  1.00  0.00     0.251 C 
ATOM     75  H   UNL A   1      34.896  19.181  25.021  1.00  0.00     0.163 HD
ATOM     76  O   UNL A   1      32.777  20.123  24.351  1.00  0.00    -0.269 OA
BRANCH  74  77
ATOM     77  C   UNL A   1      33.764  22.249  24.400  1.00  0.00     0.049 A 
ATOM     78  C   UNL A   1      34.468  22.853  23.348  1.00  0.00     0.014 A 
ATOM     79  C   UNL A   1      33.035  23.047  25.308  1.00  0.00     0.012 A 
ATOM     80  C   UNL A   1      34.570  24.236  23.272  1.00  0.00     0.003 A 
ATOM     81  C   UNL A   1      33.093  24.442  25.168  1.00  0.00     0.049 A 
ATOM     82  C   UNL A   1      32.218  22.774  26.440  1.00  0.00     0.029 A 
ATOM     83  C   UNL A   1      33.890  25.052  24.181  1.00  0.00     0.027 A 
ATOM     84  N   UNL A   1      32.264  24.977  26.138  1.00  0.00    -0.343 N 
ATOM     85  C   UNL A   1      31.809  23.977  26.962  1.00  0.00     0.087 A 
BRANCH  84  86
ATOM     86  C   UNL A   1      31.954  26.392  26.324  1.00  0.00     0.157 C 
BRANCH  86  87
ATOM     87  C   UNL A   1      31.013  26.933  25.271  1.00  0.00    -0.025 A 
ATOM     88  C   UNL A   1      31.187  28.210  24.723  1.00  0.00     0.025 A 
ATOM     89  C   UNL A   1      29.958  26.155  24.781  1.00  0.00     0.025 A 
ATOM     90  C   UNL A   1      30.316  28.649  23.737  1.00  0.00     0.111 A 
ATOM     91  C   UNL A   1      29.149  26.677  23.780  1.00  0.00     0.111 A 
ATOM     92  N   UNL A   1      29.306  27.903  23.244  1.00  0.00    -0.265 NA
ENDBRANCH  86  87
ENDBRANCH  84  86
ENDBRANCH  74  77
ENDBRANCH  72  73
ENDBRANCH  71  72
ENDBRANCH   1  71
TORSDOF 15
ENDMDL
