MODEL 1
REMARK VINA RESULT:     -10.9      0.000      0.000
REMARK SMILES CCC(CC)C[N@H+]1[C@@H]2CC[C@H]1C[C@H](CC(=O)NCCCNC(=O)c1ccc(-c3c4nc(c(-c5cccc(S(=O)(=O)[O-])c5F)c5ccc([nH]5)c(-c5cccc(S(=O)(=O)[O-])c5F)c5nc(c(-c6cccc(S(=O)(=O)[O-])c6F)c6ccc3[nH]6)C=C5)C=C4)cc1)C2
REMARK SMILES IDX 18 1 17 2 15 3 16 4 14 6 13 7 7 8 8 9 11 10 9 12 87 13 10 14
REMARK SMILES IDX 12 15 6 16 3 17 2 18 1 19 4 20 5 21 19 22 20 23 21 24 22 25
REMARK SMILES IDX 23 27 24 28 25 29 86 30 26 31 85 32 27 33 28 34 29 35 79 36
REMARK SMILES IDX 30 37 84 38 78 39 80 40 31 41 83 42 77 43 76 44 32 46 64 47
REMARK SMILES IDX 44 48 63 49 45 50 48 51 62 52 81 53 46 54 47 55 61 57 82 58
REMARK SMILES IDX 49 59 33 60 34 61 42 62 35 63 37 64 43 65 36 66 38 67 39 68
REMARK SMILES IDX 40 69 41 70 65 71 66 72 74 73 67 74 69 75 75 76 68 77 70 78
REMARK SMILES IDX 71 79 72 80 73 81 50 82 51 83 59 84 52 85 54 86 60 87 53 88
REMARK SMILES IDX 55 89 56 90 57 91 58 92
REMARK H PARENT 17 5 7 11 21 26 80 45 48 56
REMARK Flexibility Score: inf
ROOT
ATOM      1  C   UNL A   1      32.742  28.051  24.234  1.00  0.00     0.117 C 
ENDROOT
BRANCH   1   2
ATOM      2  N   UNL A   1      33.133  27.558  22.917  1.00  0.00    -0.356 N 
ATOM      3  C   UNL A   1      33.312  26.295  22.430  1.00  0.00     0.220 C 
ATOM      4  O   UNL A   1      33.583  26.176  21.232  1.00  0.00    -0.275 OA
ATOM      5  H   UNL A   1      33.299  28.268  22.257  1.00  0.00     0.163 HD
BRANCH   3   6
ATOM      6  C   UNL A   1      33.185  25.063  23.313  1.00  0.00     0.104 C 
BRANCH   6   7
ATOM      7  C   UNL A   1      34.528  24.603  23.930  1.00  0.00     0.010 C 
ATOM      8  N   UNL A   1      35.096  22.084  25.420  1.00  0.00    -0.330 N 
ATOM      9  C   UNL A   1      35.814  22.359  24.166  1.00  0.00     0.184 C 
ATOM     10  C   UNL A   1      35.212  23.365  26.130  1.00  0.00     0.184 C 
ATOM     11  H   UNL A   1      35.504  21.297  25.925  1.00  0.00     0.348 HD
ATOM     12  C   UNL A   1      37.101  23.019  24.691  1.00  0.00     0.071 C 
ATOM     13  C   UNL A   1      35.045  23.323  23.234  1.00  0.00     0.069 C 
ATOM     14  C   UNL A   1      36.697  23.670  26.010  1.00  0.00     0.071 C 
ATOM     15  C   UNL A   1      34.364  24.434  25.445  1.00  0.00     0.069 C 
BRANCH   8  16
ATOM     16  C   UNL A   1      33.729  21.569  25.299  1.00  0.00     0.266 C 
BRANCH  16  17
ATOM     17  C   UNL A   1      33.619  20.395  24.302  1.00  0.00     0.044 C 
BRANCH  17  18
ATOM     18  C   UNL A   1      33.889  19.057  25.027  1.00  0.00     0.006 C 
ATOM     19  C   UNL A   1      32.888  17.960  24.701  1.00  0.00     0.004 C 
ENDBRANCH  17  18
BRANCH  17  20
ATOM     20  C   UNL A   1      32.250  20.439  23.578  1.00  0.00     0.006 C 
ATOM     21  C   UNL A   1      32.145  21.446  22.439  1.00  0.00     0.004 C 
ENDBRANCH  17  20
ENDBRANCH  16  17
ENDBRANCH   8  16
ENDBRANCH   6   7
ENDBRANCH   3   6
ENDBRANCH   1   2
BRANCH   1  22
ATOM     22  C   UNL A   1      33.918  28.601  25.048  1.00  0.00     0.042 C 
BRANCH  22  23
ATOM     23  C   UNL A   1      33.641  28.787  26.532  1.00  0.00     0.118 C 
BRANCH  23  24
ATOM     24  N   UNL A   1      33.633  30.192  26.899  1.00  0.00    -0.352 N 
ATOM     25  C   UNL A   1      34.470  30.878  27.748  1.00  0.00     0.251 C 
ATOM     26  H   UNL A   1      32.925  30.731  26.478  1.00  0.00     0.163 HD
ATOM     27  O   UNL A   1      34.132  31.994  28.136  1.00  0.00    -0.269 OA
BRANCH  25  28
ATOM     28  C   UNL A   1      35.760  30.295  28.202  1.00  0.00     0.039 A 
ATOM     29  C   UNL A   1      35.823  29.688  29.462  1.00  0.00     0.014 A 
ATOM     30  C   UNL A   1      36.924  30.405  27.436  1.00  0.00     0.014 A 
ATOM     31  C   UNL A   1      37.034  29.168  29.935  1.00  0.00     0.010 A 
ATOM     32  C   UNL A   1      38.109  29.813  27.872  1.00  0.00     0.010 A 
ATOM     33  C   UNL A   1      38.187  29.212  29.137  1.00  0.00    -0.014 A 
BRANCH  33  34
ATOM     34  C   UNL A   1      39.496  28.685  29.612  1.00  0.00     0.031 A 
ATOM     35  C   UNL A   1      40.239  29.405  30.710  1.00  0.00     0.074 A 
ATOM     36  C   UNL A   1      40.064  27.625  29.003  1.00  0.00     0.049 A 
ATOM     37  N   UNL A   1      41.441  29.188  31.177  1.00  0.00    -0.248 NA
ATOM     38  C   UNL A   1      39.549  30.541  31.345  1.00  0.00     0.031 C 
ATOM     39  C   UNL A   1      39.478  26.873  27.892  1.00  0.00     0.029 A 
ATOM     40  N   UNL A   1      41.279  27.019  29.210  1.00  0.00    -0.354 N 
ATOM     41  C   UNL A   1      41.671  30.185  32.119  1.00  0.00     0.074 A 
ATOM     42  C   UNL A   1      40.494  31.025  32.139  1.00  0.00     0.031 C 
ATOM     43  C   UNL A   1      40.336  25.913  27.510  1.00  0.00     0.029 A 
ATOM     44  C   UNL A   1      41.546  26.001  28.323  1.00  0.00     0.049 A 
ATOM     45  H   UNL A   1      41.900  27.286  29.926  1.00  0.00     0.167 HD
ATOM     46  C   UNL A   1      42.751  30.372  32.914  1.00  0.00     0.034 A 
ATOM     47  C   UNL A   1      42.645  25.235  28.172  1.00  0.00     0.034 A 
ATOM     48  C   UNL A   1      43.894  29.501  32.938  1.00  0.00     0.049 A 
ATOM     49  C   UNL A   1      43.813  25.432  29.101  1.00  0.00     0.074 A 
ATOM     50  C   UNL A   1      44.999  29.555  33.768  1.00  0.00     0.029 A 
ATOM     51  N   UNL A   1      44.078  28.415  32.096  1.00  0.00    -0.354 N 
ATOM     52  N   UNL A   1      43.954  26.296  30.077  1.00  0.00    -0.248 NA
ATOM     53  C   UNL A   1      44.961  24.527  28.933  1.00  0.00     0.031 C 
ATOM     54  C   UNL A   1      45.860  28.511  33.417  1.00  0.00     0.029 A 
ATOM     55  C   UNL A   1      45.279  27.792  32.385  1.00  0.00     0.049 A 
ATOM     56  H   UNL A   1      43.447  28.131  31.395  1.00  0.00     0.167 HD
ATOM     57  C   UNL A   1      45.178  26.009  30.667  1.00  0.00     0.074 A 
ATOM     58  C   UNL A   1      45.739  24.886  29.947  1.00  0.00     0.031 C 
ATOM     59  C   UNL A   1      45.790  26.629  31.707  1.00  0.00     0.034 A 
BRANCH  46  60
ATOM     60  C   UNL A   1      42.727  31.537  33.871  1.00  0.00     0.023 A 
ATOM     61  C   UNL A   1      43.207  32.794  33.448  1.00  0.00     0.012 A 
ATOM     62  C   UNL A   1      42.175  31.408  35.161  1.00  0.00     0.148 A 
ATOM     63  C   UNL A   1      43.171  33.894  34.304  1.00  0.00     0.002 A 
ATOM     64  C   UNL A   1      42.101  32.519  35.993  1.00  0.00     0.091 A 
ATOM     65  F   UNL A   1      41.742  30.202  35.553  1.00  0.00    -0.205 F 
ATOM     66  C   UNL A   1      42.610  33.759  35.571  1.00  0.00     0.022 A 
BRANCH  64  67
ATOM     67  S   UNL A   1      41.322  32.469  37.610  1.00  0.00     0.127 S 
ATOM     68  O   UNL A   1      41.375  33.875  38.008  1.00  0.00    -0.237 OA
ATOM     69  O   UNL A   1      39.982  31.975  37.293  1.00  0.00    -0.237 OA
ATOM     70  O   UNL A   1      42.128  31.560  38.415  1.00  0.00    -0.744 OA
ENDBRANCH  64  67
ENDBRANCH  46  60
BRANCH  47  71
ATOM     71  C   UNL A   1      42.668  24.162  27.136  1.00  0.00     0.023 A 
ATOM     72  C   UNL A   1      43.332  24.397  25.915  1.00  0.00     0.012 A 
ATOM     73  C   UNL A   1      42.066  22.909  27.359  1.00  0.00     0.148 A 
ATOM     74  C   UNL A   1      43.368  23.415  24.924  1.00  0.00     0.002 A 
ATOM     75  C   UNL A   1      42.153  21.916  26.390  1.00  0.00     0.091 A 
ATOM     76  F   UNL A   1      41.428  22.710  28.522  1.00  0.00    -0.205 F 
ATOM     77  C   UNL A   1      42.789  22.172  25.166  1.00  0.00     0.022 A 
BRANCH  75  78
ATOM     78  S   UNL A   1      41.549  20.247  26.664  1.00  0.00     0.127 S 
ATOM     79  O   UNL A   1      42.297  19.848  27.851  1.00  0.00    -0.237 OA
ATOM     80  O   UNL A   1      40.121  20.474  26.881  1.00  0.00    -0.237 OA
ATOM     81  O   UNL A   1      41.860  19.515  25.440  1.00  0.00    -0.744 OA
ENDBRANCH  75  78
ENDBRANCH  47  71
BRANCH  59  82
ATOM     82  C   UNL A   1      47.108  26.079  32.182  1.00  0.00     0.023 A 
ATOM     83  C   UNL A   1      48.312  26.592  31.664  1.00  0.00     0.012 A 
ATOM     84  C   UNL A   1      47.149  25.127  33.220  1.00  0.00     0.148 A 
ATOM     85  C   UNL A   1      49.540  26.149  32.156  1.00  0.00     0.002 A 
ATOM     86  C   UNL A   1      48.375  24.725  33.738  1.00  0.00     0.091 A 
ATOM     87  F   UNL A   1      45.991  24.639  33.686  1.00  0.00    -0.205 F 
ATOM     88  C   UNL A   1      49.571  25.227  33.201  1.00  0.00     0.022 A 
BRANCH  86  89
ATOM     89  S   UNL A   1      48.507  23.620  35.149  1.00  0.00     0.127 S 
ATOM     90  O   UNL A   1      49.957  23.511  35.305  1.00  0.00    -0.237 OA
ATOM     91  O   UNL A   1      47.836  24.380  36.202  1.00  0.00    -0.237 OA
ATOM     92  O   UNL A   1      47.828  22.391  34.763  1.00  0.00    -0.744 OA
ENDBRANCH  86  89
ENDBRANCH  59  82
ENDBRANCH  33  34
ENDBRANCH  25  28
ENDBRANCH  23  24
ENDBRANCH  22  23
ENDBRANCH   1  22
TORSDOF 18
ENDMDL
MODEL 2
REMARK VINA RESULT:     -10.6      1.668      2.612
REMARK SMILES CCC(CC)C[N@H+]1[C@@H]2CC[C@H]1C[C@H](CC(=O)NCCCNC(=O)c1ccc(-c3c4nc(c(-c5cccc(S(=O)(=O)[O-])c5F)c5ccc([nH]5)c(-c5cccc(S(=O)(=O)[O-])c5F)c5nc(c(-c6cccc(S(=O)(=O)[O-])c6F)c6ccc3[nH]6)C=C5)C=C4)cc1)C2
REMARK SMILES IDX 18 1 17 2 15 3 16 4 14 6 13 7 7 8 8 9 11 10 9 12 87 13 10 14
REMARK SMILES IDX 12 15 6 16 3 17 2 18 1 19 4 20 5 21 19 22 20 23 21 24 22 25
REMARK SMILES IDX 23 27 24 28 25 29 86 30 26 31 85 32 27 33 28 34 29 35 79 36
REMARK SMILES IDX 30 37 84 38 78 39 80 40 31 41 83 42 77 43 76 44 32 46 64 47
REMARK SMILES IDX 44 48 63 49 45 50 48 51 62 52 81 53 46 54 47 55 61 57 82 58
REMARK SMILES IDX 49 59 33 60 34 61 42 62 35 63 37 64 43 65 36 66 38 67 39 68
REMARK SMILES IDX 40 69 41 70 65 71 66 72 74 73 67 74 69 75 75 76 68 77 70 78
REMARK SMILES IDX 71 79 72 80 73 81 50 82 51 83 59 84 52 85 54 86 60 87 53 88
REMARK SMILES IDX 55 89 56 90 57 91 58 92
REMARK H PARENT 17 5 7 11 21 26 80 45 48 56
REMARK Flexibility Score: inf
ROOT
ATOM      1  C   UNL A   1      32.596  26.825  26.373  1.00  0.00     0.117 C 
ENDROOT
BRANCH   1   2
ATOM      2  N   UNL A   1      31.304  26.253  26.741  1.00  0.00    -0.356 N 
ATOM      3  C   UNL A   1      30.441  25.436  26.069  1.00  0.00     0.220 C 
ATOM      4  O   UNL A   1      29.435  25.049  26.668  1.00  0.00    -0.275 OA
ATOM      5  H   UNL A   1      30.999  26.503  27.643  1.00  0.00     0.163 HD
BRANCH   3   6
ATOM      6  C   UNL A   1      30.691  25.005  24.632  1.00  0.00     0.104 C 
BRANCH   6   7
ATOM      7  C   UNL A   1      31.096  23.518  24.493  1.00  0.00     0.010 C 
ATOM      8  N   UNL A   1      33.830  22.384  24.142  1.00  0.00    -0.330 N 
ATOM      9  C   UNL A   1      33.044  22.017  25.329  1.00  0.00     0.184 C 
ATOM     10  C   UNL A   1      32.853  22.217  23.058  1.00  0.00     0.184 C 
ATOM     11  H   UNL A   1      34.660  21.798  24.041  1.00  0.00     0.348 HD
ATOM     12  C   UNL A   1      32.385  20.706  24.863  1.00  0.00     0.071 C 
ATOM     13  C   UNL A   1      31.970  23.071  25.687  1.00  0.00     0.069 C 
ATOM     14  C   UNL A   1      32.280  20.838  23.347  1.00  0.00     0.071 C 
ATOM     15  C   UNL A   1      31.777  23.297  23.138  1.00  0.00     0.069 C 
BRANCH   8  16
ATOM     16  C   UNL A   1      34.499  23.688  24.171  1.00  0.00     0.266 C 
BRANCH  16  17
ATOM     17  C   UNL A   1      36.022  23.575  24.404  1.00  0.00     0.044 C 
BRANCH  17  18
ATOM     18  C   UNL A   1      36.329  23.590  25.918  1.00  0.00     0.006 C 
ATOM     19  C   UNL A   1      37.741  24.039  26.261  1.00  0.00     0.004 C 
ENDBRANCH  17  18
BRANCH  17  20
ATOM     20  C   UNL A   1      36.580  22.328  23.673  1.00  0.00     0.006 C 
ATOM     21  C   UNL A   1      37.027  21.185  24.577  1.00  0.00     0.004 C 
ENDBRANCH  17  20
ENDBRANCH  16  17
ENDBRANCH   8  16
ENDBRANCH   6   7
ENDBRANCH   3   6
ENDBRANCH   1   2
BRANCH   1  22
ATOM     22  C   UNL A   1      32.818  28.231  26.939  1.00  0.00     0.042 C 
BRANCH  22  23
ATOM     23  C   UNL A   1      33.879  29.052  26.224  1.00  0.00     0.118 C 
BRANCH  23  24
ATOM     24  N   UNL A   1      33.880  30.432  26.676  1.00  0.00    -0.352 N 
ATOM     25  C   UNL A   1      34.663  31.038  27.631  1.00  0.00     0.251 C 
ATOM     26  H   UNL A   1      33.225  31.019  26.234  1.00  0.00     0.163 HD
ATOM     27  O   UNL A   1      34.326  32.139  28.059  1.00  0.00    -0.269 OA
BRANCH  25  28
ATOM     28  C   UNL A   1      35.895  30.387  28.150  1.00  0.00     0.039 A 
ATOM     29  C   UNL A   1      35.849  29.750  29.396  1.00  0.00     0.014 A 
ATOM     30  C   UNL A   1      37.108  30.460  27.462  1.00  0.00     0.014 A 
ATOM     31  C   UNL A   1      37.003  29.164  29.931  1.00  0.00     0.010 A 
ATOM     32  C   UNL A   1      38.236  29.804  27.956  1.00  0.00     0.010 A 
ATOM     33  C   UNL A   1      38.206  29.172  29.208  1.00  0.00    -0.014 A 
BRANCH  33  34
ATOM     34  C   UNL A   1      39.457  28.575  29.751  1.00  0.00     0.031 A 
ATOM     35  C   UNL A   1      40.122  29.196  30.955  1.00  0.00     0.074 A 
ATOM     36  C   UNL A   1      40.049  27.543  29.117  1.00  0.00     0.049 A 
ATOM     37  N   UNL A   1      41.274  28.912  31.503  1.00  0.00    -0.248 NA
ATOM     38  C   UNL A   1      39.408  30.306  31.610  1.00  0.00     0.031 C 
ATOM     39  C   UNL A   1      39.542  26.887  27.912  1.00  0.00     0.029 A 
ATOM     40  N   UNL A   1      41.227  26.888  29.381  1.00  0.00    -0.354 N 
ATOM     41  C   UNL A   1      41.448  29.834  32.529  1.00  0.00     0.074 A 
ATOM     42  C   UNL A   1      40.294  30.706  32.511  1.00  0.00     0.031 C 
ATOM     43  C   UNL A   1      40.406  25.931  27.535  1.00  0.00     0.029 A 
ATOM     44  C   UNL A   1      41.544  25.926  28.449  1.00  0.00     0.049 A 
ATOM     45  H   UNL A   1      41.792  27.087  30.163  1.00  0.00     0.167 HD
ATOM     46  C   UNL A   1      42.461  29.935  33.422  1.00  0.00     0.034 A 
ATOM     47  C   UNL A   1      42.633  25.140  28.335  1.00  0.00     0.034 A 
ATOM     48  C   UNL A   1      43.576  29.030  33.479  1.00  0.00     0.049 A 
ATOM     49  C   UNL A   1      43.724  25.239  29.370  1.00  0.00     0.074 A 
ATOM     50  C   UNL A   1      44.608  28.994  34.399  1.00  0.00     0.029 A 
ATOM     51  N   UNL A   1      43.805  28.000  32.580  1.00  0.00    -0.354 N 
ATOM     52  N   UNL A   1      43.801  26.029  30.413  1.00  0.00    -0.248 NA
ATOM     53  C   UNL A   1      44.859  24.313  29.233  1.00  0.00     0.031 C 
ATOM     54  C   UNL A   1      45.472  27.952  34.047  1.00  0.00     0.029 A 
ATOM     55  C   UNL A   1      44.962  27.323  32.922  1.00  0.00     0.049 A 
ATOM     56  H   UNL A   1      43.229  27.783  31.811  1.00  0.00     0.167 HD
ATOM     57  C   UNL A   1      44.965  25.666  31.080  1.00  0.00     0.074 A 
ATOM     58  C   UNL A   1      45.557  24.578  30.331  1.00  0.00     0.031 C 
ATOM     59  C   UNL A   1      45.501  26.194  32.208  1.00  0.00     0.034 A 
BRANCH  46  60
ATOM     60  C   UNL A   1      42.384  31.032  34.454  1.00  0.00     0.023 A 
ATOM     61  C   UNL A   1      41.968  30.725  35.766  1.00  0.00     0.012 A 
ATOM     62  C   UNL A   1      42.784  32.347  34.147  1.00  0.00     0.148 A 
ATOM     63  C   UNL A   1      41.914  31.716  36.745  1.00  0.00     0.002 A 
ATOM     64  C   UNL A   1      42.771  33.320  35.139  1.00  0.00     0.091 A 
ATOM     65  F   UNL A   1      43.158  32.626  32.890  1.00  0.00    -0.205 F 
ATOM     66  C   UNL A   1      42.325  33.009  36.435  1.00  0.00     0.022 A 
BRANCH  64  67
ATOM     67  S   UNL A   1      43.358  34.995  34.863  1.00  0.00     0.127 S 
ATOM     68  O   UNL A   1      43.134  35.607  36.172  1.00  0.00    -0.237 OA
ATOM     69  O   UNL A   1      44.765  34.777  34.525  1.00  0.00    -0.237 OA
ATOM     70  O   UNL A   1      42.550  35.529  33.776  1.00  0.00    -0.744 OA
ENDBRANCH  64  67
ENDBRANCH  46  60
BRANCH  47  71
ATOM     71  C   UNL A   1      42.718  24.141  27.231  1.00  0.00     0.023 A 
ATOM     72  C   UNL A   1      43.413  24.474  26.052  1.00  0.00     0.012 A 
ATOM     73  C   UNL A   1      42.144  22.861  27.351  1.00  0.00     0.148 A 
ATOM     74  C   UNL A   1      43.508  23.562  24.999  1.00  0.00     0.002 A 
ATOM     75  C   UNL A   1      42.288  21.938  26.321  1.00  0.00     0.091 A 
ATOM     76  F   UNL A   1      41.475  22.567  28.475  1.00  0.00    -0.205 F 
ATOM     77  C   UNL A   1      42.955  22.292  25.138  1.00  0.00     0.022 A 
BRANCH  75  78
ATOM     78  S   UNL A   1      41.721  20.239  26.462  1.00  0.00     0.127 S 
ATOM     79  O   UNL A   1      40.277  20.394  26.328  1.00  0.00    -0.237 OA
ATOM     80  O   UNL A   1      42.384  19.604  25.324  1.00  0.00    -0.237 OA
ATOM     81  O   UNL A   1      42.193  19.778  27.763  1.00  0.00    -0.744 OA
ENDBRANCH  75  78
ENDBRANCH  47  71
BRANCH  59  82
ATOM     82  C   UNL A   1      46.761  25.574  32.750  1.00  0.00     0.023 A 
ATOM     83  C   UNL A   1      48.016  26.090  32.377  1.00  0.00     0.012 A 
ATOM     84  C   UNL A   1      46.691  24.548  33.713  1.00  0.00     0.148 A 
ATOM     85  C   UNL A   1      49.187  25.577  32.936  1.00  0.00     0.002 A 
ATOM     86  C   UNL A   1      47.858  24.074  34.301  1.00  0.00     0.091 A 
ATOM     87  F   UNL A   1      45.487  24.059  34.041  1.00  0.00    -0.205 F 
ATOM     88  C   UNL A   1      49.107  24.581  33.907  1.00  0.00     0.022 A 
BRANCH  86  89
ATOM     89  S   UNL A   1      47.844  22.866  35.630  1.00  0.00     0.127 S 
ATOM     90  O   UNL A   1      49.220  22.946  36.119  1.00  0.00    -0.237 OA
ATOM     91  O   UNL A   1      46.841  23.417  36.540  1.00  0.00    -0.237 OA
ATOM     92  O   UNL A   1      47.472  21.597  35.018  1.00  0.00    -0.744 OA
ENDBRANCH  86  89
ENDBRANCH  59  82
ENDBRANCH  33  34
ENDBRANCH  25  28
ENDBRANCH  23  24
ENDBRANCH  22  23
ENDBRANCH   1  22
TORSDOF 18
ENDMDL
MODEL 3
REMARK VINA RESULT:     -10.5      4.076      9.402
REMARK SMILES CCC(CC)C[N@H+]1[C@@H]2CC[C@H]1C[C@H](CC(=O)NCCCNC(=O)c1ccc(-c3c4nc(c(-c5cccc(S(=O)(=O)[O-])c5F)c5ccc([nH]5)c(-c5cccc(S(=O)(=O)[O-])c5F)c5nc(c(-c6cccc(S(=O)(=O)[O-])c6F)c6ccc3[nH]6)C=C5)C=C4)cc1)C2
REMARK SMILES IDX 18 1 17 2 15 3 16 4 14 6 13 7 7 8 8 9 11 10 9 12 87 13 10 14
REMARK SMILES IDX 12 15 6 16 3 17 2 18 1 19 4 20 5 21 19 22 20 23 21 24 22 25
REMARK SMILES IDX 23 27 24 28 25 29 86 30 26 31 85 32 27 33 28 34 29 35 79 36
REMARK SMILES IDX 30 37 84 38 78 39 80 40 31 41 83 42 77 43 76 44 32 46 64 47
REMARK SMILES IDX 44 48 63 49 45 50 48 51 62 52 81 53 46 54 47 55 61 57 82 58
REMARK SMILES IDX 49 59 33 60 34 61 42 62 35 63 37 64 43 65 36 66 38 67 39 68
REMARK SMILES IDX 40 69 41 70 65 71 66 72 74 73 67 74 69 75 75 76 68 77 70 78
REMARK SMILES IDX 71 79 72 80 73 81 50 82 51 83 59 84 52 85 54 86 60 87 53 88
REMARK SMILES IDX 55 89 56 90 57 91 58 92
REMARK H PARENT 17 5 7 11 21 26 80 45 48 56
REMARK Flexibility Score: inf
ROOT
ATOM      1  C   UNL A   1      31.421  30.867  26.074  1.00  0.00     0.117 C 
ENDROOT
BRANCH   1   2
ATOM      2  N   UNL A   1      32.369  29.991  26.756  1.00  0.00    -0.356 N 
ATOM      3  C   UNL A   1      33.348  29.163  26.288  1.00  0.00     0.220 C 
ATOM      4  O   UNL A   1      34.055  28.585  27.117  1.00  0.00    -0.275 OA
ATOM      5  H   UNL A   1      32.288  30.000  27.737  1.00  0.00     0.163 HD
BRANCH   3   6
ATOM      6  C   UNL A   1      33.579  28.946  24.800  1.00  0.00     0.104 C 
BRANCH   6   7
ATOM      7  C   UNL A   1      32.903  27.667  24.249  1.00  0.00     0.010 C 
ATOM      8  N   UNL A   1      30.088  27.327  23.331  1.00  0.00    -0.330 N 
ATOM      9  C   UNL A   1      31.189  27.106  22.380  1.00  0.00     0.184 C 
ATOM     10  C   UNL A   1      30.541  26.578  24.510  1.00  0.00     0.184 C 
ATOM     11  H   UNL A   1      29.195  27.005  22.957  1.00  0.00     0.348 HD
ATOM     12  C   UNL A   1      31.388  25.585  22.496  1.00  0.00     0.071 C 
ATOM     13  C   UNL A   1      32.481  27.859  22.775  1.00  0.00     0.069 C 
ATOM     14  C   UNL A   1      30.935  25.236  23.910  1.00  0.00     0.071 C 
ATOM     15  C   UNL A   1      31.735  27.272  25.159  1.00  0.00     0.069 C 
BRANCH   8  16
ATOM     16  C   UNL A   1      29.713  28.720  23.594  1.00  0.00     0.266 C 
BRANCH  16  17
ATOM     17  C   UNL A   1      29.126  29.427  22.353  1.00  0.00     0.044 C 
BRANCH  17  18
ATOM     18  C   UNL A   1      27.606  29.162  22.262  1.00  0.00     0.006 C 
ATOM     19  C   UNL A   1      27.009  28.535  23.512  1.00  0.00     0.004 C 
ENDBRANCH  17  18
BRANCH  17  20
ATOM     20  C   UNL A   1      29.490  30.932  22.376  1.00  0.00     0.006 C 
ATOM     21  C   UNL A   1      28.891  31.733  23.526  1.00  0.00     0.004 C 
ENDBRANCH  17  20
ENDBRANCH  16  17
ENDBRANCH   8  16
ENDBRANCH   6   7
ENDBRANCH   3   6
ENDBRANCH   1   2
BRANCH   1  22
ATOM     22  C   UNL A   1      31.317  32.258  26.710  1.00  0.00     0.042 C 
BRANCH  22  23
ATOM     23  C   UNL A   1      32.623  32.815  27.254  1.00  0.00     0.118 C 
BRANCH  23  24
ATOM     24  N   UNL A   1      32.489  34.210  27.633  1.00  0.00    -0.352 N 
ATOM     25  C   UNL A   1      33.085  34.895  28.666  1.00  0.00     0.251 C 
ATOM     26  H   UNL A   1      31.884  34.742  27.068  1.00  0.00     0.163 HD
ATOM     27  O   UNL A   1      32.635  35.994  28.985  1.00  0.00    -0.269 OA
BRANCH  25  28
ATOM     28  C   UNL A   1      34.250  34.332  29.399  1.00  0.00     0.039 A 
ATOM     29  C   UNL A   1      35.536  34.539  28.886  1.00  0.00     0.014 A 
ATOM     30  C   UNL A   1      34.087  33.543  30.540  1.00  0.00     0.014 A 
ATOM     31  C   UNL A   1      36.650  33.986  29.530  1.00  0.00     0.010 A 
ATOM     32  C   UNL A   1      35.202  33.064  31.228  1.00  0.00     0.010 A 
ATOM     33  C   UNL A   1      36.494  33.255  30.718  1.00  0.00    -0.014 A 
BRANCH  33  34
ATOM     34  C   UNL A   1      37.653  32.638  31.421  1.00  0.00     0.031 A 
ATOM     35  C   UNL A   1      38.389  31.486  30.783  1.00  0.00     0.074 A 
ATOM     36  C   UNL A   1      37.985  33.039  32.664  1.00  0.00     0.049 A 
ATOM     37  N   UNL A   1      39.334  30.731  31.279  1.00  0.00    -0.248 NA
ATOM     38  C   UNL A   1      37.987  31.116  29.415  1.00  0.00     0.031 C 
ATOM     39  C   UNL A   1      37.318  34.102  33.418  1.00  0.00     0.029 A 
ATOM     40  N   UNL A   1      38.947  32.574  33.527  1.00  0.00    -0.354 N 
ATOM     41  C   UNL A   1      39.603  29.769  30.312  1.00  0.00     0.074 A 
ATOM     42  C   UNL A   1      38.702  30.019  29.208  1.00  0.00     0.031 C 
ATOM     43  C   UNL A   1      37.884  34.202  34.632  1.00  0.00     0.029 A 
ATOM     44  C   UNL A   1      38.929  33.190  34.758  1.00  0.00     0.049 A 
ATOM     45  H   UNL A   1      39.589  31.867  33.289  1.00  0.00     0.167 HD
ATOM     46  C   UNL A   1      40.530  28.782  30.325  1.00  0.00     0.034 A 
ATOM     47  C   UNL A   1      39.661  32.959  35.866  1.00  0.00     0.034 A 
ATOM     48  C   UNL A   1      41.467  28.573  31.396  1.00  0.00     0.049 A 
ATOM     49  C   UNL A   1      40.719  31.887  35.839  1.00  0.00     0.074 A 
ATOM     50  C   UNL A   1      42.500  27.657  31.467  1.00  0.00     0.029 A 
ATOM     51  N   UNL A   1      41.485  29.291  32.581  1.00  0.00    -0.354 N 
ATOM     52  N   UNL A   1      41.048  31.078  34.861  1.00  0.00    -0.248 NA
ATOM     53  C   UNL A   1      41.532  31.720  37.054  1.00  0.00     0.031 C 
ATOM     54  C   UNL A   1      43.135  27.809  32.703  1.00  0.00     0.029 A 
ATOM     55  C   UNL A   1      42.511  28.838  33.391  1.00  0.00     0.049 A 
ATOM     56  H   UNL A   1      40.859  30.015  32.813  1.00  0.00     0.167 HD
ATOM     57  C   UNL A   1      42.131  30.341  35.324  1.00  0.00     0.074 A 
ATOM     58  C   UNL A   1      42.411  30.803  36.667  1.00  0.00     0.031 C 
ATOM     59  C   UNL A   1      42.825  29.359  34.697  1.00  0.00     0.034 A 
BRANCH  46  60
ATOM     60  C   UNL A   1      40.619  27.882  29.119  1.00  0.00     0.023 A 
ATOM     61  C   UNL A   1      39.765  26.765  29.020  1.00  0.00     0.012 A 
ATOM     62  C   UNL A   1      41.498  28.175  28.057  1.00  0.00     0.148 A 
ATOM     63  C   UNL A   1      39.808  25.932  27.903  1.00  0.00     0.002 A 
ATOM     64  C   UNL A   1      41.504  27.366  26.927  1.00  0.00     0.091 A 
ATOM     65  F   UNL A   1      42.317  29.229  28.176  1.00  0.00    -0.205 F 
ATOM     66  C   UNL A   1      40.670  26.239  26.853  1.00  0.00     0.022 A 
BRANCH  64  67
ATOM     67  S   UNL A   1      42.517  27.722  25.486  1.00  0.00     0.127 S 
ATOM     68  O   UNL A   1      42.283  26.539  24.660  1.00  0.00    -0.237 OA
ATOM     69  O   UNL A   1      41.908  28.951  24.977  1.00  0.00    -0.237 OA
ATOM     70  O   UNL A   1      43.877  27.880  25.982  1.00  0.00    -0.744 OA
ENDBRANCH  64  67
ENDBRANCH  46  60
BRANCH  47  71
ATOM     71  C   UNL A   1      39.463  33.804  37.079  1.00  0.00     0.023 A 
ATOM     72  C   UNL A   1      39.905  35.141  37.067  1.00  0.00     0.012 A 
ATOM     73  C   UNL A   1      38.818  33.305  38.226  1.00  0.00     0.148 A 
ATOM     74  C   UNL A   1      39.738  35.957  38.187  1.00  0.00     0.002 A 
ATOM     75  C   UNL A   1      38.605  34.138  39.319  1.00  0.00     0.091 A 
ATOM     76  F   UNL A   1      38.416  32.025  38.224  1.00  0.00    -0.205 F 
ATOM     77  C   UNL A   1      39.079  35.459  39.308  1.00  0.00     0.022 A 
BRANCH  75  78
ATOM     78  S   UNL A   1      37.655  33.623  40.754  1.00  0.00     0.127 S 
ATOM     79  O   UNL A   1      38.554  32.657  41.377  1.00  0.00    -0.237 OA
ATOM     80  O   UNL A   1      37.500  34.882  41.481  1.00  0.00    -0.237 OA
ATOM     81  O   UNL A   1      36.409  33.080  40.222  1.00  0.00    -0.744 OA
ENDBRANCH  75  78
ENDBRANCH  47  71
BRANCH  59  82
ATOM     82  C   UNL A   1      43.998  28.751  35.417  1.00  0.00     0.023 A 
ATOM     83  C   UNL A   1      45.282  29.308  35.267  1.00  0.00     0.012 A 
ATOM     84  C   UNL A   1      43.804  27.691  36.324  1.00  0.00     0.148 A 
ATOM     85  C   UNL A   1      46.361  28.805  35.993  1.00  0.00     0.002 A 
ATOM     86  C   UNL A   1      44.874  27.225  37.080  1.00  0.00     0.091 A 
ATOM     87  F   UNL A   1      42.577  27.163  36.438  1.00  0.00    -0.205 F 
ATOM     88  C   UNL A   1      46.155  27.774  36.908  1.00  0.00     0.022 A 
BRANCH  86  89
ATOM     89  S   UNL A   1      44.681  25.972  38.352  1.00  0.00     0.127 S 
ATOM     90  O   UNL A   1      44.139  24.851  37.585  1.00  0.00    -0.237 OA
ATOM     91  O   UNL A   1      46.056  25.786  38.815  1.00  0.00    -0.237 OA
ATOM     92  O   UNL A   1      43.781  26.542  39.346  1.00  0.00    -0.744 OA
ENDBRANCH  86  89
ENDBRANCH  59  82
ENDBRANCH  33  34
ENDBRANCH  25  28
ENDBRANCH  23  24
ENDBRANCH  22  23
ENDBRANCH   1  22
TORSDOF 18
ENDMDL
