MODEL 1
REMARK VINA RESULT:     -11.1      0.000      0.000
REMARK SMILES O=C(CCCN1C(=O)C(=O)/C(=C(/[O-])c2ccccc2)[C@@H]1/C=C/c1ccccc1)NCCCNC(=O)c1ccc(-c2c3nc(c(-c4cccc(S(=O)(=O)[O-])c4F)c4ccc([nH]4)c(-c4cccc(S(=O)(=O)[O-])c4F)c4nc(c(-c5cccc(S(=O)(=O)[O-])c5F)c5ccc2[nH]5)C=C4)C=C3)cc1
REMARK SMILES IDX 30 1 29 2 1 3 2 4 3 6 4 7 5 8 6 9 7 10 20 11 8 12 9 13 11 14
REMARK SMILES IDX 10 15 12 16 13 17 21 18 22 19 23 20 24 21 28 22 25 23 27 24
REMARK SMILES IDX 26 25 14 26 15 27 19 28 16 29 18 30 17 31 31 32 32 33 33 34
REMARK SMILES IDX 34 35 35 37 36 38 37 39 98 40 38 41 97 42 39 43 40 44 41 45
REMARK SMILES IDX 91 46 42 47 96 48 90 49 92 50 43 51 95 52 89 53 88 54 44 56
REMARK SMILES IDX 76 57 56 58 75 59 57 60 60 61 74 62 93 63 58 64 59 65 73 67
REMARK SMILES IDX 94 68 61 69 45 70 46 71 54 72 47 73 49 74 55 75 48 76 50 77
REMARK SMILES IDX 51 78 52 79 53 80 77 81 78 82 86 83 79 84 81 85 87 86 80 87
REMARK SMILES IDX 82 88 83 89 84 90 85 91 62 92 63 93 71 94 64 95 66 96 72 97
REMARK SMILES IDX 65 98 67 99 68 100 69 101 70 102
REMARK H PARENT 29 5 33 36 92 55 60 66
REMARK Flexibility Score: inf
ROOT
ATOM      1  C   UNL A   1      41.231  19.871  27.691  1.00  0.00     0.117 C 
ENDROOT
BRANCH   1   2
ATOM      2  N   UNL A   1      40.711  21.118  27.171  1.00  0.00    -0.356 N 
ATOM      3  O   UNL A   1      41.843  22.513  28.605  1.00  0.00    -0.275 OA
ATOM      4  C   UNL A   1      41.077  22.349  27.661  1.00  0.00     0.220 C 
ATOM      5  H   UNL A   1      40.063  21.082  26.432  1.00  0.00     0.163 HD
BRANCH   4   6
ATOM      6  C   UNL A   1      40.492  23.523  26.892  1.00  0.00     0.102 C 
BRANCH   6   7
ATOM      7  C   UNL A   1      38.996  23.697  27.153  1.00  0.00     0.031 C 
BRANCH   7   8
ATOM      8  C   UNL A   1      38.133  23.864  25.904  1.00  0.00     0.121 C 
BRANCH   8   9
ATOM      9  N   UNL A   1      37.093  22.853  25.712  1.00  0.00    -0.325 N 
ATOM     10  C   UNL A   1      37.388  21.537  25.469  1.00  0.00     0.295 C 
ATOM     11  C   UNL A   1      35.658  23.073  25.844  1.00  0.00     0.143 C 
ATOM     12  O   UNL A   1      38.463  20.983  25.561  1.00  0.00    -0.265 OA
ATOM     13  C   UNL A   1      36.101  20.841  25.094  1.00  0.00     0.248 C 
ATOM     14  C   UNL A   1      34.993  21.764  25.460  1.00  0.00     0.024 C 
ATOM     15  O   UNL A   1      36.078  19.763  24.542  1.00  0.00    -0.283 OA
ATOM     16  C   UNL A   1      33.692  21.410  25.468  1.00  0.00    -0.092 C 
ATOM     17  O   UNL A   1      32.670  22.267  25.832  1.00  0.00    -0.872 OA
BRANCH  11  18
ATOM     18  C   UNL A   1      35.189  24.274  25.063  1.00  0.00     0.003 C 
ATOM     19  C   UNL A   1      34.438  25.299  25.509  1.00  0.00     0.006 C 
BRANCH  19  20
ATOM     20  C   UNL A   1      33.831  26.356  24.672  1.00  0.00    -0.026 A 
ATOM     21  C   UNL A   1      33.656  27.631  25.230  1.00  0.00     0.008 A 
ATOM     22  C   UNL A   1      33.355  26.136  23.371  1.00  0.00     0.008 A 
ATOM     23  C   UNL A   1      33.025  28.652  24.512  1.00  0.00     0.001 A 
ATOM     24  C   UNL A   1      32.725  27.156  22.651  1.00  0.00     0.001 A 
ATOM     25  C   UNL A   1      32.558  28.414  23.222  1.00  0.00     0.000 A 
ENDBRANCH  19  20
ENDBRANCH  11  18
BRANCH  16  26
ATOM     26  C   UNL A   1      33.176  20.074  25.094  1.00  0.00    -0.033 A 
ATOM     27  C   UNL A   1      32.780  19.831  23.771  1.00  0.00     0.007 A 
ATOM     28  C   UNL A   1      33.048  19.040  26.034  1.00  0.00     0.007 A 
ATOM     29  C   UNL A   1      32.303  18.574  23.388  1.00  0.00     0.001 A 
ATOM     30  C   UNL A   1      32.584  17.779  25.647  1.00  0.00     0.001 A 
ATOM     31  C   UNL A   1      32.214  17.546  24.325  1.00  0.00     0.000 A 
ENDBRANCH  16  26
ENDBRANCH   8   9
ENDBRANCH   7   8
ENDBRANCH   6   7
ENDBRANCH   4   6
ENDBRANCH   1   2
BRANCH   1  32
ATOM     32  C   UNL A   1      42.329  19.262  26.819  1.00  0.00     0.042 C 
BRANCH  32  33
ATOM     33  C   UNL A   1      42.485  19.834  25.409  1.00  0.00     0.118 C 
BRANCH  33  34
ATOM     34  N   UNL A   1      43.718  19.460  24.739  1.00  0.00    -0.352 N 
ATOM     35  C   UNL A   1      44.849  20.218  24.536  1.00  0.00     0.251 C 
ATOM     36  H   UNL A   1      43.749  18.543  24.382  1.00  0.00     0.163 HD
ATOM     37  O   UNL A   1      45.782  19.748  23.890  1.00  0.00    -0.269 OA
BRANCH  35  38
ATOM     38  C   UNL A   1      44.932  21.608  25.048  1.00  0.00     0.039 A 
ATOM     39  C   UNL A   1      45.278  21.801  26.391  1.00  0.00     0.014 A 
ATOM     40  C   UNL A   1      44.653  22.715  24.241  1.00  0.00     0.014 A 
ATOM     41  C   UNL A   1      45.389  23.096  26.908  1.00  0.00     0.010 A 
ATOM     42  C   UNL A   1      44.820  24.009  24.745  1.00  0.00     0.010 A 
ATOM     43  C   UNL A   1      45.182  24.216  26.086  1.00  0.00    -0.014 A 
BRANCH  43  44
ATOM     44  C   UNL A   1      45.338  25.593  26.632  1.00  0.00     0.031 A 
ATOM     45  C   UNL A   1      46.686  26.267  26.652  1.00  0.00     0.074 A 
ATOM     46  C   UNL A   1      44.270  26.235  27.149  1.00  0.00     0.049 A 
ATOM     47  N   UNL A   1      46.995  27.479  27.041  1.00  0.00    -0.248 NA
ATOM     48  C   UNL A   1      47.838  25.474  26.194  1.00  0.00     0.031 C 
ATOM     49  C   UNL A   1      42.924  25.671  27.275  1.00  0.00     0.029 A 
ATOM     50  N   UNL A   1      44.150  27.497  27.680  1.00  0.00    -0.354 N 
ATOM     51  C   UNL A   1      48.374  27.585  26.900  1.00  0.00     0.074 A 
ATOM     52  C   UNL A   1      48.846  26.304  26.422  1.00  0.00     0.031 C 
ATOM     53  C   UNL A   1      42.115  26.584  27.835  1.00  0.00     0.029 A 
ATOM     54  C   UNL A   1      42.880  27.795  28.117  1.00  0.00     0.049 A 
ATOM     55  H   UNL A   1      44.902  28.128  27.740  1.00  0.00     0.167 HD
ATOM     56  C   UNL A   1      49.174  28.659  27.114  1.00  0.00     0.034 A 
ATOM     57  C   UNL A   1      42.384  28.920  28.671  1.00  0.00     0.034 A 
ATOM     58  C   UNL A   1      48.703  29.947  27.547  1.00  0.00     0.049 A 
ATOM     59  C   UNL A   1      43.278  30.121  28.832  1.00  0.00     0.074 A 
ATOM     60  C   UNL A   1      49.427  31.116  27.716  1.00  0.00     0.029 A 
ATOM     61  N   UNL A   1      47.391  30.241  27.881  1.00  0.00    -0.354 N 
ATOM     62  N   UNL A   1      44.544  30.254  28.522  1.00  0.00    -0.248 NA
ATOM     63  C   UNL A   1      42.662  31.343  29.372  1.00  0.00     0.031 C 
ATOM     64  C   UNL A   1      48.552  32.114  28.161  1.00  0.00     0.029 A 
ATOM     65  C   UNL A   1      47.281  31.570  28.253  1.00  0.00     0.049 A 
ATOM     66  H   UNL A   1      46.646  29.598  27.857  1.00  0.00     0.167 HD
ATOM     67  C   UNL A   1      44.865  31.582  28.788  1.00  0.00     0.074 A 
ATOM     68  C   UNL A   1      43.654  32.216  29.266  1.00  0.00     0.031 C 
ATOM     69  C   UNL A   1      46.059  32.213  28.660  1.00  0.00     0.034 A 
BRANCH  56  70
ATOM     70  C   UNL A   1      50.642  28.504  26.814  1.00  0.00     0.023 A 
ATOM     71  C   UNL A   1      51.116  28.811  25.522  1.00  0.00     0.012 A 
ATOM     72  C   UNL A   1      51.557  28.115  27.811  1.00  0.00     0.148 A 
ATOM     73  C   UNL A   1      52.471  28.699  25.216  1.00  0.00     0.002 A 
ATOM     74  C   UNL A   1      52.914  28.045  27.510  1.00  0.00     0.091 A 
ATOM     75  F   UNL A   1      51.088  27.808  29.028  1.00  0.00    -0.205 F 
ATOM     76  C   UNL A   1      53.370  28.327  26.211  1.00  0.00     0.022 A 
BRANCH  74  77
ATOM     77  S   UNL A   1      54.158  27.646  28.742  1.00  0.00     0.127 S 
ATOM     78  O   UNL A   1      53.967  28.721  29.714  1.00  0.00    -0.237 OA
ATOM     79  O   UNL A   1      53.729  26.324  29.202  1.00  0.00    -0.237 OA
ATOM     80  O   UNL A   1      55.433  27.655  28.038  1.00  0.00    -0.744 OA
ENDBRANCH  74  77
ENDBRANCH  56  70
BRANCH  57  81
ATOM     81  C   UNL A   1      40.937  29.000  29.022  1.00  0.00     0.023 A 
ATOM     82  C   UNL A   1      39.981  29.083  27.990  1.00  0.00     0.012 A 
ATOM     83  C   UNL A   1      40.500  28.973  30.360  1.00  0.00     0.148 A 
ATOM     84  C   UNL A   1      38.620  29.173  28.283  1.00  0.00     0.002 A 
ATOM     85  C   UNL A   1      39.139  29.010  30.644  1.00  0.00     0.091 A 
ATOM     86  F   UNL A   1      41.424  28.909  31.329  1.00  0.00    -0.205 F 
ATOM     87  C   UNL A   1      38.199  29.126  29.609  1.00  0.00     0.022 A 
BRANCH  85  88
ATOM     88  S   UNL A   1      38.502  28.830  32.315  1.00  0.00     0.127 S 
ATOM     89  O   UNL A   1      37.060  28.824  32.084  1.00  0.00    -0.237 OA
ATOM     90  O   UNL A   1      39.066  27.541  32.719  1.00  0.00    -0.237 OA
ATOM     91  O   UNL A   1      39.023  29.970  33.056  1.00  0.00    -0.744 OA
ENDBRANCH  85  88
ENDBRANCH  57  81
BRANCH  69  92
ATOM     92  C   UNL A   1      46.117  33.680  29.000  1.00  0.00     0.023 A 
ATOM     93  C   UNL A   1      46.472  34.086  30.301  1.00  0.00     0.012 A 
ATOM     94  C   UNL A   1      45.887  34.658  28.011  1.00  0.00     0.148 A 
ATOM     95  C   UNL A   1      46.564  35.440  30.624  1.00  0.00     0.002 A 
ATOM     96  C   UNL A   1      46.026  36.005  28.328  1.00  0.00     0.091 A 
ATOM     97  F   UNL A   1      45.528  34.258  26.783  1.00  0.00    -0.205 F 
ATOM     98  C   UNL A   1      46.354  36.398  29.634  1.00  0.00     0.022 A 
BRANCH  96  99
ATOM     99  S   UNL A   1      45.863  37.296  27.087  1.00  0.00     0.127 S 
ATOM    100  O   UNL A   1      46.536  38.421  27.736  1.00  0.00    -0.237 OA
ATOM    101  O   UNL A   1      46.585  36.731  25.947  1.00  0.00    -0.237 OA
ATOM    102  O   UNL A   1      44.432  37.456  26.870  1.00  0.00    -0.744 OA
ENDBRANCH  96  99
ENDBRANCH  69  92
ENDBRANCH  43  44
ENDBRANCH  35  38
ENDBRANCH  33  34
ENDBRANCH  32  33
ENDBRANCH   1  32
TORSDOF 19
ENDMDL
MODEL 2
REMARK VINA RESULT:     -11.0      0.887      7.228
REMARK SMILES O=C(CCCN1C(=O)C(=O)/C(=C(/[O-])c2ccccc2)[C@@H]1/C=C/c1ccccc1)NCCCNC(=O)c1ccc(-c2c3nc(c(-c4cccc(S(=O)(=O)[O-])c4F)c4ccc([nH]4)c(-c4cccc(S(=O)(=O)[O-])c4F)c4nc(c(-c5cccc(S(=O)(=O)[O-])c5F)c5ccc2[nH]5)C=C4)C=C3)cc1
REMARK SMILES IDX 30 1 29 2 1 3 2 4 3 6 4 7 5 8 6 9 7 10 20 11 8 12 9 13 11 14
REMARK SMILES IDX 10 15 12 16 13 17 21 18 22 19 23 20 24 21 28 22 25 23 27 24
REMARK SMILES IDX 26 25 14 26 15 27 19 28 16 29 18 30 17 31 31 32 32 33 33 34
REMARK SMILES IDX 34 35 35 37 36 38 37 39 98 40 38 41 97 42 39 43 40 44 41 45
REMARK SMILES IDX 91 46 42 47 96 48 90 49 92 50 43 51 95 52 89 53 88 54 44 56
REMARK SMILES IDX 76 57 56 58 75 59 57 60 60 61 74 62 93 63 58 64 59 65 73 67
REMARK SMILES IDX 94 68 61 69 45 70 46 71 54 72 47 73 49 74 55 75 48 76 50 77
REMARK SMILES IDX 51 78 52 79 53 80 77 81 78 82 86 83 79 84 81 85 87 86 80 87
REMARK SMILES IDX 82 88 83 89 84 90 85 91 62 92 63 93 71 94 64 95 66 96 72 97
REMARK SMILES IDX 65 98 67 99 68 100 69 101 70 102
REMARK H PARENT 29 5 33 36 92 55 60 66
REMARK Flexibility Score: inf
ROOT
ATOM      1  C   UNL A   1      41.644  19.972  27.774  1.00  0.00     0.117 C 
ENDROOT
BRANCH   1   2
ATOM      2  N   UNL A   1      40.989  21.122  27.187  1.00  0.00    -0.356 N 
ATOM      3  O   UNL A   1      42.070  22.725  28.429  1.00  0.00    -0.275 OA
ATOM      4  C   UNL A   1      41.270  22.417  27.551  1.00  0.00     0.220 C 
ATOM      5  H   UNL A   1      40.306  20.969  26.495  1.00  0.00     0.163 HD
BRANCH   4   6
ATOM      6  C   UNL A   1      40.543  23.467  26.727  1.00  0.00     0.102 C 
BRANCH   6   7
ATOM      7  C   UNL A   1      39.138  23.748  27.259  1.00  0.00     0.031 C 
BRANCH   7   8
ATOM      8  C   UNL A   1      38.101  24.110  26.198  1.00  0.00     0.121 C 
BRANCH   8   9
ATOM      9  N   UNL A   1      37.078  23.096  25.938  1.00  0.00    -0.325 N 
ATOM     10  C   UNL A   1      37.392  21.783  25.706  1.00  0.00     0.295 C 
ATOM     11  C   UNL A   1      35.637  23.311  25.986  1.00  0.00     0.143 C 
ATOM     12  O   UNL A   1      38.461  21.232  25.860  1.00  0.00    -0.265 OA
ATOM     13  C   UNL A   1      36.132  21.084  25.251  1.00  0.00     0.248 C 
ATOM     14  C   UNL A   1      35.001  22.001  25.556  1.00  0.00     0.024 C 
ATOM     15  O   UNL A   1      36.146  20.010  24.694  1.00  0.00    -0.283 OA
ATOM     16  C   UNL A   1      33.703  21.643  25.484  1.00  0.00    -0.092 C 
ATOM     17  O   UNL A   1      32.658  22.495  25.791  1.00  0.00    -0.872 OA
BRANCH  11  18
ATOM     18  C   UNL A   1      35.211  24.515  25.185  1.00  0.00     0.003 C 
ATOM     19  C   UNL A   1      34.353  25.484  25.556  1.00  0.00     0.006 C 
BRANCH  19  20
ATOM     20  C   UNL A   1      33.806  26.539  24.676  1.00  0.00    -0.026 A 
ATOM     21  C   UNL A   1      33.423  26.188  23.373  1.00  0.00     0.008 A 
ATOM     22  C   UNL A   1      33.715  27.888  25.048  1.00  0.00     0.008 A 
ATOM     23  C   UNL A   1      32.965  27.155  22.471  1.00  0.00     0.001 A 
ATOM     24  C   UNL A   1      33.255  28.855  24.149  1.00  0.00     0.001 A 
ATOM     25  C   UNL A   1      32.882  28.489  22.859  1.00  0.00     0.000 A 
ENDBRANCH  19  20
ENDBRANCH  11  18
BRANCH  16  26
ATOM     26  C   UNL A   1      33.216  20.308  25.073  1.00  0.00    -0.033 A 
ATOM     27  C   UNL A   1      32.845  20.087  23.739  1.00  0.00     0.007 A 
ATOM     28  C   UNL A   1      33.090  19.251  25.988  1.00  0.00     0.007 A 
ATOM     29  C   UNL A   1      32.395  18.831  23.321  1.00  0.00     0.001 A 
ATOM     30  C   UNL A   1      32.653  17.991  25.566  1.00  0.00     0.001 A 
ATOM     31  C   UNL A   1      32.308  17.781  24.233  1.00  0.00     0.000 A 
ENDBRANCH  16  26
ENDBRANCH   8   9
ENDBRANCH   7   8
ENDBRANCH   6   7
ENDBRANCH   4   6
ENDBRANCH   1   2
BRANCH   1  32
ATOM     32  C   UNL A   1      42.310  19.063  26.741  1.00  0.00     0.042 C 
BRANCH  32  33
ATOM     33  C   UNL A   1      42.612  19.679  25.374  1.00  0.00     0.118 C 
BRANCH  33  34
ATOM     34  N   UNL A   1      43.820  19.180  24.740  1.00  0.00    -0.352 N 
ATOM     35  C   UNL A   1      44.987  19.854  24.463  1.00  0.00     0.251 C 
ATOM     36  H   UNL A   1      43.801  18.232  24.473  1.00  0.00     0.163 HD
ATOM     37  O   UNL A   1      45.890  19.276  23.863  1.00  0.00    -0.269 OA
BRANCH  35  38
ATOM     38  C   UNL A   1      45.146  21.281  24.840  1.00  0.00     0.039 A 
ATOM     39  C   UNL A   1      45.475  21.584  26.166  1.00  0.00     0.014 A 
ATOM     40  C   UNL A   1      44.953  22.317  23.922  1.00  0.00     0.014 A 
ATOM     41  C   UNL A   1      45.655  22.915  26.557  1.00  0.00     0.010 A 
ATOM     42  C   UNL A   1      45.189  23.642  24.302  1.00  0.00     0.010 A 
ATOM     43  C   UNL A   1      45.535  23.958  25.625  1.00  0.00    -0.014 A 
BRANCH  43  44
ATOM     44  C   UNL A   1      45.765  25.371  26.039  1.00  0.00     0.031 A 
ATOM     45  C   UNL A   1      44.620  26.235  26.502  1.00  0.00     0.074 A 
ATOM     46  C   UNL A   1      47.004  25.899  25.965  1.00  0.00     0.049 A 
ATOM     47  N   UNL A   1      44.645  27.467  26.948  1.00  0.00    -0.248 NA
ATOM     48  C   UNL A   1      43.271  25.650  26.442  1.00  0.00     0.031 C 
ATOM     49  C   UNL A   1      48.188  25.206  25.453  1.00  0.00     0.029 A 
ATOM     50  N   UNL A   1      47.472  27.145  26.307  1.00  0.00    -0.354 N 
ATOM     51  C   UNL A   1      43.322  27.811  27.195  1.00  0.00     0.074 A 
ATOM     52  C   UNL A   1      42.515  26.671  26.818  1.00  0.00     0.031 C 
ATOM     53  C   UNL A   1      49.245  26.031  25.525  1.00  0.00     0.029 A 
ATOM     54  C   UNL A   1      48.818  27.313  26.077  1.00  0.00     0.049 A 
ATOM     55  H   UNL A   1      46.897  27.850  26.682  1.00  0.00     0.167 HD
ATOM     56  C   UNL A   1      42.821  28.957  27.720  1.00  0.00     0.034 A 
ATOM     57  C   UNL A   1      49.621  28.374  26.298  1.00  0.00     0.034 A 
ATOM     58  C   UNL A   1      43.623  30.075  28.138  1.00  0.00     0.049 A 
ATOM     59  C   UNL A   1      49.052  29.608  26.947  1.00  0.00     0.074 A 
ATOM     60  C   UNL A   1      43.212  31.247  28.753  1.00  0.00     0.029 A 
ATOM     61  N   UNL A   1      44.997  30.167  27.984  1.00  0.00    -0.354 N 
ATOM     62  N   UNL A   1      47.824  29.843  27.339  1.00  0.00    -0.248 NA
ATOM     63  C   UNL A   1      49.991  30.704  27.232  1.00  0.00     0.031 C 
ATOM     64  C   UNL A   1      44.339  32.050  28.963  1.00  0.00     0.029 A 
ATOM     65  C   UNL A   1      45.452  31.372  28.494  1.00  0.00     0.049 A 
ATOM     66  H   UNL A   1      45.565  29.476  27.573  1.00  0.00     0.167 HD
ATOM     67  C   UNL A   1      47.851  31.091  27.953  1.00  0.00     0.074 A 
ATOM     68  C   UNL A   1      49.222  31.554  27.898  1.00  0.00     0.031 C 
ATOM     69  C   UNL A   1      46.829  31.795  28.499  1.00  0.00     0.034 A 
BRANCH  56  70
ATOM     70  C   UNL A   1      41.332  29.030  27.938  1.00  0.00     0.023 A 
ATOM     71  C   UNL A   1      40.480  29.190  26.826  1.00  0.00     0.012 A 
ATOM     72  C   UNL A   1      40.771  28.883  29.222  1.00  0.00     0.148 A 
ATOM     73  C   UNL A   1      39.097  29.240  26.989  1.00  0.00     0.002 A 
ATOM     74  C   UNL A   1      39.388  28.892  29.373  1.00  0.00     0.091 A 
ATOM     75  F   UNL A   1      41.595  28.750  30.270  1.00  0.00    -0.205 F 
ATOM     76  C   UNL A   1      38.551  29.080  28.260  1.00  0.00     0.022 A 
BRANCH  74  77
ATOM     77  S   UNL A   1      38.587  28.622  30.958  1.00  0.00     0.127 S 
ATOM     78  O   UNL A   1      39.153  29.704  31.762  1.00  0.00    -0.237 OA
ATOM     79  O   UNL A   1      37.172  28.786  30.624  1.00  0.00    -0.237 OA
ATOM     80  O   UNL A   1      38.958  27.274  31.368  1.00  0.00    -0.744 OA
ENDBRANCH  74  77
ENDBRANCH  56  70
BRANCH  57  81
ATOM     81  C   UNL A   1      51.077  28.279  25.994  1.00  0.00     0.023 A 
ATOM     82  C   UNL A   1      51.549  28.711  24.739  1.00  0.00     0.012 A 
ATOM     83  C   UNL A   1      51.997  27.787  26.940  1.00  0.00     0.148 A 
ATOM     84  C   UNL A   1      52.904  28.624  24.417  1.00  0.00     0.002 A 
ATOM     85  C   UNL A   1      53.353  27.751  26.632  1.00  0.00     0.091 A 
ATOM     86  F   UNL A   1      51.529  27.367  28.123  1.00  0.00    -0.205 F 
ATOM     87  C   UNL A   1      53.806  28.153  25.366  1.00  0.00     0.022 A 
BRANCH  85  88
ATOM     88  S   UNL A   1      54.599  27.278  27.837  1.00  0.00     0.127 S 
ATOM     89  O   UNL A   1      55.717  26.901  26.977  1.00  0.00    -0.237 OA
ATOM     90  O   UNL A   1      54.788  28.522  28.585  1.00  0.00    -0.237 OA
ATOM     91  O   UNL A   1      54.002  26.200  28.613  1.00  0.00    -0.744 OA
ENDBRANCH  85  88
ENDBRANCH  57  81
BRANCH  69  92
ATOM     92  C   UNL A   1      47.149  33.128  29.126  1.00  0.00     0.023 A 
ATOM     93  C   UNL A   1      47.507  33.195  30.487  1.00  0.00     0.012 A 
ATOM     94  C   UNL A   1      47.161  34.304  28.351  1.00  0.00     0.148 A 
ATOM     95  C   UNL A   1      47.840  34.415  31.075  1.00  0.00     0.002 A 
ATOM     96  C   UNL A   1      47.538  35.510  28.933  1.00  0.00     0.091 A 
ATOM     97  F   UNL A   1      46.796  34.229  27.063  1.00  0.00    -0.205 F 
ATOM     98  C   UNL A   1      47.868  35.569  30.295  1.00  0.00     0.022 A 
BRANCH  96  99
ATOM     99  S   UNL A   1      47.690  37.024  27.974  1.00  0.00     0.127 S 
ATOM    100  O   UNL A   1      46.296  37.305  27.637  1.00  0.00    -0.237 OA
ATOM    101  O   UNL A   1      48.281  37.951  28.940  1.00  0.00    -0.237 OA
ATOM    102  O   UNL A   1      48.558  36.694  26.852  1.00  0.00    -0.744 OA
ENDBRANCH  96  99
ENDBRANCH  69  92
ENDBRANCH  43  44
ENDBRANCH  35  38
ENDBRANCH  33  34
ENDBRANCH  32  33
ENDBRANCH   1  32
TORSDOF 19
ENDMDL
MODEL 3
REMARK VINA RESULT:     -10.7      4.159      9.846
REMARK SMILES O=C(CCCN1C(=O)C(=O)/C(=C(/[O-])c2ccccc2)[C@@H]1/C=C/c1ccccc1)NCCCNC(=O)c1ccc(-c2c3nc(c(-c4cccc(S(=O)(=O)[O-])c4F)c4ccc([nH]4)c(-c4cccc(S(=O)(=O)[O-])c4F)c4nc(c(-c5cccc(S(=O)(=O)[O-])c5F)c5ccc2[nH]5)C=C4)C=C3)cc1
REMARK SMILES IDX 30 1 29 2 1 3 2 4 3 6 4 7 5 8 6 9 7 10 20 11 8 12 9 13 11 14
REMARK SMILES IDX 10 15 12 16 13 17 21 18 22 19 23 20 24 21 28 22 25 23 27 24
REMARK SMILES IDX 26 25 14 26 15 27 19 28 16 29 18 30 17 31 31 32 32 33 33 34
REMARK SMILES IDX 34 35 35 37 36 38 37 39 98 40 38 41 97 42 39 43 40 44 41 45
REMARK SMILES IDX 91 46 42 47 96 48 90 49 92 50 43 51 95 52 89 53 88 54 44 56
REMARK SMILES IDX 76 57 56 58 75 59 57 60 60 61 74 62 93 63 58 64 59 65 73 67
REMARK SMILES IDX 94 68 61 69 45 70 46 71 54 72 47 73 49 74 55 75 48 76 50 77
REMARK SMILES IDX 51 78 52 79 53 80 77 81 78 82 86 83 79 84 81 85 87 86 80 87
REMARK SMILES IDX 82 88 83 89 84 90 85 91 62 92 63 93 71 94 64 95 66 96 72 97
REMARK SMILES IDX 65 98 67 99 68 100 69 101 70 102
REMARK H PARENT 29 5 33 36 92 55 60 66
REMARK Flexibility Score: inf
ROOT
ATOM      1  C   UNL A   1      39.359  27.048  28.569  1.00  0.00     0.117 C 
ENDROOT
BRANCH   1   2
ATOM      2  N   UNL A   1      38.642  28.236  28.156  1.00  0.00    -0.356 N 
ATOM      3  O   UNL A   1      37.677  28.702  30.189  1.00  0.00    -0.275 OA
ATOM      4  C   UNL A   1      37.869  28.985  29.010  1.00  0.00     0.220 C 
ATOM      5  H   UNL A   1      38.712  28.521  27.216  1.00  0.00     0.163 HD
BRANCH   4   6
ATOM      6  C   UNL A   1      37.301  30.250  28.388  1.00  0.00     0.102 C 
BRANCH   6   7
ATOM      7  C   UNL A   1      36.401  29.951  27.190  1.00  0.00     0.031 C 
BRANCH   7   8
ATOM      8  C   UNL A   1      35.162  29.111  27.499  1.00  0.00     0.121 C 
BRANCH   8   9
ATOM      9  N   UNL A   1      34.081  29.189  26.516  1.00  0.00    -0.325 N 
ATOM     10  C   UNL A   1      33.096  30.138  26.586  1.00  0.00     0.295 C 
ATOM     11  C   UNL A   1      33.960  28.365  25.320  1.00  0.00     0.143 C 
ATOM     12  O   UNL A   1      33.056  31.123  27.292  1.00  0.00    -0.265 OA
ATOM     13  C   UNL A   1      32.040  29.778  25.567  1.00  0.00     0.248 C 
ATOM     14  C   UNL A   1      32.638  28.747  24.677  1.00  0.00     0.024 C 
ATOM     15  O   UNL A   1      30.923  30.244  25.592  1.00  0.00    -0.283 OA
ATOM     16  C   UNL A   1      32.075  28.331  23.524  1.00  0.00    -0.092 C 
ATOM     17  O   UNL A   1      32.650  27.390  22.691  1.00  0.00    -0.872 OA
BRANCH  11  18
ATOM     18  C   UNL A   1      34.116  26.896  25.618  1.00  0.00     0.003 C 
ATOM     19  C   UNL A   1      33.139  25.984  25.780  1.00  0.00     0.006 C 
BRANCH  19  20
ATOM     20  C   UNL A   1      33.319  24.599  26.265  1.00  0.00    -0.026 A 
ATOM     21  C   UNL A   1      32.221  23.950  26.850  1.00  0.00     0.008 A 
ATOM     22  C   UNL A   1      34.546  23.923  26.239  1.00  0.00     0.008 A 
ATOM     23  C   UNL A   1      32.348  22.665  27.391  1.00  0.00     0.001 A 
ATOM     24  C   UNL A   1      34.674  22.638  26.778  1.00  0.00     0.001 A 
ATOM     25  C   UNL A   1      33.575  22.011  27.357  1.00  0.00     0.000 A 
ENDBRANCH  19  20
ENDBRANCH  11  18
BRANCH  16  26
ATOM     26  C   UNL A   1      30.782  28.814  22.992  1.00  0.00    -0.033 A 
ATOM     27  C   UNL A   1      29.596  28.157  23.353  1.00  0.00     0.007 A 
ATOM     28  C   UNL A   1      30.703  29.905  22.113  1.00  0.00     0.007 A 
ATOM     29  C   UNL A   1      28.360  28.601  22.877  1.00  0.00     0.001 A 
ATOM     30  C   UNL A   1      29.464  30.356  21.648  1.00  0.00     0.001 A 
ATOM     31  C   UNL A   1      28.293  29.706  22.031  1.00  0.00     0.000 A 
ENDBRANCH  16  26
ENDBRANCH   8   9
ENDBRANCH   7   8
ENDBRANCH   6   7
ENDBRANCH   4   6
ENDBRANCH   1   2
BRANCH   1  32
ATOM     32  C   UNL A   1      39.276  25.907  27.554  1.00  0.00     0.042 C 
BRANCH  32  33
ATOM     33  C   UNL A   1      40.408  24.879  27.580  1.00  0.00     0.118 C 
BRANCH  33  34
ATOM     34  N   UNL A   1      41.140  24.755  26.331  1.00  0.00    -0.352 N 
ATOM     35  C   UNL A   1      42.029  25.640  25.766  1.00  0.00     0.251 C 
ATOM     36  H   UNL A   1      40.978  23.928  25.822  1.00  0.00     0.163 HD
ATOM     37  O   UNL A   1      42.512  25.389  24.664  1.00  0.00    -0.269 OA
BRANCH  35  38
ATOM     38  C   UNL A   1      42.374  26.911  26.450  1.00  0.00     0.039 A 
ATOM     39  C   UNL A   1      41.795  28.095  25.979  1.00  0.00     0.014 A 
ATOM     40  C   UNL A   1      43.270  26.958  27.523  1.00  0.00     0.014 A 
ATOM     41  C   UNL A   1      42.077  29.312  26.610  1.00  0.00     0.010 A 
ATOM     42  C   UNL A   1      43.504  28.167  28.186  1.00  0.00     0.010 A 
ATOM     43  C   UNL A   1      42.918  29.359  27.733  1.00  0.00    -0.014 A 
BRANCH  43  44
ATOM     44  C   UNL A   1      43.185  30.652  28.423  1.00  0.00     0.031 A 
ATOM     45  C   UNL A   1      42.303  31.121  29.552  1.00  0.00     0.074 A 
ATOM     46  C   UNL A   1      44.205  31.435  28.014  1.00  0.00     0.049 A 
ATOM     47  N   UNL A   1      42.418  32.191  30.299  1.00  0.00    -0.248 NA
ATOM     48  C   UNL A   1      41.130  30.292  29.874  1.00  0.00     0.031 C 
ATOM     49  C   UNL A   1      45.085  31.149  26.879  1.00  0.00     0.029 A 
ATOM     50  N   UNL A   1      44.665  32.637  28.494  1.00  0.00    -0.354 N 
ATOM     51  C   UNL A   1      41.325  32.178  31.157  1.00  0.00     0.074 A 
ATOM     52  C   UNL A   1      40.539  31.012  30.817  1.00  0.00     0.031 C 
ATOM     53  C   UNL A   1      45.983  32.140  26.758  1.00  0.00     0.029 A 
ATOM     54  C   UNL A   1      45.740  33.137  27.797  1.00  0.00     0.049 A 
ATOM     55  H   UNL A   1      44.263  33.097  29.266  1.00  0.00     0.167 HD
ATOM     56  C   UNL A   1      41.017  33.036  32.161  1.00  0.00     0.034 A 
ATOM     57  C   UNL A   1      46.459  34.263  27.981  1.00  0.00     0.034 A 
ATOM     58  C   UNL A   1      41.819  34.171  32.532  1.00  0.00     0.049 A 
ATOM     59  C   UNL A   1      46.139  35.162  29.145  1.00  0.00     0.074 A 
ATOM     60  C   UNL A   1      41.630  35.052  33.584  1.00  0.00     0.029 A 
ATOM     61  N   UNL A   1      42.961  34.587  31.866  1.00  0.00    -0.354 N 
ATOM     62  N   UNL A   1      45.206  35.032  30.056  1.00  0.00    -0.248 NA
ATOM     63  C   UNL A   1      47.005  36.336  29.339  1.00  0.00     0.031 C 
ATOM     64  C   UNL A   1      42.654  36.006  33.548  1.00  0.00     0.029 A 
ATOM     65  C   UNL A   1      43.490  35.708  32.483  1.00  0.00     0.049 A 
ATOM     66  H   UNL A   1      43.341  34.148  31.070  1.00  0.00     0.167 HD
ATOM     67  C   UNL A   1      45.398  36.079  30.952  1.00  0.00     0.074 A 
ATOM     68  C   UNL A   1      46.549  36.822  30.485  1.00  0.00     0.031 C 
ATOM     69  C   UNL A   1      44.676  36.402  32.053  1.00  0.00     0.034 A 
BRANCH  56  70
ATOM     70  C   UNL A   1      39.788  32.737  32.980  1.00  0.00     0.023 A 
ATOM     71  C   UNL A   1      39.902  31.904  34.112  1.00  0.00     0.012 A 
ATOM     72  C   UNL A   1      38.543  33.319  32.672  1.00  0.00     0.148 A 
ATOM     73  C   UNL A   1      38.790  31.624  34.904  1.00  0.00     0.002 A 
ATOM     74  C   UNL A   1      37.447  33.068  33.491  1.00  0.00     0.091 A 
ATOM     75  F   UNL A   1      38.448  34.093  31.583  1.00  0.00    -0.205 F 
ATOM     76  C   UNL A   1      37.567  32.214  34.601  1.00  0.00     0.022 A 
BRANCH  74  77
ATOM     77  S   UNL A   1      35.846  33.838  33.226  1.00  0.00     0.127 S 
ATOM     78  O   UNL A   1      36.190  35.258  33.271  1.00  0.00    -0.237 OA
ATOM     79  O   UNL A   1      35.478  33.343  31.898  1.00  0.00    -0.237 OA
ATOM     80  O   UNL A   1      34.991  33.364  34.306  1.00  0.00    -0.744 OA
ENDBRANCH  74  77
ENDBRANCH  56  70
BRANCH  57  81
ATOM     81  C   UNL A   1      47.623  34.554  27.095  1.00  0.00     0.023 A 
ATOM     82  C   UNL A   1      47.425  35.312  25.924  1.00  0.00     0.012 A 
ATOM     83  C   UNL A   1      48.920  34.107  27.411  1.00  0.00     0.148 A 
ATOM     84  C   UNL A   1      48.489  35.591  25.065  1.00  0.00     0.002 A 
ATOM     85  C   UNL A   1      49.986  34.432  26.578  1.00  0.00     0.091 A 
ATOM     86  F   UNL A   1      49.087  33.375  28.520  1.00  0.00    -0.205 F 
ATOM     87  C   UNL A   1      49.770  35.160  25.398  1.00  0.00     0.022 A 
BRANCH  85  88
ATOM     88  S   UNL A   1      51.686  34.026  26.992  1.00  0.00     0.127 S 
ATOM     89  O   UNL A   1      51.713  32.584  26.762  1.00  0.00    -0.237 OA
ATOM     90  O   UNL A   1      52.436  34.820  26.017  1.00  0.00    -0.237 OA
ATOM     91  O   UNL A   1      51.864  34.453  28.373  1.00  0.00    -0.744 OA
ENDBRANCH  85  88
ENDBRANCH  57  81
BRANCH  69  92
ATOM     92  C   UNL A   1      45.127  37.588  32.866  1.00  0.00     0.023 A 
ATOM     93  C   UNL A   1      46.106  37.424  33.865  1.00  0.00     0.012 A 
ATOM     94  C   UNL A   1      44.630  38.879  32.594  1.00  0.00     0.148 A 
ATOM     95  C   UNL A   1      46.560  38.517  34.603  1.00  0.00     0.002 A 
ATOM     96  C   UNL A   1      45.120  39.971  33.302  1.00  0.00     0.091 A 
ATOM     97  F   UNL A   1      43.681  39.017  31.656  1.00  0.00    -0.205 F 
ATOM     98  C   UNL A   1      46.076  39.790  34.313  1.00  0.00     0.022 A 
BRANCH  96  99
ATOM     99  S   UNL A   1      44.616  41.655  32.924  1.00  0.00     0.127 S 
ATOM    100  O   UNL A   1      45.184  41.845  31.591  1.00  0.00    -0.237 OA
ATOM    101  O   UNL A   1      43.156  41.563  32.957  1.00  0.00    -0.237 OA
ATOM    102  O   UNL A   1      45.188  42.482  33.978  1.00  0.00    -0.744 OA
ENDBRANCH  96  99
ENDBRANCH  69  92
ENDBRANCH  43  44
ENDBRANCH  35  38
ENDBRANCH  33  34
ENDBRANCH  32  33
ENDBRANCH   1  32
TORSDOF 19
ENDMDL
