MODEL 1
REMARK VINA RESULT:     -12.3      0.000      0.000
REMARK SMILES Cn1ccc(C(=O)NCc2ccc(C(=O)NCCCNC(=O)c3ccc(-c4c5nc(c(-c6cccc(S(=O)(=O)[O-])c6F)c6ccc([nH]6)c(-c6cccc(S(=O)(=O)[O-])c6F)c6nc(c(-c7cccc(S(=O)(=O)[O-])c7F)c7ccc4[nH]7)C=C6)C=C5)cc3)cc2)cc1=O
REMARK SMILES IDX 18 1 17 2 16 3 14 4 15 5 13 7 10 8 11 9 87 10 12 11 86 12
REMARK SMILES IDX 9 13 8 14 6 15 7 16 5 18 1 19 2 20 3 21 89 22 4 23 88 24
REMARK SMILES IDX 90 25 19 26 20 27 21 28 22 30 23 31 24 32 85 33 25 34 84 35
REMARK SMILES IDX 26 36 27 37 28 38 78 39 29 40 83 41 77 42 79 43 30 44 82 45
REMARK SMILES IDX 76 46 75 47 31 49 63 50 43 51 62 52 44 53 47 54 61 55 80 56
REMARK SMILES IDX 45 57 46 58 60 60 81 61 48 62 32 63 33 64 41 65 34 66 36 67
REMARK SMILES IDX 42 68 35 69 37 70 38 71 39 72 40 73 64 74 65 75 73 76 66 77
REMARK SMILES IDX 68 78 74 79 67 80 69 81 70 82 71 83 72 84 49 85 50 86 58 87
REMARK SMILES IDX 51 88 53 89 59 90 52 91 54 92 55 93 56 94 57 95
REMARK H PARENT 16 6 8 17 20 29 79 48 47 59
REMARK Flexibility Score: inf
ROOT
ATOM      1  C   UNL A   1      33.784  29.093  23.671  1.00  0.00     0.042 C 
ENDROOT
BRANCH   1   2
ATOM      2  C   UNL A   1      33.251  28.097  22.642  1.00  0.00     0.118 C 
BRANCH   2   3
ATOM      3  N   UNL A   1      31.848  28.322  22.339  1.00  0.00    -0.352 N 
ATOM      4  C   UNL A   1      30.711  27.647  22.707  1.00  0.00     0.251 C 
ATOM      5  O   UNL A   1      29.626  28.158  22.425  1.00  0.00    -0.269 OA
ATOM      6  H   UNL A   1      31.682  29.104  21.763  1.00  0.00     0.163 HD
BRANCH   4   7
ATOM      7  C   UNL A   1      30.727  26.357  23.453  1.00  0.00     0.039 A 
ATOM      8  C   UNL A   1      30.844  23.833  24.751  1.00  0.00    -0.029 A 
ATOM      9  C   UNL A   1      31.083  23.939  23.376  1.00  0.00     0.006 A 
ATOM     10  C   UNL A   1      30.593  25.014  25.467  1.00  0.00     0.006 A 
ATOM     11  C   UNL A   1      31.020  25.186  22.734  1.00  0.00     0.014 A 
ATOM     12  C   UNL A   1      30.550  26.255  24.830  1.00  0.00     0.014 A 
BRANCH   8  13
ATOM     13  C   UNL A   1      30.956  22.501  25.460  1.00  0.00     0.152 C 
BRANCH  13  14
ATOM     14  N   UNL A   1      31.471  22.656  26.806  1.00  0.00    -0.348 N 
ATOM     15  C   UNL A   1      32.681  22.477  27.388  1.00  0.00     0.251 C 
ATOM     16  O   UNL A   1      32.717  22.533  28.620  1.00  0.00    -0.269 OA
ATOM     17  H   UNL A   1      30.785  22.962  27.443  1.00  0.00     0.164 HD
BRANCH  15  18
ATOM     18  C   UNL A   1      33.964  22.334  26.627  1.00  0.00     0.046 A 
ATOM     19  C   UNL A   1      37.560  21.397  24.566  1.00  0.00     0.153 C 
ATOM     20  N   UNL A   1      36.320  21.751  25.235  1.00  0.00    -0.319 N 
ATOM     21  C   UNL A   1      35.321  20.803  25.311  1.00  0.00     0.089 A 
ATOM     22  C   UNL A   1      36.164  23.029  25.765  1.00  0.00     0.251 A 
ATOM     23  C   UNL A   1      34.187  21.054  25.970  1.00  0.00     0.032 A 
ATOM     24  C   UNL A   1      34.872  23.307  26.456  1.00  0.00     0.085 A 
ATOM     25  O   UNL A   1      37.013  23.915  25.716  1.00  0.00    -0.269 OA
ENDBRANCH  15  18
ENDBRANCH  13  14
ENDBRANCH   8  13
ENDBRANCH   4   7
ENDBRANCH   2   3
ENDBRANCH   1   2
BRANCH   1  26
ATOM     26  C   UNL A   1      33.179  28.927  25.062  1.00  0.00     0.118 C 
BRANCH  26  27
ATOM     27  N   UNL A   1      32.589  30.164  25.555  1.00  0.00    -0.352 N 
ATOM     28  C   UNL A   1      32.929  30.929  26.643  1.00  0.00     0.251 C 
ATOM     29  H   UNL A   1      31.831  30.503  25.028  1.00  0.00     0.163 HD
ATOM     30  O   UNL A   1      32.167  31.822  27.010  1.00  0.00    -0.269 OA
BRANCH  28  31
ATOM     31  C   UNL A   1      34.193  30.690  27.376  1.00  0.00     0.039 A 
ATOM     32  C   UNL A   1      35.061  31.766  27.595  1.00  0.00     0.014 A 
ATOM     33  C   UNL A   1      34.552  29.409  27.803  1.00  0.00     0.014 A 
ATOM     34  C   UNL A   1      36.264  31.564  28.276  1.00  0.00     0.010 A 
ATOM     35  C   UNL A   1      35.715  29.223  28.545  1.00  0.00     0.010 A 
ATOM     36  C   UNL A   1      36.591  30.293  28.776  1.00  0.00    -0.014 A 
BRANCH  36  37
ATOM     37  C   UNL A   1      37.844  30.059  29.538  1.00  0.00     0.031 A 
ATOM     38  C   UNL A   1      38.920  29.171  28.972  1.00  0.00     0.074 A 
ATOM     39  C   UNL A   1      37.974  30.570  30.777  1.00  0.00     0.049 A 
ATOM     40  N   UNL A   1      40.052  28.800  29.511  1.00  0.00    -0.248 NA
ATOM     41  C   UNL A   1      38.676  28.601  27.638  1.00  0.00     0.031 C 
ATOM     42  C   UNL A   1      36.971  31.389  31.462  1.00  0.00     0.029 A 
ATOM     43  N   UNL A   1      38.990  30.456  31.691  1.00  0.00    -0.354 N 
ATOM     44  C   UNL A   1      40.634  27.921  28.606  1.00  0.00     0.074 A 
ATOM     45  C   UNL A   1      39.714  27.789  27.497  1.00  0.00     0.031 C 
ATOM     46  C   UNL A   1      37.428  31.713  32.682  1.00  0.00     0.029 A 
ATOM     47  C   UNL A   1      38.739  31.103  32.878  1.00  0.00     0.049 A 
ATOM     48  H   UNL A   1      39.821  29.958  31.514  1.00  0.00     0.167 HD
ATOM     49  C   UNL A   1      41.836  27.301  28.676  1.00  0.00     0.034 A 
ATOM     50  C   UNL A   1      39.482  31.194  33.999  1.00  0.00     0.034 A 
ATOM     51  C   UNL A   1      42.767  27.474  29.759  1.00  0.00     0.049 A 
ATOM     52  C   UNL A   1      40.829  30.527  34.038  1.00  0.00     0.074 A 
ATOM     53  C   UNL A   1      44.051  26.976  29.879  1.00  0.00     0.029 A 
ATOM     54  N   UNL A   1      42.508  28.196  30.914  1.00  0.00    -0.354 N 
ATOM     55  N   UNL A   1      41.434  29.832  33.105  1.00  0.00    -0.248 NA
ATOM     56  C   UNL A   1      41.611  30.684  35.273  1.00  0.00     0.031 C 
ATOM     57  C   UNL A   1      44.561  27.377  31.120  1.00  0.00     0.029 A 
ATOM     58  C   UNL A   1      43.602  28.146  31.761  1.00  0.00     0.049 A 
ATOM     59  H   UNL A   1      41.669  28.674  31.106  1.00  0.00     0.167 HD
ATOM     60  C   UNL A   1      42.682  29.501  33.623  1.00  0.00     0.074 A 
ATOM     61  C   UNL A   1      42.750  30.086  34.948  1.00  0.00     0.031 C 
ATOM     62  C   UNL A   1      43.676  28.772  33.057  1.00  0.00     0.034 A 
BRANCH  49  63
ATOM     63  C   UNL A   1      42.227  26.411  27.522  1.00  0.00     0.023 A 
ATOM     64  C   UNL A   1      42.930  26.957  26.428  1.00  0.00     0.012 A 
ATOM     65  C   UNL A   1      41.921  25.036  27.527  1.00  0.00     0.148 A 
ATOM     66  C   UNL A   1      43.278  26.162  25.336  1.00  0.00     0.002 A 
ATOM     67  C   UNL A   1      42.312  24.240  26.456  1.00  0.00     0.091 A 
ATOM     68  F   UNL A   1      41.232  24.534  28.563  1.00  0.00    -0.205 F 
ATOM     69  C   UNL A   1      42.976  24.803  25.354  1.00  0.00     0.022 A 
BRANCH  67  70
ATOM     70  S   UNL A   1      42.038  22.464  26.430  1.00  0.00     0.127 S 
ATOM     71  O   UNL A   1      40.578  22.392  26.385  1.00  0.00    -0.237 OA
ATOM     72  O   UNL A   1      42.706  22.063  25.191  1.00  0.00    -0.237 OA
ATOM     73  O   UNL A   1      42.661  21.951  27.642  1.00  0.00    -0.744 OA
ENDBRANCH  67  70
ENDBRANCH  49  63
BRANCH  50  74
ATOM     74  C   UNL A   1      39.002  32.032  35.133  1.00  0.00     0.023 A 
ATOM     75  C   UNL A   1      39.032  33.435  35.003  1.00  0.00     0.012 A 
ATOM     76  C   UNL A   1      38.469  31.460  36.304  1.00  0.00     0.148 A 
ATOM     77  C   UNL A   1      38.556  34.255  36.026  1.00  0.00     0.002 A 
ATOM     78  C   UNL A   1      37.951  32.282  37.299  1.00  0.00     0.091 A 
ATOM     79  F   UNL A   1      38.456  30.125  36.409  1.00  0.00    -0.205 F 
ATOM     80  C   UNL A   1      38.007  33.680  37.168  1.00  0.00     0.022 A 
BRANCH  78  81
ATOM     81  S   UNL A   1      37.109  31.635  38.749  1.00  0.00     0.127 S 
ATOM     82  O   UNL A   1      38.107  31.853  39.796  1.00  0.00    -0.237 OA
ATOM     83  O   UNL A   1      35.935  32.507  38.827  1.00  0.00    -0.237 OA
ATOM     84  O   UNL A   1      36.809  30.245  38.446  1.00  0.00    -0.744 OA
ENDBRANCH  78  81
ENDBRANCH  50  74
BRANCH  62  85
ATOM     85  C   UNL A   1      44.943  28.587  33.850  1.00  0.00     0.023 A 
ATOM     86  C   UNL A   1      46.000  29.508  33.708  1.00  0.00     0.012 A 
ATOM     87  C   UNL A   1      45.055  27.546  34.793  1.00  0.00     0.148 A 
ATOM     88  C   UNL A   1      47.160  29.378  34.471  1.00  0.00     0.002 A 
ATOM     89  C   UNL A   1      46.193  27.451  35.584  1.00  0.00     0.091 A 
ATOM     90  F   UNL A   1      44.047  26.667  34.898  1.00  0.00    -0.205 F 
ATOM     91  C   UNL A   1      47.251  28.359  35.417  1.00  0.00     0.022 A 
BRANCH  89  92
ATOM     92  S   UNL A   1      46.356  26.231  36.893  1.00  0.00     0.127 S 
ATOM     93  O   UNL A   1      45.138  26.461  37.667  1.00  0.00    -0.237 OA
ATOM     94  O   UNL A   1      46.378  24.973  36.147  1.00  0.00    -0.237 OA
ATOM     95  O   UNL A   1      47.602  26.546  37.580  1.00  0.00    -0.744 OA
ENDBRANCH  89  92
ENDBRANCH  62  85
ENDBRANCH  36  37
ENDBRANCH  28  31
ENDBRANCH  26  27
ENDBRANCH   1  26
TORSDOF 16
ENDMDL
MODEL 2
REMARK VINA RESULT:     -12.3      5.357     10.396
REMARK SMILES Cn1ccc(C(=O)NCc2ccc(C(=O)NCCCNC(=O)c3ccc(-c4c5nc(c(-c6cccc(S(=O)(=O)[O-])c6F)c6ccc([nH]6)c(-c6cccc(S(=O)(=O)[O-])c6F)c6nc(c(-c7cccc(S(=O)(=O)[O-])c7F)c7ccc4[nH]7)C=C6)C=C5)cc3)cc2)cc1=O
REMARK SMILES IDX 18 1 17 2 16 3 14 4 15 5 13 7 10 8 11 9 87 10 12 11 86 12
REMARK SMILES IDX 9 13 8 14 6 15 7 16 5 18 1 19 2 20 3 21 89 22 4 23 88 24
REMARK SMILES IDX 90 25 19 26 20 27 21 28 22 30 23 31 24 32 85 33 25 34 84 35
REMARK SMILES IDX 26 36 27 37 28 38 78 39 29 40 83 41 77 42 79 43 30 44 82 45
REMARK SMILES IDX 76 46 75 47 31 49 63 50 43 51 62 52 44 53 47 54 61 55 80 56
REMARK SMILES IDX 45 57 46 58 60 60 81 61 48 62 32 63 33 64 41 65 34 66 36 67
REMARK SMILES IDX 42 68 35 69 37 70 38 71 39 72 40 73 64 74 65 75 73 76 66 77
REMARK SMILES IDX 68 78 74 79 67 80 69 81 70 82 71 83 72 84 49 85 50 86 58 87
REMARK SMILES IDX 51 88 53 89 59 90 52 91 54 92 55 93 56 94 57 95
REMARK H PARENT 16 6 8 17 20 29 79 48 47 59
REMARK Flexibility Score: inf
ROOT
ATOM      1  C   UNL A   1      37.552  19.477  24.702  1.00  0.00     0.042 C 
ENDROOT
BRANCH   1   2
ATOM      2  C   UNL A   1      36.140  19.982  24.998  1.00  0.00     0.118 C 
BRANCH   2   3
ATOM      3  N   UNL A   1      35.162  18.907  24.981  1.00  0.00    -0.352 N 
ATOM      4  C   UNL A   1      33.840  18.877  24.610  1.00  0.00     0.251 C 
ATOM      5  O   UNL A   1      33.287  17.777  24.554  1.00  0.00    -0.269 OA
ATOM      6  H   UNL A   1      35.511  18.042  25.295  1.00  0.00     0.163 HD
BRANCH   4   7
ATOM      7  C   UNL A   1      33.062  20.093  24.242  1.00  0.00     0.039 A 
ATOM      8  C   UNL A   1      31.636  22.483  23.676  1.00  0.00    -0.029 A 
ATOM      9  C   UNL A   1      32.102  22.220  24.970  1.00  0.00     0.006 A 
ATOM     10  C   UNL A   1      31.936  21.555  22.668  1.00  0.00     0.006 A 
ATOM     11  C   UNL A   1      32.802  21.036  25.249  1.00  0.00     0.014 A 
ATOM     12  C   UNL A   1      32.650  20.386  22.945  1.00  0.00     0.014 A 
BRANCH   8  13
ATOM     13  C   UNL A   1      30.921  23.778  23.355  1.00  0.00     0.152 C 
BRANCH  13  14
ATOM     14  N   UNL A   1      31.651  24.560  22.376  1.00  0.00    -0.348 N 
ATOM     15  C   UNL A   1      32.914  25.039  22.293  1.00  0.00     0.251 C 
ATOM     16  O   UNL A   1      33.147  25.834  21.379  1.00  0.00    -0.269 OA
ATOM     17  H   UNL A   1      31.103  24.795  21.592  1.00  0.00     0.164 HD
BRANCH  15  18
ATOM     18  C   UNL A   1      34.045  24.577  23.161  1.00  0.00     0.046 A 
ATOM     19  C   UNL A   1      37.190  23.732  25.892  1.00  0.00     0.153 C 
ATOM     20  N   UNL A   1      36.101  23.973  24.961  1.00  0.00    -0.319 N 
ATOM     21  C   UNL A   1      35.067  24.794  25.359  1.00  0.00     0.089 A 
ATOM     22  C   UNL A   1      36.118  23.365  23.709  1.00  0.00     0.251 A 
ATOM     23  C   UNL A   1      34.073  25.100  24.520  1.00  0.00     0.032 A 
ATOM     24  C   UNL A   1      34.976  23.680  22.803  1.00  0.00     0.085 A 
ATOM     25  O   UNL A   1      37.005  22.617  23.307  1.00  0.00    -0.269 OA
ENDBRANCH  15  18
ENDBRANCH  13  14
ENDBRANCH   8  13
ENDBRANCH   4   7
ENDBRANCH   2   3
ENDBRANCH   1   2
BRANCH   1  26
ATOM     26  C   UNL A   1      38.640  20.175  25.514  1.00  0.00     0.118 C 
BRANCH  26  27
ATOM     27  N   UNL A   1      39.726  19.271  25.865  1.00  0.00    -0.352 N 
ATOM     28  C   UNL A   1      41.031  19.547  26.192  1.00  0.00     0.251 C 
ATOM     29  H   UNL A   1      39.489  18.316  25.868  1.00  0.00     0.163 HD
ATOM     30  O   UNL A   1      41.844  18.625  26.244  1.00  0.00    -0.269 OA
BRANCH  28  31
ATOM     31  C   UNL A   1      41.466  20.933  26.476  1.00  0.00     0.039 A 
ATOM     32  C   UNL A   1      41.499  21.372  27.804  1.00  0.00     0.014 A 
ATOM     33  C   UNL A   1      41.794  21.816  25.443  1.00  0.00     0.014 A 
ATOM     34  C   UNL A   1      41.898  22.679  28.097  1.00  0.00     0.010 A 
ATOM     35  C   UNL A   1      42.261  23.093  25.741  1.00  0.00     0.010 A 
ATOM     36  C   UNL A   1      42.303  23.544  27.068  1.00  0.00    -0.014 A 
BRANCH  36  37
ATOM     37  C   UNL A   1      42.769  24.924  27.355  1.00  0.00     0.031 A 
ATOM     38  C   UNL A   1      41.848  25.913  28.018  1.00  0.00     0.074 A 
ATOM     39  C   UNL A   1      43.988  25.315  26.934  1.00  0.00     0.049 A 
ATOM     40  N   UNL A   1      42.052  27.174  28.295  1.00  0.00    -0.248 NA
ATOM     41  C   UNL A   1      40.510  25.426  28.392  1.00  0.00     0.031 C 
ATOM     42  C   UNL A   1      44.945  24.470  26.218  1.00  0.00     0.029 A 
ATOM     43  N   UNL A   1      44.619  26.529  27.025  1.00  0.00    -0.354 N 
ATOM     44  C   UNL A   1      40.859  27.643  28.833  1.00  0.00     0.074 A 
ATOM     45  C   UNL A   1      39.926  26.538  28.812  1.00  0.00     0.031 C 
ATOM     46  C   UNL A   1      46.047  25.187  25.946  1.00  0.00     0.029 A 
ATOM     47  C   UNL A   1      45.864  26.548  26.441  1.00  0.00     0.049 A 
ATOM     48  H   UNL A   1      44.220  27.313  27.468  1.00  0.00     0.167 HD
ATOM     49  C   UNL A   1      40.573  28.873  29.323  1.00  0.00     0.034 A 
ATOM     50  C   UNL A   1      46.757  27.549  26.316  1.00  0.00     0.034 A 
ATOM     51  C   UNL A   1      41.521  29.954  29.384  1.00  0.00     0.049 A 
ATOM     52  C   UNL A   1      46.431  28.896  26.902  1.00  0.00     0.074 A 
ATOM     53  C   UNL A   1      41.368  31.204  29.955  1.00  0.00     0.029 A 
ATOM     54  N   UNL A   1      42.799  29.914  28.846  1.00  0.00    -0.354 N 
ATOM     55  N   UNL A   1      45.358  29.275  27.553  1.00  0.00    -0.248 NA
ATOM     56  C   UNL A   1      47.453  29.943  26.766  1.00  0.00     0.031 C 
ATOM     57  C   UNL A   1      42.545  31.929  29.740  1.00  0.00     0.029 A 
ATOM     58  C   UNL A   1      43.441  31.122  29.057  1.00  0.00     0.049 A 
ATOM     59  H   UNL A   1      43.192  29.140  28.381  1.00  0.00     0.167 HD
ATOM     60  C   UNL A   1      45.590  30.591  27.937  1.00  0.00     0.074 A 
ATOM     61  C   UNL A   1      46.913  30.937  27.458  1.00  0.00     0.031 C 
ATOM     62  C   UNL A   1      44.777  31.438  28.617  1.00  0.00     0.034 A 
BRANCH  49  63
ATOM     63  C   UNL A   1      39.188  29.096  29.875  1.00  0.00     0.023 A 
ATOM     64  C   UNL A   1      38.844  28.564  31.135  1.00  0.00     0.012 A 
ATOM     65  C   UNL A   1      38.232  29.846  29.161  1.00  0.00     0.148 A 
ATOM     66  C   UNL A   1      37.561  28.731  31.654  1.00  0.00     0.002 A 
ATOM     67  C   UNL A   1      36.968  30.049  29.706  1.00  0.00     0.091 A 
ATOM     68  F   UNL A   1      38.563  30.327  27.954  1.00  0.00    -0.205 F 
ATOM     69  C   UNL A   1      36.627  29.480  30.944  1.00  0.00     0.022 A 
BRANCH  67  70
ATOM     70  S   UNL A   1      35.728  31.068  28.900  1.00  0.00     0.127 S 
ATOM     71  O   UNL A   1      34.995  31.602  30.047  1.00  0.00    -0.237 OA
ATOM     72  O   UNL A   1      36.545  32.052  28.189  1.00  0.00    -0.237 OA
ATOM     73  O   UNL A   1      34.979  30.168  28.034  1.00  0.00    -0.744 OA
ENDBRANCH  67  70
ENDBRANCH  49  63
BRANCH  50  74
ATOM     74  C   UNL A   1      48.084  27.279  25.694  1.00  0.00     0.023 A 
ATOM     75  C   UNL A   1      49.114  26.747  26.493  1.00  0.00     0.012 A 
ATOM     76  C   UNL A   1      48.314  27.487  24.321  1.00  0.00     0.148 A 
ATOM     77  C   UNL A   1      50.359  26.443  25.941  1.00  0.00     0.002 A 
ATOM     78  C   UNL A   1      49.541  27.136  23.766  1.00  0.00     0.091 A 
ATOM     79  F   UNL A   1      47.322  28.000  23.581  1.00  0.00    -0.205 F 
ATOM     80  C   UNL A   1      50.568  26.627  24.577  1.00  0.00     0.022 A 
BRANCH  78  81
ATOM     81  S   UNL A   1      49.864  27.218  22.000  1.00  0.00     0.127 S 
ATOM     82  O   UNL A   1      51.241  26.730  21.926  1.00  0.00    -0.237 OA
ATOM     83  O   UNL A   1      48.857  26.296  21.470  1.00  0.00    -0.237 OA
ATOM     84  O   UNL A   1      49.667  28.608  21.624  1.00  0.00    -0.744 OA
ENDBRANCH  78  81
ENDBRANCH  50  74
BRANCH  62  85
ATOM     85  C   UNL A   1      45.300  32.818  28.916  1.00  0.00     0.023 A 
ATOM     86  C   UNL A   1      46.083  33.036  30.068  1.00  0.00     0.012 A 
ATOM     87  C   UNL A   1      45.084  33.880  28.016  1.00  0.00     0.148 A 
ATOM     88  C   UNL A   1      46.617  34.297  30.333  1.00  0.00     0.002 A 
ATOM     89  C   UNL A   1      45.659  35.121  28.262  1.00  0.00     0.091 A 
ATOM     90  F   UNL A   1      44.319  33.658  26.938  1.00  0.00    -0.205 F 
ATOM     91  C   UNL A   1      46.417  35.335  29.425  1.00  0.00     0.022 A 
BRANCH  89  92
ATOM     92  S   UNL A   1      45.535  36.486  27.100  1.00  0.00     0.127 S 
ATOM     93  O   UNL A   1      46.227  37.553  27.820  1.00  0.00    -0.237 OA
ATOM     94  O   UNL A   1      46.253  35.969  25.935  1.00  0.00    -0.237 OA
ATOM     95  O   UNL A   1      44.110  36.699  26.884  1.00  0.00    -0.744 OA
ENDBRANCH  89  92
ENDBRANCH  62  85
ENDBRANCH  36  37
ENDBRANCH  28  31
ENDBRANCH  26  27
ENDBRANCH   1  26
TORSDOF 16
ENDMDL
MODEL 3
REMARK VINA RESULT:     -12.2      1.967      7.933
REMARK SMILES Cn1ccc(C(=O)NCc2ccc(C(=O)NCCCNC(=O)c3ccc(-c4c5nc(c(-c6cccc(S(=O)(=O)[O-])c6F)c6ccc([nH]6)c(-c6cccc(S(=O)(=O)[O-])c6F)c6nc(c(-c7cccc(S(=O)(=O)[O-])c7F)c7ccc4[nH]7)C=C6)C=C5)cc3)cc2)cc1=O
REMARK SMILES IDX 18 1 17 2 16 3 14 4 15 5 13 7 10 8 11 9 87 10 12 11 86 12
REMARK SMILES IDX 9 13 8 14 6 15 7 16 5 18 1 19 2 20 3 21 89 22 4 23 88 24
REMARK SMILES IDX 90 25 19 26 20 27 21 28 22 30 23 31 24 32 85 33 25 34 84 35
REMARK SMILES IDX 26 36 27 37 28 38 78 39 29 40 83 41 77 42 79 43 30 44 82 45
REMARK SMILES IDX 76 46 75 47 31 49 63 50 43 51 62 52 44 53 47 54 61 55 80 56
REMARK SMILES IDX 45 57 46 58 60 60 81 61 48 62 32 63 33 64 41 65 34 66 36 67
REMARK SMILES IDX 42 68 35 69 37 70 38 71 39 72 40 73 64 74 65 75 73 76 66 77
REMARK SMILES IDX 68 78 74 79 67 80 69 81 70 82 71 83 72 84 49 85 50 86 58 87
REMARK SMILES IDX 51 88 53 89 59 90 52 91 54 92 55 93 56 94 57 95
REMARK H PARENT 16 6 8 17 20 29 79 48 47 59
REMARK Flexibility Score: inf
ROOT
ATOM      1  C   UNL A   1      31.028  31.635  26.146  1.00  0.00     0.042 C 
ENDROOT
BRANCH   1   2
ATOM      2  C   UNL A   1      31.185  30.469  25.171  1.00  0.00     0.118 C 
BRANCH   2   3
ATOM      3  N   UNL A   1      30.294  30.590  24.028  1.00  0.00    -0.352 N 
ATOM      4  C   UNL A   1      29.709  29.648  23.219  1.00  0.00     0.251 C 
ATOM      5  O   UNL A   1      28.866  30.036  22.408  1.00  0.00    -0.269 OA
ATOM      6  H   UNL A   1      30.071  31.519  23.790  1.00  0.00     0.163 HD
BRANCH   4   7
ATOM      7  C   UNL A   1      30.016  28.192  23.298  1.00  0.00     0.039 A 
ATOM      8  C   UNL A   1      30.443  25.389  23.464  1.00  0.00    -0.029 A 
ATOM      9  C   UNL A   1      29.247  25.957  23.921  1.00  0.00     0.006 A 
ATOM     10  C   UNL A   1      31.394  26.240  22.883  1.00  0.00     0.006 A 
ATOM     11  C   UNL A   1      29.040  27.343  23.843  1.00  0.00     0.014 A 
ATOM     12  C   UNL A   1      31.177  27.617  22.789  1.00  0.00     0.014 A 
BRANCH   8  13
ATOM     13  C   UNL A   1      30.655  23.891  23.500  1.00  0.00     0.152 C 
BRANCH  13  14
ATOM     14  N   UNL A   1      30.696  23.393  24.862  1.00  0.00    -0.348 N 
ATOM     15  C   UNL A   1      31.327  23.778  25.996  1.00  0.00     0.251 C 
ATOM     16  O   UNL A   1      31.273  23.000  26.952  1.00  0.00    -0.269 OA
ATOM     17  H   UNL A   1      30.137  22.593  24.991  1.00  0.00     0.164 HD
BRANCH  15  18
ATOM     18  C   UNL A   1      31.972  25.118  26.183  1.00  0.00     0.046 A 
ATOM     19  C   UNL A   1      34.276  28.654  26.678  1.00  0.00     0.153 C 
ATOM     20  N   UNL A   1      33.457  27.471  26.480  1.00  0.00    -0.319 N 
ATOM     21  C   UNL A   1      33.989  26.415  25.769  1.00  0.00     0.089 A 
ATOM     22  C   UNL A   1      32.163  27.435  26.994  1.00  0.00     0.251 A 
ATOM     23  C   UNL A   1      33.303  25.280  25.612  1.00  0.00     0.032 A 
ATOM     24  C   UNL A   1      31.395  26.177  26.769  1.00  0.00     0.085 A 
ATOM     25  O   UNL A   1      31.635  28.348  27.623  1.00  0.00    -0.269 OA
ENDBRANCH  15  18
ENDBRANCH  13  14
ENDBRANCH   8  13
ENDBRANCH   4   7
ENDBRANCH   2   3
ENDBRANCH   1   2
BRANCH   1  26
ATOM     26  C   UNL A   1      32.316  32.010  26.874  1.00  0.00     0.118 C 
BRANCH  26  27
ATOM     27  N   UNL A   1      32.371  33.428  27.196  1.00  0.00    -0.352 N 
ATOM     28  C   UNL A   1      33.158  34.096  28.102  1.00  0.00     0.251 C 
ATOM     29  H   UNL A   1      31.749  33.995  26.688  1.00  0.00     0.163 HD
ATOM     30  O   UNL A   1      32.896  35.266  28.376  1.00  0.00    -0.269 OA
BRANCH  28  31
ATOM     31  C   UNL A   1      34.307  33.425  28.751  1.00  0.00     0.039 A 
ATOM     32  C   UNL A   1      34.073  32.610  29.864  1.00  0.00     0.014 A 
ATOM     33  C   UNL A   1      35.615  33.633  28.303  1.00  0.00     0.014 A 
ATOM     34  C   UNL A   1      35.142  31.973  30.499  1.00  0.00     0.010 A 
ATOM     35  C   UNL A   1      36.670  32.940  28.892  1.00  0.00     0.010 A 
ATOM     36  C   UNL A   1      36.448  32.116  30.004  1.00  0.00    -0.014 A 
BRANCH  36  37
ATOM     37  C   UNL A   1      37.597  31.419  30.636  1.00  0.00     0.031 A 
ATOM     38  C   UNL A   1      37.980  31.726  32.059  1.00  0.00     0.074 A 
ATOM     39  C   UNL A   1      38.352  30.581  29.901  1.00  0.00     0.049 A 
ATOM     40  N   UNL A   1      38.982  31.267  32.762  1.00  0.00    -0.248 NA
ATOM     41  C   UNL A   1      37.141  32.700  32.777  1.00  0.00     0.031 C 
ATOM     42  C   UNL A   1      38.125  30.256  28.491  1.00  0.00     0.029 A 
ATOM     43  N   UNL A   1      39.478  29.869  30.228  1.00  0.00    -0.354 N 
ATOM     44  C   UNL A   1      38.924  31.926  33.984  1.00  0.00     0.074 A 
ATOM     45  C   UNL A   1      37.805  32.841  33.915  1.00  0.00     0.031 C 
ATOM     46  C   UNL A   1      39.072  29.400  28.079  1.00  0.00     0.029 A 
ATOM     47  C   UNL A   1      39.991  29.138  29.183  1.00  0.00     0.049 A 
ATOM     48  H   UNL A   1      39.880  29.879  31.127  1.00  0.00     0.167 HD
ATOM     49  C   UNL A   1      39.711  31.766  35.075  1.00  0.00     0.034 A 
ATOM     50  C   UNL A   1      41.079  28.345  29.120  1.00  0.00     0.034 A 
ATOM     51  C   UNL A   1      40.792  30.820  35.153  1.00  0.00     0.049 A 
ATOM     52  C   UNL A   1      41.916  28.155  30.355  1.00  0.00     0.074 A 
ATOM     53  C   UNL A   1      41.584  30.505  36.242  1.00  0.00     0.029 A 
ATOM     54  N   UNL A   1      41.239  30.043  34.095  1.00  0.00    -0.354 N 
ATOM     55  N   UNL A   1      41.749  28.663  31.552  1.00  0.00    -0.248 NA
ATOM     56  C   UNL A   1      43.073  27.257  30.240  1.00  0.00     0.031 C 
ATOM     57  C   UNL A   1      42.526  29.553  35.836  1.00  0.00     0.029 A 
ATOM     58  C   UNL A   1      42.305  29.258  34.499  1.00  0.00     0.049 A 
ATOM     59  H   UNL A   1      40.855  30.048  33.189  1.00  0.00     0.167 HD
ATOM     60  C   UNL A   1      42.754  28.118  32.343  1.00  0.00     0.074 A 
ATOM     61  C   UNL A   1      43.517  27.228  31.490  1.00  0.00     0.031 C 
ATOM     62  C   UNL A   1      43.026  28.341  33.653  1.00  0.00     0.034 A 
BRANCH  49  63
ATOM     63  C   UNL A   1      39.397  32.607  36.287  1.00  0.00     0.023 A 
ATOM     64  C   UNL A   1      40.025  33.859  36.449  1.00  0.00     0.012 A 
ATOM     65  C   UNL A   1      38.468  32.172  37.253  1.00  0.00     0.148 A 
ATOM     66  C   UNL A   1      39.774  34.642  37.575  1.00  0.00     0.002 A 
ATOM     67  C   UNL A   1      38.188  32.980  38.351  1.00  0.00     0.091 A 
ATOM     68  F   UNL A   1      37.896  30.970  37.099  1.00  0.00    -0.205 F 
ATOM     69  C   UNL A   1      38.849  34.206  38.521  1.00  0.00     0.022 A 
BRANCH  67  70
ATOM     70  S   UNL A   1      36.952  32.536  39.577  1.00  0.00     0.127 S 
ATOM     71  O   UNL A   1      37.415  31.215  39.999  1.00  0.00    -0.237 OA
ATOM     72  O   UNL A   1      37.116  33.588  40.581  1.00  0.00    -0.237 OA
ATOM     73  O   UNL A   1      35.674  32.566  38.878  1.00  0.00    -0.744 OA
ENDBRANCH  67  70
ENDBRANCH  49  63
BRANCH  50  74
ATOM     74  C   UNL A   1      41.374  27.598  27.865  1.00  0.00     0.023 A 
ATOM     75  C   UNL A   1      41.864  28.306  26.751  1.00  0.00     0.012 A 
ATOM     76  C   UNL A   1      41.230  26.200  27.785  1.00  0.00     0.148 A 
ATOM     77  C   UNL A   1      42.189  27.638  25.570  1.00  0.00     0.002 A 
ATOM     78  C   UNL A   1      41.602  25.534  26.621  1.00  0.00     0.091 A 
ATOM     79  F   UNL A   1      40.757  25.547  28.855  1.00  0.00    -0.205 F 
ATOM     80  C   UNL A   1      42.069  26.253  25.509  1.00  0.00     0.022 A 
BRANCH  78  81
ATOM     81  S   UNL A   1      41.603  23.742  26.490  1.00  0.00     0.127 S 
ATOM     82  O   UNL A   1      42.322  23.354  27.704  1.00  0.00    -0.237 OA
ATOM     83  O   UNL A   1      40.170  23.441  26.502  1.00  0.00    -0.237 OA
ATOM     84  O   UNL A   1      42.274  23.436  25.237  1.00  0.00    -0.744 OA
ENDBRANCH  78  81
ENDBRANCH  50  74
BRANCH  62  85
ATOM     85  C   UNL A   1      44.179  27.589  34.264  1.00  0.00     0.023 A 
ATOM     86  C   UNL A   1      45.480  28.126  34.196  1.00  0.00     0.012 A 
ATOM     87  C   UNL A   1      43.961  26.391  34.973  1.00  0.00     0.148 A 
ATOM     88  C   UNL A   1      46.551  27.466  34.800  1.00  0.00     0.002 A 
ATOM     89  C   UNL A   1      45.024  25.765  35.613  1.00  0.00     0.091 A 
ATOM     90  F   UNL A   1      42.720  25.885  35.008  1.00  0.00    -0.205 F 
ATOM     91  C   UNL A   1      46.321  26.295  35.519  1.00  0.00     0.022 A 
BRANCH  89  92
ATOM     92  S   UNL A   1      44.805  24.307  36.640  1.00  0.00     0.127 S 
ATOM     93  O   UNL A   1      46.185  23.984  36.996  1.00  0.00    -0.237 OA
ATOM     94  O   UNL A   1      43.994  24.822  37.743  1.00  0.00    -0.237 OA
ATOM     95  O   UNL A   1      44.129  23.325  35.803  1.00  0.00    -0.744 OA
ENDBRANCH  89  92
ENDBRANCH  62  85
ENDBRANCH  36  37
ENDBRANCH  28  31
ENDBRANCH  26  27
ENDBRANCH   1  26
TORSDOF 16
ENDMDL
