MODEL 1
REMARK VINA RESULT:     -11.7      0.000      0.000
REMARK SMILES Cc1ccc(C[N@H+]2CCC[C@@H](C(=O)NCCCNC(=O)c3ccc(-c4c5nc(c(-c6cccc(S(=O)(=O)[O-])c6F)c6ccc([nH]6)c(-c6cccc(S(=O)(=O)[O-])c6F)c6nc(c(-c7cccc(S(=O)(=O)[O-])c7F)c7ccc4[nH]7)C=C6)C=C5)cc3)C2)o1
REMARK SMILES IDX 16 1 15 2 14 3 12 4 13 5 11 7 7 8 8 9 84 10 9 12 10 13 6 14
REMARK SMILES IDX 5 15 1 16 2 17 3 18 85 19 4 20 17 21 18 22 19 23 20 25 21 26
REMARK SMILES IDX 22 27 83 28 23 29 82 30 24 31 25 32 26 33 76 34 27 35 81 36
REMARK SMILES IDX 75 37 77 38 28 39 80 40 74 41 73 42 29 44 61 45 41 46 60 47
REMARK SMILES IDX 42 48 45 49 59 50 78 51 43 52 44 53 58 55 79 56 46 57 30 58
REMARK SMILES IDX 31 59 39 60 32 61 34 62 40 63 33 64 35 65 36 66 37 67 38 68
REMARK SMILES IDX 62 69 63 70 71 71 64 72 66 73 72 74 65 75 67 76 68 77 69 78
REMARK SMILES IDX 70 79 47 80 48 81 56 82 49 83 51 84 57 85 50 86 52 87 53 88
REMARK SMILES IDX 54 89 55 90
REMARK H PARENT 14 6 7 11 18 24 77 43 45 54
REMARK Flexibility Score: inf
ROOT
ATOM      1  C   UNL A   1      33.890  28.011  25.888  1.00  0.00     0.042 C 
ENDROOT
BRANCH   1   2
ATOM      2  C   UNL A   1      33.719  26.502  25.762  1.00  0.00     0.117 C 
BRANCH   2   3
ATOM      3  N   UNL A   1      33.620  26.096  24.373  1.00  0.00    -0.356 N 
ATOM      4  C   UNL A   1      34.220  25.070  23.713  1.00  0.00     0.228 C 
ATOM      5  O   UNL A   1      34.079  25.011  22.489  1.00  0.00    -0.275 OA
ATOM      6  H   UNL A   1      33.024  26.652  23.820  1.00  0.00     0.163 HD
BRANCH   4   7
ATOM      7  C   UNL A   1      34.982  24.010  24.486  1.00  0.00     0.133 C 
ATOM      8  N   UNL A   1      34.675  21.751  25.466  1.00  0.00    -0.328 N 
ATOM      9  C   UNL A   1      35.843  21.244  24.730  1.00  0.00     0.262 C 
ATOM     10  C   UNL A   1      34.018  22.845  24.733  1.00  0.00     0.276 C 
ATOM     11  H   UNL A   1      35.024  22.128  26.347  1.00  0.00     0.348 HD
ATOM     12  C   UNL A   1      36.854  22.360  24.443  1.00  0.00     0.062 C 
ATOM     13  C   UNL A   1      36.205  23.531  23.707  1.00  0.00     0.025 C 
BRANCH   8  14
ATOM     14  C   UNL A   1      33.718  20.682  25.826  1.00  0.00     0.338 C 
BRANCH  14  15
ATOM     15  C   UNL A   1      33.343  19.748  24.722  1.00  0.00     0.158 A 
ATOM     16  C   UNL A   1      33.999  16.456  23.531  1.00  0.00     0.087 C 
ATOM     17  C   UNL A   1      33.466  17.825  23.673  1.00  0.00     0.101 A 
ATOM     18  C   UNL A   1      32.444  18.526  23.074  1.00  0.00     0.046 A 
ATOM     19  O   UNL A   1      34.058  18.591  24.626  1.00  0.00    -0.460 OA
ATOM     20  C   UNL A   1      32.368  19.772  23.747  1.00  0.00     0.052 A 
ENDBRANCH  14  15
ENDBRANCH   8  14
ENDBRANCH   4   7
ENDBRANCH   2   3
ENDBRANCH   1   2
BRANCH   1  21
ATOM     21  C   UNL A   1      33.445  28.565  27.238  1.00  0.00     0.118 C 
BRANCH  21  22
ATOM     22  N   UNL A   1      33.562  30.016  27.313  1.00  0.00    -0.352 N 
ATOM     23  C   UNL A   1      34.557  30.795  27.846  1.00  0.00     0.251 C 
ATOM     24  H   UNL A   1      32.810  30.515  26.918  1.00  0.00     0.163 HD
ATOM     25  O   UNL A   1      34.370  32.003  27.989  1.00  0.00    -0.269 OA
BRANCH  23  26
ATOM     26  C   UNL A   1      35.839  30.190  28.260  1.00  0.00     0.039 A 
ATOM     27  C   UNL A   1      36.922  30.228  27.379  1.00  0.00     0.014 A 
ATOM     28  C   UNL A   1      35.972  29.572  29.507  1.00  0.00     0.014 A 
ATOM     29  C   UNL A   1      38.156  29.704  27.774  1.00  0.00     0.010 A 
ATOM     30  C   UNL A   1      37.221  29.131  29.931  1.00  0.00     0.010 A 
ATOM     31  C   UNL A   1      38.325  29.185  29.069  1.00  0.00    -0.014 A 
BRANCH  31  32
ATOM     32  C   UNL A   1      39.650  28.705  29.540  1.00  0.00     0.031 A 
ATOM     33  C   UNL A   1      40.375  29.434  30.639  1.00  0.00     0.074 A 
ATOM     34  C   UNL A   1      40.237  27.663  28.919  1.00  0.00     0.049 A 
ATOM     35  N   UNL A   1      41.560  29.197  31.141  1.00  0.00    -0.248 NA
ATOM     36  C   UNL A   1      39.695  30.596  31.234  1.00  0.00     0.031 C 
ATOM     37  C   UNL A   1      39.670  26.921  27.789  1.00  0.00     0.029 A 
ATOM     38  N   UNL A   1      41.453  27.063  29.131  1.00  0.00    -0.354 N 
ATOM     39  C   UNL A   1      41.780  30.197  32.082  1.00  0.00     0.074 A 
ATOM     40  C   UNL A   1      40.623  31.063  32.056  1.00  0.00     0.031 C 
ATOM     41  C   UNL A   1      40.532  25.964  27.415  1.00  0.00     0.029 A 
ATOM     42  C   UNL A   1      41.726  26.043  28.249  1.00  0.00     0.049 A 
ATOM     43  H   UNL A   1      42.071  27.335  29.847  1.00  0.00     0.167 HD
ATOM     44  C   UNL A   1      42.836  30.361  32.914  1.00  0.00     0.034 A 
ATOM     45  C   UNL A   1      42.820  25.267  28.118  1.00  0.00     0.034 A 
ATOM     46  C   UNL A   1      43.971  29.478  32.961  1.00  0.00     0.049 A 
ATOM     47  C   UNL A   1      43.969  25.457  29.070  1.00  0.00     0.074 A 
ATOM     48  C   UNL A   1      45.051  29.511  33.824  1.00  0.00     0.029 A 
ATOM     49  N   UNL A   1      44.178  28.410  32.102  1.00  0.00    -0.354 N 
ATOM     50  N   UNL A   1      44.090  26.311  30.058  1.00  0.00    -0.248 NA
ATOM     51  C   UNL A   1      45.117  24.552  28.916  1.00  0.00     0.031 C 
ATOM     52  C   UNL A   1      45.929  28.483  33.465  1.00  0.00     0.029 A 
ATOM     53  C   UNL A   1      45.375  27.784  32.405  1.00  0.00     0.049 A 
ATOM     54  H   UNL A   1      43.564  28.136  31.382  1.00  0.00     0.167 HD
ATOM     55  C   UNL A   1      45.307  26.022  30.665  1.00  0.00     0.074 A 
ATOM     56  C   UNL A   1      45.875  24.899  29.946  1.00  0.00     0.031 C 
ATOM     57  C   UNL A   1      45.906  26.636  31.715  1.00  0.00     0.034 A 
BRANCH  44  58
ATOM     58  C   UNL A   1      42.796  31.521  33.876  1.00  0.00     0.023 A 
ATOM     59  C   UNL A   1      43.280  32.782  33.469  1.00  0.00     0.012 A 
ATOM     60  C   UNL A   1      42.228  31.383  35.157  1.00  0.00     0.148 A 
ATOM     61  C   UNL A   1      43.234  33.875  34.334  1.00  0.00     0.002 A 
ATOM     62  C   UNL A   1      42.141  32.488  35.995  1.00  0.00     0.091 A 
ATOM     63  F   UNL A   1      41.790  30.173  35.535  1.00  0.00    -0.205 F 
ATOM     64  C   UNL A   1      42.656  33.730  35.592  1.00  0.00     0.022 A 
BRANCH  62  65
ATOM     65  S   UNL A   1      41.339  32.427  37.603  1.00  0.00     0.127 S 
ATOM     66  O   UNL A   1      40.031  31.871  37.258  1.00  0.00    -0.237 OA
ATOM     67  O   UNL A   1      42.211  31.519  38.346  1.00  0.00    -0.237 OA
ATOM     68  O   UNL A   1      41.323  33.797  38.096  1.00  0.00    -0.744 OA
ENDBRANCH  62  65
ENDBRANCH  44  58
BRANCH  45  69
ATOM     69  C   UNL A   1      42.859  24.201  27.077  1.00  0.00     0.023 A 
ATOM     70  C   UNL A   1      43.564  24.427  25.879  1.00  0.00     0.012 A 
ATOM     71  C   UNL A   1      42.220  22.962  27.273  1.00  0.00     0.148 A 
ATOM     72  C   UNL A   1      43.599  23.455  24.878  1.00  0.00     0.002 A 
ATOM     73  C   UNL A   1      42.308  21.975  26.298  1.00  0.00     0.091 A 
ATOM     74  F   UNL A   1      41.548  22.768  28.418  1.00  0.00    -0.205 F 
ATOM     75  C   UNL A   1      42.979  22.226  25.092  1.00  0.00     0.022 A 
BRANCH  73  76
ATOM     76  S   UNL A   1      41.653  20.319  26.540  1.00  0.00     0.127 S 
ATOM     77  O   UNL A   1      42.269  19.937  27.808  1.00  0.00    -0.237 OA
ATOM     78  O   UNL A   1      40.214  20.572  26.605  1.00  0.00    -0.237 OA
ATOM     79  O   UNL A   1      42.077  19.554  25.376  1.00  0.00    -0.744 OA
ENDBRANCH  73  76
ENDBRANCH  45  69
BRANCH  57  80
ATOM     80  C   UNL A   1      47.225  26.084  32.189  1.00  0.00     0.023 A 
ATOM     81  C   UNL A   1      48.432  26.584  31.660  1.00  0.00     0.012 A 
ATOM     82  C   UNL A   1      47.267  25.117  33.213  1.00  0.00     0.148 A 
ATOM     83  C   UNL A   1      49.658  26.104  32.116  1.00  0.00     0.002 A 
ATOM     84  C   UNL A   1      48.493  24.682  33.700  1.00  0.00     0.091 A 
ATOM     85  F   UNL A   1      46.109  24.641  33.691  1.00  0.00    -0.205 F 
ATOM     86  C   UNL A   1      49.690  25.162  33.144  1.00  0.00     0.022 A 
BRANCH  84  87
ATOM     87  S   UNL A   1      48.633  23.549  35.087  1.00  0.00     0.127 S 
ATOM     88  O   UNL A   1      47.952  24.291  36.147  1.00  0.00    -0.237 OA
ATOM     89  O   UNL A   1      47.907  22.375  34.603  1.00  0.00    -0.237 OA
ATOM     90  O   UNL A   1      50.059  23.336  35.292  1.00  0.00    -0.744 OA
ENDBRANCH  84  87
ENDBRANCH  57  80
ENDBRANCH  31  32
ENDBRANCH  23  26
ENDBRANCH  21  22
ENDBRANCH   1  21
TORSDOF 15
ENDMDL
MODEL 2
REMARK VINA RESULT:     -11.6      4.261      9.580
REMARK SMILES Cc1ccc(C[N@H+]2CCC[C@@H](C(=O)NCCCNC(=O)c3ccc(-c4c5nc(c(-c6cccc(S(=O)(=O)[O-])c6F)c6ccc([nH]6)c(-c6cccc(S(=O)(=O)[O-])c6F)c6nc(c(-c7cccc(S(=O)(=O)[O-])c7F)c7ccc4[nH]7)C=C6)C=C5)cc3)C2)o1
REMARK SMILES IDX 16 1 15 2 14 3 12 4 13 5 11 7 7 8 8 9 84 10 9 12 10 13 6 14
REMARK SMILES IDX 5 15 1 16 2 17 3 18 85 19 4 20 17 21 18 22 19 23 20 25 21 26
REMARK SMILES IDX 22 27 83 28 23 29 82 30 24 31 25 32 26 33 76 34 27 35 81 36
REMARK SMILES IDX 75 37 77 38 28 39 80 40 74 41 73 42 29 44 61 45 41 46 60 47
REMARK SMILES IDX 42 48 45 49 59 50 78 51 43 52 44 53 58 55 79 56 46 57 30 58
REMARK SMILES IDX 31 59 39 60 32 61 34 62 40 63 33 64 35 65 36 66 37 67 38 68
REMARK SMILES IDX 62 69 63 70 71 71 64 72 66 73 72 74 65 75 67 76 68 77 69 78
REMARK SMILES IDX 70 79 47 80 48 81 56 82 49 83 51 84 57 85 50 86 52 87 53 88
REMARK SMILES IDX 54 89 55 90
REMARK H PARENT 14 6 7 11 18 24 77 43 45 54
REMARK Flexibility Score: inf
ROOT
ATOM      1  C   UNL A   1      31.537  32.000  26.740  1.00  0.00     0.042 C 
ENDROOT
BRANCH   1   2
ATOM      2  C   UNL A   1      31.677  30.483  26.705  1.00  0.00     0.117 C 
BRANCH   2   3
ATOM      3  N   UNL A   1      33.062  30.079  26.859  1.00  0.00    -0.356 N 
ATOM      4  C   UNL A   1      33.648  28.865  26.678  1.00  0.00     0.228 C 
ATOM      5  O   UNL A   1      34.830  28.742  27.005  1.00  0.00    -0.275 OA
ATOM      6  H   UNL A   1      33.675  30.797  27.139  1.00  0.00     0.163 HD
BRANCH   4   7
ATOM      7  C   UNL A   1      32.869  27.732  26.037  1.00  0.00     0.133 C 
ATOM      8  N   UNL A   1      31.875  27.070  23.862  1.00  0.00    -0.328 N 
ATOM      9  C   UNL A   1      32.608  25.795  23.886  1.00  0.00     0.262 C 
ATOM     10  C   UNL A   1      32.614  28.122  24.579  1.00  0.00     0.276 C 
ATOM     11  H   UNL A   1      30.996  26.912  24.356  1.00  0.00     0.348 HD
ATOM     12  C   UNL A   1      32.902  25.341  25.320  1.00  0.00     0.062 C 
ATOM     13  C   UNL A   1      33.645  26.418  26.109  1.00  0.00     0.025 C 
BRANCH   8  14
ATOM     14  C   UNL A   1      31.508  27.493  22.494  1.00  0.00     0.338 C 
BRANCH  14  15
ATOM     15  C   UNL A   1      30.324  28.399  22.391  1.00  0.00     0.158 A 
ATOM     16  C   UNL A   1      26.895  28.601  23.333  1.00  0.00     0.087 C 
ATOM     17  C   UNL A   1      28.225  28.909  22.771  1.00  0.00     0.101 A 
ATOM     18  C   UNL A   1      28.806  30.040  22.241  1.00  0.00     0.046 A 
ATOM     19  O   UNL A   1      29.125  27.893  22.797  1.00  0.00    -0.460 OA
ATOM     20  C   UNL A   1      30.162  29.709  21.989  1.00  0.00     0.052 A 
ENDBRANCH  14  15
ENDBRANCH   8  14
ENDBRANCH   4   7
ENDBRANCH   2   3
ENDBRANCH   1   2
BRANCH   1  21
ATOM     21  C   UNL A   1      32.794  32.718  27.221  1.00  0.00     0.118 C 
BRANCH  21  22
ATOM     22  N   UNL A   1      32.532  34.094  27.627  1.00  0.00    -0.352 N 
ATOM     23  C   UNL A   1      33.057  34.824  28.662  1.00  0.00     0.251 C 
ATOM     24  H   UNL A   1      31.875  34.573  27.071  1.00  0.00     0.163 HD
ATOM     25  O   UNL A   1      32.553  35.907  28.956  1.00  0.00    -0.269 OA
BRANCH  23  26
ATOM     26  C   UNL A   1      34.210  34.311  29.429  1.00  0.00     0.039 A 
ATOM     27  C   UNL A   1      33.976  33.534  30.566  1.00  0.00     0.014 A 
ATOM     28  C   UNL A   1      35.520  34.604  29.040  1.00  0.00     0.014 A 
ATOM     29  C   UNL A   1      35.055  32.999  31.274  1.00  0.00     0.010 A 
ATOM     30  C   UNL A   1      36.589  34.000  29.693  1.00  0.00     0.010 A 
ATOM     31  C   UNL A   1      36.370  33.197  30.822  1.00  0.00    -0.014 A 
BRANCH  31  32
ATOM     32  C   UNL A   1      37.526  32.563  31.508  1.00  0.00     0.031 A 
ATOM     33  C   UNL A   1      38.256  31.415  30.864  1.00  0.00     0.074 A 
ATOM     34  C   UNL A   1      37.862  32.967  32.749  1.00  0.00     0.049 A 
ATOM     35  N   UNL A   1      39.247  30.704  31.335  1.00  0.00    -0.248 NA
ATOM     36  C   UNL A   1      37.798  30.995  29.530  1.00  0.00     0.031 C 
ATOM     37  C   UNL A   1      37.182  34.017  33.512  1.00  0.00     0.029 A 
ATOM     38  N   UNL A   1      38.845  32.525  33.600  1.00  0.00    -0.354 N 
ATOM     39  C   UNL A   1      39.507  29.732  30.374  1.00  0.00     0.074 A 
ATOM     40  C   UNL A   1      38.547  29.924  29.311  1.00  0.00     0.031 C 
ATOM     41  C   UNL A   1      37.772  34.142  34.710  1.00  0.00     0.029 A 
ATOM     42  C   UNL A   1      38.846  33.161  34.819  1.00  0.00     0.049 A 
ATOM     43  H   UNL A   1      39.488  31.820  33.359  1.00  0.00     0.167 HD
ATOM     44  C   UNL A   1      40.476  28.787  30.364  1.00  0.00     0.034 A 
ATOM     45  C   UNL A   1      39.616  32.967  35.908  1.00  0.00     0.034 A 
ATOM     46  C   UNL A   1      41.451  28.621  31.408  1.00  0.00     0.049 A 
ATOM     47  C   UNL A   1      40.700  31.925  35.861  1.00  0.00     0.074 A 
ATOM     48  C   UNL A   1      42.524  27.748  31.453  1.00  0.00     0.029 A 
ATOM     49  N   UNL A   1      41.468  29.334  32.597  1.00  0.00    -0.354 N 
ATOM     50  N   UNL A   1      41.029  31.121  34.879  1.00  0.00    -0.248 NA
ATOM     51  C   UNL A   1      41.544  31.788  37.056  1.00  0.00     0.031 C 
ATOM     52  C   UNL A   1      43.168  27.910  32.683  1.00  0.00     0.029 A 
ATOM     53  C   UNL A   1      42.523  28.913  33.388  1.00  0.00     0.049 A 
ATOM     54  H   UNL A   1      40.824  30.038  32.842  1.00  0.00     0.167 HD
ATOM     55  C   UNL A   1      42.139  30.411  35.323  1.00  0.00     0.074 A 
ATOM     56  C   UNL A   1      42.439  30.897  36.655  1.00  0.00     0.031 C 
ATOM     57  C   UNL A   1      42.841  29.438  34.691  1.00  0.00     0.034 A 
BRANCH  44  58
ATOM     58  C   UNL A   1      40.558  27.880  29.162  1.00  0.00     0.023 A 
ATOM     59  C   UNL A   1      39.693  26.770  29.066  1.00  0.00     0.012 A 
ATOM     60  C   UNL A   1      41.444  28.157  28.103  1.00  0.00     0.148 A 
ATOM     61  C   UNL A   1      39.736  25.929  27.954  1.00  0.00     0.002 A 
ATOM     62  C   UNL A   1      41.446  27.343  26.977  1.00  0.00     0.091 A 
ATOM     63  F   UNL A   1      42.272  29.205  28.219  1.00  0.00    -0.205 F 
ATOM     64  C   UNL A   1      40.604  26.221  26.906  1.00  0.00     0.022 A 
BRANCH  62  65
ATOM     65  S   UNL A   1      42.466  27.680  25.536  1.00  0.00     0.127 S 
ATOM     66  O   UNL A   1      41.903  28.945  25.066  1.00  0.00    -0.237 OA
ATOM     67  O   UNL A   1      43.800  27.789  26.125  1.00  0.00    -0.237 OA
ATOM     68  O   UNL A   1      42.286  26.547  24.640  1.00  0.00    -0.744 OA
ENDBRANCH  62  65
ENDBRANCH  44  58
BRANCH  45  69
ATOM     69  C   UNL A   1      39.426  33.817  37.118  1.00  0.00     0.023 A 
ATOM     70  C   UNL A   1      39.893  35.145  37.113  1.00  0.00     0.012 A 
ATOM     71  C   UNL A   1      38.771  33.325  38.264  1.00  0.00     0.148 A 
ATOM     72  C   UNL A   1      39.748  35.956  38.239  1.00  0.00     0.002 A 
ATOM     73  C   UNL A   1      38.577  34.155  39.361  1.00  0.00     0.091 A 
ATOM     74  F   UNL A   1      38.339  32.054  38.252  1.00  0.00    -0.205 F 
ATOM     75  C   UNL A   1      39.082  35.465  39.358  1.00  0.00     0.022 A 
BRANCH  73  76
ATOM     76  S   UNL A   1      37.617  33.652  40.794  1.00  0.00     0.127 S 
ATOM     77  O   UNL A   1      38.526  32.713  41.447  1.00  0.00    -0.237 OA
ATOM     78  O   UNL A   1      37.435  34.923  41.495  1.00  0.00    -0.237 OA
ATOM     79  O   UNL A   1      36.389  33.078  40.263  1.00  0.00    -0.744 OA
ENDBRANCH  73  76
ENDBRANCH  45  69
BRANCH  57  80
ATOM     80  C   UNL A   1      44.034  28.860  35.406  1.00  0.00     0.023 A 
ATOM     81  C   UNL A   1      45.310  29.434  35.231  1.00  0.00     0.012 A 
ATOM     82  C   UNL A   1      43.876  27.790  36.308  1.00  0.00     0.148 A 
ATOM     83  C   UNL A   1      46.414  28.928  35.913  1.00  0.00     0.002 A 
ATOM     84  C   UNL A   1      44.971  27.325  37.025  1.00  0.00     0.091 A 
ATOM     85  F   UNL A   1      42.659  27.246  36.448  1.00  0.00    -0.205 F 
ATOM     86  C   UNL A   1      46.244  27.882  36.819  1.00  0.00     0.022 A 
BRANCH  84  87
ATOM     87  S   UNL A   1      44.829  26.052  38.284  1.00  0.00     0.127 S 
ATOM     88  O   UNL A   1      46.220  25.894  38.706  1.00  0.00    -0.237 OA
ATOM     89  O   UNL A   1      43.961  26.690  39.274  1.00  0.00    -0.237 OA
ATOM     90  O   UNL A   1      44.244  24.894  37.623  1.00  0.00    -0.744 OA
ENDBRANCH  84  87
ENDBRANCH  57  80
ENDBRANCH  31  32
ENDBRANCH  23  26
ENDBRANCH  21  22
ENDBRANCH   1  21
TORSDOF 15
ENDMDL
MODEL 3
REMARK VINA RESULT:     -11.5      3.779      9.167
REMARK SMILES Cc1ccc(C[N@H+]2CCC[C@@H](C(=O)NCCCNC(=O)c3ccc(-c4c5nc(c(-c6cccc(S(=O)(=O)[O-])c6F)c6ccc([nH]6)c(-c6cccc(S(=O)(=O)[O-])c6F)c6nc(c(-c7cccc(S(=O)(=O)[O-])c7F)c7ccc4[nH]7)C=C6)C=C5)cc3)C2)o1
REMARK SMILES IDX 16 1 15 2 14 3 12 4 13 5 11 7 7 8 8 9 84 10 9 12 10 13 6 14
REMARK SMILES IDX 5 15 1 16 2 17 3 18 85 19 4 20 17 21 18 22 19 23 20 25 21 26
REMARK SMILES IDX 22 27 83 28 23 29 82 30 24 31 25 32 26 33 76 34 27 35 81 36
REMARK SMILES IDX 75 37 77 38 28 39 80 40 74 41 73 42 29 44 61 45 41 46 60 47
REMARK SMILES IDX 42 48 45 49 59 50 78 51 43 52 44 53 58 55 79 56 46 57 30 58
REMARK SMILES IDX 31 59 39 60 32 61 34 62 40 63 33 64 35 65 36 66 37 67 38 68
REMARK SMILES IDX 62 69 63 70 71 71 64 72 66 73 72 74 65 75 67 76 68 77 69 78
REMARK SMILES IDX 70 79 47 80 48 81 56 82 49 83 51 84 57 85 50 86 52 87 53 88
REMARK SMILES IDX 54 89 55 90
REMARK H PARENT 14 6 7 11 18 24 77 43 45 54
REMARK Flexibility Score: inf
ROOT
ATOM      1  C   UNL A   1      31.589  32.051  26.443  1.00  0.00     0.042 C 
ENDROOT
BRANCH   1   2
ATOM      2  C   UNL A   1      31.837  30.622  25.977  1.00  0.00     0.117 C 
BRANCH   2   3
ATOM      3  N   UNL A   1      31.692  29.678  27.069  1.00  0.00    -0.356 N 
ATOM      4  C   UNL A   1      31.707  28.318  27.063  1.00  0.00     0.228 C 
ATOM      5  O   UNL A   1      31.427  27.735  28.112  1.00  0.00    -0.275 OA
ATOM      6  H   UNL A   1      31.563  30.087  27.956  1.00  0.00     0.163 HD
BRANCH   4   7
ATOM      7  C   UNL A   1      32.117  27.567  25.810  1.00  0.00     0.133 C 
ATOM      8  N   UNL A   1      32.966  25.351  25.088  1.00  0.00    -0.328 N 
ATOM      9  C   UNL A   1      31.864  25.213  24.125  1.00  0.00     0.262 C 
ATOM     10  C   UNL A   1      32.564  26.168  26.244  1.00  0.00     0.276 C 
ATOM     11  H   UNL A   1      33.719  25.840  24.604  1.00  0.00     0.348 HD
ATOM     12  C   UNL A   1      31.361  26.580  23.646  1.00  0.00     0.062 C 
ATOM     13  C   UNL A   1      30.959  27.473  24.819  1.00  0.00     0.025 C 
BRANCH   8  14
ATOM     14  C   UNL A   1      33.524  24.047  25.507  1.00  0.00     0.338 C 
BRANCH  14  15
ATOM     15  C   UNL A   1      34.797  23.641  24.839  1.00  0.00     0.158 A 
ATOM     16  C   UNL A   1      37.885  22.000  25.515  1.00  0.00     0.087 C 
ATOM     17  C   UNL A   1      36.784  22.710  24.836  1.00  0.00     0.101 A 
ATOM     18  C   UNL A   1      36.492  23.000  23.522  1.00  0.00     0.046 A 
ATOM     19  O   UNL A   1      35.788  23.161  25.642  1.00  0.00    -0.460 OA
ATOM     20  C   UNL A   1      35.211  23.609  23.523  1.00  0.00     0.052 A 
ENDBRANCH  14  15
ENDBRANCH   8  14
ENDBRANCH   4   7
ENDBRANCH   2   3
ENDBRANCH   1   2
BRANCH   1  21
ATOM     21  C   UNL A   1      32.730  32.626  27.278  1.00  0.00     0.118 C 
BRANCH  21  22
ATOM     22  N   UNL A   1      32.521  34.028  27.620  1.00  0.00    -0.352 N 
ATOM     23  C   UNL A   1      33.096  34.791  28.604  1.00  0.00     0.251 C 
ATOM     24  H   UNL A   1      31.867  34.501  27.056  1.00  0.00     0.163 HD
ATOM     25  O   UNL A   1      32.635  35.904  28.855  1.00  0.00    -0.269 OA
BRANCH  23  26
ATOM     26  C   UNL A   1      34.252  34.279  29.368  1.00  0.00     0.039 A 
ATOM     27  C   UNL A   1      34.029  33.673  30.607  1.00  0.00     0.014 A 
ATOM     28  C   UNL A   1      35.553  34.407  28.875  1.00  0.00     0.014 A 
ATOM     29  C   UNL A   1      35.106  33.139  31.320  1.00  0.00     0.010 A 
ATOM     30  C   UNL A   1      36.610  33.798  29.543  1.00  0.00     0.010 A 
ATOM     31  C   UNL A   1      36.401  33.164  30.776  1.00  0.00    -0.014 A 
BRANCH  31  32
ATOM     32  C   UNL A   1      37.544  32.523  31.476  1.00  0.00     0.031 A 
ATOM     33  C   UNL A   1      38.263  31.359  30.848  1.00  0.00     0.074 A 
ATOM     34  C   UNL A   1      37.878  32.935  32.715  1.00  0.00     0.049 A 
ATOM     35  N   UNL A   1      39.243  30.640  31.332  1.00  0.00    -0.248 NA
ATOM     36  C   UNL A   1      37.808  30.931  29.515  1.00  0.00     0.031 C 
ATOM     37  C   UNL A   1      37.207  34.001  33.463  1.00  0.00     0.029 A 
ATOM     38  N   UNL A   1      38.849  32.489  33.576  1.00  0.00    -0.354 N 
ATOM     39  C   UNL A   1      39.496  29.656  30.383  1.00  0.00     0.074 A 
ATOM     40  C   UNL A   1      38.545  29.848  29.311  1.00  0.00     0.031 C 
ATOM     41  C   UNL A   1      37.790  34.131  34.664  1.00  0.00     0.029 A 
ATOM     42  C   UNL A   1      38.851  33.137  34.789  1.00  0.00     0.049 A 
ATOM     43  H   UNL A   1      39.485  31.773  33.347  1.00  0.00     0.167 HD
ATOM     44  C   UNL A   1      40.453  28.697  30.388  1.00  0.00     0.034 A 
ATOM     45  C   UNL A   1      39.612  32.944  35.885  1.00  0.00     0.034 A 
ATOM     46  C   UNL A   1      41.420  28.530  31.440  1.00  0.00     0.049 A 
ATOM     47  C   UNL A   1      40.683  31.888  35.855  1.00  0.00     0.074 A 
ATOM     48  C   UNL A   1      42.480  27.644  31.501  1.00  0.00     0.029 A 
ATOM     49  N   UNL A   1      41.438  29.255  32.621  1.00  0.00    -0.354 N 
ATOM     50  N   UNL A   1      41.008  31.070  34.883  1.00  0.00    -0.248 NA
ATOM     51  C   UNL A   1      41.517  31.753  37.057  1.00  0.00     0.031 C 
ATOM     52  C   UNL A   1      43.119  27.810  32.733  1.00  0.00     0.029 A 
ATOM     53  C   UNL A   1      42.482  28.828  33.424  1.00  0.00     0.049 A 
ATOM     54  H   UNL A   1      40.801  29.969  32.856  1.00  0.00     0.167 HD
ATOM     55  C   UNL A   1      42.106  30.351  35.341  1.00  0.00     0.074 A 
ATOM     56  C   UNL A   1      42.403  30.847  36.670  1.00  0.00     0.031 C 
ATOM     57  C   UNL A   1      42.799  29.363  34.723  1.00  0.00     0.034 A 
BRANCH  44  58
ATOM     58  C   UNL A   1      40.531  27.778  29.196  1.00  0.00     0.023 A 
ATOM     59  C   UNL A   1      39.634  26.693  29.092  1.00  0.00     0.012 A 
ATOM     60  C   UNL A   1      41.445  28.018  28.152  1.00  0.00     0.148 A 
ATOM     61  C   UNL A   1      39.674  25.841  27.989  1.00  0.00     0.002 A 
ATOM     62  C   UNL A   1      41.444  27.194  27.033  1.00  0.00     0.091 A 
ATOM     63  F   UNL A   1      42.302  29.042  28.276  1.00  0.00    -0.205 F 
ATOM     64  C   UNL A   1      40.570  26.098  26.956  1.00  0.00     0.022 A 
BRANCH  62  65
ATOM     65  S   UNL A   1      42.502  27.487  25.610  1.00  0.00     0.127 S 
ATOM     66  O   UNL A   1      43.789  27.757  26.250  1.00  0.00    -0.237 OA
ATOM     67  O   UNL A   1      42.429  26.208  24.906  1.00  0.00    -0.237 OA
ATOM     68  O   UNL A   1      41.914  28.611  24.896  1.00  0.00    -0.744 OA
ENDBRANCH  62  65
ENDBRANCH  44  58
BRANCH  45  69
ATOM     69  C   UNL A   1      39.425  33.809  37.085  1.00  0.00     0.023 A 
ATOM     70  C   UNL A   1      39.884  35.140  37.059  1.00  0.00     0.012 A 
ATOM     71  C   UNL A   1      38.782  33.327  38.242  1.00  0.00     0.148 A 
ATOM     72  C   UNL A   1      39.742  35.965  38.175  1.00  0.00     0.002 A 
ATOM     73  C   UNL A   1      38.590  34.171  39.329  1.00  0.00     0.091 A 
ATOM     74  F   UNL A   1      38.359  32.054  38.250  1.00  0.00    -0.205 F 
ATOM     75  C   UNL A   1      39.088  35.484  39.306  1.00  0.00     0.022 A 
BRANCH  73  76
ATOM     76  S   UNL A   1      37.645  33.681  40.776  1.00  0.00     0.127 S 
ATOM     77  O   UNL A   1      38.538  32.708  41.400  1.00  0.00    -0.237 OA
ATOM     78  O   UNL A   1      37.515  34.949  41.494  1.00  0.00    -0.237 OA
ATOM     79  O   UNL A   1      36.390  33.148  40.264  1.00  0.00    -0.744 OA
ENDBRANCH  73  76
ENDBRANCH  45  69
BRANCH  57  80
ATOM     80  C   UNL A   1      43.980  28.777  35.451  1.00  0.00     0.023 A 
ATOM     81  C   UNL A   1      45.266  29.326  35.270  1.00  0.00     0.012 A 
ATOM     82  C   UNL A   1      43.802  27.725  36.371  1.00  0.00     0.148 A 
ATOM     83  C   UNL A   1      46.360  28.812  35.965  1.00  0.00     0.002 A 
ATOM     84  C   UNL A   1      44.887  27.254  37.099  1.00  0.00     0.091 A 
ATOM     85  F   UNL A   1      42.575  27.205  36.517  1.00  0.00    -0.205 F 
ATOM     86  C   UNL A   1      46.169  27.786  36.888  1.00  0.00     0.022 A 
BRANCH  84  87
ATOM     87  S   UNL A   1      44.720  26.005  38.380  1.00  0.00     0.127 S 
ATOM     88  O   UNL A   1      43.780  26.645  39.299  1.00  0.00    -0.237 OA
ATOM     89  O   UNL A   1      44.170  24.871  37.638  1.00  0.00    -0.237 OA
ATOM     90  O   UNL A   1      46.060  25.789  38.909  1.00  0.00    -0.744 OA
ENDBRANCH  84  87
ENDBRANCH  57  80
ENDBRANCH  31  32
ENDBRANCH  23  26
ENDBRANCH  21  22
ENDBRANCH   1  21
TORSDOF 15
ENDMDL
