MODEL 1
REMARK VINA RESULT:     -13.1      0.000      0.000
REMARK SMILES C[C@@H]1CN(C(=O)Nc2ccc(O)c(C(=O)NCCCNC(=O)c3ccc(-c4c5nc(c(-c6cccc(S(=O)(=O)[O-])c6F)c6ccc([nH]6)c(-c6cccc(S(=O)(=O)[O-])c6F)c6nc(c(-c7cccc(S(=O)(=O)[O-])c7F)c7ccc4[nH]7)C=C6)C=C5)cc3)c2)C[C@H]1C
REMARK SMILES IDX 19 1 18 2 17 3 16 4 14 5 15 6 13 8 8 9 9 10 86 11 10 12
REMARK SMILES IDX 11 13 7 14 1 15 2 16 3 17 88 18 4 19 87 20 89 21 5 22 6 23
REMARK SMILES IDX 12 25 20 27 21 28 22 30 23 31 24 32 85 33 25 34 84 35 26 36
REMARK SMILES IDX 27 37 28 38 78 39 29 40 83 41 77 42 79 43 30 44 82 45 76 46
REMARK SMILES IDX 75 47 31 49 63 50 43 51 62 52 44 53 47 54 61 55 80 56 45 57
REMARK SMILES IDX 46 58 60 60 81 61 48 62 32 63 33 64 41 65 34 66 36 67 42 68
REMARK SMILES IDX 35 69 37 70 38 71 39 72 40 73 64 74 65 75 73 76 66 77 68 78
REMARK SMILES IDX 74 79 67 80 69 81 70 82 71 83 72 84 49 85 50 86 58 87 51 88
REMARK SMILES IDX 53 89 59 90 52 91 54 92 55 93 56 94 57 95
REMARK H PARENT 16 7 7 24 12 26 20 29 79 48 47 59
REMARK Flexibility Score: inf
ROOT
ATOM      1  C   UNL A   1      32.687  32.826  27.174  1.00  0.00     0.118 C 
ENDROOT
BRANCH   1   2
ATOM      2  C   UNL A   1      31.428  32.265  26.535  1.00  0.00     0.042 C 
BRANCH   2   3
ATOM      3  C   UNL A   1      31.425  30.746  26.370  1.00  0.00     0.118 C 
BRANCH   3   4
ATOM      4  N   UNL A   1      32.351  30.324  25.340  1.00  0.00    -0.352 N 
ATOM      5  C   UNL A   1      32.345  29.266  24.471  1.00  0.00     0.255 C 
ATOM      6  O   UNL A   1      33.279  29.223  23.662  1.00  0.00    -0.269 OA
ATOM      7  H   UNL A   1      33.135  30.912  25.246  1.00  0.00     0.163 HD
BRANCH   5   8
ATOM      8  C   UNL A   1      31.278  28.227  24.359  1.00  0.00     0.083 A 
ATOM      9  C   UNL A   1      30.295  26.306  25.499  1.00  0.00     0.043 A 
ATOM     10  C   UNL A   1      29.284  26.240  24.548  1.00  0.00     0.030 A 
ATOM     11  C   UNL A   1      31.225  27.343  25.454  1.00  0.00     0.044 A 
ATOM     12  C   UNL A   1      29.307  27.107  23.462  1.00  0.00     0.049 A 
ATOM     13  C   UNL A   1      30.319  28.069  23.349  1.00  0.00     0.128 A 
BRANCH   9  14
ATOM     14  N   UNL A   1      30.419  25.346  26.504  1.00  0.00    -0.308 N 
ATOM     15  C   UNL A   1      33.653  23.365  22.645  1.00  0.00     0.010 C 
ATOM     16  C   UNL A   1      32.408  22.903  23.384  1.00  0.00     0.010 C 
ATOM     17  C   UNL A   1      31.766  24.036  24.181  1.00  0.00     0.125 C 
ATOM     18  C   UNL A   1      32.646  21.836  24.455  1.00  0.00     0.010 C 
ATOM     19  N   UNL A   1      31.100  23.402  25.317  1.00  0.00    -0.324 N 
ATOM     20  C   UNL A   1      31.400  21.978  25.335  1.00  0.00     0.125 C 
ATOM     21  C   UNL A   1      32.807  20.439  23.885  1.00  0.00     0.010 C 
ATOM     22  C   UNL A   1      30.526  23.989  26.422  1.00  0.00     0.321 C 
ATOM     23  O   UNL A   1      30.227  23.329  27.421  1.00  0.00    -0.248 OA
ATOM     24  H   UNL A   1      30.432  25.705  27.420  1.00  0.00     0.171 HD
ENDBRANCH   9  14
BRANCH  13  25
ATOM     25  O   UNL A   1      30.298  28.837  22.228  1.00  0.00    -0.507 OA
ATOM     26  H   UNL A   1      29.515  29.290  21.986  1.00  0.00     0.293 HD
ENDBRANCH  13  25
ENDBRANCH   5   8
ENDBRANCH   3   4
ENDBRANCH   2   3
ENDBRANCH   1   2
BRANCH   1  27
ATOM     27  N   UNL A   1      32.508  34.193  27.638  1.00  0.00    -0.352 N 
ATOM     28  C   UNL A   1      33.097  34.845  28.693  1.00  0.00     0.251 C 
ATOM     29  H   UNL A   1      31.869  34.732  27.117  1.00  0.00     0.163 HD
ATOM     30  O   UNL A   1      32.647  35.930  29.056  1.00  0.00    -0.269 OA
BRANCH  28  31
ATOM     31  C   UNL A   1      34.255  34.251  29.404  1.00  0.00     0.039 A 
ATOM     32  C   UNL A   1      34.023  33.444  30.523  1.00  0.00     0.014 A 
ATOM     33  C   UNL A   1      35.567  34.520  29.005  1.00  0.00     0.014 A 
ATOM     34  C   UNL A   1      35.099  32.874  31.209  1.00  0.00     0.010 A 
ATOM     35  C   UNL A   1      36.633  33.884  29.636  1.00  0.00     0.010 A 
ATOM     36  C   UNL A   1      36.413  33.072  30.758  1.00  0.00    -0.014 A 
BRANCH  36  37
ATOM     37  C   UNL A   1      37.578  32.468  31.452  1.00  0.00     0.031 A 
ATOM     38  C   UNL A   1      38.340  31.344  30.801  1.00  0.00     0.074 A 
ATOM     39  C   UNL A   1      37.889  32.859  32.704  1.00  0.00     0.049 A 
ATOM     40  N   UNL A   1      39.328  30.630  31.276  1.00  0.00    -0.248 NA
ATOM     41  C   UNL A   1      37.912  30.947  29.449  1.00  0.00     0.031 C 
ATOM     42  C   UNL A   1      37.184  33.891  33.466  1.00  0.00     0.029 A 
ATOM     43  N   UNL A   1      38.861  32.414  33.564  1.00  0.00    -0.354 N 
ATOM     44  C   UNL A   1      39.602  29.671  30.309  1.00  0.00     0.074 A 
ATOM     45  C   UNL A   1      38.658  29.875  29.232  1.00  0.00     0.031 C 
ATOM     46  C   UNL A   1      37.753  34.007  34.676  1.00  0.00     0.029 A 
ATOM     47  C   UNL A   1      38.840  33.038  34.790  1.00  0.00     0.049 A 
ATOM     48  H   UNL A   1      39.512  31.714  33.327  1.00  0.00     0.167 HD
ATOM     49  C   UNL A   1      40.570  28.722  30.303  1.00  0.00     0.034 A 
ATOM     50  C   UNL A   1      39.608  32.850  35.880  1.00  0.00     0.034 A 
ATOM     51  C   UNL A   1      41.541  28.564  31.349  1.00  0.00     0.049 A 
ATOM     52  C   UNL A   1      40.707  31.822  35.832  1.00  0.00     0.074 A 
ATOM     53  C   UNL A   1      42.629  27.710  31.394  1.00  0.00     0.029 A 
ATOM     54  N   UNL A   1      41.540  29.272  32.542  1.00  0.00    -0.354 N 
ATOM     55  N   UNL A   1      41.054  31.033  34.845  1.00  0.00    -0.248 NA
ATOM     56  C   UNL A   1      41.539  31.683  37.035  1.00  0.00     0.031 C 
ATOM     57  C   UNL A   1      43.273  27.886  32.623  1.00  0.00     0.029 A 
ATOM     58  C   UNL A   1      42.600  28.867  33.335  1.00  0.00     0.049 A 
ATOM     59  H   UNL A   1      40.882  29.961  32.788  1.00  0.00     0.167 HD
ATOM     60  C   UNL A   1      42.171  30.333  35.290  1.00  0.00     0.074 A 
ATOM     61  C   UNL A   1      42.446  30.801  36.633  1.00  0.00     0.031 C 
ATOM     62  C   UNL A   1      42.895  29.384  34.648  1.00  0.00     0.034 A 
BRANCH  49  63
ATOM     63  C   UNL A   1      40.648  27.816  29.101  1.00  0.00     0.023 A 
ATOM     64  C   UNL A   1      39.822  26.674  29.031  1.00  0.00     0.012 A 
ATOM     65  C   UNL A   1      41.518  28.102  28.030  1.00  0.00     0.148 A 
ATOM     66  C   UNL A   1      39.894  25.808  27.940  1.00  0.00     0.002 A 
ATOM     67  C   UNL A   1      41.550  27.260  26.924  1.00  0.00     0.091 A 
ATOM     68  F   UNL A   1      42.314  29.177  28.120  1.00  0.00    -0.205 F 
ATOM     69  C   UNL A   1      40.751  26.106  26.885  1.00  0.00     0.022 A 
BRANCH  67  70
ATOM     70  S   UNL A   1      42.562  27.607  25.481  1.00  0.00     0.127 S 
ATOM     71  O   UNL A   1      42.280  26.450  24.636  1.00  0.00    -0.237 OA
ATOM     72  O   UNL A   1      41.994  28.867  24.997  1.00  0.00    -0.237 OA
ATOM     73  O   UNL A   1      43.928  27.713  25.973  1.00  0.00    -0.744 OA
ENDBRANCH  67  70
ENDBRANCH  49  63
BRANCH  50  74
ATOM     74  C   UNL A   1      39.425  33.727  37.072  1.00  0.00     0.023 A 
ATOM     75  C   UNL A   1      39.849  35.069  37.000  1.00  0.00     0.012 A 
ATOM     76  C   UNL A   1      38.793  33.266  38.243  1.00  0.00     0.148 A 
ATOM     77  C   UNL A   1      39.666  35.931  38.082  1.00  0.00     0.002 A 
ATOM     78  C   UNL A   1      38.568  34.144  39.297  1.00  0.00     0.091 A 
ATOM     79  F   UNL A   1      38.403  31.985  38.292  1.00  0.00    -0.205 F 
ATOM     80  C   UNL A   1      39.017  35.473  39.225  1.00  0.00     0.022 A 
BRANCH  78  81
ATOM     81  S   UNL A   1      37.628  33.686  40.759  1.00  0.00     0.127 S 
ATOM     82  O   UNL A   1      36.439  33.075  40.172  1.00  0.00    -0.237 OA
ATOM     83  O   UNL A   1      38.540  32.754  41.422  1.00  0.00    -0.237 OA
ATOM     84  O   UNL A   1      37.404  34.928  41.489  1.00  0.00    -0.744 OA
ENDBRANCH  78  81
ENDBRANCH  50  74
BRANCH  62  85
ATOM     85  C   UNL A   1      44.088  28.808  35.365  1.00  0.00     0.023 A 
ATOM     86  C   UNL A   1      45.357  29.398  35.201  1.00  0.00     0.012 A 
ATOM     87  C   UNL A   1      43.932  27.739  36.269  1.00  0.00     0.148 A 
ATOM     88  C   UNL A   1      46.458  28.915  35.907  1.00  0.00     0.002 A 
ATOM     89  C   UNL A   1      45.024  27.295  37.006  1.00  0.00     0.091 A 
ATOM     90  F   UNL A   1      42.720  27.178  36.395  1.00  0.00    -0.205 F 
ATOM     91  C   UNL A   1      46.289  27.874  36.819  1.00  0.00     0.022 A 
BRANCH  89  92
ATOM     92  S   UNL A   1      44.878  26.029  38.272  1.00  0.00     0.127 S 
ATOM     93  O   UNL A   1      44.056  26.702  39.275  1.00  0.00    -0.237 OA
ATOM     94  O   UNL A   1      44.201  24.948  37.554  1.00  0.00    -0.237 OA
ATOM     95  O   UNL A   1      46.240  25.716  38.685  1.00  0.00    -0.744 OA
ENDBRANCH  89  92
ENDBRANCH  62  85
ENDBRANCH  36  37
ENDBRANCH  28  31
ENDBRANCH   1  27
TORSDOF 15
ENDMDL
MODEL 2
REMARK VINA RESULT:     -12.9      1.886      7.910
REMARK SMILES C[C@@H]1CN(C(=O)Nc2ccc(O)c(C(=O)NCCCNC(=O)c3ccc(-c4c5nc(c(-c6cccc(S(=O)(=O)[O-])c6F)c6ccc([nH]6)c(-c6cccc(S(=O)(=O)[O-])c6F)c6nc(c(-c7cccc(S(=O)(=O)[O-])c7F)c7ccc4[nH]7)C=C6)C=C5)cc3)c2)C[C@H]1C
REMARK SMILES IDX 19 1 18 2 17 3 16 4 14 5 15 6 13 8 8 9 9 10 86 11 10 12
REMARK SMILES IDX 11 13 7 14 1 15 2 16 3 17 88 18 4 19 87 20 89 21 5 22 6 23
REMARK SMILES IDX 12 25 20 27 21 28 22 30 23 31 24 32 85 33 25 34 84 35 26 36
REMARK SMILES IDX 27 37 28 38 78 39 29 40 83 41 77 42 79 43 30 44 82 45 76 46
REMARK SMILES IDX 75 47 31 49 63 50 43 51 62 52 44 53 47 54 61 55 80 56 45 57
REMARK SMILES IDX 46 58 60 60 81 61 48 62 32 63 33 64 41 65 34 66 36 67 42 68
REMARK SMILES IDX 35 69 37 70 38 71 39 72 40 73 64 74 65 75 73 76 66 77 68 78
REMARK SMILES IDX 74 79 67 80 69 81 70 82 71 83 72 84 49 85 50 86 58 87 51 88
REMARK SMILES IDX 53 89 59 90 52 91 54 92 55 93 56 94 57 95
REMARK H PARENT 16 7 7 24 12 26 20 29 79 48 47 59
REMARK Flexibility Score: inf
ROOT
ATOM      1  C   UNL A   1      32.371  31.452  27.429  1.00  0.00     0.118 C 
ENDROOT
BRANCH   1   2
ATOM      2  C   UNL A   1      32.284  30.760  26.079  1.00  0.00     0.042 C 
BRANCH   2   3
ATOM      3  C   UNL A   1      33.290  29.627  25.882  1.00  0.00     0.118 C 
BRANCH   3   4
ATOM      4  N   UNL A   1      33.541  29.382  24.477  1.00  0.00    -0.352 N 
ATOM      5  C   UNL A   1      32.877  28.642  23.536  1.00  0.00     0.255 C 
ATOM      6  O   UNL A   1      33.334  28.687  22.388  1.00  0.00    -0.269 OA
ATOM      7  H   UNL A   1      34.344  29.835  24.132  1.00  0.00     0.163 HD
BRANCH   5   8
ATOM      8  C   UNL A   1      31.617  27.871  23.754  1.00  0.00     0.083 A 
ATOM      9  C   UNL A   1      30.527  26.297  25.269  1.00  0.00     0.043 A 
ATOM     10  C   UNL A   1      29.340  26.408  24.555  1.00  0.00     0.030 A 
ATOM     11  C   UNL A   1      31.622  27.088  24.926  1.00  0.00     0.044 A 
ATOM     12  C   UNL A   1      29.306  27.181  23.401  1.00  0.00     0.049 A 
ATOM     13  C   UNL A   1      30.446  27.877  22.982  1.00  0.00     0.128 A 
BRANCH   9  14
ATOM     14  N   UNL A   1      30.665  25.396  26.325  1.00  0.00    -0.308 N 
ATOM     15  C   UNL A   1      33.468  22.961  22.390  1.00  0.00     0.010 C 
ATOM     16  C   UNL A   1      32.255  22.632  23.245  1.00  0.00     0.010 C 
ATOM     17  C   UNL A   1      31.748  23.854  24.007  1.00  0.00     0.125 C 
ATOM     18  C   UNL A   1      32.504  21.620  24.366  1.00  0.00     0.010 C 
ATOM     19  N   UNL A   1      31.130  23.339  25.227  1.00  0.00    -0.324 N 
ATOM     20  C   UNL A   1      31.339  21.902  25.320  1.00  0.00     0.125 C 
ATOM     21  C   UNL A   1      32.533  20.182  23.882  1.00  0.00     0.010 C 
ATOM     22  C   UNL A   1      30.679  24.032  26.328  1.00  0.00     0.321 C 
ATOM     23  O   UNL A   1      30.414  23.458  27.388  1.00  0.00    -0.248 OA
ATOM     24  H   UNL A   1      30.769  25.810  27.212  1.00  0.00     0.171 HD
ENDBRANCH   9  14
BRANCH  13  25
ATOM     25  O   UNL A   1      30.341  28.561  21.813  1.00  0.00    -0.507 OA
ATOM     26  H   UNL A   1      29.890  28.178  21.086  1.00  0.00     0.293 HD
ENDBRANCH  13  25
ENDBRANCH   5   8
ENDBRANCH   3   4
ENDBRANCH   2   3
ENDBRANCH   1   2
BRANCH   1  27
ATOM     27  N   UNL A   1      32.719  32.859  27.304  1.00  0.00    -0.352 N 
ATOM     28  C   UNL A   1      33.779  33.550  27.838  1.00  0.00     0.251 C 
ATOM     29  H   UNL A   1      32.103  33.396  26.756  1.00  0.00     0.163 HD
ATOM     30  O   UNL A   1      33.775  34.779  27.801  1.00  0.00    -0.269 OA
BRANCH  28  31
ATOM     31  C   UNL A   1      34.916  32.834  28.466  1.00  0.00     0.039 A 
ATOM     32  C   UNL A   1      36.221  33.242  28.170  1.00  0.00     0.014 A 
ATOM     33  C   UNL A   1      34.708  31.738  29.307  1.00  0.00     0.014 A 
ATOM     34  C   UNL A   1      37.308  32.581  28.750  1.00  0.00     0.010 A 
ATOM     35  C   UNL A   1      35.786  31.136  29.950  1.00  0.00     0.010 A 
ATOM     36  C   UNL A   1      37.098  31.537  29.662  1.00  0.00    -0.014 A 
BRANCH  36  37
ATOM     37  C   UNL A   1      38.229  30.825  30.310  1.00  0.00     0.031 A 
ATOM     38  C   UNL A   1      38.636  31.183  31.715  1.00  0.00     0.074 A 
ATOM     39  C   UNL A   1      38.951  29.931  29.605  1.00  0.00     0.049 A 
ATOM     40  N   UNL A   1      39.644  30.741  32.422  1.00  0.00    -0.248 NA
ATOM     41  C   UNL A   1      37.822  32.199  32.403  1.00  0.00     0.031 C 
ATOM     42  C   UNL A   1      38.697  29.549  28.215  1.00  0.00     0.029 A 
ATOM     43  N   UNL A   1      40.061  29.204  29.953  1.00  0.00    -0.354 N 
ATOM     44  C   UNL A   1      39.616  31.459  33.612  1.00  0.00     0.074 A 
ATOM     45  C   UNL A   1      38.509  32.387  33.520  1.00  0.00     0.031 C 
ATOM     46  C   UNL A   1      39.618  28.650  27.832  1.00  0.00     0.029 A 
ATOM     47  C   UNL A   1      40.546  28.417  28.935  1.00  0.00     0.049 A 
ATOM     48  H   UNL A   1      40.472  29.242  30.847  1.00  0.00     0.167 HD
ATOM     49  C   UNL A   1      40.420  31.340  34.696  1.00  0.00     0.034 A 
ATOM     50  C   UNL A   1      41.617  27.601  28.895  1.00  0.00     0.034 A 
ATOM     51  C   UNL A   1      41.480  30.376  34.804  1.00  0.00     0.049 A 
ATOM     52  C   UNL A   1      42.468  27.451  30.127  1.00  0.00     0.074 A 
ATOM     53  C   UNL A   1      42.283  30.096  35.895  1.00  0.00     0.029 A 
ATOM     54  N   UNL A   1      41.890  29.535  33.780  1.00  0.00    -0.354 N 
ATOM     55  N   UNL A   1      42.330  28.021  31.299  1.00  0.00    -0.248 NA
ATOM     56  C   UNL A   1      43.603  26.520  30.041  1.00  0.00     0.031 C 
ATOM     57  C   UNL A   1      43.194  29.101  35.524  1.00  0.00     0.029 A 
ATOM     58  C   UNL A   1      42.942  28.745  34.208  1.00  0.00     0.049 A 
ATOM     59  H   UNL A   1      41.491  29.506  32.881  1.00  0.00     0.167 HD
ATOM     60  C   UNL A   1      43.331  27.488  32.104  1.00  0.00     0.074 A 
ATOM     61  C   UNL A   1      44.062  26.541  31.286  1.00  0.00     0.031 C 
ATOM     62  C   UNL A   1      43.623  27.765  33.399  1.00  0.00     0.034 A 
BRANCH  49  63
ATOM     63  C   UNL A   1      40.149  32.249  35.867  1.00  0.00     0.023 A 
ATOM     64  C   UNL A   1      40.937  33.405  36.054  1.00  0.00     0.012 A 
ATOM     65  C   UNL A   1      39.101  31.977  36.770  1.00  0.00     0.148 A 
ATOM     66  C   UNL A   1      40.719  34.246  37.144  1.00  0.00     0.002 A 
ATOM     67  C   UNL A   1      38.859  32.848  37.827  1.00  0.00     0.091 A 
ATOM     68  F   UNL A   1      38.376  30.864  36.594  1.00  0.00    -0.205 F 
ATOM     69  C   UNL A   1      39.676  33.973  38.024  1.00  0.00     0.022 A 
BRANCH  67  70
ATOM     70  S   UNL A   1      37.487  32.621  38.964  1.00  0.00     0.127 S 
ATOM     71  O   UNL A   1      37.737  31.271  39.464  1.00  0.00    -0.237 OA
ATOM     72  O   UNL A   1      37.714  33.685  39.944  1.00  0.00    -0.237 OA
ATOM     73  O   UNL A   1      36.281  32.786  38.166  1.00  0.00    -0.744 OA
ENDBRANCH  67  70
ENDBRANCH  49  63
BRANCH  50  74
ATOM     74  C   UNL A   1      41.881  26.789  27.673  1.00  0.00     0.023 A 
ATOM     75  C   UNL A   1      42.479  27.411  26.559  1.00  0.00     0.012 A 
ATOM     76  C   UNL A   1      41.602  25.409  27.622  1.00  0.00     0.148 A 
ATOM     77  C   UNL A   1      42.774  26.679  25.408  1.00  0.00     0.002 A 
ATOM     78  C   UNL A   1      41.944  24.677  26.492  1.00  0.00     0.091 A 
ATOM     79  F   UNL A   1      41.028  24.839  28.691  1.00  0.00    -0.205 F 
ATOM     80  C   UNL A   1      42.516  25.312  25.378  1.00  0.00     0.022 A 
BRANCH  78  81
ATOM     81  S   UNL A   1      41.772  22.889  26.404  1.00  0.00     0.127 S 
ATOM     82  O   UNL A   1      42.508  22.459  27.590  1.00  0.00    -0.237 OA
ATOM     83  O   UNL A   1      40.321  22.723  26.483  1.00  0.00    -0.237 OA
ATOM     84  O   UNL A   1      42.353  22.500  25.126  1.00  0.00    -0.744 OA
ENDBRANCH  78  81
ENDBRANCH  50  74
BRANCH  62  85
ATOM     85  C   UNL A   1      44.757  27.008  34.039  1.00  0.00     0.023 A 
ATOM     86  C   UNL A   1      46.077  27.486  33.915  1.00  0.00     0.012 A 
ATOM     87  C   UNL A   1      44.502  25.875  34.837  1.00  0.00     0.148 A 
ATOM     88  C   UNL A   1      47.129  26.831  34.555  1.00  0.00     0.002 A 
ATOM     89  C   UNL A   1      45.549  25.257  35.511  1.00  0.00     0.091 A 
ATOM     90  F   UNL A   1      43.242  25.425  34.924  1.00  0.00    -0.205 F 
ATOM     91  C   UNL A   1      46.863  25.727  35.363  1.00  0.00     0.022 A 
BRANCH  89  92
ATOM     92  S   UNL A   1      45.286  23.892  36.649  1.00  0.00     0.127 S 
ATOM     93  O   UNL A   1      44.460  24.518  37.679  1.00  0.00    -0.237 OA
ATOM     94  O   UNL A   1      44.583  22.921  35.811  1.00  0.00    -0.237 OA
ATOM     95  O   UNL A   1      46.611  23.469  37.079  1.00  0.00    -0.744 OA
ENDBRANCH  89  92
ENDBRANCH  62  85
ENDBRANCH  36  37
ENDBRANCH  28  31
ENDBRANCH   1  27
TORSDOF 15
ENDMDL
MODEL 3
REMARK VINA RESULT:     -12.9      0.555      7.807
REMARK SMILES C[C@@H]1CN(C(=O)Nc2ccc(O)c(C(=O)NCCCNC(=O)c3ccc(-c4c5nc(c(-c6cccc(S(=O)(=O)[O-])c6F)c6ccc([nH]6)c(-c6cccc(S(=O)(=O)[O-])c6F)c6nc(c(-c7cccc(S(=O)(=O)[O-])c7F)c7ccc4[nH]7)C=C6)C=C5)cc3)c2)C[C@H]1C
REMARK SMILES IDX 19 1 18 2 17 3 16 4 14 5 15 6 13 8 8 9 9 10 86 11 10 12
REMARK SMILES IDX 11 13 7 14 1 15 2 16 3 17 88 18 4 19 87 20 89 21 5 22 6 23
REMARK SMILES IDX 12 25 20 27 21 28 22 30 23 31 24 32 85 33 25 34 84 35 26 36
REMARK SMILES IDX 27 37 28 38 78 39 29 40 83 41 77 42 79 43 30 44 82 45 76 46
REMARK SMILES IDX 75 47 31 49 63 50 43 51 62 52 44 53 47 54 61 55 80 56 45 57
REMARK SMILES IDX 46 58 60 60 81 61 48 62 32 63 33 64 41 65 34 66 36 67 42 68
REMARK SMILES IDX 35 69 37 70 38 71 39 72 40 73 64 74 65 75 73 76 66 77 68 78
REMARK SMILES IDX 74 79 67 80 69 81 70 82 71 83 72 84 49 85 50 86 58 87 51 88
REMARK SMILES IDX 53 89 59 90 52 91 54 92 55 93 56 94 57 95
REMARK H PARENT 16 7 7 24 12 26 20 29 79 48 47 59
REMARK Flexibility Score: inf
ROOT
ATOM      1  C   UNL A   1      32.704  32.629  27.208  1.00  0.00     0.118 C 
ENDROOT
BRANCH   1   2
ATOM      2  C   UNL A   1      31.421  32.172  26.534  1.00  0.00     0.042 C 
BRANCH   2   3
ATOM      3  C   UNL A   1      31.349  30.670  26.264  1.00  0.00     0.118 C 
BRANCH   3   4
ATOM      4  N   UNL A   1      32.326  30.263  25.276  1.00  0.00    -0.352 N 
ATOM      5  C   UNL A   1      32.377  29.204  24.410  1.00  0.00     0.255 C 
ATOM      6  O   UNL A   1      33.346  29.176  23.644  1.00  0.00    -0.269 OA
ATOM      7  H   UNL A   1      33.104  30.863  25.217  1.00  0.00     0.163 HD
BRANCH   5   8
ATOM      8  C   UNL A   1      31.333  28.148  24.252  1.00  0.00     0.083 A 
ATOM      9  C   UNL A   1      30.281  26.256  25.381  1.00  0.00     0.043 A 
ATOM     10  C   UNL A   1      29.352  26.142  24.355  1.00  0.00     0.030 A 
ATOM     11  C   UNL A   1      31.202  27.303  25.372  1.00  0.00     0.044 A 
ATOM     12  C   UNL A   1      29.453  26.970  23.243  1.00  0.00     0.049 A 
ATOM     13  C   UNL A   1      30.460  27.940  23.175  1.00  0.00     0.128 A 
BRANCH   9  14
ATOM     14  N   UNL A   1      30.334  25.335  26.427  1.00  0.00    -0.308 N 
ATOM     15  C   UNL A   1      33.927  23.286  22.939  1.00  0.00     0.010 C 
ATOM     16  C   UNL A   1      32.631  22.825  23.585  1.00  0.00     0.010 C 
ATOM     17  C   UNL A   1      31.902  23.972  24.281  1.00  0.00     0.125 C 
ATOM     18  C   UNL A   1      32.793  21.802  24.711  1.00  0.00     0.010 C 
ATOM     19  N   UNL A   1      31.150  23.365  25.378  1.00  0.00    -0.324 N 
ATOM     20  C   UNL A   1      31.473  21.949  25.475  1.00  0.00     0.125 C 
ATOM     21  C   UNL A   1      33.028  20.389  24.210  1.00  0.00     0.010 C 
ATOM     22  C   UNL A   1      30.472  23.979  26.406  1.00  0.00     0.321 C 
ATOM     23  O   UNL A   1      30.099  23.349  27.400  1.00  0.00    -0.248 OA
ATOM     24  H   UNL A   1      30.261  25.728  27.328  1.00  0.00     0.171 HD
ENDBRANCH   9  14
BRANCH  13  25
ATOM     25  O   UNL A   1      30.522  28.666  22.028  1.00  0.00    -0.507 OA
ATOM     26  H   UNL A   1      30.135  28.333  21.242  1.00  0.00     0.293 HD
ENDBRANCH  13  25
ENDBRANCH   5   8
ENDBRANCH   3   4
ENDBRANCH   2   3
ENDBRANCH   1   2
BRANCH   1  27
ATOM     27  N   UNL A   1      32.601  33.985  27.725  1.00  0.00    -0.352 N 
ATOM     28  C   UNL A   1      33.251  34.571  28.783  1.00  0.00     0.251 C 
ATOM     29  H   UNL A   1      31.972  34.571  27.243  1.00  0.00     0.163 HD
ATOM     30  O   UNL A   1      32.862  35.661  29.198  1.00  0.00    -0.269 OA
BRANCH  28  31
ATOM     31  C   UNL A   1      34.402  33.900  29.435  1.00  0.00     0.039 A 
ATOM     32  C   UNL A   1      35.700  34.284  29.081  1.00  0.00     0.014 A 
ATOM     33  C   UNL A   1      34.213  32.868  30.358  1.00  0.00     0.014 A 
ATOM     34  C   UNL A   1      36.800  33.665  29.682  1.00  0.00     0.010 A 
ATOM     35  C   UNL A   1      35.305  32.312  31.017  1.00  0.00     0.010 A 
ATOM     36  C   UNL A   1      36.611  32.689  30.672  1.00  0.00    -0.014 A 
BRANCH  36  37
ATOM     37  C   UNL A   1      37.756  32.024  31.343  1.00  0.00     0.031 A 
ATOM     38  C   UNL A   1      38.252  32.538  32.669  1.00  0.00     0.074 A 
ATOM     39  C   UNL A   1      38.412  31.025  30.719  1.00  0.00     0.049 A 
ATOM     40  N   UNL A   1      39.285  32.152  33.372  1.00  0.00    -0.248 NA
ATOM     41  C   UNL A   1      37.507  33.660  33.266  1.00  0.00     0.031 C 
ATOM     42  C   UNL A   1      38.069  30.483  29.403  1.00  0.00     0.029 A 
ATOM     43  N   UNL A   1      39.519  30.309  31.096  1.00  0.00    -0.354 N 
ATOM     44  C   UNL A   1      39.345  33.013  34.462  1.00  0.00     0.074 A 
ATOM     45  C   UNL A   1      38.261  33.960  34.312  1.00  0.00     0.031 C 
ATOM     46  C   UNL A   1      38.941  29.513  29.087  1.00  0.00     0.029 A 
ATOM     47  C   UNL A   1      39.924  29.385  30.160  1.00  0.00     0.049 A 
ATOM     48  H   UNL A   1      39.981  30.443  31.955  1.00  0.00     0.167 HD
ATOM     49  C   UNL A   1      40.206  33.001  35.508  1.00  0.00     0.034 A 
ATOM     50  C   UNL A   1      40.968  28.534  30.167  1.00  0.00     0.034 A 
ATOM     51  C   UNL A   1      41.243  32.021  35.680  1.00  0.00     0.049 A 
ATOM     52  C   UNL A   1      41.883  28.508  31.362  1.00  0.00     0.074 A 
ATOM     53  C   UNL A   1      42.098  31.851  36.754  1.00  0.00     0.029 A 
ATOM     54  N   UNL A   1      41.570  31.046  34.749  1.00  0.00    -0.354 N 
ATOM     55  N   UNL A   1      41.826  29.223  32.458  1.00  0.00    -0.248 NA
ATOM     56  C   UNL A   1      42.984  27.535  31.333  1.00  0.00     0.031 C 
ATOM     57  C   UNL A   1      42.958  30.787  36.463  1.00  0.00     0.029 A 
ATOM     58  C   UNL A   1      42.623  30.279  35.217  1.00  0.00     0.049 A 
ATOM     59  H   UNL A   1      41.121  30.920  33.883  1.00  0.00     0.167 HD
ATOM     60  C   UNL A   1      42.857  28.759  33.270  1.00  0.00     0.074 A 
ATOM     61  C   UNL A   1      43.514  27.694  32.540  1.00  0.00     0.031 C 
ATOM     62  C   UNL A   1      43.229  29.184  34.502  1.00  0.00     0.034 A 
BRANCH  49  63
ATOM     63  C   UNL A   1      40.027  34.056  36.569  1.00  0.00     0.023 A 
ATOM     64  C   UNL A   1      40.348  35.400  36.282  1.00  0.00     0.012 A 
ATOM     65  C   UNL A   1      39.517  33.728  37.841  1.00  0.00     0.148 A 
ATOM     66  C   UNL A   1      40.213  36.389  37.256  1.00  0.00     0.002 A 
ATOM     67  C   UNL A   1      39.340  34.728  38.792  1.00  0.00     0.091 A 
ATOM     68  F   UNL A   1      39.238  32.445  38.109  1.00  0.00    -0.205 F 
ATOM     69  C   UNL A   1      39.701  36.055  38.506  1.00  0.00     0.022 A 
BRANCH  67  70
ATOM     70  S   UNL A   1      38.610  34.405  40.401  1.00  0.00     0.127 S 
ATOM     71  O   UNL A   1      39.691  33.693  41.079  1.00  0.00    -0.237 OA
ATOM     72  O   UNL A   1      38.360  35.756  40.907  1.00  0.00    -0.237 OA
ATOM     73  O   UNL A   1      37.407  33.628  40.141  1.00  0.00    -0.744 OA
ENDBRANCH  67  70
ENDBRANCH  49  63
BRANCH  50  74
ATOM     74  C   UNL A   1      41.139  27.568  29.044  1.00  0.00     0.023 A 
ATOM     75  C   UNL A   1      40.385  26.379  29.049  1.00  0.00     0.012 A 
ATOM     76  C   UNL A   1      41.991  27.838  27.955  1.00  0.00     0.148 A 
ATOM     77  C   UNL A   1      40.491  25.464  28.000  1.00  0.00     0.002 A 
ATOM     78  C   UNL A   1      42.053  26.947  26.890  1.00  0.00     0.091 A 
ATOM     79  F   UNL A   1      42.704  28.973  27.973  1.00  0.00    -0.205 F 
ATOM     80  C   UNL A   1      41.316  25.753  26.917  1.00  0.00     0.022 A 
BRANCH  78  81
ATOM     81  S   UNL A   1      42.986  27.288  25.392  1.00  0.00     0.127 S 
ATOM     82  O   UNL A   1      42.905  26.010  24.691  1.00  0.00    -0.237 OA
ATOM     83  O   UNL A   1      42.207  28.372  24.793  1.00  0.00    -0.237 OA
ATOM     84  O   UNL A   1      44.318  27.680  25.836  1.00  0.00    -0.744 OA
ENDBRANCH  78  81
ENDBRANCH  50  74
BRANCH  62  85
ATOM     85  C   UNL A   1      44.376  28.473  35.171  1.00  0.00     0.023 A 
ATOM     86  C   UNL A   1      45.702  28.853  34.882  1.00  0.00     0.012 A 
ATOM     87  C   UNL A   1      44.136  27.491  36.153  1.00  0.00     0.148 A 
ATOM     88  C   UNL A   1      46.772  28.248  35.542  1.00  0.00     0.002 A 
ATOM     89  C   UNL A   1      45.204  26.927  36.840  1.00  0.00     0.091 A 
ATOM     90  F   UNL A   1      42.868  27.129  36.398  1.00  0.00    -0.205 F 
ATOM     91  C   UNL A   1      46.522  27.296  36.528  1.00  0.00     0.022 A 
BRANCH  89  92
ATOM     92  S   UNL A   1      44.972  25.768  38.193  1.00  0.00     0.127 S 
ATOM     93  O   UNL A   1      44.102  26.527  39.089  1.00  0.00    -0.237 OA
ATOM     94  O   UNL A   1      44.324  24.638  37.526  1.00  0.00    -0.237 OA
ATOM     95  O   UNL A   1      46.305  25.481  38.707  1.00  0.00    -0.744 OA
ENDBRANCH  89  92
ENDBRANCH  62  85
ENDBRANCH  36  37
ENDBRANCH  28  31
ENDBRANCH   1  27
TORSDOF 15
ENDMDL
