MODEL 1
REMARK VINA RESULT:     -12.7      0.000      0.000
REMARK SMILES COc1ccc(CCN2C(=O)CC[C@@H](C(=O)NCCCNC(=O)c3ccc(-c4c5nc(c(-c6cccc(S(=O)(=O)[O-])c6F)c6ccc([nH]6)c(-c6cccc(S(=O)(=O)[O-])c6F)c6nc(c(-c7cccc(S(=O)(=O)[O-])c7F)c7ccc4[nH]7)C=C6)C=C5)cc3)[C@@H]2c2ccc(Cl)cc2)cc1OC
REMARK SMILES IDX 18 1 17 2 15 3 16 4 14 6 9 7 10 8 87 9 11 10 12 11 13 12
REMARK SMILES IDX 8 13 7 14 6 15 3 16 4 17 96 18 5 19 95 20 2 21 1 22 97 23
REMARK SMILES IDX 98 24 88 25 89 26 94 27 90 28 93 29 91 30 92 31 19 32 20 33
REMARK SMILES IDX 21 34 22 35 23 37 24 38 25 39 86 40 26 41 85 42 27 43 28 44
REMARK SMILES IDX 29 45 79 46 30 47 84 48 78 49 80 50 31 51 83 52 77 53 76 54
REMARK SMILES IDX 32 56 64 57 44 58 63 59 45 60 48 61 62 62 81 63 46 64 47 65
REMARK SMILES IDX 61 67 82 68 49 69 33 70 34 71 42 72 35 73 37 74 43 75 36 76
REMARK SMILES IDX 38 77 39 78 40 79 41 80 65 81 66 82 74 83 67 84 69 85 75 86
REMARK SMILES IDX 68 87 70 88 71 89 72 90 73 91 50 92 51 93 59 94 52 95 54 96
REMARK SMILES IDX 60 97 53 98 55 99 56 100 57 101 58 102
REMARK H PARENT 17 5 21 36 80 55 48 66
REMARK Flexibility Score: inf
ROOT
ATOM      1  C   UNL A   1      31.749  30.779  26.357  1.00  0.00     0.117 C 
ENDROOT
BRANCH   1   2
ATOM      2  N   UNL A   1      31.234  30.325  25.079  1.00  0.00    -0.356 N 
ATOM      3  C   UNL A   1      31.282  29.094  24.499  1.00  0.00     0.225 C 
ATOM      4  O   UNL A   1      30.617  28.926  23.477  1.00  0.00    -0.275 OA
ATOM      5  H   UNL A   1      30.779  31.016  24.546  1.00  0.00     0.163 HD
BRANCH   3   6
ATOM      6  C   UNL A   1      32.118  27.976  25.131  1.00  0.00     0.106 C 
ATOM      7  N   UNL A   1      32.707  26.571  23.102  1.00  0.00    -0.335 N 
ATOM      8  C   UNL A   1      33.427  27.685  22.665  1.00  0.00     0.223 C 
ATOM      9  C   UNL A   1      31.905  26.637  24.366  1.00  0.00     0.128 C 
ATOM     10  O   UNL A   1      33.634  27.935  21.479  1.00  0.00    -0.275 OA
ATOM     11  C   UNL A   1      34.085  28.546  23.725  1.00  0.00     0.101 C 
ATOM     12  C   UNL A   1      33.613  28.262  25.133  1.00  0.00     0.026 C 
BRANCH   7  13
ATOM     13  C   UNL A   1      32.300  25.593  22.080  1.00  0.00     0.125 C 
BRANCH  13  14
ATOM     14  C   UNL A   1      33.320  24.486  21.696  1.00  0.00     0.057 C 
BRANCH  14  15
ATOM     15  C   UNL A   1      33.482  23.294  22.621  1.00  0.00    -0.042 A 
ATOM     16  C   UNL A   1      33.791  21.141  24.429  1.00  0.00     0.160 A 
ATOM     17  C   UNL A   1      32.541  21.432  23.881  1.00  0.00     0.051 A 
ATOM     18  C   UNL A   1      34.901  21.921  24.080  1.00  0.00     0.160 A 
ATOM     19  C   UNL A   1      32.388  22.520  23.021  1.00  0.00     0.008 A 
ATOM     20  C   UNL A   1      34.734  22.981  23.171  1.00  0.00     0.054 A 
BRANCH  16  21
ATOM     21  O   UNL A   1      33.916  20.051  25.245  1.00  0.00    -0.493 OA
ATOM     22  C   UNL A   1      33.725  18.823  24.539  1.00  0.00     0.278 C 
ENDBRANCH  16  21
BRANCH  18  23
ATOM     23  O   UNL A   1      36.191  21.789  24.524  1.00  0.00    -0.493 OA
ATOM     24  C   UNL A   1      36.834  22.953  25.025  1.00  0.00     0.278 C 
ENDBRANCH  18  23
ENDBRANCH  14  15
ENDBRANCH  13  14
ENDBRANCH   7  13
BRANCH   9  25
ATOM     25  C   UNL A   1      32.084  25.436  25.320  1.00  0.00    -0.025 A 
ATOM     26  C   UNL A   1      31.018  24.659  25.793  1.00  0.00     0.007 A 
ATOM     27  C   UNL A   1      33.378  25.094  25.771  1.00  0.00     0.007 A 
ATOM     28  C   UNL A   1      31.221  23.598  26.684  1.00  0.00     0.021 A 
ATOM     29  C   UNL A   1      33.590  24.009  26.628  1.00  0.00     0.021 A 
ATOM     30  C   UNL A   1      32.507  23.272  27.090  1.00  0.00     0.041 A 
ATOM     31  Cl  UNL A   1      32.761  21.960  28.173  1.00  0.00    -0.084 Cl
ENDBRANCH   9  25
ENDBRANCH   3   6
ENDBRANCH   1   2
BRANCH   1  32
ATOM     32  C   UNL A   1      31.615  32.286  26.547  1.00  0.00     0.042 C 
BRANCH  32  33
ATOM     33  C   UNL A   1      32.838  32.962  27.156  1.00  0.00     0.118 C 
BRANCH  33  34
ATOM     34  N   UNL A   1      32.548  34.291  27.676  1.00  0.00    -0.352 N 
ATOM     35  C   UNL A   1      33.061  34.946  28.766  1.00  0.00     0.251 C 
ATOM     36  H   UNL A   1      31.877  34.799  27.165  1.00  0.00     0.163 HD
ATOM     37  O   UNL A   1      32.527  35.994  29.140  1.00  0.00    -0.269 OA
BRANCH  35  38
ATOM     38  C   UNL A   1      34.225  34.408  29.502  1.00  0.00     0.039 A 
ATOM     39  C   UNL A   1      34.011  33.762  30.723  1.00  0.00     0.014 A 
ATOM     40  C   UNL A   1      35.525  34.561  29.014  1.00  0.00     0.014 A 
ATOM     41  C   UNL A   1      35.091  33.218  31.420  1.00  0.00     0.010 A 
ATOM     42  C   UNL A   1      36.590  33.944  29.667  1.00  0.00     0.010 A 
ATOM     43  C   UNL A   1      36.387  33.272  30.881  1.00  0.00    -0.014 A 
BRANCH  43  44
ATOM     44  C   UNL A   1      37.534  32.622  31.567  1.00  0.00     0.031 A 
ATOM     45  C   UNL A   1      38.262  31.472  30.921  1.00  0.00     0.074 A 
ATOM     46  C   UNL A   1      37.874  33.019  32.810  1.00  0.00     0.049 A 
ATOM     47  N   UNL A   1      39.256  30.762  31.385  1.00  0.00    -0.248 NA
ATOM     48  C   UNL A   1      37.797  31.050  29.589  1.00  0.00     0.031 C 
ATOM     49  C   UNL A   1      37.200  34.069  33.576  1.00  0.00     0.029 A 
ATOM     50  N   UNL A   1      38.858  32.571  33.656  1.00  0.00    -0.354 N 
ATOM     51  C   UNL A   1      39.515  29.792  30.423  1.00  0.00     0.074 A 
ATOM     52  C   UNL A   1      38.548  29.982  29.364  1.00  0.00     0.031 C 
ATOM     53  C   UNL A   1      37.796  34.193  34.772  1.00  0.00     0.029 A 
ATOM     54  C   UNL A   1      38.869  33.211  34.875  1.00  0.00     0.049 A 
ATOM     55  H   UNL A   1      39.495  31.861  33.415  1.00  0.00     0.167 HD
ATOM     56  C   UNL A   1      40.487  28.848  30.406  1.00  0.00     0.034 A 
ATOM     57  C   UNL A   1      39.650  33.021  35.958  1.00  0.00     0.034 A 
ATOM     58  C   UNL A   1      41.467  28.683  31.446  1.00  0.00     0.049 A 
ATOM     59  C   UNL A   1      40.736  31.982  35.902  1.00  0.00     0.074 A 
ATOM     60  C   UNL A   1      42.539  27.808  31.485  1.00  0.00     0.029 A 
ATOM     61  N   UNL A   1      41.491  29.396  32.634  1.00  0.00    -0.354 N 
ATOM     62  N   UNL A   1      41.061  31.178  34.920  1.00  0.00    -0.248 NA
ATOM     63  C   UNL A   1      41.588  31.850  37.093  1.00  0.00     0.031 C 
ATOM     64  C   UNL A   1      43.193  27.972  32.712  1.00  0.00     0.029 A 
ATOM     65  C   UNL A   1      42.551  28.974  33.420  1.00  0.00     0.049 A 
ATOM     66  H   UNL A   1      40.848  30.099  32.884  1.00  0.00     0.167 HD
ATOM     67  C   UNL A   1      42.177  30.473  35.356  1.00  0.00     0.074 A 
ATOM     68  C   UNL A   1      42.484  30.962  36.685  1.00  0.00     0.031 C 
ATOM     69  C   UNL A   1      42.876  29.501  34.721  1.00  0.00     0.034 A 
BRANCH  56  70
ATOM     70  C   UNL A   1      40.567  27.947  29.201  1.00  0.00     0.023 A 
ATOM     71  C   UNL A   1      39.681  26.855  29.087  1.00  0.00     0.012 A 
ATOM     72  C   UNL A   1      41.472  28.212  28.154  1.00  0.00     0.148 A 
ATOM     73  C   UNL A   1      39.719  26.020  27.971  1.00  0.00     0.002 A 
ATOM     74  C   UNL A   1      41.471  27.404  27.022  1.00  0.00     0.091 A 
ATOM     75  F   UNL A   1      42.319  29.242  28.286  1.00  0.00    -0.205 F 
ATOM     76  C   UNL A   1      40.605  26.301  26.935  1.00  0.00     0.022 A 
BRANCH  74  77
ATOM     77  S   UNL A   1      42.515  27.729  25.596  1.00  0.00     0.127 S 
ATOM     78  O   UNL A   1      42.292  26.530  24.789  1.00  0.00    -0.237 OA
ATOM     79  O   UNL A   1      41.919  28.949  25.051  1.00  0.00    -0.237 OA
ATOM     80  O   UNL A   1      43.866  27.889  26.114  1.00  0.00    -0.744 OA
ENDBRANCH  74  77
ENDBRANCH  56  70
BRANCH  57  81
ATOM     81  C   UNL A   1      39.472  33.878  37.164  1.00  0.00     0.023 A 
ATOM     82  C   UNL A   1      39.935  35.208  37.144  1.00  0.00     0.012 A 
ATOM     83  C   UNL A   1      38.833  33.391  38.322  1.00  0.00     0.148 A 
ATOM     84  C   UNL A   1      39.799  36.027  38.266  1.00  0.00     0.002 A 
ATOM     85  C   UNL A   1      38.648  34.229  39.415  1.00  0.00     0.091 A 
ATOM     86  F   UNL A   1      38.407  32.120  38.324  1.00  0.00    -0.205 F 
ATOM     87  C   UNL A   1      39.147  35.541  39.396  1.00  0.00     0.022 A 
BRANCH  85  88
ATOM     88  S   UNL A   1      37.706  33.733  40.861  1.00  0.00     0.127 S 
ATOM     89  O   UNL A   1      38.638  32.833  41.532  1.00  0.00    -0.237 OA
ATOM     90  O   UNL A   1      37.492  35.015  41.533  1.00  0.00    -0.237 OA
ATOM     91  O   UNL A   1      36.490  33.117  40.347  1.00  0.00    -0.744 OA
ENDBRANCH  85  88
ENDBRANCH  57  81
BRANCH  69  92
ATOM     92  C   UNL A   1      44.074  28.924  35.430  1.00  0.00     0.023 A 
ATOM     93  C   UNL A   1      45.350  29.488  35.234  1.00  0.00     0.012 A 
ATOM     94  C   UNL A   1      43.922  27.860  36.341  1.00  0.00     0.148 A 
ATOM     95  C   UNL A   1      46.462  28.978  35.904  1.00  0.00     0.002 A 
ATOM     96  C   UNL A   1      45.024  27.393  37.046  1.00  0.00     0.091 A 
ATOM     97  F   UNL A   1      42.702  27.325  36.502  1.00  0.00    -0.205 F 
ATOM     98  C   UNL A   1      46.297  27.939  36.817  1.00  0.00     0.022 A 
BRANCH  96  99
ATOM     99  S   UNL A   1      44.891  26.126  38.313  1.00  0.00     0.127 S 
ATOM    100  O   UNL A   1      43.989  26.759  39.274  1.00  0.00    -0.237 OA
ATOM    101  O   UNL A   1      44.306  25.008  37.571  1.00  0.00    -0.237 OA
ATOM    102  O   UNL A   1      46.247  25.891  38.791  1.00  0.00    -0.744 OA
ENDBRANCH  96  99
ENDBRANCH  69  92
ENDBRANCH  43  44
ENDBRANCH  35  38
ENDBRANCH  33  34
ENDBRANCH  32  33
ENDBRANCH   1  32
TORSDOF 19
ENDMDL
MODEL 2
REMARK VINA RESULT:     -12.5      5.747     11.851
REMARK SMILES COc1ccc(CCN2C(=O)CC[C@@H](C(=O)NCCCNC(=O)c3ccc(-c4c5nc(c(-c6cccc(S(=O)(=O)[O-])c6F)c6ccc([nH]6)c(-c6cccc(S(=O)(=O)[O-])c6F)c6nc(c(-c7cccc(S(=O)(=O)[O-])c7F)c7ccc4[nH]7)C=C6)C=C5)cc3)[C@@H]2c2ccc(Cl)cc2)cc1OC
REMARK SMILES IDX 18 1 17 2 15 3 16 4 14 6 9 7 10 8 87 9 11 10 12 11 13 12
REMARK SMILES IDX 8 13 7 14 6 15 3 16 4 17 96 18 5 19 95 20 2 21 1 22 97 23
REMARK SMILES IDX 98 24 88 25 89 26 94 27 90 28 93 29 91 30 92 31 19 32 20 33
REMARK SMILES IDX 21 34 22 35 23 37 24 38 25 39 86 40 26 41 85 42 27 43 28 44
REMARK SMILES IDX 29 45 79 46 30 47 84 48 78 49 80 50 31 51 83 52 77 53 76 54
REMARK SMILES IDX 32 56 64 57 44 58 63 59 45 60 48 61 62 62 81 63 46 64 47 65
REMARK SMILES IDX 61 67 82 68 49 69 33 70 34 71 42 72 35 73 37 74 43 75 36 76
REMARK SMILES IDX 38 77 39 78 40 79 41 80 65 81 66 82 74 83 67 84 69 85 75 86
REMARK SMILES IDX 68 87 70 88 71 89 72 90 73 91 50 92 51 93 59 94 52 95 54 96
REMARK SMILES IDX 60 97 53 98 55 99 56 100 57 101 58 102
REMARK H PARENT 17 5 21 36 80 55 48 66
REMARK Flexibility Score: inf
ROOT
ATOM      1  C   UNL A   1      37.121  20.654  24.839  1.00  0.00     0.117 C 
ENDROOT
BRANCH   1   2
ATOM      2  N   UNL A   1      35.751  20.250  25.092  1.00  0.00    -0.356 N 
ATOM      3  C   UNL A   1      34.605  20.984  25.098  1.00  0.00     0.225 C 
ATOM      4  O   UNL A   1      33.542  20.368  25.174  1.00  0.00    -0.275 OA
ATOM      5  H   UNL A   1      35.631  19.294  25.291  1.00  0.00     0.163 HD
BRANCH   3   6
ATOM      6  C   UNL A   1      34.666  22.511  24.986  1.00  0.00     0.106 C 
ATOM      7  N   UNL A   1      32.433  23.186  25.984  1.00  0.00    -0.335 N 
ATOM      8  C   UNL A   1      32.918  22.650  27.178  1.00  0.00     0.223 C 
ATOM      9  C   UNL A   1      33.247  23.098  24.729  1.00  0.00     0.128 C 
ATOM     10  O   UNL A   1      32.193  22.182  28.055  1.00  0.00    -0.275 OA
ATOM     11  C   UNL A   1      34.404  22.778  27.443  1.00  0.00     0.101 C 
ATOM     12  C   UNL A   1      35.214  23.190  26.235  1.00  0.00     0.026 C 
BRANCH   7  13
ATOM     13  C   UNL A   1      30.971  23.305  25.848  1.00  0.00     0.125 C 
BRANCH  13  14
ATOM     14  C   UNL A   1      30.301  24.599  26.386  1.00  0.00     0.057 C 
BRANCH  14  15
ATOM     15  C   UNL A   1      30.367  25.857  25.539  1.00  0.00    -0.042 A 
ATOM     16  C   UNL A   1      30.592  28.178  23.940  1.00  0.00     0.160 A 
ATOM     17  C   UNL A   1      29.905  27.059  23.470  1.00  0.00     0.051 A 
ATOM     18  C   UNL A   1      31.173  28.153  25.215  1.00  0.00     0.160 A 
ATOM     19  C   UNL A   1      29.832  25.903  24.248  1.00  0.00     0.008 A 
ATOM     20  C   UNL A   1      31.043  26.995  26.003  1.00  0.00     0.054 A 
BRANCH  16  21
ATOM     21  O   UNL A   1      30.622  29.307  23.167  1.00  0.00    -0.493 OA
ATOM     22  C   UNL A   1      29.436  30.092  23.314  1.00  0.00     0.278 C 
ENDBRANCH  16  21
BRANCH  18  23
ATOM     23  O   UNL A   1      31.887  29.148  25.830  1.00  0.00    -0.493 OA
ATOM     24  C   UNL A   1      31.877  29.178  27.251  1.00  0.00     0.278 C 
ENDBRANCH  18  23
ENDBRANCH  14  15
ENDBRANCH  13  14
ENDBRANCH   7  13
BRANCH   9  25
ATOM     25  C   UNL A   1      33.343  24.406  23.916  1.00  0.00    -0.025 A 
ATOM     26  C   UNL A   1      32.896  24.529  22.594  1.00  0.00     0.007 A 
ATOM     27  C   UNL A   1      33.928  25.549  24.505  1.00  0.00     0.007 A 
ATOM     28  C   UNL A   1      33.032  25.726  21.881  1.00  0.00     0.021 A 
ATOM     29  C   UNL A   1      34.029  26.759  23.811  1.00  0.00     0.021 A 
ATOM     30  C   UNL A   1      33.589  26.839  22.495  1.00  0.00     0.041 A 
ATOM     31  Cl  UNL A   1      33.744  28.315  21.627  1.00  0.00    -0.084 Cl
ENDBRANCH   9  25
ENDBRANCH   3   6
ENDBRANCH   1   2
BRANCH   1  32
ATOM     32  C   UNL A   1      38.136  19.586  25.233  1.00  0.00     0.042 C 
BRANCH  32  33
ATOM     33  C   UNL A   1      39.385  20.119  25.924  1.00  0.00     0.118 C 
BRANCH  33  34
ATOM     34  N   UNL A   1      40.446  19.126  26.016  1.00  0.00    -0.352 N 
ATOM     35  C   UNL A   1      41.803  19.288  26.133  1.00  0.00     0.251 C 
ATOM     36  H   UNL A   1      40.142  18.191  25.988  1.00  0.00     0.163 HD
ATOM     37  O   UNL A   1      42.536  18.307  25.996  1.00  0.00    -0.269 OA
BRANCH  35  38
ATOM     38  C   UNL A   1      42.391  20.618  26.404  1.00  0.00     0.039 A 
ATOM     39  C   UNL A   1      42.865  21.377  25.330  1.00  0.00     0.014 A 
ATOM     40  C   UNL A   1      42.507  21.108  27.707  1.00  0.00     0.014 A 
ATOM     41  C   UNL A   1      43.396  22.648  25.558  1.00  0.00     0.010 A 
ATOM     42  C   UNL A   1      42.957  22.408  27.924  1.00  0.00     0.010 A 
ATOM     43  C   UNL A   1      43.415  23.190  26.854  1.00  0.00    -0.014 A 
BRANCH  43  44
ATOM     44  C   UNL A   1      43.895  24.575  27.102  1.00  0.00     0.031 A 
ATOM     45  C   UNL A   1      42.958  25.627  27.633  1.00  0.00     0.074 A 
ATOM     46  C   UNL A   1      45.161  24.905  26.777  1.00  0.00     0.049 A 
ATOM     47  N   UNL A   1      43.190  26.891  27.874  1.00  0.00    -0.248 NA
ATOM     48  C   UNL A   1      41.572  25.212  27.909  1.00  0.00     0.031 C 
ATOM     49  C   UNL A   1      46.145  23.997  26.183  1.00  0.00     0.029 A 
ATOM     50  N   UNL A   1      45.831  26.099  26.878  1.00  0.00    -0.354 N 
ATOM     51  C   UNL A   1      41.979  27.429  28.296  1.00  0.00     0.074 A 
ATOM     52  C   UNL A   1      41.005  26.361  28.243  1.00  0.00     0.031 C 
ATOM     53  C   UNL A   1      47.294  24.662  25.985  1.00  0.00     0.029 A 
ATOM     54  C   UNL A   1      47.121  26.050  26.401  1.00  0.00     0.049 A 
ATOM     55  H   UNL A   1      45.428  26.913  27.256  1.00  0.00     0.167 HD
ATOM     56  C   UNL A   1      41.709  28.688  28.718  1.00  0.00     0.034 A 
ATOM     57  C   UNL A   1      48.056  27.015  26.302  1.00  0.00     0.034 A 
ATOM     58  C   UNL A   1      42.688  29.738  28.800  1.00  0.00     0.049 A 
ATOM     59  C   UNL A   1      47.736  28.397  26.800  1.00  0.00     0.074 A 
ATOM     60  C   UNL A   1      42.530  31.024  29.288  1.00  0.00     0.029 A 
ATOM     61  N   UNL A   1      44.003  29.631  28.375  1.00  0.00    -0.354 N 
ATOM     62  N   UNL A   1      46.628  28.845  27.338  1.00  0.00    -0.248 NA
ATOM     63  C   UNL A   1      48.807  29.400  26.711  1.00  0.00     0.031 C 
ATOM     64  C   UNL A   1      43.743  31.704  29.128  1.00  0.00     0.029 A 
ATOM     65  C   UNL A   1      44.665  30.831  28.577  1.00  0.00     0.049 A 
ATOM     66  H   UNL A   1      44.406  28.822  27.985  1.00  0.00     0.167 HD
ATOM     67  C   UNL A   1      46.880  30.167  27.687  1.00  0.00     0.074 A 
ATOM     68  C   UNL A   1      48.255  30.440  27.319  1.00  0.00     0.031 C 
ATOM     69  C   UNL A   1      46.047  31.077  28.250  1.00  0.00     0.034 A 
BRANCH  56  70
ATOM     70  C   UNL A   1      40.301  28.988  29.168  1.00  0.00     0.023 A 
ATOM     71  C   UNL A   1      39.320  29.322  28.211  1.00  0.00     0.012 A 
ATOM     72  C   UNL A   1      39.934  28.879  30.524  1.00  0.00     0.148 A 
ATOM     73  C   UNL A   1      38.006  29.581  28.599  1.00  0.00     0.002 A 
ATOM     74  C   UNL A   1      38.611  29.091  30.897  1.00  0.00     0.091 A 
ATOM     75  F   UNL A   1      40.882  28.578  31.421  1.00  0.00    -0.205 F 
ATOM     76  C   UNL A   1      37.650  29.455  29.939  1.00  0.00     0.022 A 
BRANCH  74  77
ATOM     77  S   UNL A   1      38.031  28.873  32.584  1.00  0.00     0.127 S 
ATOM     78  O   UNL A   1      38.938  29.748  33.323  1.00  0.00    -0.237 OA
ATOM     79  O   UNL A   1      36.653  29.357  32.498  1.00  0.00    -0.237 OA
ATOM     80  O   UNL A   1      38.161  27.452  32.873  1.00  0.00    -0.744 OA
ENDBRANCH  74  77
ENDBRANCH  56  70
BRANCH  57  81
ATOM     81  C   UNL A   1      49.408  26.691  25.763  1.00  0.00     0.023 A 
ATOM     82  C   UNL A   1      50.304  25.937  26.546  1.00  0.00     0.012 A 
ATOM     83  C   UNL A   1      49.803  27.107  24.476  1.00  0.00     0.148 A 
ATOM     84  C   UNL A   1      51.582  25.636  26.075  1.00  0.00     0.002 A 
ATOM     85  C   UNL A   1      51.056  26.753  23.989  1.00  0.00     0.091 A 
ATOM     86  F   UNL A   1      48.939  27.830  23.750  1.00  0.00    -0.205 F 
ATOM     87  C   UNL A   1      51.954  26.034  24.793  1.00  0.00     0.022 A 
BRANCH  85  88
ATOM     88  S   UNL A   1      51.571  27.107  22.306  1.00  0.00     0.127 S 
ATOM     89  O   UNL A   1      51.823  28.544  22.366  1.00  0.00    -0.237 OA
ATOM     90  O   UNL A   1      52.767  26.274  22.176  1.00  0.00    -0.237 OA
ATOM     91  O   UNL A   1      50.460  26.695  21.458  1.00  0.00    -0.744 OA
ENDBRANCH  85  88
ENDBRANCH  57  81
BRANCH  69  92
ATOM     92  C   UNL A   1      46.604  32.445  28.548  1.00  0.00     0.023 A 
ATOM     93  C   UNL A   1      47.191  32.712  29.801  1.00  0.00     0.012 A 
ATOM     94  C   UNL A   1      46.602  33.448  27.559  1.00  0.00     0.148 A 
ATOM     95  C   UNL A   1      47.731  33.967  30.078  1.00  0.00     0.002 A 
ATOM     96  C   UNL A   1      47.190  34.679  27.823  1.00  0.00     0.091 A 
ATOM     97  F   UNL A   1      46.024  33.181  26.378  1.00  0.00    -0.205 F 
ATOM     98  C   UNL A   1      47.741  34.945  29.087  1.00  0.00     0.022 A 
BRANCH  96  99
ATOM     99  S   UNL A   1      47.338  35.963  26.577  1.00  0.00     0.127 S 
ATOM    100  O   UNL A   1      47.951  35.234  25.467  1.00  0.00    -0.237 OA
ATOM    101  O   UNL A   1      45.942  36.344  26.359  1.00  0.00    -0.237 OA
ATOM    102  O   UNL A   1      48.163  37.007  27.170  1.00  0.00    -0.744 OA
ENDBRANCH  96  99
ENDBRANCH  69  92
ENDBRANCH  43  44
ENDBRANCH  35  38
ENDBRANCH  33  34
ENDBRANCH  32  33
ENDBRANCH   1  32
TORSDOF 19
ENDMDL
MODEL 3
REMARK VINA RESULT:     -11.4      3.907      8.519
REMARK SMILES COc1ccc(CCN2C(=O)CC[C@@H](C(=O)NCCCNC(=O)c3ccc(-c4c5nc(c(-c6cccc(S(=O)(=O)[O-])c6F)c6ccc([nH]6)c(-c6cccc(S(=O)(=O)[O-])c6F)c6nc(c(-c7cccc(S(=O)(=O)[O-])c7F)c7ccc4[nH]7)C=C6)C=C5)cc3)[C@@H]2c2ccc(Cl)cc2)cc1OC
REMARK SMILES IDX 18 1 17 2 15 3 16 4 14 6 9 7 10 8 87 9 11 10 12 11 13 12
REMARK SMILES IDX 8 13 7 14 6 15 3 16 4 17 96 18 5 19 95 20 2 21 1 22 97 23
REMARK SMILES IDX 98 24 88 25 89 26 94 27 90 28 93 29 91 30 92 31 19 32 20 33
REMARK SMILES IDX 21 34 22 35 23 37 24 38 25 39 86 40 26 41 85 42 27 43 28 44
REMARK SMILES IDX 29 45 79 46 30 47 84 48 78 49 80 50 31 51 83 52 77 53 76 54
REMARK SMILES IDX 32 56 64 57 44 58 63 59 45 60 48 61 62 62 81 63 46 64 47 65
REMARK SMILES IDX 61 67 82 68 49 69 33 70 34 71 42 72 35 73 37 74 43 75 36 76
REMARK SMILES IDX 38 77 39 78 40 79 41 80 65 81 66 82 74 83 67 84 69 85 75 86
REMARK SMILES IDX 68 87 70 88 71 89 72 90 73 91 50 92 51 93 59 94 52 95 54 96
REMARK SMILES IDX 60 97 53 98 55 99 56 100 57 101 58 102
REMARK H PARENT 17 5 21 36 80 55 48 66
REMARK Flexibility Score: inf
ROOT
ATOM      1  C   UNL A   1      33.814  28.375  25.246  1.00  0.00     0.117 C 
ENDROOT
BRANCH   1   2
ATOM      2  N   UNL A   1      33.289  28.780  23.955  1.00  0.00    -0.356 N 
ATOM      3  C   UNL A   1      33.050  28.045  22.834  1.00  0.00     0.225 C 
ATOM      4  O   UNL A   1      32.440  28.597  21.919  1.00  0.00    -0.275 OA
ATOM      5  H   UNL A   1      33.073  29.737  23.877  1.00  0.00     0.163 HD
BRANCH   3   6
ATOM      6  C   UNL A   1      33.513  26.586  22.755  1.00  0.00     0.106 C 
ATOM      7  N   UNL A   1      31.958  25.468  24.420  1.00  0.00    -0.335 N 
ATOM      8  C   UNL A   1      30.930  25.821  23.544  1.00  0.00     0.223 C 
ATOM      9  C   UNL A   1      33.368  25.892  24.141  1.00  0.00     0.128 C 
ATOM     10  O   UNL A   1      29.771  26.022  23.906  1.00  0.00    -0.275 OA
ATOM     11  C   UNL A   1      31.250  25.827  22.063  1.00  0.00     0.101 C 
ATOM     12  C   UNL A   1      32.727  25.754  21.750  1.00  0.00     0.026 C 
BRANCH   7  13
ATOM     13  C   UNL A   1      31.585  25.200  25.819  1.00  0.00     0.125 C 
BRANCH  13  14
ATOM     14  C   UNL A   1      31.039  23.786  26.160  1.00  0.00     0.057 C 
BRANCH  14  15
ATOM     15  C   UNL A   1      31.894  22.578  25.827  1.00  0.00    -0.042 A 
ATOM     16  C   UNL A   1      33.541  20.385  25.135  1.00  0.00     0.160 A 
ATOM     17  C   UNL A   1      33.739  21.068  26.335  1.00  0.00     0.051 A 
ATOM     18  C   UNL A   1      32.518  20.788  24.267  1.00  0.00     0.160 A 
ATOM     19  C   UNL A   1      32.950  22.174  26.652  1.00  0.00     0.008 A 
ATOM     20  C   UNL A   1      31.700  21.872  24.630  1.00  0.00     0.054 A 
BRANCH  16  21
ATOM     21  O   UNL A   1      34.312  19.287  24.865  1.00  0.00    -0.493 OA
ATOM     22  C   UNL A   1      33.532  18.094  24.761  1.00  0.00     0.278 C 
ENDBRANCH  16  21
BRANCH  18  23
ATOM     23  O   UNL A   1      32.188  20.245  23.052  1.00  0.00    -0.493 OA
ATOM     24  C   UNL A   1      31.942  21.143  21.979  1.00  0.00     0.278 C 
ENDBRANCH  18  23
ENDBRANCH  14  15
ENDBRANCH  13  14
ENDBRANCH   7  13
BRANCH   9  25
ATOM     25  C   UNL A   1      34.431  24.784  24.302  1.00  0.00    -0.025 A 
ATOM     26  C   UNL A   1      35.270  24.675  25.419  1.00  0.00     0.007 A 
ATOM     27  C   UNL A   1      34.599  23.829  23.275  1.00  0.00     0.007 A 
ATOM     28  C   UNL A   1      36.244  23.673  25.510  1.00  0.00     0.021 A 
ATOM     29  C   UNL A   1      35.543  22.801  23.380  1.00  0.00     0.021 A 
ATOM     30  C   UNL A   1      36.370  22.735  24.495  1.00  0.00     0.041 A 
ATOM     31  Cl  UNL A   1      37.555  21.494  24.611  1.00  0.00    -0.084 Cl
ENDBRANCH   9  25
ENDBRANCH   3   6
ENDBRANCH   1   2
BRANCH   1  32
ATOM     32  C   UNL A   1      32.776  28.463  26.360  1.00  0.00     0.042 C 
BRANCH  32  33
ATOM     33  C   UNL A   1      33.303  29.017  27.679  1.00  0.00     0.118 C 
BRANCH  33  34
ATOM     34  N   UNL A   1      33.561  30.449  27.627  1.00  0.00    -0.352 N 
ATOM     35  C   UNL A   1      34.636  31.172  28.074  1.00  0.00     0.251 C 
ATOM     36  H   UNL A   1      32.849  30.983  27.205  1.00  0.00     0.163 HD
ATOM     37  O   UNL A   1      34.558  32.403  28.106  1.00  0.00    -0.269 OA
BRANCH  35  38
ATOM     38  C   UNL A   1      35.871  30.499  28.531  1.00  0.00     0.039 A 
ATOM     39  C   UNL A   1      36.995  30.516  27.701  1.00  0.00     0.014 A 
ATOM     40  C   UNL A   1      35.920  29.828  29.756  1.00  0.00     0.014 A 
ATOM     41  C   UNL A   1      38.182  29.914  28.126  1.00  0.00     0.010 A 
ATOM     42  C   UNL A   1      37.127  29.304  30.214  1.00  0.00     0.010 A 
ATOM     43  C   UNL A   1      38.269  29.333  29.402  1.00  0.00    -0.014 A 
BRANCH  43  44
ATOM     44  C   UNL A   1      39.548  28.767  29.903  1.00  0.00     0.031 A 
ATOM     45  C   UNL A   1      40.236  29.369  31.100  1.00  0.00     0.074 A 
ATOM     46  C   UNL A   1      40.132  27.753  29.233  1.00  0.00     0.049 A 
ATOM     47  N   UNL A   1      41.371  29.032  31.654  1.00  0.00    -0.248 NA
ATOM     48  C   UNL A   1      39.572  30.514  31.747  1.00  0.00     0.031 C 
ATOM     49  C   UNL A   1      39.607  27.132  28.015  1.00  0.00     0.029 A 
ATOM     50  N   UNL A   1      41.306  27.082  29.467  1.00  0.00    -0.354 N 
ATOM     51  C   UNL A   1      41.576  29.938  32.689  1.00  0.00     0.074 A 
ATOM     52  C   UNL A   1      40.464  30.863  32.663  1.00  0.00     0.031 C 
ATOM     53  C   UNL A   1      40.448  26.164  27.616  1.00  0.00     0.029 A 
ATOM     54  C   UNL A   1      41.588  26.118  28.525  1.00  0.00     0.049 A 
ATOM     55  H   UNL A   1      41.891  27.270  30.235  1.00  0.00     0.167 HD
ATOM     56  C   UNL A   1      42.581  29.980  33.597  1.00  0.00     0.034 A 
ATOM     57  C   UNL A   1      42.648  25.295  28.402  1.00  0.00     0.034 A 
ATOM     58  C   UNL A   1      43.668  29.039  33.639  1.00  0.00     0.049 A 
ATOM     59  C   UNL A   1      43.738  25.347  29.438  1.00  0.00     0.074 A 
ATOM     60  C   UNL A   1      44.691  28.950  34.566  1.00  0.00     0.029 A 
ATOM     61  N   UNL A   1      43.882  28.032  32.711  1.00  0.00    -0.354 N 
ATOM     62  N   UNL A   1      43.834  26.113  30.498  1.00  0.00    -0.248 NA
ATOM     63  C   UNL A   1      44.847  24.396  29.282  1.00  0.00     0.031 C 
ATOM     64  C   UNL A   1      45.541  27.907  34.181  1.00  0.00     0.029 A 
ATOM     65  C   UNL A   1      45.027  27.324  33.035  1.00  0.00     0.049 A 
ATOM     66  H   UNL A   1      43.305  27.848  31.934  1.00  0.00     0.167 HD
ATOM     67  C   UNL A   1      44.991  25.711  31.156  1.00  0.00     0.074 A 
ATOM     68  C   UNL A   1      45.550  24.618  30.384  1.00  0.00     0.031 C 
ATOM     69  C   UNL A   1      45.548  26.208  32.287  1.00  0.00     0.034 A 
BRANCH  56  70
ATOM     70  C   UNL A   1      42.528  31.056  34.651  1.00  0.00     0.023 A 
ATOM     71  C   UNL A   1      41.930  30.780  35.899  1.00  0.00     0.012 A 
ATOM     72  C   UNL A   1      43.121  32.315  34.435  1.00  0.00     0.148 A 
ATOM     73  C   UNL A   1      41.888  31.751  36.899  1.00  0.00     0.002 A 
ATOM     74  C   UNL A   1      43.120  33.261  35.454  1.00  0.00     0.091 A 
ATOM     75  F   UNL A   1      43.669  32.567  33.238  1.00  0.00    -0.205 F 
ATOM     76  C   UNL A   1      42.492  32.985  36.681  1.00  0.00     0.022 A 
BRANCH  74  77
ATOM     77  S   UNL A   1      43.942  34.852  35.305  1.00  0.00     0.127 S 
ATOM     78  O   UNL A   1      43.184  35.475  34.221  1.00  0.00    -0.237 OA
ATOM     79  O   UNL A   1      43.713  35.440  36.624  1.00  0.00    -0.237 OA
ATOM     80  O   UNL A   1      45.335  34.558  35.002  1.00  0.00    -0.744 OA
ENDBRANCH  74  77
ENDBRANCH  56  70
BRANCH  57  81
ATOM     81  C   UNL A   1      42.701  24.308  27.287  1.00  0.00     0.023 A 
ATOM     82  C   UNL A   1      43.376  24.641  26.097  1.00  0.00     0.012 A 
ATOM     83  C   UNL A   1      42.104  23.037  27.405  1.00  0.00     0.148 A 
ATOM     84  C   UNL A   1      43.424  23.744  25.030  1.00  0.00     0.002 A 
ATOM     85  C   UNL A   1      42.207  22.125  26.361  1.00  0.00     0.091 A 
ATOM     86  F   UNL A   1      41.459  22.741  28.542  1.00  0.00    -0.205 F 
ATOM     87  C   UNL A   1      42.849  22.483  25.166  1.00  0.00     0.022 A 
BRANCH  85  88
ATOM     88  S   UNL A   1      41.612  20.436  26.495  1.00  0.00     0.127 S 
ATOM     89  O   UNL A   1      42.136  20.036  27.797  1.00  0.00    -0.237 OA
ATOM     90  O   UNL A   1      40.162  20.623  26.442  1.00  0.00    -0.237 OA
ATOM     91  O   UNL A   1      42.167  19.731  25.347  1.00  0.00    -0.744 OA
ENDBRANCH  85  88
ENDBRANCH  57  81
BRANCH  69  92
ATOM     92  C   UNL A   1      46.806  25.551  32.794  1.00  0.00     0.023 A 
ATOM     93  C   UNL A   1      46.738  24.600  33.831  1.00  0.00     0.012 A 
ATOM     94  C   UNL A   1      48.050  25.833  32.196  1.00  0.00     0.148 A 
ATOM     95  C   UNL A   1      47.893  23.969  34.291  1.00  0.00     0.002 A 
ATOM     96  C   UNL A   1      49.189  25.160  32.622  1.00  0.00     0.091 A 
ATOM     97  F   UNL A   1      48.098  26.754  31.222  1.00  0.00    -0.205 F 
ATOM     98  C   UNL A   1      49.114  24.240  33.680  1.00  0.00     0.022 A 
BRANCH  96  99
ATOM     99  S   UNL A   1      50.786  25.372  31.830  1.00  0.00     0.127 S 
ATOM    100  O   UNL A   1      50.492  24.974  30.453  1.00  0.00    -0.237 OA
ATOM    101  O   UNL A   1      51.034  26.803  32.011  1.00  0.00    -0.237 OA
ATOM    102  O   UNL A   1      51.710  24.504  32.547  1.00  0.00    -0.744 OA
ENDBRANCH  96  99
ENDBRANCH  69  92
ENDBRANCH  43  44
ENDBRANCH  35  38
ENDBRANCH  33  34
ENDBRANCH  32  33
ENDBRANCH   1  32
TORSDOF 19
ENDMDL
