MODEL 1
REMARK VINA RESULT:     -12.7      0.000      0.000
REMARK SMILES CN(C)c1nccnc1N1CCC(Oc2ccc3ccccc3c2)(C(=O)NCCCNC(=O)c2ccc(-c3c4nc(c(-c5cccc(S(=O)(=O)[O-])c5F)c5ccc([nH]5)c(-c5cccc(S(=O)(=O)[O-])c5F)c5nc(c(-c6cccc(S(=O)(=O)[O-])c6F)c6ccc3[nH]6)C=C5)C=C4)cc2)CC1
REMARK SMILES IDX 29 1 28 2 27 3 25 4 26 5 13 7 10 8 11 9 98 10 12 11 97 12
REMARK SMILES IDX 9 13 4 14 5 15 6 16 8 17 7 18 2 19 1 20 3 21 14 22 15 23
REMARK SMILES IDX 16 24 24 25 17 26 23 27 18 28 22 29 19 30 21 31 20 32 30 33
REMARK SMILES IDX 31 34 32 35 33 37 34 38 35 39 96 40 36 41 95 42 37 43 38 44
REMARK SMILES IDX 39 45 89 46 40 47 94 48 88 49 90 50 41 51 93 52 87 53 86 54
REMARK SMILES IDX 42 56 74 57 54 58 73 59 55 60 58 61 72 62 91 63 56 64 57 65
REMARK SMILES IDX 71 67 92 68 59 69 43 70 44 71 52 72 45 73 47 74 53 75 46 76
REMARK SMILES IDX 48 77 49 78 50 79 51 80 75 81 76 82 84 83 77 84 79 85 85 86
REMARK SMILES IDX 78 87 80 88 81 89 82 90 83 91 60 92 61 93 69 94 62 95 64 96
REMARK SMILES IDX 70 97 63 98 65 99 66 100 67 101 68 102
REMARK H PARENT 27 6 31 36 90 55 58 66
REMARK Flexibility Score: inf
ROOT
ATOM      1  C   UNL A   1      32.074  31.586  27.148  1.00  0.00     0.042 C 
ENDROOT
BRANCH   1   2
ATOM      2  C   UNL A   1      32.581  30.170  26.921  1.00  0.00     0.118 C 
BRANCH   2   3
ATOM      3  N   UNL A   1      33.220  30.029  25.625  1.00  0.00    -0.353 N 
ATOM      4  C   UNL A   1      33.028  29.105  24.640  1.00  0.00     0.264 C 
ATOM      5  O   UNL A   1      33.643  29.312  23.587  1.00  0.00    -0.270 OA
ATOM      6  H   UNL A   1      33.900  30.712  25.426  1.00  0.00     0.163 HD
BRANCH   4   7
ATOM      7  C   UNL A   1      32.093  27.878  24.840  1.00  0.00     0.190 C 
ATOM      8  N   UNL A   1      33.840  25.671  24.366  1.00  0.00    -0.353 N 
ATOM      9  C   UNL A   1      33.955  26.363  25.629  1.00  0.00     0.123 C 
ATOM     10  C   UNL A   1      33.343  26.367  23.191  1.00  0.00     0.123 C 
ATOM     11  C   UNL A   1      32.609  26.968  25.972  1.00  0.00     0.080 C 
ATOM     12  C   UNL A   1      32.028  27.080  23.518  1.00  0.00     0.080 C 
BRANCH   8  13
ATOM     13  C   UNL A   1      33.971  24.293  24.331  1.00  0.00     0.171 A 
ATOM     14  C   UNL A   1      32.857  23.422  24.575  1.00  0.00     0.171 A 
ATOM     15  N   UNL A   1      33.035  22.077  24.662  1.00  0.00    -0.234 NA
ATOM     16  C   UNL A   1      34.288  21.623  24.442  1.00  0.00     0.134 A 
ATOM     17  N   UNL A   1      35.217  23.801  24.107  1.00  0.00    -0.234 NA
ATOM     18  C   UNL A   1      35.350  22.461  24.167  1.00  0.00     0.134 A 
BRANCH  14  19
ATOM     19  N   UNL A   1      31.549  23.927  24.690  1.00  0.00    -0.360 N 
ATOM     20  C   UNL A   1      30.934  23.801  25.994  1.00  0.00     0.145 C 
ATOM     21  C   UNL A   1      30.710  23.711  23.517  1.00  0.00     0.145 C 
ENDBRANCH  14  19
ENDBRANCH   8  13
BRANCH   7  22
ATOM     22  O   UNL A   1      30.823  28.535  25.113  1.00  0.00    -0.477 OA
BRANCH  22  23
ATOM     23  C   UNL A   1      30.142  29.079  24.065  1.00  0.00     0.121 A 
ATOM     24  C   UNL A   1      29.563  28.299  23.072  1.00  0.00     0.047 A 
ATOM     25  C   UNL A   1      29.922  30.455  24.087  1.00  0.00     0.055 A 
ATOM     26  C   UNL A   1      28.892  28.902  22.011  1.00  0.00     0.012 A 
ATOM     27  C   UNL A   1      29.205  31.075  23.052  1.00  0.00    -0.015 A 
ATOM     28  C   UNL A   1      28.715  30.291  21.983  1.00  0.00    -0.018 A 
ATOM     29  C   UNL A   1      28.962  32.458  23.053  1.00  0.00     0.009 A 
ATOM     30  C   UNL A   1      28.041  30.911  20.922  1.00  0.00     0.009 A 
ATOM     31  C   UNL A   1      28.268  33.057  22.002  1.00  0.00     0.001 A 
ATOM     32  C   UNL A   1      27.820  32.288  20.933  1.00  0.00     0.001 A 
ENDBRANCH  22  23
ENDBRANCH   7  22
ENDBRANCH   4   7
ENDBRANCH   2   3
ENDBRANCH   1   2
BRANCH   1  33
ATOM     33  C   UNL A   1      33.167  32.642  27.071  1.00  0.00     0.118 C 
BRANCH  33  34
ATOM     34  N   UNL A   1      32.735  33.929  27.598  1.00  0.00    -0.352 N 
ATOM     35  C   UNL A   1      33.131  34.585  28.736  1.00  0.00     0.251 C 
ATOM     36  H   UNL A   1      32.059  34.399  27.057  1.00  0.00     0.163 HD
ATOM     37  O   UNL A   1      32.505  35.570  29.123  1.00  0.00    -0.269 OA
BRANCH  35  38
ATOM     38  C   UNL A   1      34.300  34.100  29.499  1.00  0.00     0.039 A 
ATOM     39  C   UNL A   1      34.099  33.249  30.589  1.00  0.00     0.014 A 
ATOM     40  C   UNL A   1      35.593  34.487  29.141  1.00  0.00     0.014 A 
ATOM     41  C   UNL A   1      35.198  32.740  31.282  1.00  0.00     0.010 A 
ATOM     42  C   UNL A   1      36.688  33.908  29.773  1.00  0.00     0.010 A 
ATOM     43  C   UNL A   1      36.504  33.039  30.860  1.00  0.00    -0.014 A 
BRANCH  43  44
ATOM     44  C   UNL A   1      37.698  32.482  31.544  1.00  0.00     0.031 A 
ATOM     45  C   UNL A   1      38.462  31.350  30.905  1.00  0.00     0.074 A 
ATOM     46  C   UNL A   1      38.034  32.915  32.775  1.00  0.00     0.049 A 
ATOM     47  N   UNL A   1      39.446  30.641  31.391  1.00  0.00    -0.248 NA
ATOM     48  C   UNL A   1      38.043  30.943  29.552  1.00  0.00     0.031 C 
ATOM     49  C   UNL A   1      37.335  33.960  33.526  1.00  0.00     0.029 A 
ATOM     50  N   UNL A   1      39.025  32.501  33.630  1.00  0.00    -0.354 N 
ATOM     51  C   UNL A   1      39.729  29.677  30.431  1.00  0.00     0.074 A 
ATOM     52  C   UNL A   1      38.796  29.873  29.344  1.00  0.00     0.031 C 
ATOM     53  C   UNL A   1      37.915  34.101  34.728  1.00  0.00     0.029 A 
ATOM     54  C   UNL A   1      38.997  33.130  34.853  1.00  0.00     0.049 A 
ATOM     55  H   UNL A   1      39.692  31.818  33.391  1.00  0.00     0.167 HD
ATOM     56  C   UNL A   1      40.695  28.729  30.441  1.00  0.00     0.034 A 
ATOM     57  C   UNL A   1      39.744  32.933  35.959  1.00  0.00     0.034 A 
ATOM     58  C   UNL A   1      41.651  28.568  31.501  1.00  0.00     0.049 A 
ATOM     59  C   UNL A   1      40.831  31.890  35.930  1.00  0.00     0.074 A 
ATOM     60  C   UNL A   1      42.722  27.696  31.567  1.00  0.00     0.029 A 
ATOM     61  N   UNL A   1      41.649  29.292  32.683  1.00  0.00    -0.354 N 
ATOM     62  N   UNL A   1      41.172  31.082  34.956  1.00  0.00    -0.248 NA
ATOM     63  C   UNL A   1      41.659  31.755  37.138  1.00  0.00     0.031 C 
ATOM     64  C   UNL A   1      43.348  27.867  32.803  1.00  0.00     0.029 A 
ATOM     65  C   UNL A   1      42.695  28.879  33.489  1.00  0.00     0.049 A 
ATOM     66  H   UNL A   1      40.999  29.994  32.916  1.00  0.00     0.167 HD
ATOM     67  C   UNL A   1      42.284  30.382  35.414  1.00  0.00     0.074 A 
ATOM     68  C   UNL A   1      42.563  30.866  36.749  1.00  0.00     0.031 C 
ATOM     69  C   UNL A   1      43.003  29.420  34.786  1.00  0.00     0.034 A 
BRANCH  56  70
ATOM     70  C   UNL A   1      40.798  27.812  29.250  1.00  0.00     0.023 A 
ATOM     71  C   UNL A   1      39.990  26.659  29.183  1.00  0.00     0.012 A 
ATOM     72  C   UNL A   1      41.635  28.133  28.165  1.00  0.00     0.148 A 
ATOM     73  C   UNL A   1      40.037  25.822  28.069  1.00  0.00     0.002 A 
ATOM     74  C   UNL A   1      41.639  27.322  27.036  1.00  0.00     0.091 A 
ATOM     75  F   UNL A   1      42.408  29.224  28.254  1.00  0.00    -0.205 F 
ATOM     76  C   UNL A   1      40.852  26.160  26.992  1.00  0.00     0.022 A 
BRANCH  74  77
ATOM     77  S   UNL A   1      42.588  27.714  25.562  1.00  0.00     0.127 S 
ATOM     78  O   UNL A   1      43.949  27.769  26.093  1.00  0.00    -0.237 OA
ATOM     79  O   UNL A   1      42.312  26.560  24.706  1.00  0.00    -0.237 OA
ATOM     80  O   UNL A   1      42.063  28.979  25.068  1.00  0.00    -0.744 OA
ENDBRANCH  74  77
ENDBRANCH  56  70
BRANCH  57  81
ATOM     81  C   UNL A   1      39.524  33.766  37.175  1.00  0.00     0.023 A 
ATOM     82  C   UNL A   1      40.042  35.075  37.223  1.00  0.00     0.012 A 
ATOM     83  C   UNL A   1      38.806  33.271  38.281  1.00  0.00     0.148 A 
ATOM     84  C   UNL A   1      39.889  35.860  38.366  1.00  0.00     0.002 A 
ATOM     85  C   UNL A   1      38.606  34.080  39.395  1.00  0.00     0.091 A 
ATOM     86  F   UNL A   1      38.327  32.021  38.222  1.00  0.00    -0.205 F 
ATOM     87  C   UNL A   1      39.165  35.367  39.448  1.00  0.00     0.022 A 
BRANCH  85  88
ATOM     88  S   UNL A   1      37.579  33.575  40.779  1.00  0.00     0.127 S 
ATOM     89  O   UNL A   1      37.457  34.822  41.531  1.00  0.00    -0.237 OA
ATOM     90  O   UNL A   1      36.356  33.140  40.104  1.00  0.00    -0.237 OA
ATOM     91  O   UNL A   1      38.311  32.505  41.442  1.00  0.00    -0.744 OA
ENDBRANCH  85  88
ENDBRANCH  57  81
BRANCH  69  92
ATOM     92  C   UNL A   1      44.216  28.870  35.490  1.00  0.00     0.023 A 
ATOM     93  C   UNL A   1      45.482  29.446  35.279  1.00  0.00     0.012 A 
ATOM     94  C   UNL A   1      44.070  27.842  36.444  1.00  0.00     0.148 A 
ATOM     95  C   UNL A   1      46.592  28.990  35.990  1.00  0.00     0.002 A 
ATOM     96  C   UNL A   1      45.169  27.431  37.187  1.00  0.00     0.091 A 
ATOM     97  F   UNL A   1      42.857  27.297  36.614  1.00  0.00    -0.205 F 
ATOM     98  C   UNL A   1      46.433  27.995  36.953  1.00  0.00     0.022 A 
BRANCH  96  99
ATOM     99  S   UNL A   1      45.037  26.232  38.518  1.00  0.00     0.127 S 
ATOM    100  O   UNL A   1      44.575  25.044  37.803  1.00  0.00    -0.237 OA
ATOM    101  O   UNL A   1      46.417  26.156  39.000  1.00  0.00    -0.237 OA
ATOM    102  O   UNL A   1      44.090  26.790  39.474  1.00  0.00    -0.744 OA
ENDBRANCH  96  99
ENDBRANCH  69  92
ENDBRANCH  43  44
ENDBRANCH  35  38
ENDBRANCH  33  34
ENDBRANCH   1  33
TORSDOF 17
ENDMDL
MODEL 2
REMARK VINA RESULT:     -12.5      5.767     12.166
REMARK SMILES CN(C)c1nccnc1N1CCC(Oc2ccc3ccccc3c2)(C(=O)NCCCNC(=O)c2ccc(-c3c4nc(c(-c5cccc(S(=O)(=O)[O-])c5F)c5ccc([nH]5)c(-c5cccc(S(=O)(=O)[O-])c5F)c5nc(c(-c6cccc(S(=O)(=O)[O-])c6F)c6ccc3[nH]6)C=C5)C=C4)cc2)CC1
REMARK SMILES IDX 29 1 28 2 27 3 25 4 26 5 13 7 10 8 11 9 98 10 12 11 97 12
REMARK SMILES IDX 9 13 4 14 5 15 6 16 8 17 7 18 2 19 1 20 3 21 14 22 15 23
REMARK SMILES IDX 16 24 24 25 17 26 23 27 18 28 22 29 19 30 21 31 20 32 30 33
REMARK SMILES IDX 31 34 32 35 33 37 34 38 35 39 96 40 36 41 95 42 37 43 38 44
REMARK SMILES IDX 39 45 89 46 40 47 94 48 88 49 90 50 41 51 93 52 87 53 86 54
REMARK SMILES IDX 42 56 74 57 54 58 73 59 55 60 58 61 72 62 91 63 56 64 57 65
REMARK SMILES IDX 71 67 92 68 59 69 43 70 44 71 52 72 45 73 47 74 53 75 46 76
REMARK SMILES IDX 48 77 49 78 50 79 51 80 75 81 76 82 84 83 77 84 79 85 85 86
REMARK SMILES IDX 78 87 80 88 81 89 82 90 83 91 60 92 61 93 69 94 62 95 64 96
REMARK SMILES IDX 70 97 63 98 65 99 66 100 67 101 68 102
REMARK H PARENT 27 6 31 36 90 55 58 66
REMARK Flexibility Score: inf
ROOT
ATOM      1  C   UNL A   1      38.258  20.588  25.004  1.00  0.00     0.042 C 
ENDROOT
BRANCH   1   2
ATOM      2  C   UNL A   1      37.306  21.775  25.021  1.00  0.00     0.118 C 
BRANCH   2   3
ATOM      3  N   UNL A   1      36.416  21.732  26.168  1.00  0.00    -0.353 N 
ATOM      4  C   UNL A   1      35.074  21.966  26.255  1.00  0.00     0.264 C 
ATOM      5  O   UNL A   1      34.563  21.737  27.357  1.00  0.00    -0.270 OA
ATOM      6  H   UNL A   1      36.850  21.495  27.018  1.00  0.00     0.163 HD
BRANCH   4   7
ATOM      7  C   UNL A   1      34.253  22.485  25.039  1.00  0.00     0.190 C 
ATOM      8  N   UNL A   1      33.255  24.989  25.974  1.00  0.00    -0.353 N 
ATOM      9  C   UNL A   1      34.644  24.920  25.587  1.00  0.00     0.123 C 
ATOM     10  C   UNL A   1      32.566  23.801  26.448  1.00  0.00     0.123 C 
ATOM     11  C   UNL A   1      34.799  23.836  24.539  1.00  0.00     0.080 C 
ATOM     12  C   UNL A   1      32.776  22.643  25.466  1.00  0.00     0.080 C 
BRANCH   8  13
ATOM     13  C   UNL A   1      32.519  26.122  25.670  1.00  0.00     0.171 A 
ATOM     14  C   UNL A   1      31.961  26.331  24.365  1.00  0.00     0.171 A 
ATOM     15  N   UNL A   1      31.352  27.506  24.051  1.00  0.00    -0.234 NA
ATOM     16  C   UNL A   1      31.253  28.414  25.047  1.00  0.00     0.134 A 
ATOM     17  N   UNL A   1      32.394  27.054  26.650  1.00  0.00    -0.234 NA
ATOM     18  C   UNL A   1      31.755  28.192  26.314  1.00  0.00     0.134 A 
BRANCH  14  19
ATOM     19  N   UNL A   1      31.989  25.318  23.389  1.00  0.00    -0.360 N 
ATOM     20  C   UNL A   1      32.722  25.624  22.180  1.00  0.00     0.145 C 
ATOM     21  C   UNL A   1      30.748  24.563  23.262  1.00  0.00     0.145 C 
ENDBRANCH  14  19
ENDBRANCH   8  13
BRANCH   7  22
ATOM     22  O   UNL A   1      34.407  21.378  24.105  1.00  0.00    -0.477 OA
BRANCH  22  23
ATOM     23  C   UNL A   1      33.897  20.164  24.457  1.00  0.00     0.121 A 
ATOM     24  C   UNL A   1      32.538  19.964  24.666  1.00  0.00     0.047 A 
ATOM     25  C   UNL A   1      34.771  19.080  24.471  1.00  0.00     0.055 A 
ATOM     26  C   UNL A   1      32.066  18.708  25.041  1.00  0.00     0.012 A 
ATOM     27  C   UNL A   1      34.306  17.797  24.798  1.00  0.00    -0.015 A 
ATOM     28  C   UNL A   1      32.941  17.618  25.122  1.00  0.00    -0.018 A 
ATOM     29  C   UNL A   1      35.163  16.686  24.811  1.00  0.00     0.009 A 
ATOM     30  C   UNL A   1      32.480  16.349  25.496  1.00  0.00     0.009 A 
ATOM     31  C   UNL A   1      34.684  15.424  25.163  1.00  0.00     0.001 A 
ATOM     32  C   UNL A   1      33.348  15.257  25.517  1.00  0.00     0.001 A 
ENDBRANCH  22  23
ENDBRANCH   7  22
ENDBRANCH   4   7
ENDBRANCH   2   3
ENDBRANCH   1   2
BRANCH   1  33
ATOM     33  C   UNL A   1      39.221  20.566  26.182  1.00  0.00     0.118 C 
BRANCH  33  34
ATOM     34  N   UNL A   1      40.232  19.524  26.053  1.00  0.00    -0.352 N 
ATOM     35  C   UNL A   1      41.599  19.635  26.004  1.00  0.00     0.251 C 
ATOM     36  H   UNL A   1      39.884  18.605  25.994  1.00  0.00     0.163 HD
ATOM     37  O   UNL A   1      42.280  18.662  25.687  1.00  0.00    -0.269 OA
BRANCH  35  38
ATOM     38  C   UNL A   1      42.248  20.925  26.318  1.00  0.00     0.039 A 
ATOM     39  C   UNL A   1      42.516  21.825  25.282  1.00  0.00     0.014 A 
ATOM     40  C   UNL A   1      42.593  21.246  27.632  1.00  0.00     0.014 A 
ATOM     41  C   UNL A   1      43.077  23.069  25.574  1.00  0.00     0.010 A 
ATOM     42  C   UNL A   1      43.066  22.519  27.932  1.00  0.00     0.010 A 
ATOM     43  C   UNL A   1      43.327  23.439  26.906  1.00  0.00    -0.014 A 
BRANCH  43  44
ATOM     44  C   UNL A   1      43.881  24.771  27.261  1.00  0.00     0.031 A 
ATOM     45  C   UNL A   1      42.972  25.829  27.830  1.00  0.00     0.074 A 
ATOM     46  C   UNL A   1      45.166  25.064  26.976  1.00  0.00     0.049 A 
ATOM     47  N   UNL A   1      43.226  27.086  28.083  1.00  0.00    -0.248 NA
ATOM     48  C   UNL A   1      41.585  25.427  28.126  1.00  0.00     0.031 C 
ATOM     49  C   UNL A   1      46.131  24.145  26.366  1.00  0.00     0.029 A 
ATOM     50  N   UNL A   1      45.872  26.231  27.127  1.00  0.00    -0.354 N 
ATOM     51  C   UNL A   1      42.025  27.635  28.518  1.00  0.00     0.074 A 
ATOM     52  C   UNL A   1      41.034  26.582  28.469  1.00  0.00     0.031 C 
ATOM     53  C   UNL A   1      47.297  24.785  26.191  1.00  0.00     0.029 A 
ATOM     54  C   UNL A   1      47.155  26.168  26.633  1.00  0.00     0.049 A 
ATOM     55  H   UNL A   1      45.496  27.038  27.548  1.00  0.00     0.167 HD
ATOM     56  C   UNL A   1      41.774  28.895  28.943  1.00  0.00     0.034 A 
ATOM     57  C   UNL A   1      48.103  27.122  26.529  1.00  0.00     0.034 A 
ATOM     58  C   UNL A   1      42.772  29.924  29.035  1.00  0.00     0.049 A 
ATOM     59  C   UNL A   1      47.804  28.508  27.038  1.00  0.00     0.074 A 
ATOM     60  C   UNL A   1      42.638  31.207  29.535  1.00  0.00     0.029 A 
ATOM     61  N   UNL A   1      44.086  29.792  28.615  1.00  0.00    -0.354 N 
ATOM     62  N   UNL A   1      46.700  28.969  27.575  1.00  0.00    -0.248 NA
ATOM     63  C   UNL A   1      48.890  29.497  26.958  1.00  0.00     0.031 C 
ATOM     64  C   UNL A   1      43.863  31.862  29.386  1.00  0.00     0.029 A 
ATOM     65  C   UNL A   1      44.771  30.973  28.836  1.00  0.00     0.049 A 
ATOM     66  H   UNL A   1      44.473  28.978  28.218  1.00  0.00     0.167 HD
ATOM     67  C   UNL A   1      46.976  30.281  27.945  1.00  0.00     0.074 A 
ATOM     68  C   UNL A   1      48.352  30.540  27.576  1.00  0.00     0.031 C 
ATOM     69  C   UNL A   1      46.161  31.191  28.529  1.00  0.00     0.034 A 
BRANCH  56  70
ATOM     70  C   UNL A   1      40.372  29.227  29.382  1.00  0.00     0.023 A 
ATOM     71  C   UNL A   1      39.434  29.692  28.438  1.00  0.00     0.012 A 
ATOM     72  C   UNL A   1      39.962  29.003  30.710  1.00  0.00     0.148 A 
ATOM     73  C   UNL A   1      38.119  29.961  28.815  1.00  0.00     0.002 A 
ATOM     74  C   UNL A   1      38.637  29.225  31.068  1.00  0.00     0.091 A 
ATOM     75  F   UNL A   1      40.872  28.578  31.598  1.00  0.00    -0.205 F 
ATOM     76  C   UNL A   1      37.719  29.716  30.126  1.00  0.00     0.022 A 
BRANCH  74  77
ATOM     77  S   UNL A   1      38.000  28.861  32.708  1.00  0.00     0.127 S 
ATOM     78  O   UNL A   1      36.629  29.359  32.609  1.00  0.00    -0.237 OA
ATOM     79  O   UNL A   1      38.118  27.404  32.764  1.00  0.00    -0.237 OA
ATOM     80  O   UNL A   1      38.856  29.578  33.642  1.00  0.00    -0.744 OA
ENDBRANCH  74  77
ENDBRANCH  56  70
BRANCH  57  81
ATOM     81  C   UNL A   1      49.440  26.795  25.958  1.00  0.00     0.023 A 
ATOM     82  C   UNL A   1      50.369  26.076  26.735  1.00  0.00     0.012 A 
ATOM     83  C   UNL A   1      49.797  27.190  24.654  1.00  0.00     0.148 A 
ATOM     84  C   UNL A   1      51.644  25.795  26.242  1.00  0.00     0.002 A 
ATOM     85  C   UNL A   1      51.048  26.857  24.147  1.00  0.00     0.091 A 
ATOM     86  F   UNL A   1      48.904  27.881  23.932  1.00  0.00    -0.205 F 
ATOM     87  C   UNL A   1      51.981  26.178  24.947  1.00  0.00     0.022 A 
BRANCH  85  88
ATOM     88  S   UNL A   1      51.519  27.196  22.447  1.00  0.00     0.127 S 
ATOM     89  O   UNL A   1      52.785  26.475  22.339  1.00  0.00    -0.237 OA
ATOM     90  O   UNL A   1      50.407  26.604  21.703  1.00  0.00    -0.237 OA
ATOM     91  O   UNL A   1      51.604  28.646  22.345  1.00  0.00    -0.744 OA
ENDBRANCH  85  88
ENDBRANCH  57  81
BRANCH  69  92
ATOM     92  C   UNL A   1      46.740  32.534  28.890  1.00  0.00     0.023 A 
ATOM     93  C   UNL A   1      47.344  32.735  30.144  1.00  0.00     0.012 A 
ATOM     94  C   UNL A   1      46.773  33.567  27.929  1.00  0.00     0.148 A 
ATOM     95  C   UNL A   1      47.951  33.953  30.449  1.00  0.00     0.002 A 
ATOM     96  C   UNL A   1      47.427  34.756  28.220  1.00  0.00     0.091 A 
ATOM     97  F   UNL A   1      46.175  33.358  26.748  1.00  0.00    -0.205 F 
ATOM     98  C   UNL A   1      48.006  34.956  29.483  1.00  0.00     0.022 A 
BRANCH  96  99
ATOM     99  S   UNL A   1      47.638  36.061  27.004  1.00  0.00     0.127 S 
ATOM    100  O   UNL A   1      46.260  36.510  26.808  1.00  0.00    -0.237 OA
ATOM    101  O   UNL A   1      48.493  37.011  27.717  1.00  0.00    -0.237 OA
ATOM    102  O   UNL A   1      48.259  35.438  25.844  1.00  0.00    -0.744 OA
ENDBRANCH  96  99
ENDBRANCH  69  92
ENDBRANCH  43  44
ENDBRANCH  35  38
ENDBRANCH  33  34
ENDBRANCH   1  33
TORSDOF 17
ENDMDL
MODEL 3
REMARK VINA RESULT:     -12.4      6.308     11.893
REMARK SMILES CN(C)c1nccnc1N1CCC(Oc2ccc3ccccc3c2)(C(=O)NCCCNC(=O)c2ccc(-c3c4nc(c(-c5cccc(S(=O)(=O)[O-])c5F)c5ccc([nH]5)c(-c5cccc(S(=O)(=O)[O-])c5F)c5nc(c(-c6cccc(S(=O)(=O)[O-])c6F)c6ccc3[nH]6)C=C5)C=C4)cc2)CC1
REMARK SMILES IDX 29 1 28 2 27 3 25 4 26 5 13 7 10 8 11 9 98 10 12 11 97 12
REMARK SMILES IDX 9 13 4 14 5 15 6 16 8 17 7 18 2 19 1 20 3 21 14 22 15 23
REMARK SMILES IDX 16 24 24 25 17 26 23 27 18 28 22 29 19 30 21 31 20 32 30 33
REMARK SMILES IDX 31 34 32 35 33 37 34 38 35 39 96 40 36 41 95 42 37 43 38 44
REMARK SMILES IDX 39 45 89 46 40 47 94 48 88 49 90 50 41 51 93 52 87 53 86 54
REMARK SMILES IDX 42 56 74 57 54 58 73 59 55 60 58 61 72 62 91 63 56 64 57 65
REMARK SMILES IDX 71 67 92 68 59 69 43 70 44 71 52 72 45 73 47 74 53 75 46 76
REMARK SMILES IDX 48 77 49 78 50 79 51 80 75 81 76 82 84 83 77 84 79 85 85 86
REMARK SMILES IDX 78 87 80 88 81 89 82 90 83 91 60 92 61 93 69 94 62 95 64 96
REMARK SMILES IDX 70 97 63 98 65 99 66 100 67 101 68 102
REMARK H PARENT 27 6 31 36 90 55 58 66
REMARK Flexibility Score: inf
ROOT
ATOM      1  C   UNL A   1      38.255  20.523  24.973  1.00  0.00     0.042 C 
ENDROOT
BRANCH   1   2
ATOM      2  C   UNL A   1      37.418  21.793  24.999  1.00  0.00     0.118 C 
BRANCH   2   3
ATOM      3  N   UNL A   1      36.545  21.837  26.158  1.00  0.00    -0.353 N 
ATOM      4  C   UNL A   1      35.209  22.098  26.250  1.00  0.00     0.264 C 
ATOM      5  O   UNL A   1      34.712  21.948  27.372  1.00  0.00    -0.270 OA
ATOM      6  H   UNL A   1      36.990  21.648  27.016  1.00  0.00     0.163 HD
BRANCH   4   7
ATOM      7  C   UNL A   1      34.377  22.552  25.016  1.00  0.00     0.190 C 
ATOM      8  N   UNL A   1      33.317  25.064  25.860  1.00  0.00    -0.353 N 
ATOM      9  C   UNL A   1      34.709  25.014  25.475  1.00  0.00     0.123 C 
ATOM     10  C   UNL A   1      32.657  23.877  26.376  1.00  0.00     0.123 C 
ATOM     11  C   UNL A   1      34.891  23.898  24.468  1.00  0.00     0.080 C 
ATOM     12  C   UNL A   1      32.896  22.690  25.437  1.00  0.00     0.080 C 
BRANCH   8  13
ATOM     13  C   UNL A   1      32.555  26.167  25.514  1.00  0.00     0.171 A 
ATOM     14  C   UNL A   1      31.921  26.274  24.232  1.00  0.00     0.171 A 
ATOM     15  N   UNL A   1      31.284  27.419  23.866  1.00  0.00    -0.234 NA
ATOM     16  C   UNL A   1      31.234  28.398  24.796  1.00  0.00     0.134 A 
ATOM     17  N   UNL A   1      32.476  27.169  26.428  1.00  0.00    -0.234 NA
ATOM     18  C   UNL A   1      31.808  28.275  26.045  1.00  0.00     0.134 A 
BRANCH  14  19
ATOM     19  N   UNL A   1      31.904  25.191  23.334  1.00  0.00    -0.360 N 
ATOM     20  C   UNL A   1      32.622  25.385  22.093  1.00  0.00     0.145 C 
ATOM     21  C   UNL A   1      30.640  24.465  23.284  1.00  0.00     0.145 C 
ENDBRANCH  14  19
ENDBRANCH   8  13
BRANCH   7  22
ATOM     22  O   UNL A   1      34.559  21.416  24.123  1.00  0.00    -0.477 OA
BRANCH  22  23
ATOM     23  C   UNL A   1      34.000  20.225  24.476  1.00  0.00     0.121 A 
ATOM     24  C   UNL A   1      32.638  20.087  24.715  1.00  0.00     0.047 A 
ATOM     25  C   UNL A   1      34.822  19.100  24.460  1.00  0.00     0.055 A 
ATOM     26  C   UNL A   1      32.117  18.851  25.092  1.00  0.00     0.012 A 
ATOM     27  C   UNL A   1      34.304  17.838  24.787  1.00  0.00    -0.015 A 
ATOM     28  C   UNL A   1      32.940  17.720  25.142  1.00  0.00    -0.018 A 
ATOM     29  C   UNL A   1      35.108  16.687  24.771  1.00  0.00     0.009 A 
ATOM     30  C   UNL A   1      32.428  16.470  25.516  1.00  0.00     0.009 A 
ATOM     31  C   UNL A   1      34.578  15.446  25.123  1.00  0.00     0.001 A 
ATOM     32  C   UNL A   1      33.244  15.339  25.508  1.00  0.00     0.001 A 
ENDBRANCH  22  23
ENDBRANCH   7  22
ENDBRANCH   4   7
ENDBRANCH   2   3
ENDBRANCH   1   2
BRANCH   1  33
ATOM     33  C   UNL A   1      38.940  20.220  26.298  1.00  0.00     0.118 C 
BRANCH  33  34
ATOM     34  N   UNL A   1      40.034  19.269  26.154  1.00  0.00    -0.352 N 
ATOM     35  C   UNL A   1      41.385  19.495  26.088  1.00  0.00     0.251 C 
ATOM     36  H   UNL A   1      39.763  18.323  26.096  1.00  0.00     0.163 HD
ATOM     37  O   UNL A   1      42.142  18.582  25.760  1.00  0.00    -0.269 OA
BRANCH  35  38
ATOM     38  C   UNL A   1      41.927  20.834  26.398  1.00  0.00     0.039 A 
ATOM     39  C   UNL A   1      42.009  21.790  25.381  1.00  0.00     0.014 A 
ATOM     40  C   UNL A   1      42.356  21.146  27.690  1.00  0.00     0.014 A 
ATOM     41  C   UNL A   1      42.466  23.076  25.676  1.00  0.00     0.010 A 
ATOM     42  C   UNL A   1      42.723  22.451  28.000  1.00  0.00     0.010 A 
ATOM     43  C   UNL A   1      42.796  23.426  26.995  1.00  0.00    -0.014 A 
BRANCH  43  44
ATOM     44  C   UNL A   1      43.244  24.796  27.355  1.00  0.00     0.031 A 
ATOM     45  C   UNL A   1      42.264  25.763  27.968  1.00  0.00     0.074 A 
ATOM     46  C   UNL A   1      44.489  25.203  27.039  1.00  0.00     0.049 A 
ATOM     47  N   UNL A   1      42.415  27.033  28.234  1.00  0.00    -0.248 NA
ATOM     48  C   UNL A   1      40.927  25.238  28.297  1.00  0.00     0.031 C 
ATOM     49  C   UNL A   1      45.511  24.381  26.386  1.00  0.00     0.029 A 
ATOM     50  N   UNL A   1      45.096  26.426  27.188  1.00  0.00    -0.354 N 
ATOM     51  C   UNL A   1      41.185  27.469  28.712  1.00  0.00     0.074 A 
ATOM     52  C   UNL A   1      40.288  26.336  28.675  1.00  0.00     0.031 C 
ATOM     53  C   UNL A   1      46.612  25.123  26.187  1.00  0.00     0.029 A 
ATOM     54  C   UNL A   1      46.363  26.482  26.657  1.00  0.00     0.049 A 
ATOM     55  H   UNL A   1      44.664  27.191  27.633  1.00  0.00     0.167 HD
ATOM     56  C   UNL A   1      40.839  28.697  29.165  1.00  0.00     0.034 A 
ATOM     57  C   UNL A   1      47.221  27.516  26.541  1.00  0.00     0.034 A 
ATOM     58  C   UNL A   1      41.746  29.808  29.246  1.00  0.00     0.049 A 
ATOM     59  C   UNL A   1      46.819  28.863  27.080  1.00  0.00     0.074 A 
ATOM     60  C   UNL A   1      41.517  31.067  29.770  1.00  0.00     0.029 A 
ATOM     61  N   UNL A   1      43.053  29.796  28.786  1.00  0.00    -0.354 N 
ATOM     62  N   UNL A   1      45.696  29.219  27.657  1.00  0.00    -0.248 NA
ATOM     63  C   UNL A   1      47.813  29.944  26.986  1.00  0.00     0.031 C 
ATOM     64  C   UNL A   1      42.675  31.828  29.596  1.00  0.00     0.029 A 
ATOM     65  C   UNL A   1      43.640  31.029  29.006  1.00  0.00     0.049 A 
ATOM     66  H   UNL A   1      43.497  29.025  28.364  1.00  0.00     0.167 HD
ATOM     67  C   UNL A   1      45.869  30.545  28.040  1.00  0.00     0.074 A 
ATOM     68  C   UNL A   1      47.205  30.928  27.636  1.00  0.00     0.031 C 
ATOM     69  C   UNL A   1      44.995  31.372  28.663  1.00  0.00     0.034 A 
BRANCH  56  70
ATOM     70  C   UNL A   1      39.427  28.899  29.650  1.00  0.00     0.023 A 
ATOM     71  C   UNL A   1      39.084  28.553  30.972  1.00  0.00     0.012 A 
ATOM     72  C   UNL A   1      38.462  29.504  28.822  1.00  0.00     0.148 A 
ATOM     73  C   UNL A   1      37.794  28.775  31.454  1.00  0.00     0.002 A 
ATOM     74  C   UNL A   1      37.193  29.768  29.324  1.00  0.00     0.091 A 
ATOM     75  F   UNL A   1      38.801  29.810  27.562  1.00  0.00    -0.205 F 
ATOM     76  C   UNL A   1      36.854  29.392  30.634  1.00  0.00     0.022 A 
BRANCH  74  77
ATOM     77  S   UNL A   1      35.936  30.636  28.379  1.00  0.00     0.127 S 
ATOM     78  O   UNL A   1      35.487  29.593  27.457  1.00  0.00    -0.237 OA
ATOM     79  O   UNL A   1      34.967  30.994  29.415  1.00  0.00    -0.237 OA
ATOM     80  O   UNL A   1      36.608  31.768  27.757  1.00  0.00    -0.744 OA
ENDBRANCH  74  77
ENDBRANCH  56  70
BRANCH  57  81
ATOM     81  C   UNL A   1      48.564  27.315  25.926  1.00  0.00     0.023 A 
ATOM     82  C   UNL A   1      49.648  26.925  26.738  1.00  0.00     0.012 A 
ATOM     83  C   UNL A   1      48.775  27.505  24.547  1.00  0.00     0.148 A 
ATOM     84  C   UNL A   1      50.925  26.774  26.197  1.00  0.00     0.002 A 
ATOM     85  C   UNL A   1      50.037  27.295  24.003  1.00  0.00     0.091 A 
ATOM     86  F   UNL A   1      47.735  27.882  23.791  1.00  0.00    -0.205 F 
ATOM     87  C   UNL A   1      51.118  26.950  24.830  1.00  0.00     0.022 A 
BRANCH  85  88
ATOM     88  S   UNL A   1      50.350  27.373  22.236  1.00  0.00     0.127 S 
ATOM     89  O   UNL A   1      49.363  26.431  21.715  1.00  0.00    -0.237 OA
ATOM     90  O   UNL A   1      50.074  28.780  21.944  1.00  0.00    -0.237 OA
ATOM     91  O   UNL A   1      51.744  26.989  22.066  1.00  0.00    -0.744 OA
ENDBRANCH  85  88
ENDBRANCH  57  81
BRANCH  69  92
ATOM     92  C   UNL A   1      45.467  32.756  29.028  1.00  0.00     0.023 A 
ATOM     93  C   UNL A   1      46.144  32.979  30.241  1.00  0.00     0.012 A 
ATOM     94  C   UNL A   1      45.324  33.814  28.107  1.00  0.00     0.148 A 
ATOM     95  C   UNL A   1      46.651  34.242  30.544  1.00  0.00     0.002 A 
ATOM     96  C   UNL A   1      45.879  35.054  28.392  1.00  0.00     0.091 A 
ATOM     97  F   UNL A   1      44.660  33.581  26.966  1.00  0.00    -0.205 F 
ATOM     98  C   UNL A   1      46.532  35.274  29.615  1.00  0.00     0.022 A 
BRANCH  96  99
ATOM     99  S   UNL A   1      45.866  36.408  27.212  1.00  0.00     0.127 S 
ATOM    100  O   UNL A   1      44.435  36.666  27.071  1.00  0.00    -0.237 OA
ATOM    101  O   UNL A   1      46.607  37.448  27.929  1.00  0.00    -0.237 OA
ATOM    102  O   UNL A   1      46.528  35.909  26.014  1.00  0.00    -0.744 OA
ENDBRANCH  96  99
ENDBRANCH  69  92
ENDBRANCH  43  44
ENDBRANCH  35  38
ENDBRANCH  33  34
ENDBRANCH   1  33
TORSDOF 17
ENDMDL
