MODEL 1
REMARK VINA RESULT:     -10.6      0.000      0.000
REMARK SMILES [NH3+]CC1([C@H](O)C(=O)NCCCNC(=O)c2ccc(-c3c4nc(c(-c5cccc(S(=O)(=O)[O-])c5F)c5ccc([nH]5)c(-c5cccc(S(=O)(=O)[O-])c5F)c5nc(c(-c6cccc(S(=O)(=O)[O-])c6F)c6ccc3[nH]6)C=C5)C=C4)cc2)Cc2ccccc2C1
REMARK SMILES IDX 10 1 9 2 8 3 6 4 7 5 4 7 3 8 78 9 85 10 79 11 84 12 80 13
REMARK SMILES IDX 83 14 81 15 82 16 2 17 1 18 5 22 11 24 12 25 13 26 14 28
REMARK SMILES IDX 15 29 16 30 77 31 17 32 76 33 18 34 19 35 20 36 70 37 21 38
REMARK SMILES IDX 75 39 69 40 71 41 22 42 74 43 68 44 67 45 23 47 55 48 35 49
REMARK SMILES IDX 54 50 36 51 39 52 53 53 72 54 37 55 38 56 52 58 73 59 40 60
REMARK SMILES IDX 24 61 25 62 33 63 26 64 28 65 34 66 27 67 29 68 30 69 31 70
REMARK SMILES IDX 32 71 56 72 57 73 65 74 58 75 60 76 66 77 59 78 61 79 62 80
REMARK SMILES IDX 63 81 64 82 41 83 42 84 50 85 43 86 45 87 51 88 44 89 46 90
REMARK SMILES IDX 47 91 48 92 49 93
REMARK H PARENT 8 6 1 19 1 20 1 21 5 23 12 27 71 46 39 57
REMARK Flexibility Score: inf
ROOT
ATOM      1  C   UNL A   1      40.925  20.286  26.771  1.00  0.00     0.042 C 
ENDROOT
BRANCH   1   2
ATOM      2  C   UNL A   1      42.273  19.653  26.502  1.00  0.00     0.117 C 
BRANCH   2   3
ATOM      3  N   UNL A   1      42.765  19.764  25.144  1.00  0.00    -0.354 N 
ATOM      4  C   UNL A   1      44.059  20.039  24.781  1.00  0.00     0.249 C 
ATOM      5  O   UNL A   1      44.473  19.624  23.697  1.00  0.00    -0.272 OA
ATOM      6  H   UNL A   1      42.114  19.632  24.418  1.00  0.00     0.163 HD
BRANCH   4   7
ATOM      7  C   UNL A   1      44.959  20.896  25.707  1.00  0.00     0.215 C 
BRANCH   7   8
ATOM      8  C   UNL A   1      44.911  22.465  25.522  1.00  0.00     0.062 C 
ATOM      9  C   UNL A   1      45.851  23.310  26.451  1.00  0.00     0.052 C 
ATOM     10  C   UNL A   1      43.483  23.018  25.862  1.00  0.00     0.052 C 
ATOM     11  C   UNL A   1      44.967  23.660  27.608  1.00  0.00    -0.044 A 
ATOM     12  C   UNL A   1      43.630  23.408  27.301  1.00  0.00    -0.044 A 
ATOM     13  C   UNL A   1      45.346  24.099  28.870  1.00  0.00     0.004 A 
ATOM     14  C   UNL A   1      42.649  23.509  28.274  1.00  0.00     0.004 A 
ATOM     15  C   UNL A   1      44.367  24.188  29.860  1.00  0.00     0.000 A 
ATOM     16  C   UNL A   1      43.030  23.881  29.567  1.00  0.00     0.000 A 
BRANCH   8  17
ATOM     17  C   UNL A   1      45.254  22.801  24.046  1.00  0.00     0.269 C 
BRANCH  17  18
ATOM     18  N   UNL A   1      46.665  22.663  23.688  1.00  0.00    -0.357 N 
ATOM     19  H   UNL A   1      47.035  23.570  23.406  1.00  0.00     0.344 HD
ATOM     20  H   UNL A   1      46.756  22.003  22.915  1.00  0.00     0.344 HD
ATOM     21  H   UNL A   1      47.188  22.317  24.492  1.00  0.00     0.344 HD
ENDBRANCH  17  18
ENDBRANCH   8  17
ENDBRANCH   7   8
BRANCH   7  22
ATOM     22  O   UNL A   1      46.288  20.388  25.826  1.00  0.00    -0.382 OA
ATOM     23  H   UNL A   1      46.880  21.096  26.124  1.00  0.00     0.211 HD
ENDBRANCH   7  22
ENDBRANCH   4   7
ENDBRANCH   2   3
ENDBRANCH   1   2
BRANCH   1  24
ATOM     24  C   UNL A   1      40.659  21.525  25.929  1.00  0.00     0.118 C 
BRANCH  24  25
ATOM     25  N   UNL A   1      39.241  21.876  25.835  1.00  0.00    -0.352 N 
ATOM     26  C   UNL A   1      38.538  22.986  26.258  1.00  0.00     0.251 C 
ATOM     27  H   UNL A   1      38.688  21.197  25.387  1.00  0.00     0.163 HD
ATOM     28  O   UNL A   1      37.318  22.976  26.212  1.00  0.00    -0.269 OA
BRANCH  26  29
ATOM     29  C   UNL A   1      39.254  24.168  26.794  1.00  0.00     0.039 A 
ATOM     30  C   UNL A   1      39.991  24.975  25.922  1.00  0.00     0.014 A 
ATOM     31  C   UNL A   1      39.190  24.491  28.147  1.00  0.00     0.014 A 
ATOM     32  C   UNL A   1      40.556  26.166  26.390  1.00  0.00     0.010 A 
ATOM     33  C   UNL A   1      39.640  25.731  28.581  1.00  0.00     0.010 A 
ATOM     34  C   UNL A   1      40.325  26.586  27.709  1.00  0.00    -0.014 A 
BRANCH  34  35
ATOM     35  C   UNL A   1      40.755  27.922  28.205  1.00  0.00     0.031 A 
ATOM     36  C   UNL A   1      42.220  28.223  28.390  1.00  0.00     0.074 A 
ATOM     37  C   UNL A   1      39.827  28.803  28.630  1.00  0.00     0.049 A 
ATOM     38  N   UNL A   1      42.784  29.259  28.955  1.00  0.00    -0.248 NA
ATOM     39  C   UNL A   1      43.177  27.206  27.921  1.00  0.00     0.031 C 
ATOM     40  C   UNL A   1      38.376  28.589  28.605  1.00  0.00     0.029 A 
ATOM     41  N   UNL A   1      39.963  30.044  29.205  1.00  0.00    -0.354 N 
ATOM     42  C   UNL A   1      44.147  28.991  28.964  1.00  0.00     0.074 A 
ATOM     43  C   UNL A   1      44.326  27.681  28.379  1.00  0.00     0.031 C 
ATOM     44  C   UNL A   1      37.761  29.658  29.134  1.00  0.00     0.029 A 
ATOM     45  C   UNL A   1      38.768  30.619  29.569  1.00  0.00     0.049 A 
ATOM     46  H   UNL A   1      40.836  30.479  29.342  1.00  0.00     0.167 HD
ATOM     47  C   UNL A   1      45.164  29.778  29.389  1.00  0.00     0.034 A 
ATOM     48  C   UNL A   1      38.510  31.785  30.196  1.00  0.00     0.034 A 
ATOM     49  C   UNL A   1      44.989  31.114  29.888  1.00  0.00     0.049 A 
ATOM     50  C   UNL A   1      39.660  32.678  30.574  1.00  0.00     0.074 A 
ATOM     51  C   UNL A   1      45.960  32.041  30.221  1.00  0.00     0.029 A 
ATOM     52  N   UNL A   1      43.763  31.716  30.122  1.00  0.00    -0.354 N 
ATOM     53  N   UNL A   1      40.945  32.479  30.411  1.00  0.00    -0.248 NA
ATOM     54  C   UNL A   1      39.325  33.969  31.192  1.00  0.00     0.031 C 
ATOM     55  C   UNL A   1      45.320  33.202  30.667  1.00  0.00     0.029 A 
ATOM     56  C   UNL A   1      43.951  33.001  30.598  1.00  0.00     0.049 A 
ATOM     57  H   UNL A   1      42.887  31.291  29.970  1.00  0.00     0.167 HD
ATOM     58  C   UNL A   1      41.570  33.630  30.876  1.00  0.00     0.074 A 
ATOM     59  C   UNL A   1      40.521  34.532  31.304  1.00  0.00     0.031 C 
ATOM     60  C   UNL A   1      42.894  33.908  30.962  1.00  0.00     0.034 A 
BRANCH  47  61
ATOM     61  C   UNL A   1      46.567  29.247  29.261  1.00  0.00     0.023 A 
ATOM     62  C   UNL A   1      47.142  28.541  30.338  1.00  0.00     0.012 A 
ATOM     63  C   UNL A   1      47.291  29.384  28.060  1.00  0.00     0.148 A 
ATOM     64  C   UNL A   1      48.424  28.006  30.234  1.00  0.00     0.002 A 
ATOM     65  C   UNL A   1      48.552  28.812  27.949  1.00  0.00     0.091 A 
ATOM     66  F   UNL A   1      46.736  30.077  27.056  1.00  0.00    -0.205 F 
ATOM     67  C   UNL A   1      49.124  28.131  29.037  1.00  0.00     0.022 A 
BRANCH  65  68
ATOM     68  S   UNL A   1      49.505  28.849  26.427  1.00  0.00     0.127 S 
ATOM     69  O   UNL A   1      49.953  30.240  26.394  1.00  0.00    -0.237 OA
ATOM     70  O   UNL A   1      50.562  27.874  26.701  1.00  0.00    -0.237 OA
ATOM     71  O   UNL A   1      48.584  28.465  25.367  1.00  0.00    -0.744 OA
ENDBRANCH  65  68
ENDBRANCH  47  61
BRANCH  48  72
ATOM     72  C   UNL A   1      37.101  32.206  30.438  1.00  0.00     0.023 A 
ATOM     73  C   UNL A   1      36.530  31.995  31.709  1.00  0.00     0.012 A 
ATOM     74  C   UNL A   1      36.334  32.836  29.439  1.00  0.00     0.148 A 
ATOM     75  C   UNL A   1      35.212  32.371  31.970  1.00  0.00     0.002 A 
ATOM     76  C   UNL A   1      35.040  33.259  29.723  1.00  0.00     0.091 A 
ATOM     77  F   UNL A   1      36.887  33.016  28.232  1.00  0.00    -0.205 F 
ATOM     78  C   UNL A   1      34.471  33.012  30.982  1.00  0.00     0.022 A 
BRANCH  76  79
ATOM     79  S   UNL A   1      34.070  34.215  28.551  1.00  0.00     0.127 S 
ATOM     80  O   UNL A   1      32.824  34.415  29.285  1.00  0.00    -0.237 OA
ATOM     81  O   UNL A   1      34.887  35.418  28.385  1.00  0.00    -0.237 OA
ATOM     82  O   UNL A   1      33.984  33.385  27.356  1.00  0.00    -0.744 OA
ENDBRANCH  76  79
ENDBRANCH  48  72
BRANCH  60  83
ATOM     83  C   UNL A   1      43.291  35.250  31.513  1.00  0.00     0.023 A 
ATOM     84  C   UNL A   1      43.502  35.398  32.898  1.00  0.00     0.012 A 
ATOM     85  C   UNL A   1      43.541  36.337  30.653  1.00  0.00     0.148 A 
ATOM     86  C   UNL A   1      43.931  36.616  33.422  1.00  0.00     0.002 A 
ATOM     87  C   UNL A   1      44.012  37.535  31.177  1.00  0.00     0.091 A 
ATOM     88  F   UNL A   1      43.316  36.180  29.341  1.00  0.00    -0.205 F 
ATOM     89  C   UNL A   1      44.198  37.679  32.562  1.00  0.00     0.022 A 
BRANCH  87  90
ATOM     90  S   UNL A   1      44.473  38.924  30.136  1.00  0.00     0.127 S 
ATOM     91  O   UNL A   1      43.175  39.347  29.613  1.00  0.00    -0.237 OA
ATOM     92  O   UNL A   1      45.076  39.848  31.096  1.00  0.00    -0.237 OA
ATOM     93  O   UNL A   1      45.402  38.391  29.148  1.00  0.00    -0.744 OA
ENDBRANCH  87  90
ENDBRANCH  60  83
ENDBRANCH  34  35
ENDBRANCH  26  29
ENDBRANCH  24  25
ENDBRANCH   1  24
TORSDOF 17
ENDMDL
MODEL 2
REMARK VINA RESULT:     -10.3      3.376      9.652
REMARK SMILES [NH3+]CC1([C@H](O)C(=O)NCCCNC(=O)c2ccc(-c3c4nc(c(-c5cccc(S(=O)(=O)[O-])c5F)c5ccc([nH]5)c(-c5cccc(S(=O)(=O)[O-])c5F)c5nc(c(-c6cccc(S(=O)(=O)[O-])c6F)c6ccc3[nH]6)C=C5)C=C4)cc2)Cc2ccccc2C1
REMARK SMILES IDX 10 1 9 2 8 3 6 4 7 5 4 7 3 8 78 9 85 10 79 11 84 12 80 13
REMARK SMILES IDX 83 14 81 15 82 16 2 17 1 18 5 22 11 24 12 25 13 26 14 28
REMARK SMILES IDX 15 29 16 30 77 31 17 32 76 33 18 34 19 35 20 36 70 37 21 38
REMARK SMILES IDX 75 39 69 40 71 41 22 42 74 43 68 44 67 45 23 47 55 48 35 49
REMARK SMILES IDX 54 50 36 51 39 52 53 53 72 54 37 55 38 56 52 58 73 59 40 60
REMARK SMILES IDX 24 61 25 62 33 63 26 64 28 65 34 66 27 67 29 68 30 69 31 70
REMARK SMILES IDX 32 71 56 72 57 73 65 74 58 75 60 76 66 77 59 78 61 79 62 80
REMARK SMILES IDX 63 81 64 82 41 83 42 84 50 85 43 86 45 87 51 88 44 89 46 90
REMARK SMILES IDX 47 91 48 92 49 93
REMARK H PARENT 8 6 1 19 1 20 1 21 5 23 12 27 71 46 39 57
REMARK Flexibility Score: inf
ROOT
ATOM      1  C   UNL A   1      36.793  19.520  24.880  1.00  0.00     0.042 C 
ENDROOT
BRANCH   1   2
ATOM      2  C   UNL A   1      35.489  20.205  25.223  1.00  0.00     0.117 C 
BRANCH   2   3
ATOM      3  N   UNL A   1      34.287  19.430  24.989  1.00  0.00    -0.354 N 
ATOM      4  C   UNL A   1      33.002  19.908  25.045  1.00  0.00     0.249 C 
ATOM      5  O   UNL A   1      32.132  19.357  24.368  1.00  0.00    -0.272 OA
ATOM      6  H   UNL A   1      34.401  18.477  24.773  1.00  0.00     0.163 HD
BRANCH   4   7
ATOM      7  C   UNL A   1      32.655  21.093  25.982  1.00  0.00     0.215 C 
BRANCH   7   8
ATOM      8  C   UNL A   1      32.558  22.531  25.334  1.00  0.00     0.062 C 
ATOM      9  C   UNL A   1      33.104  22.679  23.871  1.00  0.00     0.052 C 
ATOM     10  C   UNL A   1      33.421  23.561  26.142  1.00  0.00     0.052 C 
ATOM     11  C   UNL A   1      34.518  23.129  24.074  1.00  0.00    -0.044 A 
ATOM     12  C   UNL A   1      34.718  23.545  25.390  1.00  0.00    -0.044 A 
ATOM     13  C   UNL A   1      35.565  23.093  23.163  1.00  0.00     0.004 A 
ATOM     14  C   UNL A   1      35.987  23.856  25.850  1.00  0.00     0.004 A 
ATOM     15  C   UNL A   1      36.849  23.388  23.621  1.00  0.00     0.000 A 
ATOM     16  C   UNL A   1      37.060  23.753  24.959  1.00  0.00     0.000 A 
BRANCH   8  17
ATOM     17  C   UNL A   1      31.073  22.983  25.348  1.00  0.00     0.269 C 
BRANCH  17  18
ATOM     18  N   UNL A   1      30.215  22.269  26.292  1.00  0.00    -0.357 N 
ATOM     19  H   UNL A   1      30.258  21.268  26.102  1.00  0.00     0.344 HD
ATOM     20  H   UNL A   1      29.252  22.593  26.189  1.00  0.00     0.344 HD
ATOM     21  H   UNL A   1      30.533  22.448  27.245  1.00  0.00     0.344 HD
ENDBRANCH  17  18
ENDBRANCH   8  17
ENDBRANCH   7   8
BRANCH   7  22
ATOM     22  O   UNL A   1      33.396  21.079  27.203  1.00  0.00    -0.382 OA
ATOM     23  H   UNL A   1      33.260  21.916  27.673  1.00  0.00     0.211 HD
ENDBRANCH   7  22
ENDBRANCH   4   7
ENDBRANCH   2   3
ENDBRANCH   1   2
BRANCH   1  24
ATOM     24  C   UNL A   1      38.022  20.302  25.318  1.00  0.00     0.118 C 
BRANCH  24  25
ATOM     25  N   UNL A   1      39.194  19.461  25.569  1.00  0.00    -0.352 N 
ATOM     26  C   UNL A   1      40.455  19.759  26.042  1.00  0.00     0.251 C 
ATOM     27  H   UNL A   1      39.057  18.509  25.363  1.00  0.00     0.163 HD
ATOM     28  O   UNL A   1      41.325  18.904  26.009  1.00  0.00    -0.269 OA
BRANCH  26  29
ATOM     29  C   UNL A   1      40.762  21.114  26.559  1.00  0.00     0.039 A 
ATOM     30  C   UNL A   1      41.476  21.246  27.754  1.00  0.00     0.014 A 
ATOM     31  C   UNL A   1      40.362  22.253  25.864  1.00  0.00     0.014 A 
ATOM     32  C   UNL A   1      41.889  22.513  28.179  1.00  0.00     0.010 A 
ATOM     33  C   UNL A   1      40.879  23.492  26.216  1.00  0.00     0.010 A 
ATOM     34  C   UNL A   1      41.651  23.639  27.376  1.00  0.00    -0.014 A 
BRANCH  34  35
ATOM     35  C   UNL A   1      42.218  24.978  27.695  1.00  0.00     0.031 A 
ATOM     36  C   UNL A   1      41.349  26.035  28.327  1.00  0.00     0.074 A 
ATOM     37  C   UNL A   1      43.463  25.288  27.279  1.00  0.00     0.049 A 
ATOM     38  N   UNL A   1      41.609  27.299  28.534  1.00  0.00    -0.248 NA
ATOM     39  C   UNL A   1      39.994  25.630  28.737  1.00  0.00     0.031 C 
ATOM     40  C   UNL A   1      44.370  24.388  26.560  1.00  0.00     0.029 A 
ATOM     41  N   UNL A   1      44.171  26.462  27.366  1.00  0.00    -0.354 N 
ATOM     42  C   UNL A   1      40.436  27.849  29.038  1.00  0.00     0.074 A 
ATOM     43  C   UNL A   1      39.452  26.790  29.075  1.00  0.00     0.031 C 
ATOM     44  C   UNL A   1      45.509  25.038  26.276  1.00  0.00     0.029 A 
ATOM     45  C   UNL A   1      45.405  26.411  26.758  1.00  0.00     0.049 A 
ATOM     46  H   UNL A   1      43.827  27.266  27.820  1.00  0.00     0.167 HD
ATOM     47  C   UNL A   1      40.206  29.114  29.464  1.00  0.00     0.034 A 
ATOM     48  C   UNL A   1      46.343  27.365  26.596  1.00  0.00     0.034 A 
ATOM     49  C   UNL A   1      41.211  30.140  29.508  1.00  0.00     0.049 A 
ATOM     50  C   UNL A   1      46.094  28.736  27.162  1.00  0.00     0.074 A 
ATOM     51  C   UNL A   1      41.118  31.412  30.042  1.00  0.00     0.029 A 
ATOM     52  N   UNL A   1      42.495  30.011  29.002  1.00  0.00    -0.354 N 
ATOM     53  N   UNL A   1      45.038  29.186  27.795  1.00  0.00    -0.248 NA
ATOM     54  C   UNL A   1      47.175  29.722  27.020  1.00  0.00     0.031 C 
ATOM     55  C   UNL A   1      42.344  32.057  29.850  1.00  0.00     0.029 A 
ATOM     56  C   UNL A   1      43.203  31.181  29.208  1.00  0.00     0.049 A 
ATOM     57  H   UNL A   1      42.850  29.204  28.562  1.00  0.00     0.167 HD
ATOM     58  C   UNL A   1      45.340  30.494  28.155  1.00  0.00     0.074 A 
ATOM     59  C   UNL A   1      46.686  30.756  27.692  1.00  0.00     0.031 C 
ATOM     60  C   UNL A   1      44.564  31.404  28.794  1.00  0.00     0.034 A 
BRANCH  47  61
ATOM     61  C   UNL A   1      38.835  29.441  29.993  1.00  0.00     0.023 A 
ATOM     62  C   UNL A   1      38.505  29.097  31.320  1.00  0.00     0.012 A 
ATOM     63  C   UNL A   1      37.901  30.145  29.209  1.00  0.00     0.148 A 
ATOM     64  C   UNL A   1      37.256  29.421  31.848  1.00  0.00     0.002 A 
ATOM     65  C   UNL A   1      36.674  30.502  29.756  1.00  0.00     0.091 A 
ATOM     66  F   UNL A   1      38.226  30.444  27.943  1.00  0.00    -0.205 F 
ATOM     67  C   UNL A   1      36.347  30.132  31.071  1.00  0.00     0.022 A 
BRANCH  65  68
ATOM     68  S   UNL A   1      35.462  31.484  28.866  1.00  0.00     0.127 S 
ATOM     69  O   UNL A   1      36.315  32.457  28.185  1.00  0.00    -0.237 OA
ATOM     70  O   UNL A   1      34.846  30.490  27.986  1.00  0.00    -0.237 OA
ATOM     71  O   UNL A   1      34.571  32.035  29.878  1.00  0.00    -0.744 OA
ENDBRANCH  65  68
ENDBRANCH  47  61
BRANCH  48  72
ATOM     72  C   UNL A   1      47.635  27.035  25.929  1.00  0.00     0.023 A 
ATOM     73  C   UNL A   1      48.657  26.418  26.678  1.00  0.00     0.012 A 
ATOM     74  C   UNL A   1      47.851  27.295  24.562  1.00  0.00     0.148 A 
ATOM     75  C   UNL A   1      49.881  26.100  26.089  1.00  0.00     0.002 A 
ATOM     76  C   UNL A   1      49.052  26.925  23.967  1.00  0.00     0.091 A 
ATOM     77  F   UNL A   1      46.874  27.895  23.867  1.00  0.00    -0.205 F 
ATOM     78  C   UNL A   1      50.075  26.343  24.732  1.00  0.00     0.022 A 
BRANCH  76  79
ATOM     79  S   UNL A   1      49.327  27.075  22.199  1.00  0.00     0.127 S 
ATOM     80  O   UNL A   1      48.481  26.009  21.671  1.00  0.00    -0.237 OA
ATOM     81  O   UNL A   1      48.851  28.432  21.927  1.00  0.00    -0.237 OA
ATOM     82  O   UNL A   1      50.763  26.902  22.017  1.00  0.00    -0.744 OA
ENDBRANCH  76  79
ENDBRANCH  48  72
BRANCH  60  83
ATOM     83  C   UNL A   1      45.154  32.763  29.057  1.00  0.00     0.023 A 
ATOM     84  C   UNL A   1      45.832  33.004  30.268  1.00  0.00     0.012 A 
ATOM     85  C   UNL A   1      45.115  33.768  28.070  1.00  0.00     0.148 A 
ATOM     86  C   UNL A   1      46.439  34.236  30.505  1.00  0.00     0.002 A 
ATOM     87  C   UNL A   1      45.761  34.977  28.295  1.00  0.00     0.091 A 
ATOM     88  F   UNL A   1      44.448  33.523  26.934  1.00  0.00    -0.205 F 
ATOM     89  C   UNL A   1      46.415  35.216  29.515  1.00  0.00     0.022 A 
BRANCH  87  90
ATOM     90  S   UNL A   1      45.864  36.259  27.042  1.00  0.00     0.127 S 
ATOM     91  O   UNL A   1      44.547  36.886  27.150  1.00  0.00    -0.237 OA
ATOM     92  O   UNL A   1      46.973  37.081  27.525  1.00  0.00    -0.237 OA
ATOM     93  O   UNL A   1      46.127  35.569  25.786  1.00  0.00    -0.744 OA
ENDBRANCH  87  90
ENDBRANCH  60  83
ENDBRANCH  34  35
ENDBRANCH  26  29
ENDBRANCH  24  25
ENDBRANCH   1  24
TORSDOF 17
ENDMDL
MODEL 3
REMARK VINA RESULT:     -10.2      3.677      9.790
REMARK SMILES [NH3+]CC1([C@H](O)C(=O)NCCCNC(=O)c2ccc(-c3c4nc(c(-c5cccc(S(=O)(=O)[O-])c5F)c5ccc([nH]5)c(-c5cccc(S(=O)(=O)[O-])c5F)c5nc(c(-c6cccc(S(=O)(=O)[O-])c6F)c6ccc3[nH]6)C=C5)C=C4)cc2)Cc2ccccc2C1
REMARK SMILES IDX 10 1 9 2 8 3 6 4 7 5 4 7 3 8 78 9 85 10 79 11 84 12 80 13
REMARK SMILES IDX 83 14 81 15 82 16 2 17 1 18 5 22 11 24 12 25 13 26 14 28
REMARK SMILES IDX 15 29 16 30 77 31 17 32 76 33 18 34 19 35 20 36 70 37 21 38
REMARK SMILES IDX 75 39 69 40 71 41 22 42 74 43 68 44 67 45 23 47 55 48 35 49
REMARK SMILES IDX 54 50 36 51 39 52 53 53 72 54 37 55 38 56 52 58 73 59 40 60
REMARK SMILES IDX 24 61 25 62 33 63 26 64 28 65 34 66 27 67 29 68 30 69 31 70
REMARK SMILES IDX 32 71 56 72 57 73 65 74 58 75 60 76 66 77 59 78 61 79 62 80
REMARK SMILES IDX 63 81 64 82 41 83 42 84 50 85 43 86 45 87 51 88 44 89 46 90
REMARK SMILES IDX 47 91 48 92 49 93
REMARK H PARENT 8 6 1 19 1 20 1 21 5 23 12 27 71 46 39 57
REMARK Flexibility Score: inf
ROOT
ATOM      1  C   UNL A   1      35.518  21.010  24.731  1.00  0.00     0.042 C 
ENDROOT
BRANCH   1   2
ATOM      2  C   UNL A   1      34.509  20.634  25.793  1.00  0.00     0.117 C 
BRANCH   2   3
ATOM      3  N   UNL A   1      34.164  21.678  26.737  1.00  0.00    -0.354 N 
ATOM      4  C   UNL A   1      32.907  22.183  26.949  1.00  0.00     0.249 C 
ATOM      5  O   UNL A   1      32.634  22.656  28.054  1.00  0.00    -0.272 OA
ATOM      6  H   UNL A   1      34.897  22.059  27.272  1.00  0.00     0.163 HD
BRANCH   4   7
ATOM      7  C   UNL A   1      31.871  22.195  25.795  1.00  0.00     0.215 C 
BRANCH   7   8
ATOM      8  C   UNL A   1      32.124  23.194  24.598  1.00  0.00     0.062 C 
ATOM      9  C   UNL A   1      33.374  24.133  24.721  1.00  0.00     0.052 C 
ATOM     10  C   UNL A   1      30.932  24.204  24.460  1.00  0.00     0.052 C 
ATOM     11  C   UNL A   1      32.810  25.380  25.327  1.00  0.00    -0.044 A 
ATOM     12  C   UNL A   1      31.417  25.376  25.258  1.00  0.00    -0.044 A 
ATOM     13  C   UNL A   1      33.497  26.406  25.963  1.00  0.00     0.004 A 
ATOM     14  C   UNL A   1      30.673  26.355  25.896  1.00  0.00     0.004 A 
ATOM     15  C   UNL A   1      32.755  27.387  26.623  1.00  0.00     0.000 A 
ATOM     16  C   UNL A   1      31.353  27.353  26.602  1.00  0.00     0.000 A 
BRANCH   8  17
ATOM     17  C   UNL A   1      32.256  22.374  23.287  1.00  0.00     0.269 C 
BRANCH  17  18
ATOM     18  N   UNL A   1      32.458  23.167  22.075  1.00  0.00    -0.357 N 
ATOM     19  H   UNL A   1      33.164  23.882  22.249  1.00  0.00     0.344 HD
ATOM     20  H   UNL A   1      31.580  23.614  21.810  1.00  0.00     0.344 HD
ATOM     21  H   UNL A   1      32.771  22.559  21.318  1.00  0.00     0.344 HD
ENDBRANCH  17  18
ENDBRANCH   8  17
ENDBRANCH   7   8
BRANCH   7  22
ATOM     22  O   UNL A   1      30.519  22.204  26.255  1.00  0.00    -0.382 OA
ATOM     23  H   UNL A   1      30.244  21.299  26.468  1.00  0.00     0.211 HD
ENDBRANCH   7  22
ENDBRANCH   4   7
ENDBRANCH   2   3
ENDBRANCH   1   2
BRANCH   1  24
ATOM     24  C   UNL A   1      36.813  21.572  25.296  1.00  0.00     0.118 C 
BRANCH  24  25
ATOM     25  N   UNL A   1      37.862  20.566  25.473  1.00  0.00    -0.352 N 
ATOM     26  C   UNL A   1      39.152  20.658  25.952  1.00  0.00     0.251 C 
ATOM     27  H   UNL A   1      37.598  19.659  25.198  1.00  0.00     0.163 HD
ATOM     28  O   UNL A   1      39.900  19.698  25.847  1.00  0.00    -0.269 OA
BRANCH  26  29
ATOM     29  C   UNL A   1      39.639  21.917  26.562  1.00  0.00     0.039 A 
ATOM     30  C   UNL A   1      40.644  21.864  27.533  1.00  0.00     0.014 A 
ATOM     31  C   UNL A   1      39.119  23.150  26.173  1.00  0.00     0.014 A 
ATOM     32  C   UNL A   1      41.205  23.051  28.015  1.00  0.00     0.010 A 
ATOM     33  C   UNL A   1      39.760  24.319  26.555  1.00  0.00     0.010 A 
ATOM     34  C   UNL A   1      40.814  24.287  27.478  1.00  0.00    -0.014 A 
BRANCH  34  35
ATOM     35  C   UNL A   1      41.499  25.561  27.829  1.00  0.00     0.031 A 
ATOM     36  C   UNL A   1      40.750  26.644  28.562  1.00  0.00     0.074 A 
ATOM     37  C   UNL A   1      42.740  25.800  27.358  1.00  0.00     0.049 A 
ATOM     38  N   UNL A   1      41.117  27.873  28.816  1.00  0.00    -0.248 NA
ATOM     39  C   UNL A   1      39.391  26.319  29.030  1.00  0.00     0.031 C 
ATOM     40  C   UNL A   1      43.534  24.874  26.543  1.00  0.00     0.029 A 
ATOM     41  N   UNL A   1      43.540  26.912  27.461  1.00  0.00    -0.354 N 
ATOM     42  C   UNL A   1      40.019  28.481  29.414  1.00  0.00     0.074 A 
ATOM     43  C   UNL A   1      38.960  27.497  29.456  1.00  0.00     0.031 C 
ATOM     44  C   UNL A   1      44.702  25.453  26.227  1.00  0.00     0.029 A 
ATOM     45  C   UNL A   1      44.731  26.801  26.781  1.00  0.00     0.049 A 
ATOM     46  H   UNL A   1      43.284  27.712  27.974  1.00  0.00     0.167 HD
ATOM     47  C   UNL A   1      39.911  29.734  29.915  1.00  0.00     0.034 A 
ATOM     48  C   UNL A   1      45.731  27.690  26.612  1.00  0.00     0.034 A 
ATOM     49  C   UNL A   1      40.994  30.678  29.951  1.00  0.00     0.049 A 
ATOM     50  C   UNL A   1      45.619  29.044  27.258  1.00  0.00     0.074 A 
ATOM     51  C   UNL A   1      41.028  31.923  30.552  1.00  0.00     0.029 A 
ATOM     52  N   UNL A   1      42.234  30.481  29.366  1.00  0.00    -0.354 N 
ATOM     53  N   UNL A   1      44.637  29.536  27.974  1.00  0.00    -0.248 NA
ATOM     54  C   UNL A   1      46.764  29.953  27.104  1.00  0.00     0.031 C 
ATOM     55  C   UNL A   1      42.288  32.484  30.321  1.00  0.00     0.029 A 
ATOM     56  C   UNL A   1      43.041  31.583  29.588  1.00  0.00     0.049 A 
ATOM     57  H   UNL A   1      42.502  29.675  28.866  1.00  0.00     0.167 HD
ATOM     58  C   UNL A   1      45.058  30.797  28.380  1.00  0.00     0.074 A 
ATOM     59  C   UNL A   1      46.394  30.982  27.852  1.00  0.00     0.031 C 
ATOM     60  C   UNL A   1      44.391  31.726  29.107  1.00  0.00     0.034 A 
BRANCH  47  61
ATOM     61  C   UNL A   1      38.600  30.133  30.539  1.00  0.00     0.023 A 
ATOM     62  C   UNL A   1      38.339  29.791  31.881  1.00  0.00     0.012 A 
ATOM     63  C   UNL A   1      37.659  30.901  29.826  1.00  0.00     0.148 A 
ATOM     64  C   UNL A   1      37.150  30.179  32.495  1.00  0.00     0.002 A 
ATOM     65  C   UNL A   1      36.495  31.322  30.458  1.00  0.00     0.091 A 
ATOM     66  F   UNL A   1      37.916  31.199  28.544  1.00  0.00    -0.205 F 
ATOM     67  C   UNL A   1      36.234  30.953  31.788  1.00  0.00     0.022 A 
BRANCH  65  68
ATOM     68  S   UNL A   1      35.287  32.386  29.661  1.00  0.00     0.127 S 
ATOM     69  O   UNL A   1      34.778  31.514  28.604  1.00  0.00    -0.237 OA
ATOM     70  O   UNL A   1      34.341  32.645  30.748  1.00  0.00    -0.237 OA
ATOM     71  O   UNL A   1      36.023  33.557  29.205  1.00  0.00    -0.744 OA
ENDBRANCH  65  68
ENDBRANCH  47  61
BRANCH  48  72
ATOM     72  C   UNL A   1      46.955  27.301  25.856  1.00  0.00     0.023 A 
ATOM     73  C   UNL A   1      47.940  26.522  26.496  1.00  0.00     0.012 A 
ATOM     74  C   UNL A   1      47.140  27.665  24.508  1.00  0.00     0.148 A 
ATOM     75  C   UNL A   1      49.101  26.145  25.821  1.00  0.00     0.002 A 
ATOM     76  C   UNL A   1      48.273  27.238  23.824  1.00  0.00     0.091 A 
ATOM     77  F   UNL A   1      46.201  28.418  23.918  1.00  0.00    -0.205 F 
ATOM     78  C   UNL A   1      49.263  26.492  24.484  1.00  0.00     0.022 A 
BRANCH  76  79
ATOM     79  S   UNL A   1      48.491  27.525  22.064  1.00  0.00     0.127 S 
ATOM     80  O   UNL A   1      49.693  28.353  22.041  1.00  0.00    -0.237 OA
ATOM     81  O   UNL A   1      48.669  26.166  21.551  1.00  0.00    -0.237 OA
ATOM     82  O   UNL A   1      47.260  28.170  21.625  1.00  0.00    -0.744 OA
ENDBRANCH  76  79
ENDBRANCH  48  72
BRANCH  60  83
ATOM     83  C   UNL A   1      45.097  33.021  29.402  1.00  0.00     0.023 A 
ATOM     84  C   UNL A   1      45.908  33.125  30.549  1.00  0.00     0.012 A 
ATOM     85  C   UNL A   1      45.029  34.100  28.499  1.00  0.00     0.148 A 
ATOM     86  C   UNL A   1      46.620  34.295  30.808  1.00  0.00     0.002 A 
ATOM     87  C   UNL A   1      45.778  35.246  28.740  1.00  0.00     0.091 A 
ATOM     88  F   UNL A   1      44.237  33.986  27.424  1.00  0.00    -0.205 F 
ATOM     89  C   UNL A   1      46.566  35.348  29.898  1.00  0.00     0.022 A 
BRANCH  87  90
ATOM     90  S   UNL A   1      45.843  36.613  27.576  1.00  0.00     0.127 S 
ATOM     91  O   UNL A   1      46.843  37.482  28.196  1.00  0.00    -0.237 OA
ATOM     92  O   UNL A   1      46.284  35.955  26.346  1.00  0.00    -0.237 OA
ATOM     93  O   UNL A   1      44.492  37.154  27.520  1.00  0.00    -0.744 OA
ENDBRANCH  87  90
ENDBRANCH  60  83
ENDBRANCH  34  35
ENDBRANCH  26  29
ENDBRANCH  24  25
ENDBRANCH   1  24
TORSDOF 17
ENDMDL
