MODEL 1
REMARK VINA RESULT:     -12.0      0.000      0.000
REMARK SMILES CC[C@@H](Oc1ccccc1/C=C1/SC(=O)N(c2ccc(C)c(C)c2)C1=O)C(=O)NCCCNC(=O)c1ccc(-c2c3nc(c(-c4cccc(S(=O)(=O)[O-])c4F)c4ccc([nH]4)c(-c4cccc(S(=O)(=O)[O-])c4F)c4nc(c(-c5cccc(S(=O)(=O)[O-])c5F)c5ccc2[nH]5)C=C4)C=C3)cc1
REMARK SMILES IDX 30 1 29 2 27 3 28 4 3 6 2 7 1 8 4 9 5 10 6 11 10 12 7 13
REMARK SMILES IDX 9 14 8 15 11 16 12 17 13 18 25 19 14 20 16 21 26 22 15 23
REMARK SMILES IDX 17 24 18 25 24 26 19 27 22 28 20 29 23 30 21 31 31 32 32 33
REMARK SMILES IDX 33 34 34 35 35 37 36 38 37 39 98 40 38 41 97 42 39 43 40 44
REMARK SMILES IDX 41 45 91 46 42 47 96 48 90 49 92 50 43 51 95 52 89 53 88 54
REMARK SMILES IDX 44 56 76 57 56 58 75 59 57 60 60 61 74 62 93 63 58 64 59 65
REMARK SMILES IDX 73 67 94 68 61 69 45 70 46 71 54 72 47 73 49 74 55 75 48 76
REMARK SMILES IDX 50 77 51 78 52 79 53 80 77 81 78 82 86 83 79 84 81 85 87 86
REMARK SMILES IDX 80 87 82 88 83 89 84 90 85 91 62 92 63 93 71 94 64 95 66 96
REMARK SMILES IDX 72 97 65 98 67 99 68 100 69 101 70 102
REMARK H PARENT 29 5 33 36 92 55 60 66
REMARK Flexibility Score: inf
ROOT
ATOM      1  C   UNL A   1      36.462  21.249  25.762  1.00  0.00     0.118 C 
ENDROOT
BRANCH   1   2
ATOM      2  N   UNL A   1      35.400  20.411  25.231  1.00  0.00    -0.353 N 
ATOM      3  C   UNL A   1      34.141  20.732  24.808  1.00  0.00     0.261 C 
ATOM      4  O   UNL A   1      33.475  19.829  24.288  1.00  0.00    -0.271 OA
ATOM      5  H   UNL A   1      35.625  19.455  25.165  1.00  0.00     0.163 HD
BRANCH   3   6
ATOM      6  C   UNL A   1      33.510  22.121  25.048  1.00  0.00     0.261 C 
BRANCH   6   7
ATOM      7  C   UNL A   1      34.378  23.175  24.339  1.00  0.00     0.052 C 
ATOM      8  C   UNL A   1      34.320  23.054  22.820  1.00  0.00     0.008 C 
ENDBRANCH   6   7
BRANCH   6   9
ATOM      9  O   UNL A   1      32.170  22.173  24.556  1.00  0.00    -0.480 OA
BRANCH   9  10
ATOM     10  C   UNL A   1      31.277  22.834  25.358  1.00  0.00     0.127 A 
ATOM     11  C   UNL A   1      30.820  22.212  26.520  1.00  0.00     0.047 A 
ATOM     12  C   UNL A   1      30.713  24.049  24.920  1.00  0.00     0.018 A 
ATOM     13  C   UNL A   1      29.824  22.823  27.282  1.00  0.00     0.004 A 
ATOM     14  C   UNL A   1      29.732  24.661  25.704  1.00  0.00     0.012 A 
ATOM     15  C   UNL A   1      29.287  24.048  26.879  1.00  0.00     0.001 A 
BRANCH  12  16
ATOM     16  C   UNL A   1      31.152  24.686  23.670  1.00  0.00     0.033 C 
ATOM     17  C   UNL A   1      31.761  25.878  23.598  1.00  0.00     0.084 C 
ATOM     18  S   UNL A   1      31.915  26.776  22.135  1.00  0.00    -0.022 SA
ATOM     19  C   UNL A   1      32.284  26.679  24.738  1.00  0.00     0.272 C 
ATOM     20  C   UNL A   1      32.314  28.259  22.999  1.00  0.00     0.298 C 
ATOM     21  N   UNL A   1      32.545  27.972  24.318  1.00  0.00    -0.236 N 
ATOM     22  O   UNL A   1      32.435  26.229  25.866  1.00  0.00    -0.268 OA
ATOM     23  O   UNL A   1      32.348  29.346  22.433  1.00  0.00    -0.260 OA
BRANCH  21  24
ATOM     24  C   UNL A   1      32.999  28.938  25.247  1.00  0.00     0.053 A 
ATOM     25  C   UNL A   1      34.167  28.689  25.969  1.00  0.00     0.027 A 
ATOM     26  C   UNL A   1      32.245  30.076  25.539  1.00  0.00     0.030 A 
ATOM     27  C   UNL A   1      34.592  29.580  26.950  1.00  0.00     0.006 A 
ATOM     28  C   UNL A   1      32.600  30.911  26.616  1.00  0.00    -0.046 A 
ATOM     29  C   UNL A   1      33.822  30.702  27.280  1.00  0.00    -0.048 A 
ATOM     30  C   UNL A   1      31.643  31.992  27.036  1.00  0.00     0.044 C 
ATOM     31  C   UNL A   1      34.305  31.593  28.390  1.00  0.00     0.044 C 
ENDBRANCH  21  24
ENDBRANCH  12  16
ENDBRANCH   9  10
ENDBRANCH   6   9
ENDBRANCH   3   6
ENDBRANCH   1   2
BRANCH   1  32
ATOM     32  C   UNL A   1      37.790  21.061  25.040  1.00  0.00     0.042 C 
BRANCH  32  33
ATOM     33  C   UNL A   1      39.028  21.183  25.919  1.00  0.00     0.118 C 
BRANCH  33  34
ATOM     34  N   UNL A   1      39.895  20.013  25.879  1.00  0.00    -0.352 N 
ATOM     35  C   UNL A   1      41.248  19.861  26.040  1.00  0.00     0.251 C 
ATOM     36  H   UNL A   1      39.417  19.171  25.702  1.00  0.00     0.163 HD
ATOM     37  O   UNL A   1      41.729  18.733  25.940  1.00  0.00    -0.269 OA
BRANCH  35  38
ATOM     38  C   UNL A   1      42.150  20.992  26.340  1.00  0.00     0.039 A 
ATOM     39  C   UNL A   1      42.448  21.276  27.681  1.00  0.00     0.014 A 
ATOM     40  C   UNL A   1      42.562  21.870  25.339  1.00  0.00     0.014 A 
ATOM     41  C   UNL A   1      43.132  22.449  28.017  1.00  0.00     0.010 A 
ATOM     42  C   UNL A   1      43.313  22.994  25.665  1.00  0.00     0.010 A 
ATOM     43  C   UNL A   1      43.547  23.327  27.009  1.00  0.00    -0.014 A 
BRANCH  43  44
ATOM     44  C   UNL A   1      44.076  24.680  27.314  1.00  0.00     0.031 A 
ATOM     45  C   UNL A   1      43.121  25.726  27.833  1.00  0.00     0.074 A 
ATOM     46  C   UNL A   1      45.355  24.995  27.049  1.00  0.00     0.049 A 
ATOM     47  N   UNL A   1      43.301  27.010  27.996  1.00  0.00    -0.248 NA
ATOM     48  C   UNL A   1      41.763  25.265  28.173  1.00  0.00     0.031 C 
ATOM     49  C   UNL A   1      46.358  24.081  26.504  1.00  0.00     0.029 A 
ATOM     50  N   UNL A   1      46.017  26.192  27.162  1.00  0.00    -0.354 N 
ATOM     51  C   UNL A   1      42.069  27.517  28.394  1.00  0.00     0.074 A 
ATOM     52  C   UNL A   1      41.141  26.408  28.417  1.00  0.00     0.031 C 
ATOM     53  C   UNL A   1      47.502  24.756  26.305  1.00  0.00     0.029 A 
ATOM     54  C   UNL A   1      47.304  26.152  26.681  1.00  0.00     0.049 A 
ATOM     55  H   UNL A   1      45.609  27.000  27.549  1.00  0.00     0.167 HD
ATOM     56  C   UNL A   1      41.743  28.786  28.741  1.00  0.00     0.034 A 
ATOM     57  C   UNL A   1      48.212  27.140  26.546  1.00  0.00     0.034 A 
ATOM     58  C   UNL A   1      42.690  29.866  28.779  1.00  0.00     0.049 A 
ATOM     59  C   UNL A   1      47.854  28.526  27.011  1.00  0.00     0.074 A 
ATOM     60  C   UNL A   1      42.492  31.176  29.175  1.00  0.00     0.029 A 
ATOM     61  N   UNL A   1      44.024  29.754  28.417  1.00  0.00    -0.354 N 
ATOM     62  N   UNL A   1      46.713  28.970  27.484  1.00  0.00    -0.248 NA
ATOM     63  C   UNL A   1      48.919  29.538  26.970  1.00  0.00     0.031 C 
ATOM     64  C   UNL A   1      43.708  31.858  29.049  1.00  0.00     0.029 A 
ATOM     65  C   UNL A   1      44.668  30.966  28.596  1.00  0.00     0.049 A 
ATOM     66  H   UNL A   1      44.452  28.933  28.083  1.00  0.00     0.167 HD
ATOM     67  C   UNL A   1      46.935  30.297  27.836  1.00  0.00     0.074 A 
ATOM     68  C   UNL A   1      48.324  30.579  27.536  1.00  0.00     0.031 C 
ATOM     69  C   UNL A   1      46.067  31.205  28.349  1.00  0.00     0.034 A 
BRANCH  56  70
ATOM     70  C   UNL A   1      40.317  29.052  29.158  1.00  0.00     0.023 A 
ATOM     71  C   UNL A   1      39.360  29.400  28.182  1.00  0.00     0.012 A 
ATOM     72  C   UNL A   1      39.916  28.935  30.503  1.00  0.00     0.148 A 
ATOM     73  C   UNL A   1      38.041  29.675  28.542  1.00  0.00     0.002 A 
ATOM     74  C   UNL A   1      38.587  29.161  30.848  1.00  0.00     0.091 A 
ATOM     75  F   UNL A   1      40.840  28.625  31.424  1.00  0.00    -0.205 F 
ATOM     76  C   UNL A   1      37.653  29.546  29.873  1.00  0.00     0.022 A 
BRANCH  74  77
ATOM     77  S   UNL A   1      37.969  28.941  32.521  1.00  0.00     0.127 S 
ATOM     78  O   UNL A   1      38.848  29.828  33.281  1.00  0.00    -0.237 OA
ATOM     79  O   UNL A   1      36.587  29.410  32.403  1.00  0.00    -0.237 OA
ATOM     80  O   UNL A   1      38.104  27.521  32.814  1.00  0.00    -0.744 OA
ENDBRANCH  74  77
ENDBRANCH  56  70
BRANCH  57  81
ATOM     81  C   UNL A   1      49.568  26.826  26.014  1.00  0.00     0.023 A 
ATOM     82  C   UNL A   1      50.476  26.109  26.818  1.00  0.00     0.012 A 
ATOM     83  C   UNL A   1      49.945  27.183  24.705  1.00  0.00     0.148 A 
ATOM     84  C   UNL A   1      51.744  25.779  26.340  1.00  0.00     0.002 A 
ATOM     85  C   UNL A   1      51.191  26.805  24.215  1.00  0.00     0.091 A 
ATOM     86  F   UNL A   1      49.071  27.874  23.959  1.00  0.00    -0.205 F 
ATOM     87  C   UNL A   1      52.097  26.117  25.036  1.00  0.00     0.022 A 
BRANCH  85  88
ATOM     88  S   UNL A   1      51.683  27.079  22.510  1.00  0.00     0.127 S 
ATOM     89  O   UNL A   1      50.458  26.745  21.787  1.00  0.00    -0.237 OA
ATOM     90  O   UNL A   1      52.024  28.502  22.518  1.00  0.00    -0.237 OA
ATOM     91  O   UNL A   1      52.816  26.192  22.279  1.00  0.00    -0.744 OA
ENDBRANCH  85  88
ENDBRANCH  57  81
BRANCH  69  92
ATOM     92  C   UNL A   1      46.602  32.575  28.672  1.00  0.00     0.023 A 
ATOM     93  C   UNL A   1      47.139  32.839  29.946  1.00  0.00     0.012 A 
ATOM     94  C   UNL A   1      46.631  33.581  27.686  1.00  0.00     0.148 A 
ATOM     95  C   UNL A   1      47.666  34.095  30.246  1.00  0.00     0.002 A 
ATOM     96  C   UNL A   1      47.201  34.814  27.976  1.00  0.00     0.091 A 
ATOM     97  F   UNL A   1      46.095  33.318  26.484  1.00  0.00    -0.205 F 
ATOM     98  C   UNL A   1      47.707  35.078  29.259  1.00  0.00     0.022 A 
BRANCH  96  99
ATOM     99  S   UNL A   1      47.382  36.099  26.733  1.00  0.00     0.127 S 
ATOM    100  O   UNL A   1      45.988  36.447  26.459  1.00  0.00    -0.237 OA
ATOM    101  O   UNL A   1      48.137  37.126  27.451  1.00  0.00    -0.237 OA
ATOM    102  O   UNL A   1      48.106  35.483  25.629  1.00  0.00    -0.744 OA
ENDBRANCH  96  99
ENDBRANCH  69  92
ENDBRANCH  43  44
ENDBRANCH  35  38
ENDBRANCH  33  34
ENDBRANCH  32  33
ENDBRANCH   1  32
TORSDOF 18
ENDMDL
MODEL 2
REMARK VINA RESULT:     -11.9      5.515     10.918
REMARK SMILES CC[C@@H](Oc1ccccc1/C=C1/SC(=O)N(c2ccc(C)c(C)c2)C1=O)C(=O)NCCCNC(=O)c1ccc(-c2c3nc(c(-c4cccc(S(=O)(=O)[O-])c4F)c4ccc([nH]4)c(-c4cccc(S(=O)(=O)[O-])c4F)c4nc(c(-c5cccc(S(=O)(=O)[O-])c5F)c5ccc2[nH]5)C=C4)C=C3)cc1
REMARK SMILES IDX 30 1 29 2 27 3 28 4 3 6 2 7 1 8 4 9 5 10 6 11 10 12 7 13
REMARK SMILES IDX 9 14 8 15 11 16 12 17 13 18 25 19 14 20 16 21 26 22 15 23
REMARK SMILES IDX 17 24 18 25 24 26 19 27 22 28 20 29 23 30 21 31 31 32 32 33
REMARK SMILES IDX 33 34 34 35 35 37 36 38 37 39 98 40 38 41 97 42 39 43 40 44
REMARK SMILES IDX 41 45 91 46 42 47 96 48 90 49 92 50 43 51 95 52 89 53 88 54
REMARK SMILES IDX 44 56 76 57 56 58 75 59 57 60 60 61 74 62 93 63 58 64 59 65
REMARK SMILES IDX 73 67 94 68 61 69 45 70 46 71 54 72 47 73 49 74 55 75 48 76
REMARK SMILES IDX 50 77 51 78 52 79 53 80 77 81 78 82 86 83 79 84 81 85 87 86
REMARK SMILES IDX 80 87 82 88 83 89 84 90 85 91 62 92 63 93 71 94 64 95 66 96
REMARK SMILES IDX 72 97 65 98 67 99 68 100 69 101 70 102
REMARK H PARENT 29 5 33 36 92 55 60 66
REMARK Flexibility Score: inf
ROOT
ATOM      1  C   UNL A   1      32.171  29.408  24.536  1.00  0.00     0.118 C 
ENDROOT
BRANCH   1   2
ATOM      2  N   UNL A   1      31.392  29.240  23.320  1.00  0.00    -0.353 N 
ATOM      3  C   UNL A   1      31.070  28.114  22.618  1.00  0.00     0.261 C 
ATOM      4  O   UNL A   1      30.287  28.246  21.670  1.00  0.00    -0.271 OA
ATOM      5  H   UNL A   1      31.039  30.076  22.940  1.00  0.00     0.163 HD
BRANCH   3   6
ATOM      6  C   UNL A   1      31.716  26.740  22.905  1.00  0.00     0.261 C 
BRANCH   6   7
ATOM      7  C   UNL A   1      32.882  26.540  21.922  1.00  0.00     0.052 C 
ATOM      8  C   UNL A   1      32.503  25.656  20.738  1.00  0.00     0.008 C 
ENDBRANCH   6   7
BRANCH   6   9
ATOM      9  O   UNL A   1      32.186  26.659  24.251  1.00  0.00    -0.480 OA
BRANCH   9  10
ATOM     10  C   UNL A   1      31.524  25.765  25.050  1.00  0.00     0.127 A 
ATOM     11  C   UNL A   1      30.202  26.026  25.411  1.00  0.00     0.047 A 
ATOM     12  C   UNL A   1      32.229  24.686  25.623  1.00  0.00     0.018 A 
ATOM     13  C   UNL A   1      29.557  25.185  26.317  1.00  0.00     0.004 A 
ATOM     14  C   UNL A   1      31.564  23.839  26.513  1.00  0.00     0.012 A 
ATOM     15  C   UNL A   1      30.233  24.090  26.860  1.00  0.00     0.001 A 
BRANCH  12  16
ATOM     16  C   UNL A   1      33.637  24.433  25.287  1.00  0.00     0.033 C 
ATOM     17  C   UNL A   1      34.157  23.218  25.058  1.00  0.00     0.084 C 
ATOM     18  S   UNL A   1      35.850  22.899  25.053  1.00  0.00    -0.022 SA
ATOM     19  C   UNL A   1      33.403  21.945  24.902  1.00  0.00     0.272 C 
ATOM     20  C   UNL A   1      35.599  21.161  25.193  1.00  0.00     0.298 C 
ATOM     21  N   UNL A   1      34.273  20.873  25.004  1.00  0.00    -0.236 N 
ATOM     22  O   UNL A   1      32.194  21.894  24.722  1.00  0.00    -0.268 OA
ATOM     23  O   UNL A   1      36.523  20.392  25.438  1.00  0.00    -0.260 OA
BRANCH  21  24
ATOM     24  C   UNL A   1      33.775  19.550  24.943  1.00  0.00     0.053 A 
ATOM     25  C   UNL A   1      33.054  19.047  26.028  1.00  0.00     0.027 A 
ATOM     26  C   UNL A   1      34.084  18.704  23.877  1.00  0.00     0.030 A 
ATOM     27  C   UNL A   1      32.624  17.723  26.034  1.00  0.00     0.006 A 
ATOM     28  C   UNL A   1      33.764  17.334  23.936  1.00  0.00    -0.046 A 
ATOM     29  C   UNL A   1      32.965  16.855  24.990  1.00  0.00    -0.048 A 
ATOM     30  C   UNL A   1      34.311  16.420  22.875  1.00  0.00     0.044 C 
ATOM     31  C   UNL A   1      32.521  15.422  25.085  1.00  0.00     0.044 C 
ENDBRANCH  21  24
ENDBRANCH  12  16
ENDBRANCH   9  10
ENDBRANCH   6   9
ENDBRANCH   3   6
ENDBRANCH   1   2
BRANCH   1  32
ATOM     32  C   UNL A   1      31.442  30.208  25.608  1.00  0.00     0.042 C 
BRANCH  32  33
ATOM     33  C   UNL A   1      32.277  30.560  26.832  1.00  0.00     0.118 C 
BRANCH  33  34
ATOM     34  N   UNL A   1      32.364  31.991  27.092  1.00  0.00    -0.352 N 
ATOM     35  C   UNL A   1      33.367  32.778  27.596  1.00  0.00     0.251 C 
ATOM     36  H   UNL A   1      31.545  32.487  26.861  1.00  0.00     0.163 HD
ATOM     37  O   UNL A   1      33.160  33.984  27.723  1.00  0.00    -0.269 OA
BRANCH  35  38
ATOM     38  C   UNL A   1      34.689  32.241  27.981  1.00  0.00     0.039 A 
ATOM     39  C   UNL A   1      34.771  30.914  28.427  1.00  0.00     0.014 A 
ATOM     40  C   UNL A   1      35.805  33.071  28.068  1.00  0.00     0.014 A 
ATOM     41  C   UNL A   1      35.959  30.431  28.985  1.00  0.00     0.010 A 
ATOM     42  C   UNL A   1      37.010  32.568  28.547  1.00  0.00     0.010 A 
ATOM     43  C   UNL A   1      37.080  31.266  29.069  1.00  0.00    -0.014 A 
BRANCH  43  44
ATOM     44  C   UNL A   1      38.287  30.884  29.842  1.00  0.00     0.031 A 
ATOM     45  C   UNL A   1      39.230  29.866  29.250  1.00  0.00     0.074 A 
ATOM     46  C   UNL A   1      38.490  31.362  31.081  1.00  0.00     0.049 A 
ATOM     47  N   UNL A   1      40.237  29.244  29.802  1.00  0.00    -0.248 NA
ATOM     48  C   UNL A   1      38.971  29.464  27.855  1.00  0.00     0.031 C 
ATOM     49  C   UNL A   1      37.625  32.315  31.775  1.00  0.00     0.029 A 
ATOM     50  N   UNL A   1      39.473  31.072  31.995  1.00  0.00    -0.354 N 
ATOM     51  C   UNL A   1      40.690  28.337  28.850  1.00  0.00     0.074 A 
ATOM     52  C   UNL A   1      39.827  28.467  27.696  1.00  0.00     0.031 C 
ATOM     53  C   UNL A   1      38.099  32.512  33.017  1.00  0.00     0.029 A 
ATOM     54  C   UNL A   1      39.283  31.681  33.213  1.00  0.00     0.049 A 
ATOM     55  H   UNL A   1      40.238  30.486  31.797  1.00  0.00     0.167 HD
ATOM     56  C   UNL A   1      41.748  27.492  28.914  1.00  0.00     0.034 A 
ATOM     57  C   UNL A   1      39.979  31.563  34.361  1.00  0.00     0.034 A 
ATOM     58  C   UNL A   1      42.637  27.420  30.040  1.00  0.00     0.049 A 
ATOM     59  C   UNL A   1      41.197  30.679  34.386  1.00  0.00     0.074 A 
ATOM     60  C   UNL A   1      43.777  26.652  30.193  1.00  0.00     0.029 A 
ATOM     61  N   UNL A   1      42.492  28.158  31.205  1.00  0.00    -0.354 N 
ATOM     62  N   UNL A   1      41.675  29.904  33.441  1.00  0.00    -0.248 NA
ATOM     63  C   UNL A   1      42.001  30.687  35.617  1.00  0.00     0.031 C 
ATOM     64  C   UNL A   1      44.320  26.924  31.454  1.00  0.00     0.029 A 
ATOM     65  C   UNL A   1      43.529  27.878  32.076  1.00  0.00     0.049 A 
ATOM     66  H   UNL A   1      41.759  28.790  31.385  1.00  0.00     0.167 HD
ATOM     67  C   UNL A   1      42.854  29.367  33.945  1.00  0.00     0.074 A 
ATOM     68  C   UNL A   1      43.026  29.919  35.274  1.00  0.00     0.031 C 
ATOM     69  C   UNL A   1      43.712  28.488  33.369  1.00  0.00     0.034 A 
BRANCH  56  70
ATOM     70  C   UNL A   1      42.024  26.625  27.710  1.00  0.00     0.023 A 
ATOM     71  C   UNL A   1      42.674  27.181  26.587  1.00  0.00     0.012 A 
ATOM     72  C   UNL A   1      41.668  25.263  27.693  1.00  0.00     0.148 A 
ATOM     73  C   UNL A   1      42.919  26.410  25.452  1.00  0.00     0.002 A 
ATOM     74  C   UNL A   1      41.961  24.487  26.577  1.00  0.00     0.091 A 
ATOM     75  F   UNL A   1      41.031  24.754  28.758  1.00  0.00    -0.205 F 
ATOM     76  C   UNL A   1      42.572  25.062  25.450  1.00  0.00     0.022 A 
BRANCH  74  77
ATOM     77  S   UNL A   1      41.630  22.722  26.508  1.00  0.00     0.127 S 
ATOM     78  O   UNL A   1      42.240  22.356  25.232  1.00  0.00    -0.237 OA
ATOM     79  O   UNL A   1      42.343  22.228  27.687  1.00  0.00    -0.237 OA
ATOM     80  O   UNL A   1      40.182  22.584  26.574  1.00  0.00    -0.744 OA
ENDBRANCH  74  77
ENDBRANCH  56  70
BRANCH  57  81
ATOM     81  C   UNL A   1      39.577  32.364  35.552  1.00  0.00     0.023 A 
ATOM     82  C   UNL A   1      38.806  31.757  36.564  1.00  0.00     0.012 A 
ATOM     83  C   UNL A   1      39.994  33.699  35.715  1.00  0.00     0.148 A 
ATOM     84  C   UNL A   1      38.434  32.473  37.701  1.00  0.00     0.002 A 
ATOM     85  C   UNL A   1      39.666  34.390  36.876  1.00  0.00     0.091 A 
ATOM     86  F   UNL A   1      40.718  34.261  34.737  1.00  0.00    -0.205 F 
ATOM     87  C   UNL A   1      38.873  33.785  37.863  1.00  0.00     0.022 A 
BRANCH  85  88
ATOM     88  S   UNL A   1      40.294  36.035  37.232  1.00  0.00     0.127 S 
ATOM     89  O   UNL A   1      41.733  35.797  37.309  1.00  0.00    -0.237 OA
ATOM     90  O   UNL A   1      39.856  36.788  36.056  1.00  0.00    -0.237 OA
ATOM     91  O   UNL A   1      39.653  36.441  38.477  1.00  0.00    -0.744 OA
ENDBRANCH  85  88
ENDBRANCH  57  81
BRANCH  69  92
ATOM     92  C   UNL A   1      44.945  28.106  34.145  1.00  0.00     0.023 A 
ATOM     93  C   UNL A   1      46.109  28.893  34.051  1.00  0.00     0.012 A 
ATOM     94  C   UNL A   1      44.924  27.003  35.021  1.00  0.00     0.148 A 
ATOM     95  C   UNL A   1      47.245  28.567  34.789  1.00  0.00     0.002 A 
ATOM     96  C   UNL A   1      46.044  26.712  35.790  1.00  0.00     0.091 A 
ATOM     97  F   UNL A   1      43.814  26.252  35.082  1.00  0.00    -0.205 F 
ATOM     98  C   UNL A   1      47.210  27.485  35.666  1.00  0.00     0.022 A 
BRANCH  96  99
ATOM     99  S   UNL A   1      46.047  25.397  37.014  1.00  0.00     0.127 S 
ATOM    100  O   UNL A   1      47.383  25.531  37.593  1.00  0.00    -0.237 OA
ATOM    101  O   UNL A   1      44.955  25.794  37.903  1.00  0.00    -0.237 OA
ATOM    102  O   UNL A   1      45.801  24.166  36.274  1.00  0.00    -0.744 OA
ENDBRANCH  96  99
ENDBRANCH  69  92
ENDBRANCH  43  44
ENDBRANCH  35  38
ENDBRANCH  33  34
ENDBRANCH  32  33
ENDBRANCH   1  32
TORSDOF 18
ENDMDL
MODEL 3
REMARK VINA RESULT:     -11.8      5.320      9.441
REMARK SMILES CC[C@@H](Oc1ccccc1/C=C1/SC(=O)N(c2ccc(C)c(C)c2)C1=O)C(=O)NCCCNC(=O)c1ccc(-c2c3nc(c(-c4cccc(S(=O)(=O)[O-])c4F)c4ccc([nH]4)c(-c4cccc(S(=O)(=O)[O-])c4F)c4nc(c(-c5cccc(S(=O)(=O)[O-])c5F)c5ccc2[nH]5)C=C4)C=C3)cc1
REMARK SMILES IDX 30 1 29 2 27 3 28 4 3 6 2 7 1 8 4 9 5 10 6 11 10 12 7 13
REMARK SMILES IDX 9 14 8 15 11 16 12 17 13 18 25 19 14 20 16 21 26 22 15 23
REMARK SMILES IDX 17 24 18 25 24 26 19 27 22 28 20 29 23 30 21 31 31 32 32 33
REMARK SMILES IDX 33 34 34 35 35 37 36 38 37 39 98 40 38 41 97 42 39 43 40 44
REMARK SMILES IDX 41 45 91 46 42 47 96 48 90 49 92 50 43 51 95 52 89 53 88 54
REMARK SMILES IDX 44 56 76 57 56 58 75 59 57 60 60 61 74 62 93 63 58 64 59 65
REMARK SMILES IDX 73 67 94 68 61 69 45 70 46 71 54 72 47 73 49 74 55 75 48 76
REMARK SMILES IDX 50 77 51 78 52 79 53 80 77 81 78 82 86 83 79 84 81 85 87 86
REMARK SMILES IDX 80 87 82 88 83 89 84 90 85 91 62 92 63 93 71 94 64 95 66 96
REMARK SMILES IDX 72 97 65 98 67 99 68 100 69 101 70 102
REMARK H PARENT 29 5 33 36 92 55 60 66
REMARK Flexibility Score: inf
ROOT
ATOM      1  C   UNL A   1      31.252  29.362  25.199  1.00  0.00     0.118 C 
ENDROOT
BRANCH   1   2
ATOM      2  N   UNL A   1      30.691  29.295  23.860  1.00  0.00    -0.353 N 
ATOM      3  C   UNL A   1      30.639  28.263  22.967  1.00  0.00     0.261 C 
ATOM      4  O   UNL A   1      29.992  28.448  21.930  1.00  0.00    -0.271 OA
ATOM      5  H   UNL A   1      30.281  30.133  23.544  1.00  0.00     0.163 HD
BRANCH   3   6
ATOM      6  C   UNL A   1      31.426  26.949  23.166  1.00  0.00     0.261 C 
BRANCH   6   7
ATOM      7  C   UNL A   1      32.659  26.979  22.247  1.00  0.00     0.052 C 
ATOM      8  C   UNL A   1      33.303  25.606  22.087  1.00  0.00     0.008 C 
ENDBRANCH   6   7
BRANCH   6   9
ATOM      9  O   UNL A   1      31.829  26.787  24.527  1.00  0.00    -0.480 OA
BRANCH   9  10
ATOM     10  C   UNL A   1      31.178  25.800  25.218  1.00  0.00     0.127 A 
ATOM     11  C   UNL A   1      29.847  25.995  25.587  1.00  0.00     0.047 A 
ATOM     12  C   UNL A   1      31.899  24.682  25.684  1.00  0.00     0.018 A 
ATOM     13  C   UNL A   1      29.209  25.050  26.391  1.00  0.00     0.004 A 
ATOM     14  C   UNL A   1      31.242  23.732  26.470  1.00  0.00     0.012 A 
ATOM     15  C   UNL A   1      29.903  23.918  26.825  1.00  0.00     0.001 A 
BRANCH  12  16
ATOM     16  C   UNL A   1      33.317  24.494  25.342  1.00  0.00     0.033 C 
ATOM     17  C   UNL A   1      33.889  23.306  25.102  1.00  0.00     0.084 C 
ATOM     18  S   UNL A   1      35.595  23.062  25.090  1.00  0.00    -0.022 SA
ATOM     19  C   UNL A   1      33.192  22.001  24.937  1.00  0.00     0.272 C 
ATOM     20  C   UNL A   1      35.421  21.313  25.217  1.00  0.00     0.298 C 
ATOM     21  N   UNL A   1      34.109  20.968  25.028  1.00  0.00    -0.236 N 
ATOM     22  O   UNL A   1      31.985  21.898  24.760  1.00  0.00    -0.268 OA
ATOM     23  O   UNL A   1      36.380  20.585  25.452  1.00  0.00    -0.260 OA
BRANCH  21  24
ATOM     24  C   UNL A   1      33.669  19.625  24.959  1.00  0.00     0.053 A 
ATOM     25  C   UNL A   1      32.962  19.087  26.035  1.00  0.00     0.027 A 
ATOM     26  C   UNL A   1      34.025  18.798  23.892  1.00  0.00     0.030 A 
ATOM     27  C   UNL A   1      32.590  17.745  26.032  1.00  0.00     0.006 A 
ATOM     28  C   UNL A   1      33.765  17.415  23.943  1.00  0.00    -0.046 A 
ATOM     29  C   UNL A   1      32.978  16.897  24.988  1.00  0.00    -0.048 A 
ATOM     30  C   UNL A   1      34.362  16.530  22.884  1.00  0.00     0.044 C 
ATOM     31  C   UNL A   1      32.597  15.446  25.073  1.00  0.00     0.044 C 
ENDBRANCH  21  24
ENDBRANCH  12  16
ENDBRANCH   9  10
ENDBRANCH   6   9
ENDBRANCH   3   6
ENDBRANCH   1   2
BRANCH   1  32
ATOM     32  C   UNL A   1      31.353  30.784  25.735  1.00  0.00     0.042 C 
BRANCH  32  33
ATOM     33  C   UNL A   1      32.304  30.966  26.912  1.00  0.00     0.118 C 
BRANCH  33  34
ATOM     34  N   UNL A   1      32.593  32.359  27.223  1.00  0.00    -0.352 N 
ATOM     35  C   UNL A   1      33.702  32.979  27.739  1.00  0.00     0.251 C 
ATOM     36  H   UNL A   1      31.849  32.973  27.025  1.00  0.00     0.163 HD
ATOM     37  O   UNL A   1      33.667  34.196  27.915  1.00  0.00    -0.269 OA
BRANCH  35  38
ATOM     38  C   UNL A   1      34.940  32.248  28.081  1.00  0.00     0.039 A 
ATOM     39  C   UNL A   1      34.866  30.864  28.297  1.00  0.00     0.014 A 
ATOM     40  C   UNL A   1      36.125  32.928  28.356  1.00  0.00     0.014 A 
ATOM     41  C   UNL A   1      35.966  30.172  28.812  1.00  0.00     0.010 A 
ATOM     42  C   UNL A   1      37.245  32.227  28.792  1.00  0.00     0.010 A 
ATOM     43  C   UNL A   1      37.156  30.857  29.085  1.00  0.00    -0.014 A 
BRANCH  43  44
ATOM     44  C   UNL A   1      38.272  30.226  29.831  1.00  0.00     0.031 A 
ATOM     45  C   UNL A   1      38.533  30.670  31.249  1.00  0.00     0.074 A 
ATOM     46  C   UNL A   1      39.090  29.345  29.230  1.00  0.00     0.049 A 
ATOM     47  N   UNL A   1      39.545  30.405  32.032  1.00  0.00    -0.248 NA
ATOM     48  C   UNL A   1      37.534  31.573  31.849  1.00  0.00     0.031 C 
ATOM     49  C   UNL A   1      38.964  28.875  27.852  1.00  0.00     0.029 A 
ATOM     50  N   UNL A   1      40.221  28.723  29.697  1.00  0.00    -0.354 N 
ATOM     51  C   UNL A   1      39.339  31.154  33.185  1.00  0.00     0.074 A 
ATOM     52  C   UNL A   1      38.121  31.910  32.987  1.00  0.00     0.031 C 
ATOM     53  C   UNL A   1      39.994  28.057  27.573  1.00  0.00     0.029 A 
ATOM     54  C   UNL A   1      40.863  27.969  28.743  1.00  0.00     0.049 A 
ATOM     55  H   UNL A   1      40.542  28.808  30.624  1.00  0.00     0.167 HD
ATOM     56  C   UNL A   1      40.077  31.189  34.321  1.00  0.00     0.034 A 
ATOM     57  C   UNL A   1      42.031  27.299  28.805  1.00  0.00     0.034 A 
ATOM     58  C   UNL A   1      41.248  30.384  34.530  1.00  0.00     0.049 A 
ATOM     59  C   UNL A   1      42.794  27.288  30.103  1.00  0.00     0.074 A 
ATOM     60  C   UNL A   1      42.038  30.285  35.661  1.00  0.00     0.029 A 
ATOM     61  N   UNL A   1      41.789  29.523  33.587  1.00  0.00    -0.354 N 
ATOM     62  N   UNL A   1      42.531  27.920  31.222  1.00  0.00    -0.248 NA
ATOM     63  C   UNL A   1      43.990  26.434  30.164  1.00  0.00     0.031 C 
ATOM     64  C   UNL A   1      43.061  29.367  35.399  1.00  0.00     0.029 A 
ATOM     65  C   UNL A   1      42.893  28.876  34.113  1.00  0.00     0.049 A 
ATOM     66  H   UNL A   1      41.438  29.390  32.677  1.00  0.00     0.167 HD
ATOM     67  C   UNL A   1      43.500  27.509  32.131  1.00  0.00     0.074 A 
ATOM     68  C   UNL A   1      44.346  26.561  31.435  1.00  0.00     0.031 C 
ATOM     69  C   UNL A   1      43.682  27.890  33.421  1.00  0.00     0.034 A 
BRANCH  56  70
ATOM     70  C   UNL A   1      39.601  32.088  35.436  1.00  0.00     0.023 A 
ATOM     71  C   UNL A   1      38.725  31.576  36.417  1.00  0.00     0.012 A 
ATOM     72  C   UNL A   1      40.035  33.425  35.533  1.00  0.00     0.148 A 
ATOM     73  C   UNL A   1      38.250  32.390  37.443  1.00  0.00     0.002 A 
ATOM     74  C   UNL A   1      39.597  34.217  36.589  1.00  0.00     0.091 A 
ATOM     75  F   UNL A   1      40.850  33.904  34.582  1.00  0.00    -0.205 F 
ATOM     76  C   UNL A   1      38.693  33.707  37.535  1.00  0.00     0.022 A 
BRANCH  74  77
ATOM     77  S   UNL A   1      40.174  35.899  36.843  1.00  0.00     0.127 S 
ATOM     78  O   UNL A   1      39.673  36.568  35.644  1.00  0.00    -0.237 OA
ATOM     79  O   UNL A   1      39.489  36.277  38.081  1.00  0.00    -0.237 OA
ATOM     80  O   UNL A   1      41.623  35.813  36.955  1.00  0.00    -0.744 OA
ENDBRANCH  74  77
ENDBRANCH  56  70
BRANCH  57  81
ATOM     81  C   UNL A   1      42.500  26.525  27.622  1.00  0.00     0.023 A 
ATOM     82  C   UNL A   1      43.331  27.152  26.672  1.00  0.00     0.012 A 
ATOM     83  C   UNL A   1      42.175  25.165  27.457  1.00  0.00     0.148 A 
ATOM     84  C   UNL A   1      43.807  26.448  25.566  1.00  0.00     0.002 A 
ATOM     85  C   UNL A   1      42.696  24.454  26.380  1.00  0.00     0.091 A 
ATOM     86  F   UNL A   1      41.376  24.589  28.364  1.00  0.00    -0.205 F 
ATOM     87  C   UNL A   1      43.499  25.098  25.426  1.00  0.00     0.022 A 
BRANCH  85  88
ATOM     88  S   UNL A   1      42.463  22.683  26.188  1.00  0.00     0.127 S 
ATOM     89  O   UNL A   1      43.063  22.167  27.416  1.00  0.00    -0.237 OA
ATOM     90  O   UNL A   1      41.005  22.575  26.121  1.00  0.00    -0.237 OA
ATOM     91  O   UNL A   1      43.148  22.327  24.952  1.00  0.00    -0.744 OA
ENDBRANCH  85  88
ENDBRANCH  57  81
BRANCH  69  92
ATOM     92  C   UNL A   1      44.806  27.242  34.186  1.00  0.00     0.023 A 
ATOM     93  C   UNL A   1      46.087  27.829  34.188  1.00  0.00     0.012 A 
ATOM     94  C   UNL A   1      44.572  26.087  34.957  1.00  0.00     0.148 A 
ATOM     95  C   UNL A   1      47.126  27.255  34.919  1.00  0.00     0.002 A 
ATOM     96  C   UNL A   1      45.600  25.548  35.721  1.00  0.00     0.091 A 
ATOM     97  F   UNL A   1      43.352  25.530  34.926  1.00  0.00    -0.205 F 
ATOM     98  C   UNL A   1      46.881  26.122  35.693  1.00  0.00     0.022 A 
BRANCH  96  99
ATOM     99  S   UNL A   1      45.342  24.150  36.820  1.00  0.00     0.127 S 
ATOM    100  O   UNL A   1      46.701  23.882  37.286  1.00  0.00    -0.237 OA
ATOM    101  O   UNL A   1      44.449  24.711  37.835  1.00  0.00    -0.237 OA
ATOM    102  O   UNL A   1      44.738  23.108  36.001  1.00  0.00    -0.744 OA
ENDBRANCH  96  99
ENDBRANCH  69  92
ENDBRANCH  43  44
ENDBRANCH  35  38
ENDBRANCH  33  34
ENDBRANCH  32  33
ENDBRANCH   1  32
TORSDOF 18
ENDMDL
