MODEL 1
REMARK VINA RESULT:     -11.7      0.000      0.000
REMARK SMILES O=C(NCCCNC(=O)[C@H]1CCCCN1C(=O)CSCc1ccccc1)c1ccc(-c2c3nc(c(-c4cccc(S(=O)(=O)[O-])c4F)c4ccc([nH]4)c(-c4cccc(S(=O)(=O)[O-])c4F)c4nc(c(-c5cccc(S(=O)(=O)[O-])c5F)c5ccc2[nH]5)C=C4)C=C3)cc1
REMARK SMILES IDX 6 1 5 2 4 3 3 4 1 5 2 6 27 8 28 9 89 10 29 11 88 12 30 13
REMARK SMILES IDX 31 14 32 15 82 16 33 17 87 18 81 19 83 20 34 21 86 22 80 23
REMARK SMILES IDX 79 24 35 26 67 27 47 28 66 29 48 30 51 31 65 32 84 33 49 34
REMARK SMILES IDX 50 35 64 37 85 38 52 39 36 40 37 41 45 42 38 43 40 44 46 45
REMARK SMILES IDX 39 46 41 47 42 48 43 49 44 50 68 51 69 52 77 53 70 54 72 55
REMARK SMILES IDX 78 56 71 57 73 58 74 59 75 60 76 61 53 62 54 63 62 64 55 65
REMARK SMILES IDX 57 66 63 67 56 68 58 69 59 70 60 71 61 72 7 73 8 74 9 76
REMARK SMILES IDX 10 77 11 78 15 79 12 80 14 81 13 82 16 83 17 84 18 85 19 86
REMARK SMILES IDX 20 87 21 88 22 89 26 90 23 91 25 92 24 93
REMARK H PARENT 3 7 83 25 51 36 7 75
REMARK Flexibility Score: inf
ROOT
ATOM      1  C   UNL A   1      32.296  27.422  26.817  1.00  0.00     0.117 C 
ENDROOT
BRANCH   1   2
ATOM      2  C   UNL A   1      31.655  28.764  26.533  1.00  0.00     0.042 C 
BRANCH   2   3
ATOM      3  C   UNL A   1      32.673  29.737  25.966  1.00  0.00     0.118 C 
BRANCH   3   4
ATOM      4  N   UNL A   1      32.332  31.124  26.280  1.00  0.00    -0.352 N 
ATOM      5  O   UNL A   1      32.296  33.037  27.464  1.00  0.00    -0.269 OA
ATOM      6  C   UNL A   1      32.901  32.009  27.170  1.00  0.00     0.251 C 
ATOM      7  H   UNL A   1      31.570  31.485  25.773  1.00  0.00     0.163 HD
BRANCH   6   8
ATOM      8  C   UNL A   1      34.215  31.709  27.778  1.00  0.00     0.039 A 
ATOM      9  C   UNL A   1      34.490  30.422  28.227  1.00  0.00     0.014 A 
ATOM     10  C   UNL A   1      35.189  32.705  27.899  1.00  0.00     0.014 A 
ATOM     11  C   UNL A   1      35.606  30.189  29.008  1.00  0.00     0.010 A 
ATOM     12  C   UNL A   1      36.402  32.418  28.540  1.00  0.00     0.010 A 
ATOM     13  C   UNL A   1      36.605  31.167  29.140  1.00  0.00    -0.014 A 
BRANCH  13  14
ATOM     14  C   UNL A   1      37.863  30.777  29.832  1.00  0.00     0.031 A 
ATOM     15  C   UNL A   1      38.168  31.208  31.238  1.00  0.00     0.074 A 
ATOM     16  C   UNL A   1      38.699  29.939  29.184  1.00  0.00     0.049 A 
ATOM     17  N   UNL A   1      39.172  30.852  32.000  1.00  0.00    -0.248 NA
ATOM     18  C   UNL A   1      37.251  32.168  31.875  1.00  0.00     0.031 C 
ATOM     19  C   UNL A   1      38.536  29.503  27.791  1.00  0.00     0.029 A 
ATOM     20  N   UNL A   1      39.817  29.268  29.604  1.00  0.00    -0.354 N 
ATOM     21  C   UNL A   1      39.036  31.572  33.181  1.00  0.00     0.074 A 
ATOM     22  C   UNL A   1      37.852  32.393  33.036  1.00  0.00     0.031 C 
ATOM     23  C   UNL A   1      39.455  28.575  27.505  1.00  0.00     0.029 A 
ATOM     24  C   UNL A   1      40.332  28.413  28.656  1.00  0.00     0.049 A 
ATOM     25  H   UNL A   1      40.213  29.385  30.498  1.00  0.00     0.167 HD
ATOM     26  C   UNL A   1      39.817  31.539  34.287  1.00  0.00     0.034 A 
ATOM     27  C   UNL A   1      41.399  27.594  28.697  1.00  0.00     0.034 A 
ATOM     28  C   UNL A   1      40.969  30.688  34.436  1.00  0.00     0.049 A 
ATOM     29  C   UNL A   1      42.199  27.526  29.961  1.00  0.00     0.074 A 
ATOM     30  C   UNL A   1      41.813  30.564  35.527  1.00  0.00     0.029 A 
ATOM     31  N   UNL A   1      41.437  29.808  33.471  1.00  0.00    -0.354 N 
ATOM     32  N   UNL A   1      41.997  28.152  31.095  1.00  0.00    -0.248 NA
ATOM     33  C   UNL A   1      43.364  26.632  29.961  1.00  0.00     0.031 C 
ATOM     34  C   UNL A   1      42.793  29.613  35.218  1.00  0.00     0.029 A 
ATOM     35  C   UNL A   1      42.551  29.134  33.941  1.00  0.00     0.049 A 
ATOM     36  H   UNL A   1      41.035  29.681  32.581  1.00  0.00     0.167 HD
ATOM     37  C   UNL A   1      43.009  27.731  31.945  1.00  0.00     0.074 A 
ATOM     38  C   UNL A   1      43.790  26.754  31.211  1.00  0.00     0.031 C 
ATOM     39  C   UNL A   1      43.291  28.140  33.206  1.00  0.00     0.034 A 
BRANCH  26  40
ATOM     40  C   UNL A   1      39.431  32.417  35.450  1.00  0.00     0.023 A 
ATOM     41  C   UNL A   1      38.647  31.878  36.492  1.00  0.00     0.012 A 
ATOM     42  C   UNL A   1      39.903  33.740  35.555  1.00  0.00     0.148 A 
ATOM     43  C   UNL A   1      38.322  32.650  37.608  1.00  0.00     0.002 A 
ATOM     44  C   UNL A   1      39.608  34.490  36.689  1.00  0.00     0.091 A 
ATOM     45  F   UNL A   1      40.631  34.240  34.547  1.00  0.00    -0.205 F 
ATOM     46  C   UNL A   1      38.810  33.949  37.712  1.00  0.00     0.022 A 
BRANCH  44  47
ATOM     47  S   UNL A   1      40.247  36.149  36.952  1.00  0.00     0.127 S 
ATOM     48  O   UNL A   1      41.675  35.889  37.131  1.00  0.00    -0.237 OA
ATOM     49  O   UNL A   1      39.902  36.816  35.697  1.00  0.00    -0.237 OA
ATOM     50  O   UNL A   1      39.554  36.664  38.125  1.00  0.00    -0.744 OA
ENDBRANCH  44  47
ENDBRANCH  26  40
BRANCH  27  51
ATOM     51  C   UNL A   1      41.739  26.765  27.506  1.00  0.00     0.023 A 
ATOM     52  C   UNL A   1      42.445  27.334  26.430  1.00  0.00     0.012 A 
ATOM     53  C   UNL A   1      41.426  25.391  27.467  1.00  0.00     0.148 A 
ATOM     54  C   UNL A   1      42.815  26.556  25.331  1.00  0.00     0.002 A 
ATOM     55  C   UNL A   1      41.861  24.608  26.407  1.00  0.00     0.091 A 
ATOM     56  F   UNL A   1      40.729  24.867  28.487  1.00  0.00    -0.205 F 
ATOM     57  C   UNL A   1      42.539  25.190  25.328  1.00  0.00     0.022 A 
BRANCH  55  58
ATOM     58  S   UNL A   1      41.697  22.819  26.439  1.00  0.00     0.127 S 
ATOM     59  O   UNL A   1      42.154  22.499  27.789  1.00  0.00    -0.237 OA
ATOM     60  O   UNL A   1      40.264  22.632  26.211  1.00  0.00    -0.237 OA
ATOM     61  O   UNL A   1      42.536  22.346  25.344  1.00  0.00    -0.744 OA
ENDBRANCH  55  58
ENDBRANCH  27  51
BRANCH  39  62
ATOM     62  C   UNL A   1      44.499  27.530  33.861  1.00  0.00     0.023 A 
ATOM     63  C   UNL A   1      45.753  28.158  33.721  1.00  0.00     0.012 A 
ATOM     64  C   UNL A   1      44.392  26.360  34.635  1.00  0.00     0.148 A 
ATOM     65  C   UNL A   1      46.890  27.607  34.309  1.00  0.00     0.002 A 
ATOM     66  C   UNL A   1      45.522  25.841  35.256  1.00  0.00     0.091 A 
ATOM     67  F   UNL A   1      43.194  25.765  34.736  1.00  0.00    -0.205 F 
ATOM     68  C   UNL A   1      46.773  26.456  35.085  1.00  0.00     0.022 A 
BRANCH  66  69
ATOM     69  S   UNL A   1      45.442  24.410  36.336  1.00  0.00     0.127 S 
ATOM     70  O   UNL A   1      44.658  23.473  35.534  1.00  0.00    -0.237 OA
ATOM     71  O   UNL A   1      46.853  24.051  36.489  1.00  0.00    -0.237 OA
ATOM     72  O   UNL A   1      44.806  24.876  37.562  1.00  0.00    -0.744 OA
ENDBRANCH  66  69
ENDBRANCH  39  62
ENDBRANCH  13  14
ENDBRANCH   6   8
ENDBRANCH   3   4
ENDBRANCH   2   3
ENDBRANCH   1   2
BRANCH   1  73
ATOM     73  N   UNL A   1      31.321  26.359  26.889  1.00  0.00    -0.354 N 
ATOM     74  C   UNL A   1      31.325  25.096  26.386  1.00  0.00     0.242 C 
ATOM     75  H   UNL A   1      30.507  26.590  27.392  1.00  0.00     0.163 HD
ATOM     76  O   UNL A   1      30.393  24.376  26.767  1.00  0.00    -0.273 OA
BRANCH  74  77
ATOM     77  C   UNL A   1      32.479  24.502  25.532  1.00  0.00     0.174 C 
ATOM     78  C   UNL A   1      32.881  23.030  25.681  1.00  0.00     0.035 C 
ATOM     79  N   UNL A   1      32.358  24.881  24.119  1.00  0.00    -0.330 N 
ATOM     80  C   UNL A   1      32.458  22.054  24.568  1.00  0.00     0.004 C 
ATOM     81  C   UNL A   1      31.413  24.086  23.356  1.00  0.00     0.120 C 
ATOM     82  C   UNL A   1      31.908  22.649  23.266  1.00  0.00     0.022 C 
BRANCH  79  83
ATOM     83  C   UNL A   1      33.200  25.857  23.609  1.00  0.00     0.233 C 
ATOM     84  O   UNL A   1      34.277  26.132  24.148  1.00  0.00    -0.274 OA
BRANCH  83  85
ATOM     85  C   UNL A   1      32.815  26.596  22.339  1.00  0.00     0.170 C 
BRANCH  85  86
ATOM     86  S   UNL A   1      32.018  28.219  22.608  1.00  0.00    -0.147 SA
BRANCH  86  87
ATOM     87  C   UNL A   1      30.270  27.756  22.847  1.00  0.00     0.105 C 
BRANCH  87  88
ATOM     88  C   UNL A   1      29.367  28.936  23.082  1.00  0.00    -0.038 A 
ATOM     89  C   UNL A   1      29.900  30.159  23.517  1.00  0.00     0.004 A 
ATOM     90  C   UNL A   1      27.981  28.835  22.899  1.00  0.00     0.004 A 
ATOM     91  C   UNL A   1      29.067  31.250  23.764  1.00  0.00     0.000 A 
ATOM     92  C   UNL A   1      27.150  29.930  23.134  1.00  0.00     0.000 A 
ATOM     93  C   UNL A   1      27.692  31.137  23.568  1.00  0.00     0.000 A 
ENDBRANCH  87  88
ENDBRANCH  86  87
ENDBRANCH  85  86
ENDBRANCH  83  85
ENDBRANCH  79  83
ENDBRANCH  74  77
ENDBRANCH   1  73
TORSDOF 18
ENDMDL
MODEL 2
REMARK VINA RESULT:     -11.6      2.311      4.003
REMARK SMILES O=C(NCCCNC(=O)[C@H]1CCCCN1C(=O)CSCc1ccccc1)c1ccc(-c2c3nc(c(-c4cccc(S(=O)(=O)[O-])c4F)c4ccc([nH]4)c(-c4cccc(S(=O)(=O)[O-])c4F)c4nc(c(-c5cccc(S(=O)(=O)[O-])c5F)c5ccc2[nH]5)C=C4)C=C3)cc1
REMARK SMILES IDX 6 1 5 2 4 3 3 4 1 5 2 6 27 8 28 9 89 10 29 11 88 12 30 13
REMARK SMILES IDX 31 14 32 15 82 16 33 17 87 18 81 19 83 20 34 21 86 22 80 23
REMARK SMILES IDX 79 24 35 26 67 27 47 28 66 29 48 30 51 31 65 32 84 33 49 34
REMARK SMILES IDX 50 35 64 37 85 38 52 39 36 40 37 41 45 42 38 43 40 44 46 45
REMARK SMILES IDX 39 46 41 47 42 48 43 49 44 50 68 51 69 52 77 53 70 54 72 55
REMARK SMILES IDX 78 56 71 57 73 58 74 59 75 60 76 61 53 62 54 63 62 64 55 65
REMARK SMILES IDX 57 66 63 67 56 68 58 69 59 70 60 71 61 72 7 73 8 74 9 76
REMARK SMILES IDX 10 77 11 78 15 79 12 80 14 81 13 82 16 83 17 84 18 85 19 86
REMARK SMILES IDX 20 87 21 88 22 89 26 90 23 91 25 92 24 93
REMARK H PARENT 3 7 83 25 51 36 7 75
REMARK Flexibility Score: inf
ROOT
ATOM      1  C   UNL A   1      32.437  28.411  22.810  1.00  0.00     0.117 C 
ENDROOT
BRANCH   1   2
ATOM      2  C   UNL A   1      33.598  28.910  23.645  1.00  0.00     0.042 C 
BRANCH   2   3
ATOM      3  C   UNL A   1      33.266  28.840  25.124  1.00  0.00     0.118 C 
BRANCH   3   4
ATOM      4  N   UNL A   1      32.652  30.080  25.602  1.00  0.00    -0.352 N 
ATOM      5  O   UNL A   1      32.181  31.744  27.041  1.00  0.00    -0.269 OA
ATOM      6  C   UNL A   1      32.986  30.896  26.660  1.00  0.00     0.251 C 
ATOM      7  H   UNL A   1      31.872  30.379  25.082  1.00  0.00     0.163 HD
BRANCH   6   8
ATOM      8  C   UNL A   1      34.288  30.735  27.341  1.00  0.00     0.039 A 
ATOM      9  C   UNL A   1      34.736  29.463  27.681  1.00  0.00     0.014 A 
ATOM     10  C   UNL A   1      35.078  31.848  27.640  1.00  0.00     0.014 A 
ATOM     11  C   UNL A   1      35.822  29.318  28.524  1.00  0.00     0.010 A 
ATOM     12  C   UNL A   1      36.278  31.681  28.348  1.00  0.00     0.010 A 
ATOM     13  C   UNL A   1      36.640  30.417  28.834  1.00  0.00    -0.014 A 
BRANCH  13  14
ATOM     14  C   UNL A   1      37.895  30.149  29.585  1.00  0.00     0.031 A 
ATOM     15  C   UNL A   1      38.095  30.613  31.000  1.00  0.00     0.074 A 
ATOM     16  C   UNL A   1      38.835  29.390  28.982  1.00  0.00     0.049 A 
ATOM     17  N   UNL A   1      39.093  30.356  31.809  1.00  0.00    -0.248 NA
ATOM     18  C   UNL A   1      37.065  31.485  31.587  1.00  0.00     0.031 C 
ATOM     19  C   UNL A   1      38.776  28.935  27.588  1.00  0.00     0.029 A 
ATOM     20  N   UNL A   1      39.990  28.829  29.458  1.00  0.00    -0.354 N 
ATOM     21  C   UNL A   1      38.836  31.065  32.976  1.00  0.00     0.074 A 
ATOM     22  C   UNL A   1      37.589  31.771  32.772  1.00  0.00     0.031 C 
ATOM     23  C   UNL A   1      39.790  28.096  27.351  1.00  0.00     0.029 A 
ATOM     24  C   UNL A   1      40.625  28.021  28.541  1.00  0.00     0.049 A 
ATOM     25  H   UNL A   1      40.333  28.986  30.368  1.00  0.00     0.167 HD
ATOM     26  C   UNL A   1      39.566  31.111  34.117  1.00  0.00     0.034 A 
ATOM     27  C   UNL A   1      41.761  27.306  28.636  1.00  0.00     0.034 A 
ATOM     28  C   UNL A   1      40.785  30.371  34.324  1.00  0.00     0.049 A 
ATOM     29  C   UNL A   1      42.506  27.319  29.936  1.00  0.00     0.074 A 
ATOM     30  C   UNL A   1      41.587  30.331  35.452  1.00  0.00     0.029 A 
ATOM     31  N   UNL A   1      41.376  29.534  33.388  1.00  0.00    -0.354 N 
ATOM     32  N   UNL A   1      42.195  27.929  31.054  1.00  0.00    -0.248 NA
ATOM     33  C   UNL A   1      43.747  26.538  29.995  1.00  0.00     0.031 C 
ATOM     34  C   UNL A   1      42.664  29.475  35.196  1.00  0.00     0.029 A 
ATOM     35  C   UNL A   1      42.526  28.970  33.913  1.00  0.00     0.049 A 
ATOM     36  H   UNL A   1      41.028  29.367  32.482  1.00  0.00     0.167 HD
ATOM     37  C   UNL A   1      43.202  27.607  31.952  1.00  0.00     0.074 A 
ATOM     38  C   UNL A   1      44.104  26.705  31.262  1.00  0.00     0.031 C 
ATOM     39  C   UNL A   1      43.387  28.047  33.221  1.00  0.00     0.034 A 
BRANCH  26  40
ATOM     40  C   UNL A   1      39.048  31.953  35.254  1.00  0.00     0.023 A 
ATOM     41  C   UNL A   1      39.092  33.359  35.149  1.00  0.00     0.012 A 
ATOM     42  C   UNL A   1      38.449  31.363  36.385  1.00  0.00     0.148 A 
ATOM     43  C   UNL A   1      38.567  34.163  36.161  1.00  0.00     0.002 A 
ATOM     44  C   UNL A   1      37.894  32.172  37.372  1.00  0.00     0.091 A 
ATOM     45  F   UNL A   1      38.434  30.026  36.476  1.00  0.00    -0.205 F 
ATOM     46  C   UNL A   1      37.960  33.572  37.265  1.00  0.00     0.022 A 
BRANCH  44  47
ATOM     47  S   UNL A   1      37.026  31.509  38.799  1.00  0.00     0.127 S 
ATOM     48  O   UNL A   1      38.009  31.712  39.862  1.00  0.00    -0.237 OA
ATOM     49  O   UNL A   1      35.853  32.380  38.878  1.00  0.00    -0.237 OA
ATOM     50  O   UNL A   1      36.731  30.119  38.478  1.00  0.00    -0.744 OA
ENDBRANCH  44  47
ENDBRANCH  26  40
BRANCH  27  51
ATOM     51  C   UNL A   1      42.230  26.508  27.469  1.00  0.00     0.023 A 
ATOM     52  C   UNL A   1      43.119  27.076  26.538  1.00  0.00     0.012 A 
ATOM     53  C   UNL A   1      41.853  25.158  27.317  1.00  0.00     0.148 A 
ATOM     54  C   UNL A   1      43.607  26.323  25.469  1.00  0.00     0.002 A 
ATOM     55  C   UNL A   1      42.399  24.394  26.295  1.00  0.00     0.091 A 
ATOM     56  F   UNL A   1      40.984  24.636  28.196  1.00  0.00    -0.205 F 
ATOM     57  C   UNL A   1      43.262  24.978  25.357  1.00  0.00     0.022 A 
BRANCH  55  58
ATOM     58  S   UNL A   1      42.136  22.619  26.213  1.00  0.00     0.127 S 
ATOM     59  O   UNL A   1      42.878  22.259  25.008  1.00  0.00    -0.237 OA
ATOM     60  O   UNL A   1      42.734  22.156  27.467  1.00  0.00    -0.237 OA
ATOM     61  O   UNL A   1      40.689  22.455  26.153  1.00  0.00    -0.744 OA
ENDBRANCH  55  58
ENDBRANCH  27  51
BRANCH  39  62
ATOM     62  C   UNL A   1      44.617  27.555  33.934  1.00  0.00     0.023 A 
ATOM     63  C   UNL A   1      45.817  28.287  33.830  1.00  0.00     0.012 A 
ATOM     64  C   UNL A   1      44.580  26.394  34.728  1.00  0.00     0.148 A 
ATOM     65  C   UNL A   1      46.972  27.848  34.473  1.00  0.00     0.002 A 
ATOM     66  C   UNL A   1      45.724  25.986  35.402  1.00  0.00     0.091 A 
ATOM     67  F   UNL A   1      43.434  25.699  34.794  1.00  0.00    -0.205 F 
ATOM     68  C   UNL A   1      46.924  26.704  35.266  1.00  0.00     0.022 A 
BRANCH  66  69
ATOM     69  S   UNL A   1      45.724  24.572  36.508  1.00  0.00     0.127 S 
ATOM     70  O   UNL A   1      46.594  25.036  37.586  1.00  0.00    -0.237 OA
ATOM     71  O   UNL A   1      44.311  24.456  36.871  1.00  0.00    -0.237 OA
ATOM     72  O   UNL A   1      46.234  23.456  35.721  1.00  0.00    -0.744 OA
ENDBRANCH  66  69
ENDBRANCH  39  62
ENDBRANCH  13  14
ENDBRANCH   6   8
ENDBRANCH   3   4
ENDBRANCH   2   3
ENDBRANCH   1   2
BRANCH   1  73
ATOM     73  N   UNL A   1      32.858  27.463  21.807  1.00  0.00    -0.354 N 
ATOM     74  C   UNL A   1      33.072  26.122  21.866  1.00  0.00     0.242 C 
ATOM     75  H   UNL A   1      33.019  27.858  20.920  1.00  0.00     0.163 HD
ATOM     76  O   UNL A   1      33.276  25.573  20.776  1.00  0.00    -0.273 OA
BRANCH  74  77
ATOM     77  C   UNL A   1      32.917  25.271  23.157  1.00  0.00     0.174 C 
ATOM     78  C   UNL A   1      31.525  24.899  23.682  1.00  0.00     0.035 C 
ATOM     79  N   UNL A   1      33.813  24.109  23.152  1.00  0.00    -0.330 N 
ATOM     80  C   UNL A   1      31.044  23.451  23.479  1.00  0.00     0.004 C 
ATOM     81  C   UNL A   1      33.336  22.978  22.376  1.00  0.00     0.120 C 
ATOM     82  C   UNL A   1      32.074  22.414  23.016  1.00  0.00     0.022 C 
BRANCH  79  83
ATOM     83  C   UNL A   1      34.950  24.132  23.945  1.00  0.00     0.233 C 
ATOM     84  O   UNL A   1      35.008  24.808  24.977  1.00  0.00    -0.274 OA
BRANCH  83  85
ATOM     85  C   UNL A   1      36.152  23.284  23.562  1.00  0.00     0.170 C 
BRANCH  85  86
ATOM     86  S   UNL A   1      37.219  22.793  24.963  1.00  0.00    -0.147 SA
BRANCH  86  87
ATOM     87  C   UNL A   1      36.856  21.012  25.117  1.00  0.00     0.105 C 
BRANCH  87  88
ATOM     88  C   UNL A   1      35.398  20.718  25.345  1.00  0.00    -0.038 A 
ATOM     89  C   UNL A   1      34.763  19.694  24.627  1.00  0.00     0.004 A 
ATOM     90  C   UNL A   1      34.641  21.472  26.252  1.00  0.00     0.004 A 
ATOM     91  C   UNL A   1      33.405  19.433  24.811  1.00  0.00     0.000 A 
ATOM     92  C   UNL A   1      33.287  21.202  26.445  1.00  0.00     0.000 A 
ATOM     93  C   UNL A   1      32.668  20.184  25.724  1.00  0.00     0.000 A 
ENDBRANCH  87  88
ENDBRANCH  86  87
ENDBRANCH  85  86
ENDBRANCH  83  85
ENDBRANCH  79  83
ENDBRANCH  74  77
ENDBRANCH   1  73
TORSDOF 18
ENDMDL
MODEL 3
REMARK VINA RESULT:     -11.6      1.707      4.045
REMARK SMILES O=C(NCCCNC(=O)[C@H]1CCCCN1C(=O)CSCc1ccccc1)c1ccc(-c2c3nc(c(-c4cccc(S(=O)(=O)[O-])c4F)c4ccc([nH]4)c(-c4cccc(S(=O)(=O)[O-])c4F)c4nc(c(-c5cccc(S(=O)(=O)[O-])c5F)c5ccc2[nH]5)C=C4)C=C3)cc1
REMARK SMILES IDX 6 1 5 2 4 3 3 4 1 5 2 6 27 8 28 9 89 10 29 11 88 12 30 13
REMARK SMILES IDX 31 14 32 15 82 16 33 17 87 18 81 19 83 20 34 21 86 22 80 23
REMARK SMILES IDX 79 24 35 26 67 27 47 28 66 29 48 30 51 31 65 32 84 33 49 34
REMARK SMILES IDX 50 35 64 37 85 38 52 39 36 40 37 41 45 42 38 43 40 44 46 45
REMARK SMILES IDX 39 46 41 47 42 48 43 49 44 50 68 51 69 52 77 53 70 54 72 55
REMARK SMILES IDX 78 56 71 57 73 58 74 59 75 60 76 61 53 62 54 63 62 64 55 65
REMARK SMILES IDX 57 66 63 67 56 68 58 69 59 70 60 71 61 72 7 73 8 74 9 76
REMARK SMILES IDX 10 77 11 78 15 79 12 80 14 81 13 82 16 83 17 84 18 85 19 86
REMARK SMILES IDX 20 87 21 88 22 89 26 90 23 91 25 92 24 93
REMARK H PARENT 3 7 83 25 51 36 7 75
REMARK Flexibility Score: inf
ROOT
ATOM      1  C   UNL A   1      31.746  27.845  23.701  1.00  0.00     0.117 C 
ENDROOT
BRANCH   1   2
ATOM      2  C   UNL A   1      32.862  28.834  23.961  1.00  0.00     0.042 C 
BRANCH   2   3
ATOM      3  C   UNL A   1      33.055  29.046  25.452  1.00  0.00     0.118 C 
BRANCH   3   4
ATOM      4  N   UNL A   1      32.540  30.345  25.887  1.00  0.00    -0.352 N 
ATOM      5  O   UNL A   1      32.229  32.103  27.255  1.00  0.00    -0.269 OA
ATOM      6  C   UNL A   1      32.963  31.186  26.892  1.00  0.00     0.251 C 
ATOM      7  H   UNL A   1      31.764  30.670  25.377  1.00  0.00     0.163 HD
BRANCH   6   8
ATOM      8  C   UNL A   1      34.274  30.971  27.539  1.00  0.00     0.039 A 
ATOM      9  C   UNL A   1      34.615  29.706  28.004  1.00  0.00     0.014 A 
ATOM     10  C   UNL A   1      35.180  32.026  27.681  1.00  0.00     0.014 A 
ATOM     11  C   UNL A   1      35.721  29.547  28.819  1.00  0.00     0.010 A 
ATOM     12  C   UNL A   1      36.390  31.819  28.359  1.00  0.00     0.010 A 
ATOM     13  C   UNL A   1      36.653  30.586  28.972  1.00  0.00    -0.014 A 
BRANCH  13  14
ATOM     14  C   UNL A   1      37.912  30.277  29.702  1.00  0.00     0.031 A 
ATOM     15  C   UNL A   1      38.149  30.734  31.114  1.00  0.00     0.074 A 
ATOM     16  C   UNL A   1      38.817  29.490  29.084  1.00  0.00     0.049 A 
ATOM     17  N   UNL A   1      39.151  30.444  31.906  1.00  0.00    -0.248 NA
ATOM     18  C   UNL A   1      37.157  31.637  31.718  1.00  0.00     0.031 C 
ATOM     19  C   UNL A   1      38.721  29.038  27.690  1.00  0.00     0.029 A 
ATOM     20  N   UNL A   1      39.961  28.891  29.541  1.00  0.00    -0.354 N 
ATOM     21  C   UNL A   1      38.936  31.160  33.078  1.00  0.00     0.074 A 
ATOM     22  C   UNL A   1      37.709  31.905  32.894  1.00  0.00     0.031 C 
ATOM     23  C   UNL A   1      39.704  28.167  27.437  1.00  0.00     0.029 A 
ATOM     24  C   UNL A   1      40.555  28.065  28.613  1.00  0.00     0.049 A 
ATOM     25  H   UNL A   1      40.324  29.037  30.445  1.00  0.00     0.167 HD
ATOM     26  C   UNL A   1      39.686  31.181  34.206  1.00  0.00     0.034 A 
ATOM     27  C   UNL A   1      41.669  27.314  28.689  1.00  0.00     0.034 A 
ATOM     28  C   UNL A   1      40.884  30.403  34.394  1.00  0.00     0.049 A 
ATOM     29  C   UNL A   1      42.435  27.302  29.977  1.00  0.00     0.074 A 
ATOM     30  C   UNL A   1      41.702  30.337  35.509  1.00  0.00     0.029 A 
ATOM     31  N   UNL A   1      41.432  29.549  33.448  1.00  0.00    -0.354 N 
ATOM     32  N   UNL A   1      42.162  27.920  31.100  1.00  0.00    -0.248 NA
ATOM     33  C   UNL A   1      43.652  26.482  30.016  1.00  0.00     0.031 C 
ATOM     34  C   UNL A   1      42.747  29.447  35.234  1.00  0.00     0.029 A 
ATOM     35  C   UNL A   1      42.573  28.948  33.954  1.00  0.00     0.049 A 
ATOM     36  H   UNL A   1      41.065  29.394  32.548  1.00  0.00     0.167 HD
ATOM     37  C   UNL A   1      43.173  27.566  31.981  1.00  0.00     0.074 A 
ATOM     38  C   UNL A   1      44.034  26.636  31.276  1.00  0.00     0.031 C 
ATOM     39  C   UNL A   1      43.393  27.998  33.247  1.00  0.00     0.034 A 
BRANCH  26  40
ATOM     40  C   UNL A   1      39.213  32.038  35.352  1.00  0.00     0.023 A 
ATOM     41  C   UNL A   1      38.303  31.503  36.287  1.00  0.00     0.012 A 
ATOM     42  C   UNL A   1      39.722  33.337  35.551  1.00  0.00     0.148 A 
ATOM     43  C   UNL A   1      37.892  32.253  37.389  1.00  0.00     0.002 A 
ATOM     44  C   UNL A   1      39.337  34.064  36.673  1.00  0.00     0.091 A 
ATOM     45  F   UNL A   1      40.571  33.836  34.642  1.00  0.00    -0.205 F 
ATOM     46  C   UNL A   1      38.416  33.527  37.587  1.00  0.00     0.022 A 
BRANCH  44  47
ATOM     47  S   UNL A   1      40.009  35.686  37.058  1.00  0.00     0.127 S 
ATOM     48  O   UNL A   1      41.434  35.390  37.195  1.00  0.00    -0.237 OA
ATOM     49  O   UNL A   1      39.659  36.457  35.865  1.00  0.00    -0.237 OA
ATOM     50  O   UNL A   1      39.340  36.117  38.278  1.00  0.00    -0.744 OA
ENDBRANCH  44  47
ENDBRANCH  26  40
BRANCH  27  51
ATOM     51  C   UNL A   1      42.094  26.502  27.514  1.00  0.00     0.023 A 
ATOM     52  C   UNL A   1      42.920  27.070  26.527  1.00  0.00     0.012 A 
ATOM     53  C   UNL A   1      41.739  25.142  27.408  1.00  0.00     0.148 A 
ATOM     54  C   UNL A   1      43.368  26.306  25.448  1.00  0.00     0.002 A 
ATOM     55  C   UNL A   1      42.247  24.369  26.373  1.00  0.00     0.091 A 
ATOM     56  F   UNL A   1      40.929  24.620  28.342  1.00  0.00    -0.205 F 
ATOM     57  C   UNL A   1      43.046  24.952  25.380  1.00  0.00     0.022 A 
BRANCH  55  58
ATOM     58  S   UNL A   1      42.019  22.587  26.340  1.00  0.00     0.127 S 
ATOM     59  O   UNL A   1      40.564  22.470  26.316  1.00  0.00    -0.237 OA
ATOM     60  O   UNL A   1      42.689  22.209  25.095  1.00  0.00    -0.237 OA
ATOM     61  O   UNL A   1      42.687  22.100  27.541  1.00  0.00    -0.744 OA
ENDBRANCH  55  58
ENDBRANCH  27  51
BRANCH  39  62
ATOM     62  C   UNL A   1      44.617  27.468  33.941  1.00  0.00     0.023 A 
ATOM     63  C   UNL A   1      45.827  28.186  33.855  1.00  0.00     0.012 A 
ATOM     64  C   UNL A   1      44.566  26.282  34.697  1.00  0.00     0.148 A 
ATOM     65  C   UNL A   1      46.978  27.710  34.480  1.00  0.00     0.002 A 
ATOM     66  C   UNL A   1      45.707  25.837  35.354  1.00  0.00     0.091 A 
ATOM     67  F   UNL A   1      43.412  25.601  34.745  1.00  0.00    -0.205 F 
ATOM     68  C   UNL A   1      46.916  26.542  35.237  1.00  0.00     0.022 A 
BRANCH  66  69
ATOM     69  S   UNL A   1      45.691  24.389  36.414  1.00  0.00     0.127 S 
ATOM     70  O   UNL A   1      45.630  23.304  35.437  1.00  0.00    -0.237 OA
ATOM     71  O   UNL A   1      46.968  24.502  37.121  1.00  0.00    -0.237 OA
ATOM     72  O   UNL A   1      44.519  24.537  37.266  1.00  0.00    -0.744 OA
ENDBRANCH  66  69
ENDBRANCH  39  62
ENDBRANCH  13  14
ENDBRANCH   6   8
ENDBRANCH   3   4
ENDBRANCH   2   3
ENDBRANCH   1   2
BRANCH   1  73
ATOM     73  N   UNL A   1      31.029  27.506  24.907  1.00  0.00    -0.354 N 
ATOM     74  C   UNL A   1      30.798  26.311  25.513  1.00  0.00     0.242 C 
ATOM     75  H   UNL A   1      30.636  28.277  25.375  1.00  0.00     0.163 HD
ATOM     76  O   UNL A   1      30.277  26.382  26.634  1.00  0.00    -0.273 OA
BRANCH  74  77
ATOM     77  C   UNL A   1      31.285  24.944  24.959  1.00  0.00     0.174 C 
ATOM     78  C   UNL A   1      31.448  24.729  23.450  1.00  0.00     0.035 C 
ATOM     79  N   UNL A   1      32.449  24.442  25.698  1.00  0.00    -0.330 N 
ATOM     80  C   UNL A   1      32.877  24.706  22.877  1.00  0.00     0.004 C 
ATOM     81  C   UNL A   1      33.717  25.027  25.303  1.00  0.00     0.120 C 
ATOM     82  C   UNL A   1      34.043  24.627  23.871  1.00  0.00     0.022 C 
BRANCH  79  83
ATOM     83  C   UNL A   1      32.276  23.407  26.604  1.00  0.00     0.233 C 
ATOM     84  O   UNL A   1      31.596  23.546  27.626  1.00  0.00    -0.274 OA
BRANCH  83  85
ATOM     85  C   UNL A   1      32.910  22.053  26.331  1.00  0.00     0.170 C 
BRANCH  85  86
ATOM     86  S   UNL A   1      32.424  21.285  24.745  1.00  0.00    -0.147 SA
BRANCH  86  87
ATOM     87  C   UNL A   1      33.897  20.293  24.330  1.00  0.00     0.105 C 
BRANCH  87  88
ATOM     88  C   UNL A   1      33.755  18.838  24.684  1.00  0.00    -0.038 A 
ATOM     89  C   UNL A   1      34.710  17.907  24.247  1.00  0.00     0.004 A 
ATOM     90  C   UNL A   1      32.662  18.378  25.430  1.00  0.00     0.004 A 
ATOM     91  C   UNL A   1      34.571  16.552  24.548  1.00  0.00     0.000 A 
ATOM     92  C   UNL A   1      32.530  17.025  25.741  1.00  0.00     0.000 A 
ATOM     93  C   UNL A   1      33.484  16.112  25.299  1.00  0.00     0.000 A 
ENDBRANCH  87  88
ENDBRANCH  86  87
ENDBRANCH  85  86
ENDBRANCH  83  85
ENDBRANCH  79  83
ENDBRANCH  74  77
ENDBRANCH   1  73
TORSDOF 18
ENDMDL
