MODEL 1
REMARK VINA RESULT:     -12.6      0.000      0.000
REMARK SMILES Cc1ccc([C@H](CC2CCCC2)C(=O)NCCCNC(=O)c2ccc(-c3c4nc(c(-c5cccc(S(=O)(=O)[O-])c5F)c5ccc([nH]5)c(-c5cccc(S(=O)(=O)[O-])c5F)c5nc(c(-c6cccc(S(=O)(=O)[O-])c6F)c6ccc3[nH]6)C=C5)C=C4)cc2)cc1
REMARK SMILES IDX 17 1 16 2 15 3 13 4 14 5 6 7 5 8 1 9 2 10 3 11 86 12 4 13
REMARK SMILES IDX 85 14 7 15 8 16 9 17 12 18 10 19 11 20 18 21 19 22 20 23
REMARK SMILES IDX 21 25 22 26 23 27 84 28 24 29 83 30 25 31 26 32 27 33 77 34
REMARK SMILES IDX 28 35 82 36 76 37 78 38 29 39 81 40 75 41 74 42 30 44 62 45
REMARK SMILES IDX 42 46 61 47 43 48 46 49 60 50 79 51 44 52 45 53 59 55 80 56
REMARK SMILES IDX 47 57 31 58 32 59 40 60 33 61 35 62 41 63 34 64 36 65 37 66
REMARK SMILES IDX 38 67 39 68 63 69 64 70 72 71 65 72 67 73 73 74 66 75 68 76
REMARK SMILES IDX 69 77 70 78 71 79 48 80 49 81 57 82 50 83 52 84 58 85 51 86
REMARK SMILES IDX 53 87 54 88 55 89 56 90
REMARK H PARENT 15 6 19 24 78 43 46 54
REMARK Flexibility Score: inf
ROOT
ATOM      1  C   UNL A   1      37.920  20.960  25.164  1.00  0.00     0.042 C 
ENDROOT
BRANCH   1   2
ATOM      2  C   UNL A   1      36.431  21.090  24.917  1.00  0.00     0.117 C 
BRANCH   2   3
ATOM      3  N   UNL A   1      35.668  21.377  26.132  1.00  0.00    -0.356 N 
ATOM      4  C   UNL A   1      34.340  21.176  26.385  1.00  0.00     0.227 C 
ATOM      5  O   UNL A   1      33.931  21.317  27.540  1.00  0.00    -0.274 OA
ATOM      6  H   UNL A   1      36.185  21.769  26.873  1.00  0.00     0.163 HD
BRANCH   4   7
ATOM      7  C   UNL A   1      33.383  20.794  25.256  1.00  0.00     0.109 C 
BRANCH   7   8
ATOM      8  C   UNL A   1      32.453  21.941  24.802  1.00  0.00    -0.036 A 
ATOM      9  C   UNL A   1      30.401  25.702  24.236  1.00  0.00     0.044 C 
ATOM     10  C   UNL A   1      31.048  24.359  24.379  1.00  0.00    -0.051 A 
ATOM     11  C   UNL A   1      30.641  23.466  25.374  1.00  0.00     0.004 A 
ATOM     12  C   UNL A   1      32.049  23.962  23.495  1.00  0.00     0.004 A 
ATOM     13  C   UNL A   1      31.341  22.275  25.587  1.00  0.00     0.005 A 
ATOM     14  C   UNL A   1      32.702  22.741  23.673  1.00  0.00     0.005 A 
ENDBRANCH   7   8
BRANCH   7  15
ATOM     15  C   UNL A   1      32.597  19.502  25.639  1.00  0.00     0.022 C 
BRANCH  15  16
ATOM     16  C   UNL A   1      32.827  18.277  24.741  1.00  0.00    -0.010 C 
ATOM     17  C   UNL A   1      34.252  18.047  24.235  1.00  0.00     0.003 C 
ATOM     18  C   UNL A   1      32.592  16.986  25.536  1.00  0.00     0.003 C 
ATOM     19  C   UNL A   1      34.251  16.578  23.806  1.00  0.00     0.000 C 
ATOM     20  C   UNL A   1      33.202  15.887  24.678  1.00  0.00     0.000 C 
ENDBRANCH  15  16
ENDBRANCH   7  15
ENDBRANCH   4   7
ENDBRANCH   2   3
ENDBRANCH   1   2
BRANCH   1  21
ATOM     21  C   UNL A   1      38.419  22.202  25.843  1.00  0.00     0.118 C 
BRANCH  21  22
ATOM     22  N   UNL A   1      39.488  21.963  26.781  1.00  0.00    -0.352 N 
ATOM     23  C   UNL A   1      40.329  22.867  27.387  1.00  0.00     0.251 C 
ATOM     24  H   UNL A   1      39.638  21.020  27.021  1.00  0.00     0.163 HD
ATOM     25  O   UNL A   1      41.292  22.398  27.998  1.00  0.00    -0.269 OA
BRANCH  23  26
ATOM     26  C   UNL A   1      40.018  24.323  27.435  1.00  0.00     0.039 A 
ATOM     27  C   UNL A   1      40.710  25.165  26.552  1.00  0.00     0.014 A 
ATOM     28  C   UNL A   1      39.273  24.900  28.460  1.00  0.00     0.014 A 
ATOM     29  C   UNL A   1      40.890  26.509  26.864  1.00  0.00     0.010 A 
ATOM     30  C   UNL A   1      39.513  26.191  28.822  1.00  0.00     0.010 A 
ATOM     31  C   UNL A   1      40.405  26.953  28.077  1.00  0.00    -0.014 A 
BRANCH  31  32
ATOM     32  C   UNL A   1      40.722  28.190  28.746  1.00  0.00     0.031 A 
ATOM     33  C   UNL A   1      39.780  29.302  28.609  1.00  0.00     0.074 A 
ATOM     34  C   UNL A   1      41.492  28.010  29.842  1.00  0.00     0.049 A 
ATOM     35  N   UNL A   1      39.896  30.412  29.238  1.00  0.00    -0.248 NA
ATOM     36  C   UNL A   1      38.600  29.239  27.747  1.00  0.00     0.031 C 
ATOM     37  C   UNL A   1      41.409  28.670  31.139  1.00  0.00     0.029 A 
ATOM     38  N   UNL A   1      42.549  27.129  30.003  1.00  0.00    -0.354 N 
ATOM     39  C   UNL A   1      38.669  31.029  29.165  1.00  0.00     0.074 A 
ATOM     40  C   UNL A   1      37.978  30.370  28.088  1.00  0.00     0.031 C 
ATOM     41  C   UNL A   1      42.498  28.349  31.862  1.00  0.00     0.029 A 
ATOM     42  C   UNL A   1      43.409  27.640  30.977  1.00  0.00     0.049 A 
ATOM     43  H   UNL A   1      42.672  26.285  29.513  1.00  0.00     0.167 HD
ATOM     44  C   UNL A   1      38.336  31.896  30.159  1.00  0.00     0.034 A 
ATOM     45  C   UNL A   1      44.619  28.133  30.558  1.00  0.00     0.034 A 
ATOM     46  C   UNL A   1      39.502  32.141  31.033  1.00  0.00     0.049 A 
ATOM     47  C   UNL A   1      44.696  29.654  30.619  1.00  0.00     0.074 A 
ATOM     48  C   UNL A   1      39.836  31.743  32.315  1.00  0.00     0.029 A 
ATOM     49  N   UNL A   1      40.677  32.630  30.463  1.00  0.00    -0.354 N 
ATOM     50  N   UNL A   1      43.696  30.436  30.931  1.00  0.00    -0.248 NA
ATOM     51  C   UNL A   1      45.915  30.415  30.369  1.00  0.00     0.031 C 
ATOM     52  C   UNL A   1      41.254  31.873  32.456  1.00  0.00     0.029 A 
ATOM     53  C   UNL A   1      41.773  32.399  31.283  1.00  0.00     0.049 A 
ATOM     54  H   UNL A   1      40.723  33.082  29.589  1.00  0.00     0.167 HD
ATOM     55  C   UNL A   1      44.047  31.751  30.783  1.00  0.00     0.074 A 
ATOM     56  C   UNL A   1      45.478  31.679  30.526  1.00  0.00     0.031 C 
ATOM     57  C   UNL A   1      43.121  32.766  30.828  1.00  0.00     0.034 A 
BRANCH  44  58
ATOM     58  C   UNL A   1      36.935  32.399  30.478  1.00  0.00     0.023 A 
ATOM     59  C   UNL A   1      36.435  32.103  31.766  1.00  0.00     0.012 A 
ATOM     60  C   UNL A   1      36.038  33.073  29.609  1.00  0.00     0.148 A 
ATOM     61  C   UNL A   1      35.140  32.451  32.170  1.00  0.00     0.002 A 
ATOM     62  C   UNL A   1      34.770  33.485  30.035  1.00  0.00     0.091 A 
ATOM     63  F   UNL A   1      36.346  33.247  28.323  1.00  0.00    -0.205 F 
ATOM     64  C   UNL A   1      34.312  33.162  31.312  1.00  0.00     0.022 A 
BRANCH  62  65
ATOM     65  S   UNL A   1      33.661  34.458  28.994  1.00  0.00     0.127 S 
ATOM     66  O   UNL A   1      33.197  33.465  28.025  1.00  0.00    -0.237 OA
ATOM     67  O   UNL A   1      32.640  34.898  29.947  1.00  0.00    -0.237 OA
ATOM     68  O   UNL A   1      34.465  35.539  28.435  1.00  0.00    -0.744 OA
ENDBRANCH  62  65
ENDBRANCH  44  58
BRANCH  45  69
ATOM     69  C   UNL A   1      45.217  27.237  29.503  1.00  0.00     0.023 A 
ATOM     70  C   UNL A   1      45.395  25.881  29.887  1.00  0.00     0.012 A 
ATOM     71  C   UNL A   1      45.093  27.534  28.131  1.00  0.00     0.148 A 
ATOM     72  C   UNL A   1      45.235  24.846  28.961  1.00  0.00     0.002 A 
ATOM     73  C   UNL A   1      44.957  26.492  27.209  1.00  0.00     0.091 A 
ATOM     74  F   UNL A   1      45.028  28.819  27.756  1.00  0.00    -0.205 F 
ATOM     75  C   UNL A   1      44.965  25.153  27.632  1.00  0.00     0.022 A 
BRANCH  73  76
ATOM     76  S   UNL A   1      44.659  26.805  25.461  1.00  0.00     0.127 S 
ATOM     77  O   UNL A   1      45.973  27.261  25.016  1.00  0.00    -0.237 OA
ATOM     78  O   UNL A   1      44.272  25.490  24.952  1.00  0.00    -0.237 OA
ATOM     79  O   UNL A   1      43.593  27.796  25.425  1.00  0.00    -0.744 OA
ENDBRANCH  73  76
ENDBRANCH  45  69
BRANCH  57  80
ATOM     80  C   UNL A   1      43.384  34.214  30.417  1.00  0.00     0.023 A 
ATOM     81  C   UNL A   1      43.711  35.222  31.342  1.00  0.00     0.012 A 
ATOM     82  C   UNL A   1      43.442  34.588  29.045  1.00  0.00     0.148 A 
ATOM     83  C   UNL A   1      44.007  36.533  30.951  1.00  0.00     0.002 A 
ATOM     84  C   UNL A   1      43.873  35.854  28.655  1.00  0.00     0.091 A 
ATOM     85  F   UNL A   1      43.053  33.728  28.093  1.00  0.00    -0.205 F 
ATOM     86  C   UNL A   1      44.115  36.844  29.605  1.00  0.00     0.022 A 
BRANCH  84  87
ATOM     87  S   UNL A   1      44.298  36.205  26.942  1.00  0.00     0.127 S 
ATOM     88  O   UNL A   1      44.809  37.571  27.030  1.00  0.00    -0.237 OA
ATOM     89  O   UNL A   1      45.315  35.191  26.659  1.00  0.00    -0.237 OA
ATOM     90  O   UNL A   1      43.058  36.027  26.198  1.00  0.00    -0.744 OA
ENDBRANCH  84  87
ENDBRANCH  57  80
ENDBRANCH  31  32
ENDBRANCH  23  26
ENDBRANCH  21  22
ENDBRANCH   1  21
TORSDOF 16
ENDMDL
MODEL 2
REMARK VINA RESULT:     -12.6      1.094      1.572
REMARK SMILES Cc1ccc([C@H](CC2CCCC2)C(=O)NCCCNC(=O)c2ccc(-c3c4nc(c(-c5cccc(S(=O)(=O)[O-])c5F)c5ccc([nH]5)c(-c5cccc(S(=O)(=O)[O-])c5F)c5nc(c(-c6cccc(S(=O)(=O)[O-])c6F)c6ccc3[nH]6)C=C5)C=C4)cc2)cc1
REMARK SMILES IDX 17 1 16 2 15 3 13 4 14 5 6 7 5 8 1 9 2 10 3 11 86 12 4 13
REMARK SMILES IDX 85 14 7 15 8 16 9 17 12 18 10 19 11 20 18 21 19 22 20 23
REMARK SMILES IDX 21 25 22 26 23 27 84 28 24 29 83 30 25 31 26 32 27 33 77 34
REMARK SMILES IDX 28 35 82 36 76 37 78 38 29 39 81 40 75 41 74 42 30 44 62 45
REMARK SMILES IDX 42 46 61 47 43 48 46 49 60 50 79 51 44 52 45 53 59 55 80 56
REMARK SMILES IDX 47 57 31 58 32 59 40 60 33 61 35 62 41 63 34 64 36 65 37 66
REMARK SMILES IDX 38 67 39 68 63 69 64 70 72 71 65 72 67 73 73 74 66 75 68 76
REMARK SMILES IDX 69 77 70 78 71 79 48 80 49 81 57 82 50 83 52 84 58 85 51 86
REMARK SMILES IDX 53 87 54 88 55 89 56 90
REMARK H PARENT 15 6 19 24 78 43 46 54
REMARK Flexibility Score: inf
ROOT
ATOM      1  C   UNL A   1      37.499  21.189  25.103  1.00  0.00     0.042 C 
ENDROOT
BRANCH   1   2
ATOM      2  C   UNL A   1      36.002  21.198  25.331  1.00  0.00     0.117 C 
BRANCH   2   3
ATOM      3  N   UNL A   1      35.617  21.797  26.609  1.00  0.00    -0.356 N 
ATOM      4  C   UNL A   1      34.470  22.464  26.940  1.00  0.00     0.227 C 
ATOM      5  O   UNL A   1      34.264  22.731  28.126  1.00  0.00    -0.274 OA
ATOM      6  H   UNL A   1      36.277  21.706  27.334  1.00  0.00     0.163 HD
BRANCH   4   7
ATOM      7  C   UNL A   1      33.472  22.876  25.858  1.00  0.00     0.109 C 
BRANCH   7   8
ATOM      8  C   UNL A   1      33.195  24.394  25.801  1.00  0.00    -0.036 A 
ATOM      9  C   UNL A   1      32.609  28.586  26.672  1.00  0.00     0.044 C 
ATOM     10  C   UNL A   1      32.779  27.149  26.285  1.00  0.00    -0.051 A 
ATOM     11  C   UNL A   1      31.727  26.240  26.413  1.00  0.00     0.004 A 
ATOM     12  C   UNL A   1      33.988  26.702  25.756  1.00  0.00     0.004 A 
ATOM     13  C   UNL A   1      31.935  24.877  26.181  1.00  0.00     0.005 A 
ATOM     14  C   UNL A   1      34.170  25.349  25.464  1.00  0.00     0.005 A 
ENDBRANCH   7   8
BRANCH   7  15
ATOM     15  C   UNL A   1      32.166  22.033  25.991  1.00  0.00     0.022 C 
BRANCH  15  16
ATOM     16  C   UNL A   1      31.844  21.091  24.821  1.00  0.00    -0.010 C 
ATOM     17  C   UNL A   1      32.279  21.544  23.427  1.00  0.00     0.003 C 
ATOM     18  C   UNL A   1      32.636  19.784  24.960  1.00  0.00     0.003 C 
ATOM     19  C   UNL A   1      32.259  20.254  22.604  1.00  0.00     0.000 C 
ATOM     20  C   UNL A   1      32.528  19.121  23.594  1.00  0.00     0.000 C 
ENDBRANCH  15  16
ENDBRANCH   7  15
ENDBRANCH   4   7
ENDBRANCH   2   3
ENDBRANCH   1   2
BRANCH   1  21
ATOM     21  C   UNL A   1      38.100  22.419  25.720  1.00  0.00     0.118 C 
BRANCH  21  22
ATOM     22  N   UNL A   1      39.199  22.143  26.613  1.00  0.00    -0.352 N 
ATOM     23  C   UNL A   1      40.079  23.020  27.202  1.00  0.00     0.251 C 
ATOM     24  H   UNL A   1      39.341  21.193  26.830  1.00  0.00     0.163 HD
ATOM     25  O   UNL A   1      41.056  22.523  27.767  1.00  0.00    -0.269 OA
BRANCH  23  26
ATOM     26  C   UNL A   1      39.798  24.481  27.287  1.00  0.00     0.039 A 
ATOM     27  C   UNL A   1      40.523  25.333  26.441  1.00  0.00     0.014 A 
ATOM     28  C   UNL A   1      39.047  25.044  28.315  1.00  0.00     0.014 A 
ATOM     29  C   UNL A   1      40.725  26.663  26.795  1.00  0.00     0.010 A 
ATOM     30  C   UNL A   1      39.307  26.318  28.719  1.00  0.00     0.010 A 
ATOM     31  C   UNL A   1      40.228  27.082  28.012  1.00  0.00    -0.014 A 
BRANCH  31  32
ATOM     32  C   UNL A   1      40.558  28.293  28.723  1.00  0.00     0.031 A 
ATOM     33  C   UNL A   1      39.639  29.425  28.606  1.00  0.00     0.074 A 
ATOM     34  C   UNL A   1      41.310  28.065  29.823  1.00  0.00     0.049 A 
ATOM     35  N   UNL A   1      39.767  30.514  29.270  1.00  0.00    -0.248 NA
ATOM     36  C   UNL A   1      38.470  29.410  27.728  1.00  0.00     0.031 C 
ATOM     37  C   UNL A   1      41.222  28.687  31.138  1.00  0.00     0.029 A 
ATOM     38  N   UNL A   1      42.349  27.160  29.970  1.00  0.00    -0.354 N 
ATOM     39  C   UNL A   1      38.553  31.156  29.201  1.00  0.00     0.074 A 
ATOM     40  C   UNL A   1      37.864  30.543  28.095  1.00  0.00     0.031 C 
ATOM     41  C   UNL A   1      42.295  28.325  31.865  1.00  0.00     0.029 A 
ATOM     42  C   UNL A   1      43.205  27.626  30.971  1.00  0.00     0.049 A 
ATOM     43  H   UNL A   1      42.463  26.329  29.457  1.00  0.00     0.167 HD
ATOM     44  C   UNL A   1      38.222  31.999  30.216  1.00  0.00     0.034 A 
ATOM     45  C   UNL A   1      44.429  28.108  30.582  1.00  0.00     0.034 A 
ATOM     46  C   UNL A   1      39.380  32.195  31.112  1.00  0.00     0.049 A 
ATOM     47  C   UNL A   1      44.533  29.624  30.690  1.00  0.00     0.074 A 
ATOM     48  C   UNL A   1      39.690  31.753  32.386  1.00  0.00     0.029 A 
ATOM     49  N   UNL A   1      40.572  32.679  30.572  1.00  0.00    -0.354 N 
ATOM     50  N   UNL A   1      43.544  30.416  31.013  1.00  0.00    -0.248 NA
ATOM     51  C   UNL A   1      45.769  30.370  30.479  1.00  0.00     0.031 C 
ATOM     52  C   UNL A   1      41.107  31.852  32.549  1.00  0.00     0.029 A 
ATOM     53  C   UNL A   1      41.652  32.403  31.399  1.00  0.00     0.049 A 
ATOM     54  H   UNL A   1      40.638  33.156  29.713  1.00  0.00     0.167 HD
ATOM     55  C   UNL A   1      43.920  31.727  30.909  1.00  0.00     0.074 A 
ATOM     56  C   UNL A   1      45.353  31.636  30.669  1.00  0.00     0.031 C 
ATOM     57  C   UNL A   1      43.013  32.758  30.973  1.00  0.00     0.034 A 
BRANCH  44  58
ATOM     58  C   UNL A   1      36.827  32.518  30.532  1.00  0.00     0.023 A 
ATOM     59  C   UNL A   1      36.324  32.235  31.821  1.00  0.00     0.012 A 
ATOM     60  C   UNL A   1      35.936  33.195  29.658  1.00  0.00     0.148 A 
ATOM     61  C   UNL A   1      35.032  32.599  32.223  1.00  0.00     0.002 A 
ATOM     62  C   UNL A   1      34.672  33.623  30.082  1.00  0.00     0.091 A 
ATOM     63  F   UNL A   1      36.245  33.358  28.371  1.00  0.00    -0.205 F 
ATOM     64  C   UNL A   1      34.212  33.313  31.361  1.00  0.00     0.022 A 
BRANCH  62  65
ATOM     65  S   UNL A   1      33.573  34.601  29.035  1.00  0.00     0.127 S 
ATOM     66  O   UNL A   1      33.118  33.612  28.058  1.00  0.00    -0.237 OA
ATOM     67  O   UNL A   1      32.544  35.037  29.980  1.00  0.00    -0.237 OA
ATOM     68  O   UNL A   1      34.383  35.683  28.487  1.00  0.00    -0.744 OA
ENDBRANCH  62  65
ENDBRANCH  44  58
BRANCH  45  69
ATOM     69  C   UNL A   1      45.025  27.233  29.509  1.00  0.00     0.023 A 
ATOM     70  C   UNL A   1      45.018  25.840  29.786  1.00  0.00     0.012 A 
ATOM     71  C   UNL A   1      45.065  27.648  28.162  1.00  0.00     0.148 A 
ATOM     72  C   UNL A   1      44.835  24.905  28.763  1.00  0.00     0.002 A 
ATOM     73  C   UNL A   1      44.906  26.703  27.144  1.00  0.00     0.091 A 
ATOM     74  F   UNL A   1      45.177  28.956  27.897  1.00  0.00    -0.205 F 
ATOM     75  C   UNL A   1      44.728  25.343  27.448  1.00  0.00     0.022 A 
BRANCH  73  76
ATOM     76  S   UNL A   1      44.813  27.182  25.411  1.00  0.00     0.127 S 
ATOM     77  O   UNL A   1      43.505  27.830  25.355  1.00  0.00    -0.237 OA
ATOM     78  O   UNL A   1      45.945  28.094  25.260  1.00  0.00    -0.237 OA
ATOM     79  O   UNL A   1      44.943  25.940  24.662  1.00  0.00    -0.744 OA
ENDBRANCH  73  76
ENDBRANCH  45  69
BRANCH  57  80
ATOM     80  C   UNL A   1      43.307  34.212  30.609  1.00  0.00     0.023 A 
ATOM     81  C   UNL A   1      43.581  35.200  31.574  1.00  0.00     0.012 A 
ATOM     82  C   UNL A   1      43.453  34.614  29.252  1.00  0.00     0.148 A 
ATOM     83  C   UNL A   1      43.907  36.517  31.229  1.00  0.00     0.002 A 
ATOM     84  C   UNL A   1      43.913  35.886  28.916  1.00  0.00     0.091 A 
ATOM     85  F   UNL A   1      43.119  33.777  28.260  1.00  0.00    -0.205 F 
ATOM     86  C   UNL A   1      44.101  36.855  29.900  1.00  0.00     0.022 A 
BRANCH  84  87
ATOM     87  S   UNL A   1      44.445  36.269  27.241  1.00  0.00     0.127 S 
ATOM     88  O   UNL A   1      43.186  36.210  26.502  1.00  0.00    -0.237 OA
ATOM     89  O   UNL A   1      45.001  37.615  27.389  1.00  0.00    -0.237 OA
ATOM     90  O   UNL A   1      45.434  35.251  26.912  1.00  0.00    -0.744 OA
ENDBRANCH  84  87
ENDBRANCH  57  80
ENDBRANCH  31  32
ENDBRANCH  23  26
ENDBRANCH  21  22
ENDBRANCH   1  21
TORSDOF 16
ENDMDL
MODEL 3
REMARK VINA RESULT:     -12.4      4.293      9.729
REMARK SMILES Cc1ccc([C@H](CC2CCCC2)C(=O)NCCCNC(=O)c2ccc(-c3c4nc(c(-c5cccc(S(=O)(=O)[O-])c5F)c5ccc([nH]5)c(-c5cccc(S(=O)(=O)[O-])c5F)c5nc(c(-c6cccc(S(=O)(=O)[O-])c6F)c6ccc3[nH]6)C=C5)C=C4)cc2)cc1
REMARK SMILES IDX 17 1 16 2 15 3 13 4 14 5 6 7 5 8 1 9 2 10 3 11 86 12 4 13
REMARK SMILES IDX 85 14 7 15 8 16 9 17 12 18 10 19 11 20 18 21 19 22 20 23
REMARK SMILES IDX 21 25 22 26 23 27 84 28 24 29 83 30 25 31 26 32 27 33 77 34
REMARK SMILES IDX 28 35 82 36 76 37 78 38 29 39 81 40 75 41 74 42 30 44 62 45
REMARK SMILES IDX 42 46 61 47 43 48 46 49 60 50 79 51 44 52 45 53 59 55 80 56
REMARK SMILES IDX 47 57 31 58 32 59 40 60 33 61 35 62 41 63 34 64 36 65 37 66
REMARK SMILES IDX 38 67 39 68 63 69 64 70 72 71 65 72 67 73 73 74 66 75 68 76
REMARK SMILES IDX 69 77 70 78 71 79 48 80 49 81 57 82 50 83 52 84 58 85 51 86
REMARK SMILES IDX 53 87 54 88 55 89 56 90
REMARK H PARENT 15 6 19 24 78 43 46 54
REMARK Flexibility Score: inf
ROOT
ATOM      1  C   UNL A   1      34.020  29.800  26.915  1.00  0.00     0.042 C 
ENDROOT
BRANCH   1   2
ATOM      2  C   UNL A   1      32.840  29.570  25.995  1.00  0.00     0.117 C 
BRANCH   2   3
ATOM      3  N   UNL A   1      33.210  29.545  24.579  1.00  0.00    -0.356 N 
ATOM      4  C   UNL A   1      32.782  28.704  23.590  1.00  0.00     0.227 C 
ATOM      5  O   UNL A   1      33.078  28.967  22.422  1.00  0.00    -0.274 OA
ATOM      6  H   UNL A   1      33.857  30.232  24.300  1.00  0.00     0.163 HD
BRANCH   4   7
ATOM      7  C   UNL A   1      31.963  27.458  23.930  1.00  0.00     0.109 C 
BRANCH   7   8
ATOM      8  C   UNL A   1      32.785  26.152  23.958  1.00  0.00    -0.036 A 
ATOM      9  C   UNL A   1      35.718  23.027  23.393  1.00  0.00     0.044 C 
ATOM     10  C   UNL A   1      34.648  24.048  23.632  1.00  0.00    -0.051 A 
ATOM     11  C   UNL A   1      33.583  24.197  22.741  1.00  0.00     0.004 A 
ATOM     12  C   UNL A   1      34.681  24.848  24.774  1.00  0.00     0.004 A 
ATOM     13  C   UNL A   1      32.667  25.242  22.899  1.00  0.00     0.005 A 
ATOM     14  C   UNL A   1      33.725  25.848  24.959  1.00  0.00     0.005 A 
ENDBRANCH   7   8
BRANCH   7  15
ATOM     15  C   UNL A   1      30.722  27.365  22.988  1.00  0.00     0.022 C 
BRANCH  15  16
ATOM     16  C   UNL A   1      29.593  28.372  23.252  1.00  0.00    -0.010 C 
ATOM     17  C   UNL A   1      29.294  29.383  22.144  1.00  0.00     0.003 C 
ATOM     18  C   UNL A   1      28.246  27.644  23.349  1.00  0.00     0.003 C 
ATOM     19  C   UNL A   1      27.890  29.889  22.485  1.00  0.00     0.000 C 
ATOM     20  C   UNL A   1      27.202  28.746  23.231  1.00  0.00     0.000 C 
ENDBRANCH  15  16
ENDBRANCH   7  15
ENDBRANCH   4   7
ENDBRANCH   2   3
ENDBRANCH   1   2
BRANCH   1  21
ATOM     21  C   UNL A   1      33.722  30.960  27.821  1.00  0.00     0.118 C 
BRANCH  21  22
ATOM     22  N   UNL A   1      34.685  32.030  27.733  1.00  0.00    -0.352 N 
ATOM     23  C   UNL A   1      36.006  32.042  28.117  1.00  0.00     0.251 C 
ATOM     24  H   UNL A   1      34.351  32.871  27.344  1.00  0.00     0.163 HD
ATOM     25  O   UNL A   1      36.567  33.140  28.122  1.00  0.00    -0.269 OA
BRANCH  23  26
ATOM     26  C   UNL A   1      36.765  30.785  28.368  1.00  0.00     0.039 A 
ATOM     27  C   UNL A   1      36.758  30.272  29.673  1.00  0.00     0.014 A 
ATOM     28  C   UNL A   1      37.660  30.248  27.447  1.00  0.00     0.014 A 
ATOM     29  C   UNL A   1      37.804  29.468  30.115  1.00  0.00     0.010 A 
ATOM     30  C   UNL A   1      38.733  29.535  27.886  1.00  0.00     0.010 A 
ATOM     31  C   UNL A   1      38.847  29.242  29.241  1.00  0.00    -0.014 A 
BRANCH  31  32
ATOM     32  C   UNL A   1      40.151  28.711  29.552  1.00  0.00     0.031 A 
ATOM     33  C   UNL A   1      40.392  27.292  29.287  1.00  0.00     0.074 A 
ATOM     34  C   UNL A   1      41.125  29.646  29.491  1.00  0.00     0.049 A 
ATOM     35  N   UNL A   1      41.536  26.729  29.423  1.00  0.00    -0.248 NA
ATOM     36  C   UNL A   1      39.345  26.384  28.823  1.00  0.00     0.031 C 
ATOM     37  C   UNL A   1      42.476  29.529  28.958  1.00  0.00     0.029 A 
ATOM     38  N   UNL A   1      41.065  30.965  29.912  1.00  0.00    -0.354 N 
ATOM     39  C   UNL A   1      41.467  25.541  28.733  1.00  0.00     0.074 A 
ATOM     40  C   UNL A   1      40.061  25.289  28.553  1.00  0.00     0.031 C 
ATOM     41  C   UNL A   1      43.176  30.629  29.295  1.00  0.00     0.029 A 
ATOM     42  C   UNL A   1      42.357  31.391  30.225  1.00  0.00     0.049 A 
ATOM     43  H   UNL A   1      40.248  31.510  29.978  1.00  0.00     0.167 HD
ATOM     44  C   UNL A   1      42.627  25.026  28.242  1.00  0.00     0.034 A 
ATOM     45  C   UNL A   1      42.660  31.571  31.552  1.00  0.00     0.034 A 
ATOM     46  C   UNL A   1      43.781  25.794  28.752  1.00  0.00     0.049 A 
ATOM     47  C   UNL A   1      43.581  30.490  32.104  1.00  0.00     0.074 A 
ATOM     48  C   UNL A   1      44.651  26.706  28.181  1.00  0.00     0.029 A 
ATOM     49  N   UNL A   1      43.954  25.908  30.131  1.00  0.00    -0.354 N 
ATOM     50  N   UNL A   1      43.970  29.434  31.439  1.00  0.00    -0.248 NA
ATOM     51  C   UNL A   1      44.168  30.530  33.440  1.00  0.00     0.031 C 
ATOM     52  C   UNL A   1      45.246  27.462  29.240  1.00  0.00     0.029 A 
ATOM     53  C   UNL A   1      44.781  26.976  30.452  1.00  0.00     0.049 A 
ATOM     54  H   UNL A   1      43.543  25.306  30.794  1.00  0.00     0.167 HD
ATOM     55  C   UNL A   1      44.693  28.595  32.244  1.00  0.00     0.074 A 
ATOM     56  C   UNL A   1      44.869  29.381  33.457  1.00  0.00     0.031 C 
ATOM     57  C   UNL A   1      45.026  27.318  31.860  1.00  0.00     0.034 A 
BRANCH  44  58
ATOM     58  C   UNL A   1      42.747  23.954  27.168  1.00  0.00     0.023 A 
ATOM     59  C   UNL A   1      43.384  24.333  25.966  1.00  0.00     0.012 A 
ATOM     60  C   UNL A   1      42.232  22.632  27.202  1.00  0.00     0.148 A 
ATOM     61  C   UNL A   1      43.508  23.466  24.872  1.00  0.00     0.002 A 
ATOM     62  C   UNL A   1      42.419  21.741  26.139  1.00  0.00     0.091 A 
ATOM     63  F   UNL A   1      41.467  22.230  28.219  1.00  0.00    -0.205 F 
ATOM     64  C   UNL A   1      43.044  22.161  24.965  1.00  0.00     0.022 A 
BRANCH  62  65
ATOM     65  S   UNL A   1      41.890  20.016  26.208  1.00  0.00     0.127 S 
ATOM     66  O   UNL A   1      40.439  20.132  26.066  1.00  0.00    -0.237 OA
ATOM     67  O   UNL A   1      42.569  19.432  25.050  1.00  0.00    -0.237 OA
ATOM     68  O   UNL A   1      42.345  19.498  27.494  1.00  0.00    -0.744 OA
ENDBRANCH  62  65
ENDBRANCH  44  58
BRANCH  45  69
ATOM     69  C   UNL A   1      41.514  32.240  32.268  1.00  0.00     0.023 A 
ATOM     70  C   UNL A   1      41.123  33.501  31.746  1.00  0.00     0.012 A 
ATOM     71  C   UNL A   1      40.565  31.491  32.993  1.00  0.00     0.148 A 
ATOM     72  C   UNL A   1      39.782  33.897  31.755  1.00  0.00     0.002 A 
ATOM     73  C   UNL A   1      39.231  31.908  33.018  1.00  0.00     0.091 A 
ATOM     74  F   UNL A   1      40.957  30.350  33.576  1.00  0.00    -0.205 F 
ATOM     75  C   UNL A   1      38.830  33.075  32.347  1.00  0.00     0.022 A 
BRANCH  73  76
ATOM     76  S   UNL A   1      37.945  30.927  33.811  1.00  0.00     0.127 S 
ATOM     77  O   UNL A   1      38.403  29.567  33.539  1.00  0.00    -0.237 OA
ATOM     78  O   UNL A   1      38.043  31.328  35.213  1.00  0.00    -0.237 OA
ATOM     79  O   UNL A   1      36.704  31.325  33.161  1.00  0.00    -0.744 OA
ENDBRANCH  73  76
ENDBRANCH  45  69
BRANCH  57  80
ATOM     80  C   UNL A   1      45.593  26.242  32.784  1.00  0.00     0.023 A 
ATOM     81  C   UNL A   1      46.974  26.020  32.938  1.00  0.00     0.012 A 
ATOM     82  C   UNL A   1      44.745  25.494  33.647  1.00  0.00     0.148 A 
ATOM     83  C   UNL A   1      47.487  25.072  33.831  1.00  0.00     0.002 A 
ATOM     84  C   UNL A   1      45.266  24.655  34.630  1.00  0.00     0.091 A 
ATOM     85  F   UNL A   1      43.413  25.561  33.509  1.00  0.00    -0.205 F 
ATOM     86  C   UNL A   1      46.635  24.407  34.698  1.00  0.00     0.022 A 
BRANCH  84  87
ATOM     87  S   UNL A   1      44.223  24.004  35.944  1.00  0.00     0.127 S 
ATOM     88  O   UNL A   1      43.368  23.068  35.217  1.00  0.00    -0.237 OA
ATOM     89  O   UNL A   1      45.199  23.372  36.834  1.00  0.00    -0.237 OA
ATOM     90  O   UNL A   1      43.562  25.168  36.518  1.00  0.00    -0.744 OA
ENDBRANCH  84  87
ENDBRANCH  57  80
ENDBRANCH  31  32
ENDBRANCH  23  26
ENDBRANCH  21  22
ENDBRANCH   1  21
TORSDOF 16
ENDMDL
