MODEL 1
REMARK VINA RESULT:     -12.6      0.000      0.000
REMARK SMILES CC1(C)C(=O)N([C@H]2COC[C@@H]2C(=O)NCCCNC(=O)c2ccc(-c3c4nc(c(-c5cccc(S(=O)(=O)[O-])c5F)c5ccc([nH]5)c(-c5cccc(S(=O)(=O)[O-])c5F)c5nc(c(-c6cccc(S(=O)(=O)[O-])c6F)c6ccc3[nH]6)C=C5)C=C4)cc2)S1(=O)=O
REMARK SMILES IDX 17 1 16 2 15 3 14 4 12 5 13 6 11 8 7 9 8 10 9 11 10 12 6 13
REMARK SMILES IDX 1 14 2 15 3 16 4 17 84 18 5 19 85 20 86 21 18 22 19 23 20 25
REMARK SMILES IDX 21 26 22 27 83 28 23 29 82 30 24 31 25 32 26 33 76 34 27 35
REMARK SMILES IDX 81 36 75 37 77 38 28 39 80 40 74 41 73 42 29 44 61 45 41 46
REMARK SMILES IDX 60 47 42 48 45 49 59 50 78 51 43 52 44 53 58 55 79 56 46 57
REMARK SMILES IDX 30 58 31 59 39 60 32 61 34 62 40 63 33 64 35 65 36 66 37 67
REMARK SMILES IDX 38 68 62 69 63 70 71 71 64 72 66 73 72 74 65 75 67 76 68 77
REMARK SMILES IDX 69 78 70 79 47 80 48 81 56 82 49 83 51 84 57 85 50 86 52 87
REMARK SMILES IDX 53 88 54 89 55 90
REMARK H PARENT 14 7 18 24 77 43 45 54
REMARK Flexibility Score: inf
ROOT
ATOM      1  C   UNL A   1      37.406  21.479  24.938  1.00  0.00     0.118 C 
ENDROOT
BRANCH   1   2
ATOM      2  C   UNL A   1      36.089  21.453  25.710  1.00  0.00     0.042 C 
BRANCH   2   3
ATOM      3  C   UNL A   1      35.694  22.794  26.319  1.00  0.00     0.117 C 
BRANCH   3   4
ATOM      4  N   UNL A   1      34.662  22.656  27.335  1.00  0.00    -0.356 N 
ATOM      5  C   UNL A   1      33.305  22.632  27.187  1.00  0.00     0.227 C 
ATOM      6  O   UNL A   1      32.606  22.578  28.199  1.00  0.00    -0.275 OA
ATOM      7  H   UNL A   1      34.987  22.568  28.260  1.00  0.00     0.163 HD
BRANCH   5   8
ATOM      8  C   UNL A   1      32.717  22.669  25.785  1.00  0.00     0.130 C 
ATOM      9  C   UNL A   1      32.319  24.077  25.380  1.00  0.00     0.143 C 
ATOM     10  C   UNL A   1      30.929  24.185  26.013  1.00  0.00     0.187 C 
ATOM     11  O   UNL A   1      30.346  22.870  25.982  1.00  0.00    -0.378 OA
ATOM     12  C   UNL A   1      31.398  21.921  25.750  1.00  0.00     0.176 C 
BRANCH   9  13
ATOM     13  N   UNL A   1      32.180  24.271  23.915  1.00  0.00    -0.231 N 
ATOM     14  C   UNL A   1      32.153  25.578  20.785  1.00  0.00     0.041 C 
ATOM     15  C   UNL A   1      32.732  25.586  22.196  1.00  0.00     0.165 C 
ATOM     16  C   UNL A   1      33.653  26.791  22.404  1.00  0.00     0.041 C 
ATOM     17  C   UNL A   1      31.692  25.450  23.320  1.00  0.00     0.259 C 
ATOM     18  S   UNL A   1      33.371  24.057  22.782  1.00  0.00     0.252 S 
ATOM     19  O   UNL A   1      30.789  26.145  23.742  1.00  0.00    -0.272 OA
ATOM     20  O   UNL A   1      33.000  22.931  21.962  1.00  0.00    -0.205 OA
ATOM     21  O   UNL A   1      34.668  24.207  23.394  1.00  0.00    -0.205 OA
ENDBRANCH   9  13
ENDBRANCH   5   8
ENDBRANCH   3   4
ENDBRANCH   2   3
ENDBRANCH   1   2
BRANCH   1  22
ATOM     22  N   UNL A   1      38.342  20.451  25.377  1.00  0.00    -0.352 N 
ATOM     23  C   UNL A   1      39.535  20.563  26.051  1.00  0.00     0.251 C 
ATOM     24  H   UNL A   1      38.079  19.529  25.154  1.00  0.00     0.163 HD
ATOM     25  O   UNL A   1      40.253  19.573  26.178  1.00  0.00    -0.269 OA
BRANCH  23  26
ATOM     26  C   UNL A   1      39.970  21.866  26.600  1.00  0.00     0.039 A 
ATOM     27  C   UNL A   1      40.920  21.881  27.626  1.00  0.00     0.014 A 
ATOM     28  C   UNL A   1      39.447  23.067  26.115  1.00  0.00     0.014 A 
ATOM     29  C   UNL A   1      41.417  23.100  28.095  1.00  0.00     0.010 A 
ATOM     30  C   UNL A   1      39.996  24.278  26.530  1.00  0.00     0.010 A 
ATOM     31  C   UNL A   1      40.998  24.307  27.512  1.00  0.00    -0.014 A 
BRANCH  31  32
ATOM     32  C   UNL A   1      41.640  25.603  27.862  1.00  0.00     0.031 A 
ATOM     33  C   UNL A   1      40.866  26.673  28.581  1.00  0.00     0.074 A 
ATOM     34  C   UNL A   1      42.893  25.854  27.430  1.00  0.00     0.049 A 
ATOM     35  N   UNL A   1      41.226  27.897  28.865  1.00  0.00    -0.248 NA
ATOM     36  C   UNL A   1      39.503  26.330  29.017  1.00  0.00     0.031 C 
ATOM     37  C   UNL A   1      43.728  24.919  26.671  1.00  0.00     0.029 A 
ATOM     38  N   UNL A   1      43.669  26.982  27.532  1.00  0.00    -0.354 N 
ATOM     39  C   UNL A   1      40.128  28.483  29.483  1.00  0.00     0.074 A 
ATOM     40  C   UNL A   1      39.080  27.485  29.511  1.00  0.00     0.031 C 
ATOM     41  C   UNL A   1      44.893  25.514  26.372  1.00  0.00     0.029 A 
ATOM     42  C   UNL A   1      44.872  26.884  26.871  1.00  0.00     0.049 A 
ATOM     43  H   UNL A   1      43.392  27.784  28.031  1.00  0.00     0.167 HD
ATOM     44  C   UNL A   1      40.009  29.731  29.997  1.00  0.00     0.034 A 
ATOM     45  C   UNL A   1      45.837  27.800  26.661  1.00  0.00     0.034 A 
ATOM     46  C   UNL A   1      41.060  30.714  29.985  1.00  0.00     0.049 A 
ATOM     47  C   UNL A   1      45.672  29.184  27.228  1.00  0.00     0.074 A 
ATOM     48  C   UNL A   1      41.062  31.977  30.553  1.00  0.00     0.029 A 
ATOM     49  N   UNL A   1      42.286  30.559  29.355  1.00  0.00    -0.354 N 
ATOM     50  N   UNL A   1      44.688  29.669  27.946  1.00  0.00    -0.248 NA
ATOM     51  C   UNL A   1      46.760  30.141  26.976  1.00  0.00     0.031 C 
ATOM     52  C   UNL A   1      42.270  32.601  30.228  1.00  0.00     0.029 A 
ATOM     53  C   UNL A   1      43.038  31.714  29.494  1.00  0.00     0.049 A 
ATOM     54  H   UNL A   1      42.578  29.749  28.879  1.00  0.00     0.167 HD
ATOM     55  C   UNL A   1      45.050  30.975  28.253  1.00  0.00     0.074 A 
ATOM     56  C   UNL A   1      46.357  31.197  27.668  1.00  0.00     0.031 C 
ATOM     57  C   UNL A   1      44.355  31.914  28.942  1.00  0.00     0.034 A 
BRANCH  44  58
ATOM     58  C   UNL A   1      38.701  30.104  30.647  1.00  0.00     0.023 A 
ATOM     59  C   UNL A   1      38.448  29.719  31.980  1.00  0.00     0.012 A 
ATOM     60  C   UNL A   1      37.756  30.895  29.964  1.00  0.00     0.148 A 
ATOM     61  C   UNL A   1      37.260  30.087  32.611  1.00  0.00     0.002 A 
ATOM     62  C   UNL A   1      36.596  31.298  30.617  1.00  0.00     0.091 A 
ATOM     63  F   UNL A   1      38.008  31.239  28.694  1.00  0.00    -0.205 F 
ATOM     64  C   UNL A   1      36.341  30.884  31.935  1.00  0.00     0.022 A 
BRANCH  62  65
ATOM     65  S   UNL A   1      35.387  32.391  29.863  1.00  0.00     0.127 S 
ATOM     66  O   UNL A   1      36.223  33.524  29.464  1.00  0.00    -0.237 OA
ATOM     67  O   UNL A   1      34.890  31.579  28.752  1.00  0.00    -0.237 OA
ATOM     68  O   UNL A   1      34.403  32.678  30.896  1.00  0.00    -0.744 OA
ENDBRANCH  62  65
ENDBRANCH  44  58
BRANCH  45  69
ATOM     69  C   UNL A   1      47.061  27.435  25.891  1.00  0.00     0.023 A 
ATOM     70  C   UNL A   1      48.118  26.770  26.543  1.00  0.00     0.012 A 
ATOM     71  C   UNL A   1      47.178  27.730  24.518  1.00  0.00     0.148 A 
ATOM     72  C   UNL A   1      49.285  26.440  25.850  1.00  0.00     0.002 A 
ATOM     73  C   UNL A   1      48.317  27.347  23.821  1.00  0.00     0.091 A 
ATOM     74  F   UNL A   1      46.165  28.372  23.920  1.00  0.00    -0.205 F 
ATOM     75  C   UNL A   1      49.380  26.719  24.489  1.00  0.00     0.022 A 
BRANCH  73  76
ATOM     76  S   UNL A   1      48.475  27.549  22.044  1.00  0.00     0.127 S 
ATOM     77  O   UNL A   1      47.214  28.203  21.703  1.00  0.00    -0.237 OA
ATOM     78  O   UNL A   1      49.660  28.403  21.944  1.00  0.00    -0.237 OA
ATOM     79  O   UNL A   1      48.653  26.207  21.507  1.00  0.00    -0.744 OA
ENDBRANCH  73  76
ENDBRANCH  45  69
BRANCH  57  80
ATOM     80  C   UNL A   1      44.994  33.266  29.129  1.00  0.00     0.023 A 
ATOM     81  C   UNL A   1      45.764  33.524  30.281  1.00  0.00     0.012 A 
ATOM     82  C   UNL A   1      44.899  34.251  28.126  1.00  0.00     0.148 A 
ATOM     83  C   UNL A   1      46.405  34.751  30.446  1.00  0.00     0.002 A 
ATOM     84  C   UNL A   1      45.583  35.451  28.273  1.00  0.00     0.091 A 
ATOM     85  F   UNL A   1      44.152  33.991  27.044  1.00  0.00    -0.205 F 
ATOM     86  C   UNL A   1      46.325  35.709  29.437  1.00  0.00     0.022 A 
BRANCH  84  87
ATOM     87  S   UNL A   1      45.620  36.710  26.991  1.00  0.00     0.127 S 
ATOM     88  O   UNL A   1      44.203  37.059  26.876  1.00  0.00    -0.237 OA
ATOM     89  O   UNL A   1      46.455  37.744  27.599  1.00  0.00    -0.237 OA
ATOM     90  O   UNL A   1      46.196  36.074  25.814  1.00  0.00    -0.744 OA
ENDBRANCH  84  87
ENDBRANCH  57  80
ENDBRANCH  31  32
ENDBRANCH  23  26
ENDBRANCH   1  22
TORSDOF 14
ENDMDL
MODEL 2
REMARK VINA RESULT:     -12.5      5.336     10.318
REMARK SMILES CC1(C)C(=O)N([C@H]2COC[C@@H]2C(=O)NCCCNC(=O)c2ccc(-c3c4nc(c(-c5cccc(S(=O)(=O)[O-])c5F)c5ccc([nH]5)c(-c5cccc(S(=O)(=O)[O-])c5F)c5nc(c(-c6cccc(S(=O)(=O)[O-])c6F)c6ccc3[nH]6)C=C5)C=C4)cc2)S1(=O)=O
REMARK SMILES IDX 17 1 16 2 15 3 14 4 12 5 13 6 11 8 7 9 8 10 9 11 10 12 6 13
REMARK SMILES IDX 1 14 2 15 3 16 4 17 84 18 5 19 85 20 86 21 18 22 19 23 20 25
REMARK SMILES IDX 21 26 22 27 83 28 23 29 82 30 24 31 25 32 26 33 76 34 27 35
REMARK SMILES IDX 81 36 75 37 77 38 28 39 80 40 74 41 73 42 29 44 61 45 41 46
REMARK SMILES IDX 60 47 42 48 45 49 59 50 78 51 43 52 44 53 58 55 79 56 46 57
REMARK SMILES IDX 30 58 31 59 39 60 32 61 34 62 40 63 33 64 35 65 36 66 37 67
REMARK SMILES IDX 38 68 62 69 63 70 71 71 64 72 66 73 72 74 65 75 67 76 68 77
REMARK SMILES IDX 69 78 70 79 47 80 48 81 56 82 49 83 51 84 57 85 50 86 52 87
REMARK SMILES IDX 53 88 54 89 55 90
REMARK H PARENT 14 7 18 24 77 43 45 54
REMARK Flexibility Score: inf
ROOT
ATOM      1  C   UNL A   1      32.137  30.430  26.813  1.00  0.00     0.118 C 
ENDROOT
BRANCH   1   2
ATOM      2  C   UNL A   1      32.294  29.934  25.379  1.00  0.00     0.042 C 
BRANCH   2   3
ATOM      3  C   UNL A   1      33.473  28.990  25.169  1.00  0.00     0.117 C 
BRANCH   3   4
ATOM      4  N   UNL A   1      33.917  28.961  23.784  1.00  0.00    -0.356 N 
ATOM      5  C   UNL A   1      33.665  28.030  22.817  1.00  0.00     0.227 C 
ATOM      6  O   UNL A   1      34.205  28.166  21.718  1.00  0.00    -0.275 OA
ATOM      7  H   UNL A   1      34.478  29.720  23.503  1.00  0.00     0.163 HD
BRANCH   5   8
ATOM      8  C   UNL A   1      32.731  26.874  23.135  1.00  0.00     0.130 C 
ATOM      9  C   UNL A   1      33.248  25.563  22.569  1.00  0.00     0.143 C 
ATOM     10  C   UNL A   1      32.732  25.639  21.129  1.00  0.00     0.187 C 
ATOM     11  O   UNL A   1      31.488  26.362  21.162  1.00  0.00    -0.378 OA
ATOM     12  C   UNL A   1      31.408  27.055  22.417  1.00  0.00     0.176 C 
BRANCH   9  13
ATOM     13  N   UNL A   1      32.667  24.355  23.208  1.00  0.00    -0.231 N 
ATOM     14  C   UNL A   1      32.200  21.257  24.509  1.00  0.00     0.041 C 
ATOM     15  C   UNL A   1      33.151  22.404  24.181  1.00  0.00     0.165 C 
ATOM     16  C   UNL A   1      34.607  21.993  24.415  1.00  0.00     0.041 C 
ATOM     17  C   UNL A   1      32.943  23.037  22.795  1.00  0.00     0.259 C 
ATOM     18  S   UNL A   1      32.716  23.982  24.821  1.00  0.00     0.252 S 
ATOM     19  O   UNL A   1      33.085  22.659  21.649  1.00  0.00    -0.272 OA
ATOM     20  O   UNL A   1      31.367  24.040  25.328  1.00  0.00    -0.205 OA
ATOM     21  O   UNL A   1      33.834  24.643  25.448  1.00  0.00    -0.205 OA
ENDBRANCH   9  13
ENDBRANCH   5   8
ENDBRANCH   3   4
ENDBRANCH   2   3
ENDBRANCH   1   2
BRANCH   1  22
ATOM     22  N   UNL A   1      32.159  31.885  26.917  1.00  0.00    -0.352 N 
ATOM     23  C   UNL A   1      33.098  32.723  27.471  1.00  0.00     0.251 C 
ATOM     24  H   UNL A   1      31.377  32.339  26.529  1.00  0.00     0.163 HD
ATOM     25  O   UNL A   1      32.840  33.918  27.599  1.00  0.00    -0.269 OA
BRANCH  23  26
ATOM     26  C   UNL A   1      34.399  32.194  27.934  1.00  0.00     0.039 A 
ATOM     27  C   UNL A   1      35.506  33.049  27.952  1.00  0.00     0.014 A 
ATOM     28  C   UNL A   1      34.537  30.866  28.346  1.00  0.00     0.014 A 
ATOM     29  C   UNL A   1      36.722  32.601  28.474  1.00  0.00     0.010 A 
ATOM     30  C   UNL A   1      35.727  30.444  28.933  1.00  0.00     0.010 A 
ATOM     31  C   UNL A   1      36.827  31.311  29.020  1.00  0.00    -0.014 A 
BRANCH  31  32
ATOM     32  C   UNL A   1      38.049  30.871  29.744  1.00  0.00     0.031 A 
ATOM     33  C   UNL A   1      38.967  29.842  29.145  1.00  0.00     0.074 A 
ATOM     34  C   UNL A   1      38.269  31.320  30.997  1.00  0.00     0.049 A 
ATOM     35  N   UNL A   1      40.010  29.261  29.678  1.00  0.00    -0.248 NA
ATOM     36  C   UNL A   1      38.663  29.393  27.777  1.00  0.00     0.031 C 
ATOM     37  C   UNL A   1      37.419  32.275  31.713  1.00  0.00     0.029 A 
ATOM     38  N   UNL A   1      39.250  31.006  31.904  1.00  0.00    -0.354 N 
ATOM     39  C   UNL A   1      40.468  28.355  28.728  1.00  0.00     0.074 A 
ATOM     40  C   UNL A   1      39.574  28.448  27.594  1.00  0.00     0.031 C 
ATOM     41  C   UNL A   1      37.911  32.462  32.947  1.00  0.00     0.029 A 
ATOM     42  C   UNL A   1      39.079  31.608  33.130  1.00  0.00     0.049 A 
ATOM     43  H   UNL A   1      40.005  30.408  31.698  1.00  0.00     0.167 HD
ATOM     44  C   UNL A   1      41.545  27.535  28.788  1.00  0.00     0.034 A 
ATOM     45  C   UNL A   1      39.763  31.467  34.282  1.00  0.00     0.034 A 
ATOM     46  C   UNL A   1      42.442  27.459  29.910  1.00  0.00     0.049 A 
ATOM     47  C   UNL A   1      40.944  30.537  34.325  1.00  0.00     0.074 A 
ATOM     48  C   UNL A   1      43.606  26.718  30.030  1.00  0.00     0.029 A 
ATOM     49  N   UNL A   1      42.268  28.125  31.113  1.00  0.00    -0.354 N 
ATOM     50  N   UNL A   1      41.454  29.804  33.364  1.00  0.00    -0.248 NA
ATOM     51  C   UNL A   1      41.660  30.427  35.606  1.00  0.00     0.031 C 
ATOM     52  C   UNL A   1      44.111  26.902  31.321  1.00  0.00     0.029 A 
ATOM     53  C   UNL A   1      43.285  27.790  31.991  1.00  0.00     0.049 A 
ATOM     54  H   UNL A   1      41.531  28.745  31.314  1.00  0.00     0.167 HD
ATOM     55  C   UNL A   1      42.562  29.172  33.915  1.00  0.00     0.074 A 
ATOM     56  C   UNL A   1      42.667  29.628  35.285  1.00  0.00     0.031 C 
ATOM     57  C   UNL A   1      43.406  28.278  33.342  1.00  0.00     0.034 A 
BRANCH  44  58
ATOM     58  C   UNL A   1      41.835  26.665  27.591  1.00  0.00     0.023 A 
ATOM     59  C   UNL A   1      42.496  27.213  26.473  1.00  0.00     0.012 A 
ATOM     60  C   UNL A   1      41.520  25.292  27.603  1.00  0.00     0.148 A 
ATOM     61  C   UNL A   1      42.807  26.417  25.371  1.00  0.00     0.002 A 
ATOM     62  C   UNL A   1      41.877  24.494  26.522  1.00  0.00     0.091 A 
ATOM     63  F   UNL A   1      40.879  24.792  28.668  1.00  0.00    -0.205 F 
ATOM     64  C   UNL A   1      42.509  25.058  25.400  1.00  0.00     0.022 A 
BRANCH  62  65
ATOM     65  S   UNL A   1      41.610  22.719  26.494  1.00  0.00     0.127 S 
ATOM     66  O   UNL A   1      40.153  22.642  26.391  1.00  0.00    -0.237 OA
ATOM     67  O   UNL A   1      42.328  22.320  25.283  1.00  0.00    -0.237 OA
ATOM     68  O   UNL A   1      42.173  22.206  27.734  1.00  0.00    -0.744 OA
ENDBRANCH  62  65
ENDBRANCH  44  58
BRANCH  45  69
ATOM     69  C   UNL A   1      39.361  32.242  35.491  1.00  0.00     0.023 A 
ATOM     70  C   UNL A   1      38.505  31.651  36.441  1.00  0.00     0.012 A 
ATOM     71  C   UNL A   1      39.828  33.553  35.710  1.00  0.00     0.148 A 
ATOM     72  C   UNL A   1      38.093  32.364  37.567  1.00  0.00     0.002 A 
ATOM     73  C   UNL A   1      39.461  34.236  36.863  1.00  0.00     0.091 A 
ATOM     74  F   UNL A   1      40.633  34.101  34.789  1.00  0.00    -0.205 F 
ATOM     75  C   UNL A   1      38.578  33.651  37.784  1.00  0.00     0.022 A 
BRANCH  73  76
ATOM     76  S   UNL A   1      40.136  35.846  37.288  1.00  0.00     0.127 S 
ATOM     77  O   UNL A   1      39.732  36.653  36.139  1.00  0.00    -0.237 OA
ATOM     78  O   UNL A   1      39.429  36.147  38.533  1.00  0.00    -0.237 OA
ATOM     79  O   UNL A   1      41.570  35.645  37.443  1.00  0.00    -0.744 OA
ENDBRANCH  73  76
ENDBRANCH  45  69
BRANCH  57  80
ATOM     80  C   UNL A   1      44.538  27.744  34.181  1.00  0.00     0.023 A 
ATOM     81  C   UNL A   1      45.760  28.444  34.236  1.00  0.00     0.012 A 
ATOM     82  C   UNL A   1      44.364  26.594  34.977  1.00  0.00     0.148 A 
ATOM     83  C   UNL A   1      46.801  27.993  35.047  1.00  0.00     0.002 A 
ATOM     84  C   UNL A   1      45.386  26.181  35.822  1.00  0.00     0.091 A 
ATOM     85  F   UNL A   1      43.200  25.935  34.901  1.00  0.00    -0.205 F 
ATOM     86  C   UNL A   1      46.609  26.870  35.849  1.00  0.00     0.022 A 
BRANCH  84  87
ATOM     87  S   UNL A   1      45.205  24.802  36.961  1.00  0.00     0.127 S 
ATOM     88  O   UNL A   1      44.082  25.246  37.788  1.00  0.00    -0.237 OA
ATOM     89  O   UNL A   1      44.897  23.696  36.057  1.00  0.00    -0.237 OA
ATOM     90  O   UNL A   1      46.477  24.684  37.660  1.00  0.00    -0.744 OA
ENDBRANCH  84  87
ENDBRANCH  57  80
ENDBRANCH  31  32
ENDBRANCH  23  26
ENDBRANCH   1  22
TORSDOF 14
ENDMDL
MODEL 3
REMARK VINA RESULT:     -12.5      5.394     10.602
REMARK SMILES CC1(C)C(=O)N([C@H]2COC[C@@H]2C(=O)NCCCNC(=O)c2ccc(-c3c4nc(c(-c5cccc(S(=O)(=O)[O-])c5F)c5ccc([nH]5)c(-c5cccc(S(=O)(=O)[O-])c5F)c5nc(c(-c6cccc(S(=O)(=O)[O-])c6F)c6ccc3[nH]6)C=C5)C=C4)cc2)S1(=O)=O
REMARK SMILES IDX 17 1 16 2 15 3 14 4 12 5 13 6 11 8 7 9 8 10 9 11 10 12 6 13
REMARK SMILES IDX 1 14 2 15 3 16 4 17 84 18 5 19 85 20 86 21 18 22 19 23 20 25
REMARK SMILES IDX 21 26 22 27 83 28 23 29 82 30 24 31 25 32 26 33 76 34 27 35
REMARK SMILES IDX 81 36 75 37 77 38 28 39 80 40 74 41 73 42 29 44 61 45 41 46
REMARK SMILES IDX 60 47 42 48 45 49 59 50 78 51 43 52 44 53 58 55 79 56 46 57
REMARK SMILES IDX 30 58 31 59 39 60 32 61 34 62 40 63 33 64 35 65 36 66 37 67
REMARK SMILES IDX 38 68 62 69 63 70 71 71 64 72 66 73 72 74 65 75 67 76 68 77
REMARK SMILES IDX 69 78 70 79 47 80 48 81 56 82 49 83 51 84 57 85 50 86 52 87
REMARK SMILES IDX 53 88 54 89 55 90
REMARK H PARENT 14 7 18 24 77 43 45 54
REMARK Flexibility Score: inf
ROOT
ATOM      1  C   UNL A   1      32.360  31.037  26.879  1.00  0.00     0.118 C 
ENDROOT
BRANCH   1   2
ATOM      2  C   UNL A   1      31.387  30.690  25.756  1.00  0.00     0.042 C 
BRANCH   2   3
ATOM      3  C   UNL A   1      31.612  29.315  25.136  1.00  0.00     0.117 C 
BRANCH   3   4
ATOM      4  N   UNL A   1      32.558  29.356  24.032  1.00  0.00    -0.356 N 
ATOM      5  C   UNL A   1      32.973  28.344  23.215  1.00  0.00     0.227 C 
ATOM      6  O   UNL A   1      33.844  28.585  22.379  1.00  0.00    -0.275 OA
ATOM      7  H   UNL A   1      32.955  30.238  23.847  1.00  0.00     0.163 HD
BRANCH   5   8
ATOM      8  C   UNL A   1      32.343  26.969  23.369  1.00  0.00     0.130 C 
ATOM      9  C   UNL A   1      33.212  25.882  22.761  1.00  0.00     0.143 C 
ATOM     10  C   UNL A   1      32.794  25.956  21.290  1.00  0.00     0.187 C 
ATOM     11  O   UNL A   1      31.409  26.344  21.262  1.00  0.00    -0.378 OA
ATOM     12  C   UNL A   1      31.069  26.882  22.549  1.00  0.00     0.176 C 
BRANCH   9  13
ATOM     13  N   UNL A   1      32.913  24.516  23.261  1.00  0.00    -0.231 N 
ATOM     14  C   UNL A   1      33.140  21.268  24.213  1.00  0.00     0.041 C 
ATOM     15  C   UNL A   1      33.819  22.620  24.017  1.00  0.00     0.165 C 
ATOM     16  C   UNL A   1      35.334  22.506  24.213  1.00  0.00     0.041 C 
ATOM     17  C   UNL A   1      33.456  23.340  22.709  1.00  0.00     0.259 C 
ATOM     18  S   UNL A   1      33.070  23.990  24.825  1.00  0.00     0.252 S 
ATOM     19  O   UNL A   1      33.654  23.127  21.529  1.00  0.00    -0.272 OA
ATOM     20  O   UNL A   1      31.749  23.705  25.327  1.00  0.00    -0.205 OA
ATOM     21  O   UNL A   1      34.033  24.803  25.525  1.00  0.00    -0.205 OA
ENDBRANCH   9  13
ENDBRANCH   5   8
ENDBRANCH   3   4
ENDBRANCH   2   3
ENDBRANCH   1   2
BRANCH   1  22
ATOM     22  N   UNL A   1      32.431  32.469  27.149  1.00  0.00    -0.352 N 
ATOM     23  C   UNL A   1      33.379  33.202  27.822  1.00  0.00     0.251 C 
ATOM     24  H   UNL A   1      31.680  32.994  26.791  1.00  0.00     0.163 HD
ATOM     25  O   UNL A   1      33.160  34.383  28.078  1.00  0.00    -0.269 OA
BRANCH  23  26
ATOM     26  C   UNL A   1      34.644  32.573  28.262  1.00  0.00     0.039 A 
ATOM     27  C   UNL A   1      35.828  33.312  28.178  1.00  0.00     0.014 A 
ATOM     28  C   UNL A   1      34.671  31.265  28.751  1.00  0.00     0.014 A 
ATOM     29  C   UNL A   1      37.019  32.775  28.674  1.00  0.00     0.010 A 
ATOM     30  C   UNL A   1      35.842  30.760  29.312  1.00  0.00     0.010 A 
ATOM     31  C   UNL A   1      37.024  31.516  29.296  1.00  0.00    -0.014 A 
BRANCH  31  32
ATOM     32  C   UNL A   1      38.232  30.999  29.993  1.00  0.00     0.031 A 
ATOM     33  C   UNL A   1      39.103  29.957  29.348  1.00  0.00     0.074 A 
ATOM     34  C   UNL A   1      38.478  31.391  31.260  1.00  0.00     0.049 A 
ATOM     35  N   UNL A   1      40.125  29.314  29.851  1.00  0.00    -0.248 NA
ATOM     36  C   UNL A   1      38.772  29.574  27.967  1.00  0.00     0.031 C 
ATOM     37  C   UNL A   1      37.672  32.352  32.019  1.00  0.00     0.029 A 
ATOM     38  N   UNL A   1      39.451  31.003  32.147  1.00  0.00    -0.354 N 
ATOM     39  C   UNL A   1      40.539  28.427  28.865  1.00  0.00     0.074 A 
ATOM     40  C   UNL A   1      39.642  28.600  27.741  1.00  0.00     0.031 C 
ATOM     41  C   UNL A   1      38.180  32.472  33.255  1.00  0.00     0.029 A 
ATOM     42  C   UNL A   1      39.313  31.565  33.396  1.00  0.00     0.049 A 
ATOM     43  H   UNL A   1      40.179  30.383  31.913  1.00  0.00     0.167 HD
ATOM     44  C   UNL A   1      41.581  27.562  28.885  1.00  0.00     0.034 A 
ATOM     45  C   UNL A   1      39.998  31.352  34.537  1.00  0.00     0.034 A 
ATOM     46  C   UNL A   1      42.482  27.407  29.996  1.00  0.00     0.049 A 
ATOM     47  C   UNL A   1      41.140  30.373  34.536  1.00  0.00     0.074 A 
ATOM     48  C   UNL A   1      43.615  26.615  30.079  1.00  0.00     0.029 A 
ATOM     49  N   UNL A   1      42.343  28.034  31.225  1.00  0.00    -0.354 N 
ATOM     50  N   UNL A   1      41.612  29.658  33.544  1.00  0.00    -0.248 NA
ATOM     51  C   UNL A   1      41.858  30.186  35.806  1.00  0.00     0.031 C 
ATOM     52  C   UNL A   1      44.135  26.729  31.372  1.00  0.00     0.029 A 
ATOM     53  C   UNL A   1      43.351  27.624  32.082  1.00  0.00     0.049 A 
ATOM     54  H   UNL A   1      41.633  28.675  31.455  1.00  0.00     0.167 HD
ATOM     55  C   UNL A   1      42.697  28.960  34.061  1.00  0.00     0.074 A 
ATOM     56  C   UNL A   1      42.830  29.359  35.447  1.00  0.00     0.031 C 
ATOM     57  C   UNL A   1      43.500  28.055  33.449  1.00  0.00     0.034 A 
BRANCH  44  58
ATOM     58  C   UNL A   1      41.828  26.727  27.654  1.00  0.00     0.023 A 
ATOM     59  C   UNL A   1      42.407  27.319  26.513  1.00  0.00     0.012 A 
ATOM     60  C   UNL A   1      41.554  25.345  27.652  1.00  0.00     0.148 A 
ATOM     61  C   UNL A   1      42.678  26.556  25.377  1.00  0.00     0.002 A 
ATOM     62  C   UNL A   1      41.871  24.582  26.534  1.00  0.00     0.091 A 
ATOM     63  F   UNL A   1      40.990  24.804  28.740  1.00  0.00    -0.205 F 
ATOM     64  C   UNL A   1      42.422  25.188  25.392  1.00  0.00     0.022 A 
BRANCH  62  65
ATOM     65  S   UNL A   1      41.655  22.800  26.480  1.00  0.00     0.127 S 
ATOM     66  O   UNL A   1      42.294  22.464  25.208  1.00  0.00    -0.237 OA
ATOM     67  O   UNL A   1      42.395  22.366  27.666  1.00  0.00    -0.237 OA
ATOM     68  O   UNL A   1      40.220  22.565  26.537  1.00  0.00    -0.744 OA
ENDBRANCH  62  65
ENDBRANCH  44  58
BRANCH  45  69
ATOM     69  C   UNL A   1      39.635  32.096  35.778  1.00  0.00     0.023 A 
ATOM     70  C   UNL A   1      40.243  33.338  36.044  1.00  0.00     0.012 A 
ATOM     71  C   UNL A   1      38.685  31.588  36.685  1.00  0.00     0.148 A 
ATOM     72  C   UNL A   1      39.940  34.042  37.211  1.00  0.00     0.002 A 
ATOM     73  C   UNL A   1      38.344  32.321  37.815  1.00  0.00     0.091 A 
ATOM     74  F   UNL A   1      38.125  30.400  36.418  1.00  0.00    -0.205 F 
ATOM     75  C   UNL A   1      38.984  33.540  38.090  1.00  0.00     0.022 A 
BRANCH  73  76
ATOM     76  S   UNL A   1      37.035  31.815  38.936  1.00  0.00     0.127 S 
ATOM     77  O   UNL A   1      37.628  32.103  40.239  1.00  0.00    -0.237 OA
ATOM     78  O   UNL A   1      35.944  32.708  38.544  1.00  0.00    -0.237 OA
ATOM     79  O   UNL A   1      36.793  30.407  38.651  1.00  0.00    -0.744 OA
ENDBRANCH  73  76
ENDBRANCH  45  69
BRANCH  57  80
ATOM     80  C   UNL A   1      44.614  27.443  34.258  1.00  0.00     0.023 A 
ATOM     81  C   UNL A   1      45.874  28.073  34.304  1.00  0.00     0.012 A 
ATOM     82  C   UNL A   1      44.390  26.290  35.037  1.00  0.00     0.148 A 
ATOM     83  C   UNL A   1      46.902  27.550  35.088  1.00  0.00     0.002 A 
ATOM     84  C   UNL A   1      45.401  25.805  35.856  1.00  0.00     0.091 A 
ATOM     85  F   UNL A   1      43.189  25.699  34.970  1.00  0.00    -0.205 F 
ATOM     86  C   UNL A   1      46.661  26.425  35.873  1.00  0.00     0.022 A 
BRANCH  84  87
ATOM     87  S   UNL A   1      45.162  24.418  36.974  1.00  0.00     0.127 S 
ATOM     88  O   UNL A   1      44.076  24.906  37.825  1.00  0.00    -0.237 OA
ATOM     89  O   UNL A   1      44.784  23.346  36.055  1.00  0.00    -0.237 OA
ATOM     90  O   UNL A   1      46.436  24.220  37.652  1.00  0.00    -0.744 OA
ENDBRANCH  84  87
ENDBRANCH  57  80
ENDBRANCH  31  32
ENDBRANCH  23  26
ENDBRANCH   1  22
TORSDOF 14
ENDMDL
