MODEL 1
REMARK VINA RESULT:     -12.0      0.000      0.000
REMARK SMILES CC(C)=CC(=O)Nc1ccc(C(=O)NCCCNC(=O)c2ccc(-c3c4nc(c(-c5cccc(S(=O)(=O)[O-])c5F)c5ccc([nH]5)c(-c5cccc(S(=O)(=O)[O-])c5F)c5nc(c(-c6cccc(S(=O)(=O)[O-])c6F)c6ccc3[nH]6)C=C5)C=C4)cc2)cc1
REMARK SMILES IDX 16 1 15 2 14 3 12 4 13 5 11 7 8 8 9 9 85 10 10 11 84 12 7 13
REMARK SMILES IDX 5 14 6 15 4 17 1 18 2 19 3 20 17 21 18 22 19 23 20 25 21 26
REMARK SMILES IDX 22 27 83 28 23 29 82 30 24 31 25 32 26 33 76 34 27 35 81 36
REMARK SMILES IDX 75 37 77 38 28 39 80 40 74 41 73 42 29 44 61 45 41 46 60 47
REMARK SMILES IDX 42 48 45 49 59 50 78 51 43 52 44 53 58 55 79 56 46 57 30 58
REMARK SMILES IDX 31 59 39 60 32 61 34 62 40 63 33 64 35 65 36 66 37 67 38 68
REMARK SMILES IDX 62 69 63 70 71 71 64 72 66 73 72 74 65 75 67 76 68 77 69 78
REMARK SMILES IDX 70 79 47 80 48 81 56 82 49 83 51 84 57 85 50 86 52 87 53 88
REMARK SMILES IDX 54 89 55 90
REMARK H PARENT 14 6 7 16 18 24 77 43 45 54
REMARK Flexibility Score: inf
ROOT
ATOM      1  C   UNL A   1      31.560  31.840  26.522  1.00  0.00     0.042 C 
ENDROOT
BRANCH   1   2
ATOM      2  C   UNL A   1      31.727  30.350  26.234  1.00  0.00     0.118 C 
BRANCH   2   3
ATOM      3  N   UNL A   1      32.308  30.130  24.918  1.00  0.00    -0.352 N 
ATOM      4  C   UNL A   1      32.537  28.989  24.190  1.00  0.00     0.251 C 
ATOM      5  O   UNL A   1      33.002  29.106  23.057  1.00  0.00    -0.269 OA
ATOM      6  H   UNL A   1      32.592  30.956  24.464  1.00  0.00     0.163 HD
BRANCH   4   7
ATOM      7  C   UNL A   1      32.127  27.644  24.673  1.00  0.00     0.039 A 
ATOM      8  C   UNL A   1      31.080  25.434  26.008  1.00  0.00     0.041 A 
ATOM      9  C   UNL A   1      30.263  26.160  25.140  1.00  0.00     0.027 A 
ATOM     10  C   UNL A   1      32.451  25.676  26.037  1.00  0.00     0.027 A 
ATOM     11  C   UNL A   1      30.780  27.289  24.505  1.00  0.00     0.016 A 
ATOM     12  C   UNL A   1      32.978  26.759  25.335  1.00  0.00     0.016 A 
BRANCH   8  13
ATOM     13  N   UNL A   1      30.459  24.544  26.888  1.00  0.00    -0.323 N 
ATOM     14  C   UNL A   1      30.229  23.206  26.738  1.00  0.00     0.248 C 
ATOM     15  O   UNL A   1      29.540  22.607  27.563  1.00  0.00    -0.270 OA
ATOM     16  H   UNL A   1      30.143  24.937  27.734  1.00  0.00     0.170 HD
BRANCH  14  17
ATOM     17  C   UNL A   1      30.840  22.420  25.626  1.00  0.00     0.070 C 
ATOM     18  C   UNL A   1      33.189  22.038  26.541  1.00  0.00     0.039 C 
ATOM     19  C   UNL A   1      32.081  21.896  25.533  1.00  0.00    -0.071 C 
ATOM     20  C   UNL A   1      32.458  21.037  24.352  1.00  0.00     0.039 C 
ENDBRANCH  14  17
ENDBRANCH   8  13
ENDBRANCH   4   7
ENDBRANCH   2   3
ENDBRANCH   1   2
BRANCH   1  21
ATOM     21  C   UNL A   1      32.762  32.457  27.229  1.00  0.00     0.118 C 
BRANCH  21  22
ATOM     22  N   UNL A   1      32.539  33.854  27.575  1.00  0.00    -0.352 N 
ATOM     23  C   UNL A   1      33.108  34.614  28.569  1.00  0.00     0.251 C 
ATOM     24  H   UNL A   1      31.883  34.325  27.012  1.00  0.00     0.163 HD
ATOM     25  O   UNL A   1      32.637  35.721  28.819  1.00  0.00    -0.269 OA
BRANCH  23  26
ATOM     26  C   UNL A   1      34.262  34.105  29.345  1.00  0.00     0.039 A 
ATOM     27  C   UNL A   1      34.020  33.268  30.438  1.00  0.00     0.014 A 
ATOM     28  C   UNL A   1      35.573  34.468  29.023  1.00  0.00     0.014 A 
ATOM     29  C   UNL A   1      35.093  32.747  31.167  1.00  0.00     0.010 A 
ATOM     30  C   UNL A   1      36.643  33.886  29.702  1.00  0.00     0.010 A 
ATOM     31  C   UNL A   1      36.415  33.025  30.785  1.00  0.00    -0.014 A 
BRANCH  31  32
ATOM     32  C   UNL A   1      37.570  32.409  31.492  1.00  0.00     0.031 A 
ATOM     33  C   UNL A   1      38.321  31.261  30.873  1.00  0.00     0.074 A 
ATOM     34  C   UNL A   1      37.889  32.830  32.732  1.00  0.00     0.049 A 
ATOM     35  N   UNL A   1      39.312  30.563  31.364  1.00  0.00    -0.248 NA
ATOM     36  C   UNL A   1      37.889  30.823  29.535  1.00  0.00     0.031 C 
ATOM     37  C   UNL A   1      37.192  33.883  33.473  1.00  0.00     0.029 A 
ATOM     38  N   UNL A   1      38.863  32.404  33.601  1.00  0.00    -0.354 N 
ATOM     39  C   UNL A   1      39.598  29.586  30.419  1.00  0.00     0.074 A 
ATOM     40  C   UNL A   1      38.654  29.759  29.336  1.00  0.00     0.031 C 
ATOM     41  C   UNL A   1      37.762  34.025  34.679  1.00  0.00     0.029 A 
ATOM     42  C   UNL A   1      38.841  33.052  34.814  1.00  0.00     0.049 A 
ATOM     43  H   UNL A   1      39.516  31.702  33.377  1.00  0.00     0.167 HD
ATOM     44  C   UNL A   1      40.574  28.646  30.434  1.00  0.00     0.034 A 
ATOM     45  C   UNL A   1      39.597  32.876  35.917  1.00  0.00     0.034 A 
ATOM     46  C   UNL A   1      41.535  28.499  31.495  1.00  0.00     0.049 A 
ATOM     47  C   UNL A   1      40.691  31.844  35.897  1.00  0.00     0.074 A 
ATOM     48  C   UNL A   1      42.613  27.635  31.564  1.00  0.00     0.029 A 
ATOM     49  N   UNL A   1      41.530  29.226  32.675  1.00  0.00    -0.354 N 
ATOM     50  N   UNL A   1      41.045  31.034  34.928  1.00  0.00    -0.248 NA
ATOM     51  C   UNL A   1      41.514  31.726  37.109  1.00  0.00     0.031 C 
ATOM     52  C   UNL A   1      43.244  27.821  32.799  1.00  0.00     0.029 A 
ATOM     53  C   UNL A   1      42.578  28.824  33.486  1.00  0.00     0.049 A 
ATOM     54  H   UNL A   1      40.877  29.927  32.904  1.00  0.00     0.167 HD
ATOM     55  C   UNL A   1      42.152  30.337  35.399  1.00  0.00     0.074 A 
ATOM     56  C   UNL A   1      42.423  30.836  36.732  1.00  0.00     0.031 C 
ATOM     57  C   UNL A   1      42.869  29.362  34.789  1.00  0.00     0.034 A 
BRANCH  44  58
ATOM     58  C   UNL A   1      40.686  27.731  29.241  1.00  0.00     0.023 A 
ATOM     59  C   UNL A   1      39.868  26.586  29.163  1.00  0.00     0.012 A 
ATOM     60  C   UNL A   1      41.553  28.034  28.172  1.00  0.00     0.148 A 
ATOM     61  C   UNL A   1      39.935  25.736  28.059  1.00  0.00     0.002 A 
ATOM     62  C   UNL A   1      41.580  27.208  27.054  1.00  0.00     0.091 A 
ATOM     63  F   UNL A   1      42.337  29.117  28.271  1.00  0.00    -0.205 F 
ATOM     64  C   UNL A   1      40.783  26.053  27.002  1.00  0.00     0.022 A 
BRANCH  62  65
ATOM     65  S   UNL A   1      42.579  27.572  25.605  1.00  0.00     0.127 S 
ATOM     66  O   UNL A   1      42.437  26.337  24.833  1.00  0.00    -0.237 OA
ATOM     67  O   UNL A   1      41.880  28.726  25.035  1.00  0.00    -0.237 OA
ATOM     68  O   UNL A   1      43.916  27.852  26.097  1.00  0.00    -0.744 OA
ENDBRANCH  62  65
ENDBRANCH  44  58
BRANCH  45  69
ATOM     69  C   UNL A   1      39.385  33.742  37.111  1.00  0.00     0.023 A 
ATOM     70  C   UNL A   1      39.790  35.091  37.069  1.00  0.00     0.012 A 
ATOM     71  C   UNL A   1      38.760  33.250  38.274  1.00  0.00     0.148 A 
ATOM     72  C   UNL A   1      39.608  35.924  38.173  1.00  0.00     0.002 A 
ATOM     73  C   UNL A   1      38.531  34.100  39.349  1.00  0.00     0.091 A 
ATOM     74  F   UNL A   1      38.391  31.961  38.299  1.00  0.00    -0.205 F 
ATOM     75  C   UNL A   1      38.971  35.431  39.309  1.00  0.00     0.022 A 
BRANCH  73  76
ATOM     76  S   UNL A   1      37.598  33.591  40.797  1.00  0.00     0.127 S 
ATOM     77  O   UNL A   1      38.479  32.585  41.383  1.00  0.00    -0.237 OA
ATOM     78  O   UNL A   1      37.503  34.842  41.549  1.00  0.00    -0.237 OA
ATOM     79  O   UNL A   1      36.324  33.099  40.291  1.00  0.00    -0.744 OA
ENDBRANCH  73  76
ENDBRANCH  45  69
BRANCH  57  80
ATOM     80  C   UNL A   1      44.047  28.789  35.535  1.00  0.00     0.023 A 
ATOM     81  C   UNL A   1      45.324  29.363  35.380  1.00  0.00     0.012 A 
ATOM     82  C   UNL A   1      43.871  27.728  36.446  1.00  0.00     0.148 A 
ATOM     83  C   UNL A   1      46.415  28.868  36.094  1.00  0.00     0.002 A 
ATOM     84  C   UNL A   1      44.952  27.274  37.191  1.00  0.00     0.091 A 
ATOM     85  F   UNL A   1      42.651  27.184  36.566  1.00  0.00    -0.205 F 
ATOM     86  C   UNL A   1      46.227  27.833  37.008  1.00  0.00     0.022 A 
BRANCH  84  87
ATOM     87  S   UNL A   1      44.786  26.013  38.460  1.00  0.00     0.127 S 
ATOM     88  O   UNL A   1      43.960  25.015  37.783  1.00  0.00    -0.237 OA
ATOM     89  O   UNL A   1      46.175  25.608  38.678  1.00  0.00    -0.237 OA
ATOM     90  O   UNL A   1      44.162  26.670  39.601  1.00  0.00    -0.744 OA
ENDBRANCH  84  87
ENDBRANCH  57  80
ENDBRANCH  31  32
ENDBRANCH  23  26
ENDBRANCH  21  22
ENDBRANCH   1  21
TORSDOF 15
ENDMDL
MODEL 2
REMARK VINA RESULT:     -11.8      5.910      9.267
REMARK SMILES CC(C)=CC(=O)Nc1ccc(C(=O)NCCCNC(=O)c2ccc(-c3c4nc(c(-c5cccc(S(=O)(=O)[O-])c5F)c5ccc([nH]5)c(-c5cccc(S(=O)(=O)[O-])c5F)c5nc(c(-c6cccc(S(=O)(=O)[O-])c6F)c6ccc3[nH]6)C=C5)C=C4)cc2)cc1
REMARK SMILES IDX 16 1 15 2 14 3 12 4 13 5 11 7 8 8 9 9 85 10 10 11 84 12 7 13
REMARK SMILES IDX 5 14 6 15 4 17 1 18 2 19 3 20 17 21 18 22 19 23 20 25 21 26
REMARK SMILES IDX 22 27 83 28 23 29 82 30 24 31 25 32 26 33 76 34 27 35 81 36
REMARK SMILES IDX 75 37 77 38 28 39 80 40 74 41 73 42 29 44 61 45 41 46 60 47
REMARK SMILES IDX 42 48 45 49 59 50 78 51 43 52 44 53 58 55 79 56 46 57 30 58
REMARK SMILES IDX 31 59 39 60 32 61 34 62 40 63 33 64 35 65 36 66 37 67 38 68
REMARK SMILES IDX 62 69 63 70 71 71 64 72 66 73 72 74 65 75 67 76 68 77 69 78
REMARK SMILES IDX 70 79 47 80 48 81 56 82 49 83 51 84 57 85 50 86 52 87 53 88
REMARK SMILES IDX 54 89 55 90
REMARK H PARENT 14 6 7 16 18 24 77 43 45 54
REMARK Flexibility Score: inf
ROOT
ATOM      1  C   UNL A   1      35.425  21.012  25.569  1.00  0.00     0.042 C 
ENDROOT
BRANCH   1   2
ATOM      2  C   UNL A   1      35.371  19.694  24.799  1.00  0.00     0.118 C 
BRANCH   2   3
ATOM      3  N   UNL A   1      34.232  18.888  25.213  1.00  0.00    -0.352 N 
ATOM      4  C   UNL A   1      32.878  19.101  25.141  1.00  0.00     0.251 C 
ATOM      5  O   UNL A   1      32.128  18.205  25.525  1.00  0.00    -0.269 OA
ATOM      6  H   UNL A   1      34.480  18.028  25.622  1.00  0.00     0.163 HD
BRANCH   4   7
ATOM      7  C   UNL A   1      32.298  20.313  24.504  1.00  0.00     0.039 A 
ATOM      8  C   UNL A   1      31.781  22.709  23.181  1.00  0.00     0.041 A 
ATOM      9  C   UNL A   1      32.009  21.551  22.436  1.00  0.00     0.027 A 
ATOM     10  C   UNL A   1      31.597  22.624  24.558  1.00  0.00     0.027 A 
ATOM     11  C   UNL A   1      32.307  20.363  23.102  1.00  0.00     0.016 A 
ATOM     12  C   UNL A   1      31.817  21.413  25.213  1.00  0.00     0.016 A 
BRANCH   8  13
ATOM     13  N   UNL A   1      31.840  23.932  22.509  1.00  0.00    -0.323 N 
ATOM     14  C   UNL A   1      32.738  24.951  22.652  1.00  0.00     0.248 C 
ATOM     15  O   UNL A   1      32.551  26.019  22.070  1.00  0.00    -0.270 OA
ATOM     16  H   UNL A   1      31.135  24.081  21.837  1.00  0.00     0.170 HD
BRANCH  14  17
ATOM     17  C   UNL A   1      33.987  24.795  23.455  1.00  0.00     0.070 C 
ATOM     18  C   UNL A   1      33.260  25.811  25.677  1.00  0.00     0.039 C 
ATOM     19  C   UNL A   1      34.221  25.129  24.742  1.00  0.00    -0.071 C 
ATOM     20  C   UNL A   1      35.537  24.781  25.391  1.00  0.00     0.039 C 
ENDBRANCH  14  17
ENDBRANCH   8  13
ENDBRANCH   4   7
ENDBRANCH   2   3
ENDBRANCH   1   2
BRANCH   1  21
ATOM     21  C   UNL A   1      36.806  21.657  25.567  1.00  0.00     0.118 C 
BRANCH  21  22
ATOM     22  N   UNL A   1      37.869  20.681  25.763  1.00  0.00    -0.352 N 
ATOM     23  C   UNL A   1      39.192  20.876  26.080  1.00  0.00     0.251 C 
ATOM     24  H   UNL A   1      37.599  19.741  25.652  1.00  0.00     0.163 HD
ATOM     25  O   UNL A   1      39.971  19.928  26.006  1.00  0.00    -0.269 OA
BRANCH  23  26
ATOM     26  C   UNL A   1      39.685  22.210  26.488  1.00  0.00     0.039 A 
ATOM     27  C   UNL A   1      40.676  22.289  27.472  1.00  0.00     0.014 A 
ATOM     28  C   UNL A   1      39.162  23.382  25.934  1.00  0.00     0.014 A 
ATOM     29  C   UNL A   1      41.183  23.535  27.852  1.00  0.00     0.010 A 
ATOM     30  C   UNL A   1      39.722  24.617  26.257  1.00  0.00     0.010 A 
ATOM     31  C   UNL A   1      40.734  24.708  27.223  1.00  0.00    -0.014 A 
BRANCH  31  32
ATOM     32  C   UNL A   1      41.324  26.034  27.549  1.00  0.00     0.031 A 
ATOM     33  C   UNL A   1      42.749  26.348  27.180  1.00  0.00     0.074 A 
ATOM     34  C   UNL A   1      40.601  26.925  28.255  1.00  0.00     0.049 A 
ATOM     35  N   UNL A   1      43.449  27.423  27.434  1.00  0.00    -0.248 NA
ATOM     36  C   UNL A   1      43.496  25.309  26.450  1.00  0.00     0.031 C 
ATOM     37  C   UNL A   1      39.235  26.715  28.738  1.00  0.00     0.029 A 
ATOM     38  N   UNL A   1      40.923  28.179  28.715  1.00  0.00    -0.354 N 
ATOM     39  C   UNL A   1      44.721  27.180  26.929  1.00  0.00     0.074 A 
ATOM     40  C   UNL A   1      44.708  25.840  26.383  1.00  0.00     0.031 C 
ATOM     41  C   UNL A   1      38.836  27.799  29.420  1.00  0.00     0.029 A 
ATOM     42  C   UNL A   1      39.925  28.769  29.455  1.00  0.00     0.049 A 
ATOM     43  H   UNL A   1      41.787  28.614  28.532  1.00  0.00     0.167 HD
ATOM     44  C   UNL A   1      45.797  28.003  26.898  1.00  0.00     0.034 A 
ATOM     45  C   UNL A   1      39.891  29.953  30.098  1.00  0.00     0.034 A 
ATOM     46  C   UNL A   1      45.797  29.349  27.409  1.00  0.00     0.049 A 
ATOM     47  C   UNL A   1      41.089  30.860  30.024  1.00  0.00     0.074 A 
ATOM     48  C   UNL A   1      46.808  30.291  27.348  1.00  0.00     0.029 A 
ATOM     49  N   UNL A   1      44.740  29.940  28.082  1.00  0.00    -0.354 N 
ATOM     50  N   UNL A   1      42.230  30.672  29.406  1.00  0.00    -0.248 NA
ATOM     51  C   UNL A   1      40.983  32.158  30.705  1.00  0.00     0.031 C 
ATOM     52  C   UNL A   1      46.372  31.444  28.009  1.00  0.00     0.029 A 
ATOM     53  C   UNL A   1      45.077  31.232  28.454  1.00  0.00     0.049 A 
ATOM     54  H   UNL A   1      43.875  29.507  28.270  1.00  0.00     0.167 HD
ATOM     55  C   UNL A   1      42.963  31.839  29.593  1.00  0.00     0.074 A 
ATOM     56  C   UNL A   1      42.127  32.737  30.363  1.00  0.00     0.031 C 
ATOM     57  C   UNL A   1      44.218  32.134  29.176  1.00  0.00     0.034 A 
BRANCH  44  58
ATOM     58  C   UNL A   1      47.054  27.492  26.242  1.00  0.00     0.023 A 
ATOM     59  C   UNL A   1      47.299  27.783  24.885  1.00  0.00     0.012 A 
ATOM     60  C   UNL A   1      48.019  26.777  26.979  1.00  0.00     0.148 A 
ATOM     61  C   UNL A   1      48.465  27.342  24.261  1.00  0.00     0.002 A 
ATOM     62  C   UNL A   1      49.201  26.382  26.362  1.00  0.00     0.091 A 
ATOM     63  F   UNL A   1      47.763  26.493  28.264  1.00  0.00    -0.205 F 
ATOM     64  C   UNL A   1      49.419  26.651  25.002  1.00  0.00     0.022 A 
BRANCH  62  65
ATOM     65  S   UNL A   1      50.528  25.557  27.250  1.00  0.00     0.127 S 
ATOM     66  O   UNL A   1      49.877  24.312  27.660  1.00  0.00    -0.237 OA
ATOM     67  O   UNL A   1      51.541  25.395  26.205  1.00  0.00    -0.237 OA
ATOM     68  O   UNL A   1      50.907  26.450  28.331  1.00  0.00    -0.744 OA
ENDBRANCH  62  65
ENDBRANCH  44  58
BRANCH  45  69
ATOM     69  C   UNL A   1      38.657  30.375  30.817  1.00  0.00     0.023 A 
ATOM     70  C   UNL A   1      38.518  30.080  32.187  1.00  0.00     0.012 A 
ATOM     71  C   UNL A   1      37.634  31.091  30.163  1.00  0.00     0.148 A 
ATOM     72  C   UNL A   1      37.372  30.459  32.885  1.00  0.00     0.002 A 
ATOM     73  C   UNL A   1      36.520  31.515  30.877  1.00  0.00     0.091 A 
ATOM     74  F   UNL A   1      37.779  31.353  28.856  1.00  0.00    -0.205 F 
ATOM     75  C   UNL A   1      36.377  31.185  32.233  1.00  0.00     0.022 A 
BRANCH  73  76
ATOM     76  S   UNL A   1      35.256  32.568  30.156  1.00  0.00     0.127 S 
ATOM     77  O   UNL A   1      34.795  31.757  29.033  1.00  0.00    -0.237 OA
ATOM     78  O   UNL A   1      34.304  32.694  31.259  1.00  0.00    -0.237 OA
ATOM     79  O   UNL A   1      35.933  33.809  29.804  1.00  0.00    -0.744 OA
ENDBRANCH  73  76
ENDBRANCH  45  69
BRANCH  57  80
ATOM     80  C   UNL A   1      44.762  33.500  29.508  1.00  0.00     0.023 A 
ATOM     81  C   UNL A   1      45.462  33.704  30.713  1.00  0.00     0.012 A 
ATOM     82  C   UNL A   1      44.642  34.562  28.590  1.00  0.00     0.148 A 
ATOM     83  C   UNL A   1      46.004  34.953  31.016  1.00  0.00     0.002 A 
ATOM     84  C   UNL A   1      45.230  35.789  28.874  1.00  0.00     0.091 A 
ATOM     85  F   UNL A   1      43.958  34.353  27.455  1.00  0.00    -0.205 F 
ATOM     86  C   UNL A   1      45.900  35.991  30.092  1.00  0.00     0.022 A 
BRANCH  84  87
ATOM     87  S   UNL A   1      45.230  37.152  27.704  1.00  0.00     0.127 S 
ATOM     88  O   UNL A   1      45.896  38.204  28.471  1.00  0.00    -0.237 OA
ATOM     89  O   UNL A   1      46.021  36.611  26.598  1.00  0.00    -0.237 OA
ATOM     90  O   UNL A   1      43.832  37.404  27.380  1.00  0.00    -0.744 OA
ENDBRANCH  84  87
ENDBRANCH  57  80
ENDBRANCH  31  32
ENDBRANCH  23  26
ENDBRANCH  21  22
ENDBRANCH   1  21
TORSDOF 15
ENDMDL
MODEL 3
REMARK VINA RESULT:     -11.7      6.110     12.111
REMARK SMILES CC(C)=CC(=O)Nc1ccc(C(=O)NCCCNC(=O)c2ccc(-c3c4nc(c(-c5cccc(S(=O)(=O)[O-])c5F)c5ccc([nH]5)c(-c5cccc(S(=O)(=O)[O-])c5F)c5nc(c(-c6cccc(S(=O)(=O)[O-])c6F)c6ccc3[nH]6)C=C5)C=C4)cc2)cc1
REMARK SMILES IDX 16 1 15 2 14 3 12 4 13 5 11 7 8 8 9 9 85 10 10 11 84 12 7 13
REMARK SMILES IDX 5 14 6 15 4 17 1 18 2 19 3 20 17 21 18 22 19 23 20 25 21 26
REMARK SMILES IDX 22 27 83 28 23 29 82 30 24 31 25 32 26 33 76 34 27 35 81 36
REMARK SMILES IDX 75 37 77 38 28 39 80 40 74 41 73 42 29 44 61 45 41 46 60 47
REMARK SMILES IDX 42 48 45 49 59 50 78 51 43 52 44 53 58 55 79 56 46 57 30 58
REMARK SMILES IDX 31 59 39 60 32 61 34 62 40 63 33 64 35 65 36 66 37 67 38 68
REMARK SMILES IDX 62 69 63 70 71 71 64 72 66 73 72 74 65 75 67 76 68 77 69 78
REMARK SMILES IDX 70 79 47 80 48 81 56 82 49 83 51 84 57 85 50 86 52 87 53 88
REMARK SMILES IDX 54 89 55 90
REMARK H PARENT 14 6 7 16 18 24 77 43 45 54
REMARK Flexibility Score: inf
ROOT
ATOM      1  C   UNL A   1      38.021  19.702  25.066  1.00  0.00     0.042 C 
ENDROOT
BRANCH   1   2
ATOM      2  C   UNL A   1      36.896  20.734  25.001  1.00  0.00     0.118 C 
BRANCH   2   3
ATOM      3  N   UNL A   1      37.169  21.746  23.991  1.00  0.00    -0.352 N 
ATOM      4  C   UNL A   1      36.413  22.778  23.493  1.00  0.00     0.251 C 
ATOM      5  O   UNL A   1      36.928  23.528  22.665  1.00  0.00    -0.269 OA
ATOM      6  H   UNL A   1      38.065  21.677  23.589  1.00  0.00     0.163 HD
BRANCH   4   7
ATOM      7  C   UNL A   1      35.054  23.087  24.010  1.00  0.00     0.039 A 
ATOM      8  C   UNL A   1      32.654  23.280  25.409  1.00  0.00     0.041 A 
ATOM      9  C   UNL A   1      33.767  23.993  25.858  1.00  0.00     0.027 A 
ATOM     10  C   UNL A   1      32.681  22.660  24.163  1.00  0.00     0.027 A 
ATOM     11  C   UNL A   1      34.977  23.862  25.177  1.00  0.00     0.016 A 
ATOM     12  C   UNL A   1      33.875  22.601  23.446  1.00  0.00     0.016 A 
BRANCH   8  13
ATOM     13  N   UNL A   1      31.576  23.145  26.288  1.00  0.00    -0.323 N 
ATOM     14  C   UNL A   1      30.483  23.949  26.439  1.00  0.00     0.248 C 
ATOM     15  O   UNL A   1      29.698  23.748  27.367  1.00  0.00    -0.270 OA
ATOM     16  H   UNL A   1      31.610  22.359  26.882  1.00  0.00     0.170 HD
BRANCH  14  17
ATOM     17  C   UNL A   1      30.168  25.043  25.473  1.00  0.00     0.070 C 
ATOM     18  C   UNL A   1      31.523  26.962  26.463  1.00  0.00     0.039 C 
ATOM     19  C   UNL A   1      30.617  26.316  25.451  1.00  0.00    -0.071 C 
ATOM     20  C   UNL A   1      30.249  27.232  24.312  1.00  0.00     0.039 C 
ENDBRANCH  14  17
ENDBRANCH   8  13
ENDBRANCH   4   7
ENDBRANCH   2   3
ENDBRANCH   1   2
BRANCH   1  21
ATOM     21  C   UNL A   1      39.276  20.218  25.761  1.00  0.00     0.118 C 
BRANCH  21  22
ATOM     22  N   UNL A   1      40.288  19.181  25.908  1.00  0.00    -0.352 N 
ATOM     23  C   UNL A   1      41.643  19.299  26.102  1.00  0.00     0.251 C 
ATOM     24  H   UNL A   1      39.950  18.258  25.863  1.00  0.00     0.163 HD
ATOM     25  O   UNL A   1      42.351  18.299  26.005  1.00  0.00    -0.269 OA
BRANCH  23  26
ATOM     26  C   UNL A   1      42.254  20.612  26.408  1.00  0.00     0.039 A 
ATOM     27  C   UNL A   1      42.718  21.401  25.350  1.00  0.00     0.014 A 
ATOM     28  C   UNL A   1      42.398  21.061  27.724  1.00  0.00     0.014 A 
ATOM     29  C   UNL A   1      43.268  22.659  25.608  1.00  0.00     0.010 A 
ATOM     30  C   UNL A   1      42.874  22.347  27.973  1.00  0.00     0.010 A 
ATOM     31  C   UNL A   1      43.320  23.158  26.919  1.00  0.00    -0.014 A 
BRANCH  31  32
ATOM     32  C   UNL A   1      43.819  24.530  27.205  1.00  0.00     0.031 A 
ATOM     33  C   UNL A   1      42.880  25.596  27.704  1.00  0.00     0.074 A 
ATOM     34  C   UNL A   1      45.102  24.838  26.935  1.00  0.00     0.049 A 
ATOM     35  N   UNL A   1      43.121  26.857  27.950  1.00  0.00    -0.248 NA
ATOM     36  C   UNL A   1      41.480  25.200  27.933  1.00  0.00     0.031 C 
ATOM     37  C   UNL A   1      46.095  23.917  26.379  1.00  0.00     0.029 A 
ATOM     38  N   UNL A   1      45.787  26.022  27.063  1.00  0.00    -0.354 N 
ATOM     39  C   UNL A   1      41.905  27.412  28.328  1.00  0.00     0.074 A 
ATOM     40  C   UNL A   1      40.918  26.358  28.247  1.00  0.00     0.031 C 
ATOM     41  C   UNL A   1      47.259  24.565  26.220  1.00  0.00     0.029 A 
ATOM     42  C   UNL A   1      47.090  25.956  26.627  1.00  0.00     0.049 A 
ATOM     43  H   UNL A   1      45.384  26.840  27.433  1.00  0.00     0.167 HD
ATOM     44  C   UNL A   1      41.635  28.678  28.732  1.00  0.00     0.034 A 
ATOM     45  C   UNL A   1      48.040  26.909  26.552  1.00  0.00     0.034 A 
ATOM     46  C   UNL A   1      42.625  29.715  28.847  1.00  0.00     0.049 A 
ATOM     47  C   UNL A   1      47.722  28.298  27.033  1.00  0.00     0.074 A 
ATOM     48  C   UNL A   1      42.468  31.003  29.328  1.00  0.00     0.029 A 
ATOM     49  N   UNL A   1      43.953  29.589  28.470  1.00  0.00    -0.354 N 
ATOM     50  N   UNL A   1      46.603  28.762  27.535  1.00  0.00    -0.248 NA
ATOM     51  C   UNL A   1      48.808  29.287  26.972  1.00  0.00     0.031 C 
ATOM     52  C   UNL A   1      43.696  31.665  29.215  1.00  0.00     0.029 A 
ATOM     53  C   UNL A   1      44.626  30.779  28.695  1.00  0.00     0.049 A 
ATOM     54  H   UNL A   1      44.359  28.773  28.097  1.00  0.00     0.167 HD
ATOM     55  C   UNL A   1      46.860  30.084  27.882  1.00  0.00     0.074 A 
ATOM     56  C   UNL A   1      48.247  30.340  27.553  1.00  0.00     0.031 C 
ATOM     57  C   UNL A   1      46.019  31.006  28.411  1.00  0.00     0.034 A 
BRANCH  44  58
ATOM     58  C   UNL A   1      40.218  29.000  29.132  1.00  0.00     0.023 A 
ATOM     59  C   UNL A   1      39.266  29.304  28.137  1.00  0.00     0.012 A 
ATOM     60  C   UNL A   1      39.811  28.943  30.480  1.00  0.00     0.148 A 
ATOM     61  C   UNL A   1      37.943  29.582  28.478  1.00  0.00     0.002 A 
ATOM     62  C   UNL A   1      38.480  29.174  30.808  1.00  0.00     0.091 A 
ATOM     63  F   UNL A   1      40.732  28.669  31.415  1.00  0.00    -0.205 F 
ATOM     64  C   UNL A   1      37.549  29.507  29.811  1.00  0.00     0.022 A 
BRANCH  62  65
ATOM     65  S   UNL A   1      37.855  29.023  32.485  1.00  0.00     0.127 S 
ATOM     66  O   UNL A   1      38.781  29.884  33.222  1.00  0.00    -0.237 OA
ATOM     67  O   UNL A   1      36.499  29.561  32.356  1.00  0.00    -0.237 OA
ATOM     68  O   UNL A   1      37.920  27.609  32.814  1.00  0.00    -0.744 OA
ENDBRANCH  62  65
ENDBRANCH  44  58
BRANCH  45  69
ATOM     69  C   UNL A   1      49.403  26.565  26.058  1.00  0.00     0.023 A 
ATOM     70  C   UNL A   1      50.230  25.728  26.834  1.00  0.00     0.012 A 
ATOM     71  C   UNL A   1      49.875  27.035  24.816  1.00  0.00     0.148 A 
ATOM     72  C   UNL A   1      51.512  25.393  26.399  1.00  0.00     0.002 A 
ATOM     73  C   UNL A   1      51.132  26.651  24.363  1.00  0.00     0.091 A 
ATOM     74  F   UNL A   1      49.078  27.838  24.098  1.00  0.00    -0.205 F 
ATOM     75  C   UNL A   1      51.959  25.845  25.160  1.00  0.00     0.022 A 
BRANCH  73  76
ATOM     76  S   UNL A   1      51.735  27.074  22.725  1.00  0.00     0.127 S 
ATOM     77  O   UNL A   1      52.819  26.113  22.547  1.00  0.00    -0.237 OA
ATOM     78  O   UNL A   1      50.553  26.832  21.897  1.00  0.00    -0.237 OA
ATOM     79  O   UNL A   1      52.135  28.472  22.803  1.00  0.00    -0.744 OA
ENDBRANCH  73  76
ENDBRANCH  45  69
BRANCH  57  80
ATOM     80  C   UNL A   1      46.578  32.374  28.708  1.00  0.00     0.023 A 
ATOM     81  C   UNL A   1      47.131  32.646  29.975  1.00  0.00     0.012 A 
ATOM     82  C   UNL A   1      46.621  33.365  27.707  1.00  0.00     0.148 A 
ATOM     83  C   UNL A   1      47.688  33.895  30.251  1.00  0.00     0.002 A 
ATOM     84  C   UNL A   1      47.223  34.588  27.974  1.00  0.00     0.091 A 
ATOM     85  F   UNL A   1      46.074  33.092  26.513  1.00  0.00    -0.205 F 
ATOM     86  C   UNL A   1      47.745  34.860  29.248  1.00  0.00     0.022 A 
BRANCH  84  87
ATOM     87  S   UNL A   1      47.430  35.855  26.717  1.00  0.00     0.127 S 
ATOM     88  O   UNL A   1      48.153  35.127  25.675  1.00  0.00    -0.237 OA
ATOM     89  O   UNL A   1      46.044  36.185  26.379  1.00  0.00    -0.237 OA
ATOM     90  O   UNL A   1      48.170  36.936  27.353  1.00  0.00    -0.744 OA
ENDBRANCH  84  87
ENDBRANCH  57  80
ENDBRANCH  31  32
ENDBRANCH  23  26
ENDBRANCH  21  22
ENDBRANCH   1  21
TORSDOF 15
ENDMDL
