MODEL 1
REMARK VINA RESULT:     -13.0      0.000      0.000
REMARK SMILES O=C(NCCCNC(=O)c1cn(-c2cc(F)cc(F)c2F)c(=O)[nH]c1=O)c1ccc(-c2c3nc(c(-c4cccc(S(=O)(=O)[O-])c4F)c4ccc([nH]4)c(-c4cccc(S(=O)(=O)[O-])c4F)c4nc(c(-c5cccc(S(=O)(=O)[O-])c5F)c5ccc2[nH]5)C=C4)C=C3)cc1
REMARK SMILES IDX 4 1 3 2 1 3 2 4 27 6 28 7 89 8 29 9 88 10 30 11 31 12 32 13
REMARK SMILES IDX 82 14 33 15 87 16 81 17 83 18 34 19 86 20 80 21 79 22 35 24
REMARK SMILES IDX 67 25 47 26 66 27 48 28 51 29 65 30 84 31 49 32 50 33 64 35
REMARK SMILES IDX 85 36 52 37 36 38 37 39 45 40 38 41 40 42 46 43 39 44 41 45
REMARK SMILES IDX 42 46 43 47 44 48 68 49 69 50 77 51 70 52 72 53 78 54 71 55
REMARK SMILES IDX 73 56 74 57 75 58 76 59 53 60 54 61 62 62 55 63 57 64 63 65
REMARK SMILES IDX 56 66 58 67 59 68 60 69 61 70 5 71 6 72 7 73 8 74 9 76 10 77
REMARK SMILES IDX 11 78 25 79 12 80 24 81 26 82 22 83 23 85 13 86 14 87 20 88
REMARK SMILES IDX 15 89 18 90 21 91 16 92 17 93 19 94
REMARK H PARENT 3 5 83 23 51 34 7 75 24 84
REMARK Flexibility Score: inf
ROOT
ATOM      1  C   UNL A   1      32.693  29.383  25.591  1.00  0.00     0.118 C 
ENDROOT
BRANCH   1   2
ATOM      2  N   UNL A   1      32.384  30.745  26.002  1.00  0.00    -0.352 N 
ATOM      3  O   UNL A   1      32.385  32.578  27.285  1.00  0.00    -0.269 OA
ATOM      4  C   UNL A   1      32.967  31.550  26.947  1.00  0.00     0.251 C 
ATOM      5  H   UNL A   1      31.631  31.157  25.521  1.00  0.00     0.163 HD
BRANCH   4   6
ATOM      6  C   UNL A   1      34.277  31.212  27.553  1.00  0.00     0.039 A 
ATOM      7  C   UNL A   1      34.505  29.896  27.972  1.00  0.00     0.014 A 
ATOM      8  C   UNL A   1      35.237  32.193  27.810  1.00  0.00     0.014 A 
ATOM      9  C   UNL A   1      35.693  29.565  28.631  1.00  0.00     0.010 A 
ATOM     10  C   UNL A   1      36.453  31.849  28.389  1.00  0.00     0.010 A 
ATOM     11  C   UNL A   1      36.676  30.542  28.844  1.00  0.00    -0.014 A 
BRANCH  11  12
ATOM     12  C   UNL A   1      37.899  30.263  29.637  1.00  0.00     0.031 A 
ATOM     13  C   UNL A   1      38.948  29.343  29.072  1.00  0.00     0.074 A 
ATOM     14  C   UNL A   1      38.049  30.776  30.872  1.00  0.00     0.049 A 
ATOM     15  N   UNL A   1      40.011  28.847  29.649  1.00  0.00    -0.248 NA
ATOM     16  C   UNL A   1      38.763  28.905  27.678  1.00  0.00     0.031 C 
ATOM     17  C   UNL A   1      37.103  31.669  31.539  1.00  0.00     0.029 A 
ATOM     18  N   UNL A   1      39.052  30.598  31.791  1.00  0.00    -0.354 N 
ATOM     19  C   UNL A   1      40.599  28.014  28.705  1.00  0.00     0.074 A 
ATOM     20  C   UNL A   1      39.757  28.042  27.529  1.00  0.00     0.031 C 
ATOM     21  C   UNL A   1      37.573  31.968  32.760  1.00  0.00     0.029 A 
ATOM     22  C   UNL A   1      38.832  31.256  32.976  1.00  0.00     0.049 A 
ATOM     23  H   UNL A   1      39.852  30.051  31.619  1.00  0.00     0.167 HD
ATOM     24  C   UNL A   1      41.754  27.314  28.790  1.00  0.00     0.034 A 
ATOM     25  C   UNL A   1      39.554  31.276  34.113  1.00  0.00     0.034 A 
ATOM     26  C   UNL A   1      42.619  27.323  29.937  1.00  0.00     0.049 A 
ATOM     27  C   UNL A   1      40.828  30.486  34.196  1.00  0.00     0.074 A 
ATOM     28  C   UNL A   1      43.826  26.670  30.107  1.00  0.00     0.029 A 
ATOM     29  N   UNL A   1      42.375  28.028  31.105  1.00  0.00    -0.354 N 
ATOM     30  N   UNL A   1      41.393  29.738  33.279  1.00  0.00    -0.248 NA
ATOM     31  C   UNL A   1      41.575  30.555  35.460  1.00  0.00     0.031 C 
ATOM     32  C   UNL A   1      44.313  26.980  31.381  1.00  0.00     0.029 A 
ATOM     33  C   UNL A   1      43.413  27.833  32.000  1.00  0.00     0.049 A 
ATOM     34  H   UNL A   1      41.581  28.585  31.274  1.00  0.00     0.167 HD
ATOM     35  C   UNL A   1      42.566  29.256  33.847  1.00  0.00     0.074 A 
ATOM     36  C   UNL A   1      42.641  29.813  35.183  1.00  0.00     0.031 C 
ATOM     37  C   UNL A   1      43.489  28.417  33.315  1.00  0.00     0.034 A 
BRANCH  24  38
ATOM     38  C   UNL A   1      42.179  26.535  27.577  1.00  0.00     0.023 A 
ATOM     39  C   UNL A   1      42.847  27.205  26.530  1.00  0.00     0.012 A 
ATOM     40  C   UNL A   1      41.953  25.148  27.480  1.00  0.00     0.148 A 
ATOM     41  C   UNL A   1      43.260  26.512  25.395  1.00  0.00     0.002 A 
ATOM     42  C   UNL A   1      42.399  24.459  26.359  1.00  0.00     0.091 A 
ATOM     43  F   UNL A   1      41.298  24.538  28.477  1.00  0.00    -0.205 F 
ATOM     44  C   UNL A   1      43.045  25.139  25.313  1.00  0.00     0.022 A 
BRANCH  42  45
ATOM     45  S   UNL A   1      42.216  22.681  26.173  1.00  0.00     0.127 S 
ATOM     46  O   UNL A   1      42.973  22.186  27.322  1.00  0.00    -0.237 OA
ATOM     47  O   UNL A   1      40.767  22.509  26.278  1.00  0.00    -0.237 OA
ATOM     48  O   UNL A   1      42.777  22.353  24.871  1.00  0.00    -0.744 OA
ENDBRANCH  42  45
ENDBRANCH  24  38
BRANCH  25  49
ATOM     49  C   UNL A   1      39.098  32.139  35.235  1.00  0.00     0.023 A 
ATOM     50  C   UNL A   1      38.225  31.598  36.197  1.00  0.00     0.012 A 
ATOM     51  C   UNL A   1      39.610  33.438  35.415  1.00  0.00     0.148 A 
ATOM     52  C   UNL A   1      37.873  32.335  37.327  1.00  0.00     0.002 A 
ATOM     53  C   UNL A   1      39.286  34.152  36.561  1.00  0.00     0.091 A 
ATOM     54  F   UNL A   1      40.446  33.922  34.486  1.00  0.00    -0.205 F 
ATOM     55  C   UNL A   1      38.412  33.606  37.515  1.00  0.00     0.022 A 
BRANCH  53  56
ATOM     56  S   UNL A   1      40.008  35.751  36.948  1.00  0.00     0.127 S 
ATOM     57  O   UNL A   1      41.429  35.425  37.042  1.00  0.00    -0.237 OA
ATOM     58  O   UNL A   1      39.631  36.535  35.771  1.00  0.00    -0.237 OA
ATOM     59  O   UNL A   1      39.386  36.178  38.194  1.00  0.00    -0.744 OA
ENDBRANCH  53  56
ENDBRANCH  25  49
BRANCH  37  60
ATOM     60  C   UNL A   1      44.667  28.037  34.169  1.00  0.00     0.023 A 
ATOM     61  C   UNL A   1      45.809  28.862  34.176  1.00  0.00     0.012 A 
ATOM     62  C   UNL A   1      44.607  26.927  35.034  1.00  0.00     0.148 A 
ATOM     63  C   UNL A   1      46.881  28.579  35.020  1.00  0.00     0.002 A 
ATOM     64  C   UNL A   1      45.666  26.670  35.897  1.00  0.00     0.091 A 
ATOM     65  F   UNL A   1      43.514  26.151  35.002  1.00  0.00    -0.205 F 
ATOM     66  C   UNL A   1      46.806  27.491  35.887  1.00  0.00     0.022 A 
BRANCH  64  67
ATOM     67  S   UNL A   1      45.633  25.333  37.098  1.00  0.00     0.127 S 
ATOM     68  O   UNL A   1      46.894  25.543  37.810  1.00  0.00    -0.237 OA
ATOM     69  O   UNL A   1      44.434  25.646  37.876  1.00  0.00    -0.237 OA
ATOM     70  O   UNL A   1      45.552  24.100  36.327  1.00  0.00    -0.744 OA
ENDBRANCH  64  67
ENDBRANCH  37  60
ENDBRANCH  11  12
ENDBRANCH   4   6
ENDBRANCH   1   2
BRANCH   1  71
ATOM     71  C   UNL A   1      31.670  28.379  26.099  1.00  0.00     0.042 C 
BRANCH  71  72
ATOM     72  C   UNL A   1      32.204  26.969  26.287  1.00  0.00     0.118 C 
BRANCH  72  73
ATOM     73  N   UNL A   1      31.205  26.011  26.749  1.00  0.00    -0.352 N 
ATOM     74  C   UNL A   1      30.876  24.766  26.276  1.00  0.00     0.258 C 
ATOM     75  H   UNL A   1      30.679  26.307  27.527  1.00  0.00     0.163 HD
ATOM     76  O   UNL A   1      30.018  24.101  26.849  1.00  0.00    -0.269 OA
BRANCH  74  77
ATOM     77  C   UNL A   1      31.583  24.248  25.087  1.00  0.00     0.121 A 
ATOM     78  C   UNL A   1      32.696  23.521  25.256  1.00  0.00     0.116 A 
ATOM     79  C   UNL A   1      31.133  24.528  23.715  1.00  0.00     0.266 A 
ATOM     80  N   UNL A   1      33.551  23.205  24.210  1.00  0.00    -0.265 N 
ATOM     81  N   UNL A   1      31.949  24.061  22.722  1.00  0.00    -0.273 N 
ATOM     82  O   UNL A   1      30.119  25.170  23.452  1.00  0.00    -0.268 OA
ATOM     83  C   UNL A   1      33.177  23.465  22.883  1.00  0.00     0.333 A 
ATOM     84  H   UNL A   1      31.625  24.162  21.798  1.00  0.00     0.175 HD
ATOM     85  O   UNL A   1      33.848  23.193  21.890  1.00  0.00    -0.247 OA
BRANCH  80  86
ATOM     86  C   UNL A   1      34.883  22.746  24.491  1.00  0.00     0.092 A 
ATOM     87  C   UNL A   1      35.896  23.676  24.774  1.00  0.00     0.069 A 
ATOM     88  C   UNL A   1      35.182  21.382  24.614  1.00  0.00     0.183 A 
ATOM     89  C   UNL A   1      37.156  23.238  25.182  1.00  0.00     0.128 A 
ATOM     90  C   UNL A   1      36.457  20.964  24.994  1.00  0.00     0.163 A 
ATOM     91  F   UNL A   1      34.250  20.455  24.344  1.00  0.00    -0.201 F 
ATOM     92  F   UNL A   1      38.091  24.141  25.501  1.00  0.00    -0.207 F 
ATOM     93  C   UNL A   1      37.449  21.887  25.291  1.00  0.00     0.081 A 
ATOM     94  F   UNL A   1      36.732  19.656  25.085  1.00  0.00    -0.204 F 
ENDBRANCH  80  86
ENDBRANCH  74  77
ENDBRANCH  72  73
ENDBRANCH  71  72
ENDBRANCH   1  71
TORSDOF 14
ENDMDL
MODEL 2
REMARK VINA RESULT:     -12.9      3.482      4.950
REMARK SMILES O=C(NCCCNC(=O)c1cn(-c2cc(F)cc(F)c2F)c(=O)[nH]c1=O)c1ccc(-c2c3nc(c(-c4cccc(S(=O)(=O)[O-])c4F)c4ccc([nH]4)c(-c4cccc(S(=O)(=O)[O-])c4F)c4nc(c(-c5cccc(S(=O)(=O)[O-])c5F)c5ccc2[nH]5)C=C4)C=C3)cc1
REMARK SMILES IDX 4 1 3 2 1 3 2 4 27 6 28 7 89 8 29 9 88 10 30 11 31 12 32 13
REMARK SMILES IDX 82 14 33 15 87 16 81 17 83 18 34 19 86 20 80 21 79 22 35 24
REMARK SMILES IDX 67 25 47 26 66 27 48 28 51 29 65 30 84 31 49 32 50 33 64 35
REMARK SMILES IDX 85 36 52 37 36 38 37 39 45 40 38 41 40 42 46 43 39 44 41 45
REMARK SMILES IDX 42 46 43 47 44 48 68 49 69 50 77 51 70 52 72 53 78 54 71 55
REMARK SMILES IDX 73 56 74 57 75 58 76 59 53 60 54 61 62 62 55 63 57 64 63 65
REMARK SMILES IDX 56 66 58 67 59 68 60 69 61 70 5 71 6 72 7 73 8 74 9 76 10 77
REMARK SMILES IDX 11 78 25 79 12 80 24 81 26 82 22 83 23 85 13 86 14 87 20 88
REMARK SMILES IDX 15 89 18 90 21 91 16 92 17 93 19 94
REMARK H PARENT 3 5 83 23 51 34 7 75 24 84
REMARK Flexibility Score: inf
ROOT
ATOM      1  C   UNL A   1      33.184  29.727  26.088  1.00  0.00     0.118 C 
ENDROOT
BRANCH   1   2
ATOM      2  N   UNL A   1      33.039  31.113  26.510  1.00  0.00    -0.352 N 
ATOM      3  O   UNL A   1      33.290  32.932  27.790  1.00  0.00    -0.269 OA
ATOM      4  C   UNL A   1      33.744  31.848  27.429  1.00  0.00     0.251 C 
ATOM      5  H   UNL A   1      32.315  31.605  26.060  1.00  0.00     0.163 HD
BRANCH   4   6
ATOM      6  C   UNL A   1      35.034  31.370  27.981  1.00  0.00     0.039 A 
ATOM      7  C   UNL A   1      35.089  30.093  28.552  1.00  0.00     0.014 A 
ATOM      8  C   UNL A   1      36.155  32.201  28.039  1.00  0.00     0.014 A 
ATOM      9  C   UNL A   1      36.266  29.648  29.164  1.00  0.00     0.010 A 
ATOM     10  C   UNL A   1      37.350  31.728  28.572  1.00  0.00     0.010 A 
ATOM     11  C   UNL A   1      37.405  30.465  29.178  1.00  0.00    -0.014 A 
BRANCH  11  12
ATOM     12  C   UNL A   1      38.635  30.081  29.913  1.00  0.00     0.031 A 
ATOM     13  C   UNL A   1      39.574  29.075  29.302  1.00  0.00     0.074 A 
ATOM     14  C   UNL A   1      38.887  30.578  31.137  1.00  0.00     0.049 A 
ATOM     15  N   UNL A   1      40.615  28.489  29.829  1.00  0.00    -0.248 NA
ATOM     16  C   UNL A   1      39.285  28.655  27.919  1.00  0.00     0.031 C 
ATOM     17  C   UNL A   1      38.055  31.549  31.846  1.00  0.00     0.029 A 
ATOM     18  N   UNL A   1      39.913  30.314  32.009  1.00  0.00    -0.354 N 
ATOM     19  C   UNL A   1      41.085  27.609  28.861  1.00  0.00     0.074 A 
ATOM     20  C   UNL A   1      40.194  27.711  27.726  1.00  0.00     0.031 C 
ATOM     21  C   UNL A   1      38.606  31.805  33.042  1.00  0.00     0.029 A 
ATOM     22  C   UNL A   1      39.807  30.988  33.201  1.00  0.00     0.049 A 
ATOM     23  H   UNL A   1      40.654  29.700  31.801  1.00  0.00     0.167 HD
ATOM     24  C   UNL A   1      42.178  26.812  28.894  1.00  0.00     0.034 A 
ATOM     25  C   UNL A   1      40.581  30.944  34.302  1.00  0.00     0.034 A 
ATOM     26  C   UNL A   1      43.093  26.745  29.998  1.00  0.00     0.049 A 
ATOM     27  C   UNL A   1      41.786  30.047  34.327  1.00  0.00     0.074 A 
ATOM     28  C   UNL A   1      44.247  25.991  30.113  1.00  0.00     0.029 A 
ATOM     29  N   UNL A   1      42.967  27.468  31.175  1.00  0.00    -0.354 N 
ATOM     30  N   UNL A   1      42.240  29.255  33.387  1.00  0.00    -0.248 NA
ATOM     31  C   UNL A   1      42.595  30.051  35.554  1.00  0.00     0.031 C 
ATOM     32  C   UNL A   1      44.818  26.257  31.362  1.00  0.00     0.029 A 
ATOM     33  C   UNL A   1      44.025  27.184  32.020  1.00  0.00     0.049 A 
ATOM     34  H   UNL A   1      42.233  28.091  31.379  1.00  0.00     0.167 HD
ATOM     35  C   UNL A   1      43.392  28.673  33.901  1.00  0.00     0.074 A 
ATOM     36  C   UNL A   1      43.579  29.220  35.230  1.00  0.00     0.031 C 
ATOM     37  C   UNL A   1      44.214  27.758  33.328  1.00  0.00     0.034 A 
BRANCH  24  38
ATOM     38  C   UNL A   1      42.476  26.000  27.664  1.00  0.00     0.023 A 
ATOM     39  C   UNL A   1      43.194  26.596  26.606  1.00  0.00     0.012 A 
ATOM     40  C   UNL A   1      42.083  24.652  27.564  1.00  0.00     0.148 A 
ATOM     41  C   UNL A   1      43.493  25.870  25.455  1.00  0.00     0.002 A 
ATOM     42  C   UNL A   1      42.415  23.925  26.427  1.00  0.00     0.091 A 
ATOM     43  F   UNL A   1      41.384  24.114  28.572  1.00  0.00    -0.205 F 
ATOM     44  C   UNL A   1      43.113  24.534  25.369  1.00  0.00     0.022 A 
BRANCH  42  45
ATOM     45  S   UNL A   1      42.015  22.185  26.232  1.00  0.00     0.127 S 
ATOM     46  O   UNL A   1      42.747  21.850  25.010  1.00  0.00    -0.237 OA
ATOM     47  O   UNL A   1      42.571  21.604  27.454  1.00  0.00    -0.237 OA
ATOM     48  O   UNL A   1      40.565  22.114  26.127  1.00  0.00    -0.744 OA
ENDBRANCH  42  45
ENDBRANCH  24  38
BRANCH  25  49
ATOM     49  C   UNL A   1      40.255  31.842  35.442  1.00  0.00     0.023 A 
ATOM     50  C   UNL A   1      40.937  33.067  35.559  1.00  0.00     0.012 A 
ATOM     51  C   UNL A   1      39.203  31.545  36.330  1.00  0.00     0.148 A 
ATOM     52  C   UNL A   1      40.574  33.988  36.541  1.00  0.00     0.002 A 
ATOM     53  C   UNL A   1      38.821  32.483  37.281  1.00  0.00     0.091 A 
ATOM     54  F   UNL A   1      38.567  30.374  36.187  1.00  0.00    -0.205 F 
ATOM     55  C   UNL A   1      39.510  33.702  37.393  1.00  0.00     0.022 A 
BRANCH  53  56
ATOM     56  S   UNL A   1      37.400  32.256  38.355  1.00  0.00     0.127 S 
ATOM     57  O   UNL A   1      37.189  30.812  38.274  1.00  0.00    -0.237 OA
ATOM     58  O   UNL A   1      37.922  32.731  39.637  1.00  0.00    -0.237 OA
ATOM     59  O   UNL A   1      36.336  33.071  37.787  1.00  0.00    -0.744 OA
ENDBRANCH  53  56
ENDBRANCH  25  49
BRANCH  37  60
ATOM     60  C   UNL A   1      45.393  27.277  34.127  1.00  0.00     0.023 A 
ATOM     61  C   UNL A   1      46.602  27.999  34.076  1.00  0.00     0.012 A 
ATOM     62  C   UNL A   1      45.279  26.176  34.999  1.00  0.00     0.148 A 
ATOM     63  C   UNL A   1      47.684  27.624  34.869  1.00  0.00     0.002 A 
ATOM     64  C   UNL A   1      46.351  25.829  35.812  1.00  0.00     0.091 A 
ATOM     65  F   UNL A   1      44.122  25.499  35.023  1.00  0.00    -0.205 F 
ATOM     66  C   UNL A   1      47.557  26.547  35.744  1.00  0.00     0.022 A 
BRANCH  64  67
ATOM     67  S   UNL A   1      46.260  24.501  37.019  1.00  0.00     0.127 S 
ATOM     68  O   UNL A   1      47.585  24.569  37.636  1.00  0.00    -0.237 OA
ATOM     69  O   UNL A   1      45.163  24.941  37.880  1.00  0.00    -0.237 OA
ATOM     70  O   UNL A   1      45.988  23.286  36.263  1.00  0.00    -0.744 OA
ENDBRANCH  64  67
ENDBRANCH  37  60
ENDBRANCH  11  12
ENDBRANCH   4   6
ENDBRANCH   1   2
BRANCH   1  71
ATOM     71  C   UNL A   1      31.842  29.055  25.842  1.00  0.00     0.042 C 
BRANCH  71  72
ATOM     72  C   UNL A   1      31.890  27.536  25.809  1.00  0.00     0.118 C 
BRANCH  72  73
ATOM     73  N   UNL A   1      32.350  26.983  24.540  1.00  0.00    -0.352 N 
ATOM     74  C   UNL A   1      31.701  26.842  23.339  1.00  0.00     0.258 C 
ATOM     75  H   UNL A   1      33.278  26.656  24.546  1.00  0.00     0.163 HD
ATOM     76  O   UNL A   1      32.298  26.381  22.372  1.00  0.00    -0.269 OA
BRANCH  74  77
ATOM     77  C   UNL A   1      30.290  27.269  23.240  1.00  0.00     0.121 A 
ATOM     78  C   UNL A   1      29.993  28.384  22.558  1.00  0.00     0.116 A 
ATOM     79  C   UNL A   1      29.194  26.536  23.892  1.00  0.00     0.266 A 
ATOM     80  N   UNL A   1      28.746  28.989  22.617  1.00  0.00    -0.265 N 
ATOM     81  N   UNL A   1      27.959  27.112  23.789  1.00  0.00    -0.273 N 
ATOM     82  O   UNL A   1      29.357  25.496  24.527  1.00  0.00    -0.268 OA
ATOM     83  C   UNL A   1      27.670  28.339  23.241  1.00  0.00     0.333 A 
ATOM     84  H   UNL A   1      27.199  26.597  24.143  1.00  0.00     0.175 HD
ATOM     85  O   UNL A   1      26.524  28.776  23.315  1.00  0.00    -0.247 OA
BRANCH  80  86
ATOM     86  C   UNL A   1      28.589  30.345  22.169  1.00  0.00     0.092 A 
ATOM     87  C   UNL A   1      28.092  30.603  20.883  1.00  0.00     0.069 A 
ATOM     88  C   UNL A   1      28.804  31.432  23.028  1.00  0.00     0.183 A 
ATOM     89  C   UNL A   1      27.806  31.910  20.490  1.00  0.00     0.128 A 
ATOM     90  C   UNL A   1      28.541  32.735  22.605  1.00  0.00     0.163 A 
ATOM     91  F   UNL A   1      29.289  31.238  24.264  1.00  0.00    -0.201 F 
ATOM     92  F   UNL A   1      27.279  32.130  19.279  1.00  0.00    -0.207 F 
ATOM     93  C   UNL A   1      28.031  32.983  21.339  1.00  0.00     0.081 A 
ATOM     94  F   UNL A   1      28.772  33.765  23.431  1.00  0.00    -0.204 F 
ENDBRANCH  80  86
ENDBRANCH  74  77
ENDBRANCH  72  73
ENDBRANCH  71  72
ENDBRANCH   1  71
TORSDOF 14
ENDMDL
MODEL 3
REMARK VINA RESULT:     -12.8      1.320      1.564
REMARK SMILES O=C(NCCCNC(=O)c1cn(-c2cc(F)cc(F)c2F)c(=O)[nH]c1=O)c1ccc(-c2c3nc(c(-c4cccc(S(=O)(=O)[O-])c4F)c4ccc([nH]4)c(-c4cccc(S(=O)(=O)[O-])c4F)c4nc(c(-c5cccc(S(=O)(=O)[O-])c5F)c5ccc2[nH]5)C=C4)C=C3)cc1
REMARK SMILES IDX 4 1 3 2 1 3 2 4 27 6 28 7 89 8 29 9 88 10 30 11 31 12 32 13
REMARK SMILES IDX 82 14 33 15 87 16 81 17 83 18 34 19 86 20 80 21 79 22 35 24
REMARK SMILES IDX 67 25 47 26 66 27 48 28 51 29 65 30 84 31 49 32 50 33 64 35
REMARK SMILES IDX 85 36 52 37 36 38 37 39 45 40 38 41 40 42 46 43 39 44 41 45
REMARK SMILES IDX 42 46 43 47 44 48 68 49 69 50 77 51 70 52 72 53 78 54 71 55
REMARK SMILES IDX 73 56 74 57 75 58 76 59 53 60 54 61 62 62 55 63 57 64 63 65
REMARK SMILES IDX 56 66 58 67 59 68 60 69 61 70 5 71 6 72 7 73 8 74 9 76 10 77
REMARK SMILES IDX 11 78 25 79 12 80 24 81 26 82 22 83 23 85 13 86 14 87 20 88
REMARK SMILES IDX 15 89 18 90 21 91 16 92 17 93 19 94
REMARK H PARENT 3 5 83 23 51 34 7 75 24 84
REMARK Flexibility Score: inf
ROOT
ATOM      1  C   UNL A   1      32.936  29.107  26.340  1.00  0.00     0.118 C 
ENDROOT
BRANCH   1   2
ATOM      2  N   UNL A   1      32.795  30.542  26.541  1.00  0.00    -0.352 N 
ATOM      3  O   UNL A   1      33.091  32.545  27.493  1.00  0.00    -0.269 OA
ATOM      4  C   UNL A   1      33.540  31.420  27.285  1.00  0.00     0.251 C 
ATOM      5  H   UNL A   1      32.038  30.950  26.063  1.00  0.00     0.163 HD
BRANCH   4   6
ATOM      6  C   UNL A   1      34.868  31.046  27.828  1.00  0.00     0.039 A 
ATOM      7  C   UNL A   1      35.058  29.742  28.300  1.00  0.00     0.014 A 
ATOM      8  C   UNL A   1      35.888  31.989  27.976  1.00  0.00     0.014 A 
ATOM      9  C   UNL A   1      36.268  29.383  28.902  1.00  0.00     0.010 A 
ATOM     10  C   UNL A   1      37.120  31.611  28.497  1.00  0.00     0.010 A 
ATOM     11  C   UNL A   1      37.309  30.318  29.005  1.00  0.00    -0.014 A 
BRANCH  11  12
ATOM     12  C   UNL A   1      38.564  30.016  29.736  1.00  0.00     0.031 A 
ATOM     13  C   UNL A   1      39.556  29.059  29.130  1.00  0.00     0.074 A 
ATOM     14  C   UNL A   1      38.793  30.541  30.953  1.00  0.00     0.049 A 
ATOM     15  N   UNL A   1      40.634  28.542  29.657  1.00  0.00    -0.248 NA
ATOM     16  C   UNL A   1      39.284  28.607  27.755  1.00  0.00     0.031 C 
ATOM     17  C   UNL A   1      37.909  31.470  31.656  1.00  0.00     0.029 A 
ATOM     18  N   UNL A   1      39.838  30.348  31.821  1.00  0.00    -0.354 N 
ATOM     19  C   UNL A   1      41.148  27.680  28.696  1.00  0.00     0.074 A 
ATOM     20  C   UNL A   1      40.246  27.716  27.567  1.00  0.00     0.031 C 
ATOM     21  C   UNL A   1      38.452  31.772  32.846  1.00  0.00     0.029 A 
ATOM     22  C   UNL A   1      39.700  31.029  33.006  1.00  0.00     0.049 A 
ATOM     23  H   UNL A   1      40.613  29.776  31.615  1.00  0.00     0.167 HD
ATOM     24  C   UNL A   1      42.287  26.950  28.731  1.00  0.00     0.034 A 
ATOM     25  C   UNL A   1      40.482  31.044  34.102  1.00  0.00     0.034 A 
ATOM     26  C   UNL A   1      43.211  26.950  29.830  1.00  0.00     0.049 A 
ATOM     27  C   UNL A   1      41.737  30.219  34.129  1.00  0.00     0.074 A 
ATOM     28  C   UNL A   1      44.408  26.266  29.946  1.00  0.00     0.029 A 
ATOM     29  N   UNL A   1      43.049  27.677  30.999  1.00  0.00    -0.354 N 
ATOM     30  N   UNL A   1      42.231  29.444  33.195  1.00  0.00    -0.248 NA
ATOM     31  C   UNL A   1      42.552  30.285  35.351  1.00  0.00     0.031 C 
ATOM     32  C   UNL A   1      44.970  26.580  31.187  1.00  0.00     0.029 A 
ATOM     33  C   UNL A   1      44.128  27.466  31.840  1.00  0.00     0.049 A 
ATOM     34  H   UNL A   1      42.281  28.258  31.201  1.00  0.00     0.167 HD
ATOM     35  C   UNL A   1      43.419  28.937  33.708  1.00  0.00     0.074 A 
ATOM     36  C   UNL A   1      43.581  29.510  35.029  1.00  0.00     0.031 C 
ATOM     37  C   UNL A   1      44.290  28.065  33.140  1.00  0.00     0.034 A 
BRANCH  24  38
ATOM     38  C   UNL A   1      42.625  26.142  27.509  1.00  0.00     0.023 A 
ATOM     39  C   UNL A   1      43.337  26.755  26.457  1.00  0.00     0.012 A 
ATOM     40  C   UNL A   1      42.275  24.782  27.409  1.00  0.00     0.148 A 
ATOM     41  C   UNL A   1      43.672  26.034  25.313  1.00  0.00     0.002 A 
ATOM     42  C   UNL A   1      42.643  24.061  26.280  1.00  0.00     0.091 A 
ATOM     43  F   UNL A   1      41.581  24.226  28.412  1.00  0.00    -0.205 F 
ATOM     44  C   UNL A   1      43.335  24.687  25.228  1.00  0.00     0.022 A 
BRANCH  42  45
ATOM     45  S   UNL A   1      42.300  22.308  26.088  1.00  0.00     0.127 S 
ATOM     46  O   UNL A   1      40.842  22.305  25.975  1.00  0.00    -0.237 OA
ATOM     47  O   UNL A   1      43.009  21.990  24.849  1.00  0.00    -0.237 OA
ATOM     48  O   UNL A   1      42.832  21.661  27.280  1.00  0.00    -0.744 OA
ENDBRANCH  42  45
ENDBRANCH  24  38
BRANCH  25  49
ATOM     49  C   UNL A   1      40.110  31.934  35.234  1.00  0.00     0.023 A 
ATOM     50  C   UNL A   1      40.582  33.259  35.239  1.00  0.00     0.012 A 
ATOM     51  C   UNL A   1      39.207  31.515  36.229  1.00  0.00     0.148 A 
ATOM     52  C   UNL A   1      40.156  34.158  36.216  1.00  0.00     0.002 A 
ATOM     53  C   UNL A   1      38.757  32.425  37.177  1.00  0.00     0.091 A 
ATOM     54  F   UNL A   1      38.768  30.249  36.192  1.00  0.00    -0.205 F 
ATOM     55  C   UNL A   1      39.236  33.746  37.177  1.00  0.00     0.022 A 
BRANCH  53  56
ATOM     56  S   UNL A   1      37.496  32.022  38.391  1.00  0.00     0.127 S 
ATOM     57  O   UNL A   1      38.188  32.300  39.648  1.00  0.00    -0.237 OA
ATOM     58  O   UNL A   1      36.441  32.975  38.045  1.00  0.00    -0.237 OA
ATOM     59  O   UNL A   1      37.158  30.624  38.166  1.00  0.00    -0.744 OA
ENDBRANCH  53  56
ENDBRANCH  25  49
BRANCH  37  60
ATOM     60  C   UNL A   1      45.501  27.665  33.936  1.00  0.00     0.023 A 
ATOM     61  C   UNL A   1      46.658  28.467  33.884  1.00  0.00     0.012 A 
ATOM     62  C   UNL A   1      45.462  26.558  34.808  1.00  0.00     0.148 A 
ATOM     63  C   UNL A   1      47.764  28.164  34.675  1.00  0.00     0.002 A 
ATOM     64  C   UNL A   1      46.557  26.283  35.618  1.00  0.00     0.091 A 
ATOM     65  F   UNL A   1      44.354  25.804  34.833  1.00  0.00    -0.205 F 
ATOM     66  C   UNL A   1      47.711  27.081  35.549  1.00  0.00     0.022 A 
BRANCH  64  67
ATOM     67  S   UNL A   1      46.558  24.950  36.825  1.00  0.00     0.127 S 
ATOM     68  O   UNL A   1      47.896  25.073  37.402  1.00  0.00    -0.237 OA
ATOM     69  O   UNL A   1      45.468  25.343  37.719  1.00  0.00    -0.237 OA
ATOM     70  O   UNL A   1      46.314  23.726  36.074  1.00  0.00    -0.744 OA
ENDBRANCH  64  67
ENDBRANCH  37  60
ENDBRANCH  11  12
ENDBRANCH   4   6
ENDBRANCH   1   2
BRANCH   1  71
ATOM     71  C   UNL A   1      31.670  28.345  26.702  1.00  0.00     0.042 C 
BRANCH  71  72
ATOM     72  C   UNL A   1      31.397  27.123  25.840  1.00  0.00     0.118 C 
BRANCH  72  73
ATOM     73  N   UNL A   1      30.752  26.025  26.553  1.00  0.00    -0.352 N 
ATOM     74  C   UNL A   1      30.754  24.676  26.304  1.00  0.00     0.258 C 
ATOM     75  H   UNL A   1      30.230  26.296  27.342  1.00  0.00     0.163 HD
ATOM     76  O   UNL A   1      30.171  23.912  27.068  1.00  0.00    -0.269 OA
BRANCH  74  77
ATOM     77  C   UNL A   1      31.480  24.173  25.120  1.00  0.00     0.121 A 
ATOM     78  C   UNL A   1      32.605  23.467  25.297  1.00  0.00     0.116 A 
ATOM     79  C   UNL A   1      31.035  24.447  23.745  1.00  0.00     0.266 A 
ATOM     80  N   UNL A   1      33.474  23.168  24.257  1.00  0.00    -0.265 N 
ATOM     81  N   UNL A   1      31.867  23.997  22.758  1.00  0.00    -0.273 N 
ATOM     82  O   UNL A   1      30.011  25.070  23.475  1.00  0.00    -0.268 OA
ATOM     83  C   UNL A   1      33.105  23.423  22.927  1.00  0.00     0.333 A 
ATOM     84  H   UNL A   1      31.548  24.093  21.832  1.00  0.00     0.175 HD
ATOM     85  O   UNL A   1      33.788  23.165  21.939  1.00  0.00    -0.247 OA
BRANCH  80  86
ATOM     86  C   UNL A   1      34.812  22.735  24.548  1.00  0.00     0.092 A 
ATOM     87  C   UNL A   1      35.805  23.682  24.842  1.00  0.00     0.069 A 
ATOM     88  C   UNL A   1      35.136  21.376  24.668  1.00  0.00     0.183 A 
ATOM     89  C   UNL A   1      37.069  23.268  25.258  1.00  0.00     0.128 A 
ATOM     90  C   UNL A   1      36.416  20.981  25.057  1.00  0.00     0.163 A 
ATOM     91  F   UNL A   1      34.224  20.432  24.388  1.00  0.00    -0.201 F 
ATOM     92  F   UNL A   1      37.984  24.186  25.589  1.00  0.00    -0.207 F 
ATOM     93  C   UNL A   1      37.388  21.922  25.366  1.00  0.00     0.081 A 
ATOM     94  F   UNL A   1      36.715  19.678  25.146  1.00  0.00    -0.204 F 
ENDBRANCH  80  86
ENDBRANCH  74  77
ENDBRANCH  72  73
ENDBRANCH  71  72
ENDBRANCH   1  71
TORSDOF 14
ENDMDL
