MODEL 1
REMARK VINA RESULT:     -12.4      0.000      0.000
REMARK SMILES O=C(NCCCNC(=O)c1cccc(Nc2ccnc3ccc(F)cc23)c1)c1ccc(-c2c3nc(c(-c4cccc(S(=O)(=O)[O-])c4F)c4ccc([nH]4)c(-c4cccc(S(=O)(=O)[O-])c4F)c4nc(c(-c5cccc(S(=O)(=O)[O-])c5F)c5ccc2[nH]5)C=C4)C=C3)cc1
REMARK SMILES IDX 4 1 3 2 1 3 2 4 28 6 29 7 90 8 30 9 89 10 31 11 32 12 33 13
REMARK SMILES IDX 83 14 34 15 88 16 82 17 84 18 35 19 87 20 81 21 80 22 36 24
REMARK SMILES IDX 68 25 48 26 67 27 49 28 52 29 66 30 85 31 50 32 51 33 65 35
REMARK SMILES IDX 86 36 53 37 37 38 38 39 46 40 39 41 41 42 47 43 40 44 42 45
REMARK SMILES IDX 43 46 44 47 45 48 69 49 70 50 78 51 71 52 73 53 79 54 72 55
REMARK SMILES IDX 74 56 75 57 76 58 77 59 54 60 55 61 63 62 56 63 58 64 64 65
REMARK SMILES IDX 57 66 59 67 60 68 61 69 62 70 5 71 6 72 7 73 8 74 9 76 10 77
REMARK SMILES IDX 11 78 27 79 12 80 14 81 13 82 15 83 16 85 17 86 26 87 18 88
REMARK SMILES IDX 20 89 25 90 19 91 21 92 23 93 22 94 24 95
REMARK H PARENT 3 5 84 23 52 34 7 75 15 84
REMARK Flexibility Score: inf
ROOT
ATOM      1  C   UNL A   1      33.419  28.361  27.264  1.00  0.00     0.118 C 
ENDROOT
BRANCH   1   2
ATOM      2  N   UNL A   1      33.451  29.812  27.355  1.00  0.00    -0.352 N 
ATOM      3  O   UNL A   1      34.130  31.877  27.879  1.00  0.00    -0.269 OA
ATOM      4  C   UNL A   1      34.413  30.680  27.813  1.00  0.00     0.251 C 
ATOM      5  H   UNL A   1      32.633  30.253  27.027  1.00  0.00     0.163 HD
BRANCH   4   6
ATOM      6  C   UNL A   1      35.754  30.221  28.253  1.00  0.00     0.039 A 
ATOM      7  C   UNL A   1      36.895  30.376  27.462  1.00  0.00     0.014 A 
ATOM      8  C   UNL A   1      35.880  29.677  29.537  1.00  0.00     0.014 A 
ATOM      9  C   UNL A   1      38.125  29.870  27.896  1.00  0.00     0.010 A 
ATOM     10  C   UNL A   1      37.123  29.231  29.998  1.00  0.00     0.010 A 
ATOM     11  C   UNL A   1      38.252  29.286  29.167  1.00  0.00    -0.014 A 
BRANCH  11  12
ATOM     12  C   UNL A   1      39.563  28.761  29.638  1.00  0.00     0.031 A 
ATOM     13  C   UNL A   1      40.323  29.462  30.735  1.00  0.00     0.074 A 
ATOM     14  C   UNL A   1      40.102  27.678  29.045  1.00  0.00     0.049 A 
ATOM     15  N   UNL A   1      41.499  29.181  31.235  1.00  0.00    -0.248 NA
ATOM     16  C   UNL A   1      39.679  30.637  31.344  1.00  0.00     0.031 C 
ATOM     17  C   UNL A   1      39.491  26.931  27.945  1.00  0.00     0.029 A 
ATOM     18  N   UNL A   1      41.295  27.033  29.264  1.00  0.00    -0.354 N 
ATOM     19  C   UNL A   1      41.757  30.164  32.183  1.00  0.00     0.074 A 
ATOM     20  C   UNL A   1      40.616  31.055  32.183  1.00  0.00     0.031 C 
ATOM     21  C   UNL A   1      40.314  25.936  27.579  1.00  0.00     0.029 A 
ATOM     22  C   UNL A   1      41.530  26.001  28.386  1.00  0.00     0.049 A 
ATOM     23  H   UNL A   1      41.921  27.286  29.981  1.00  0.00     0.167 HD
ATOM     24  C   UNL A   1      42.837  30.308  32.991  1.00  0.00     0.034 A 
ATOM     25  C   UNL A   1      42.609  25.210  28.225  1.00  0.00     0.034 A 
ATOM     26  C   UNL A   1      43.959  29.407  33.010  1.00  0.00     0.049 A 
ATOM     27  C   UNL A   1      43.791  25.380  29.138  1.00  0.00     0.074 A 
ATOM     28  C   UNL A   1      45.066  29.429  33.841  1.00  0.00     0.029 A 
ATOM     29  N   UNL A   1      44.128  28.332  32.150  1.00  0.00    -0.354 N 
ATOM     30  N   UNL A   1      43.959  26.234  30.117  1.00  0.00    -0.248 NA
ATOM     31  C   UNL A   1      44.920  24.457  28.947  1.00  0.00     0.031 C 
ATOM     32  C   UNL A   1      45.917  28.384  33.464  1.00  0.00     0.029 A 
ATOM     33  C   UNL A   1      45.325  27.690  32.423  1.00  0.00     0.049 A 
ATOM     34  H   UNL A   1      43.490  28.063  31.450  1.00  0.00     0.167 HD
ATOM     35  C   UNL A   1      45.191  25.930  30.684  1.00  0.00     0.074 A 
ATOM     36  C   UNL A   1      45.724  24.804  29.943  1.00  0.00     0.031 C 
ATOM     37  C   UNL A   1      45.824  26.535  31.718  1.00  0.00     0.034 A 
BRANCH  24  38
ATOM     38  C   UNL A   1      42.846  31.474  33.948  1.00  0.00     0.023 A 
ATOM     39  C   UNL A   1      43.408  32.703  33.545  1.00  0.00     0.012 A 
ATOM     40  C   UNL A   1      42.255  31.371  35.223  1.00  0.00     0.148 A 
ATOM     41  C   UNL A   1      43.420  33.797  34.412  1.00  0.00     0.002 A 
ATOM     42  C   UNL A   1      42.232  32.479  36.064  1.00  0.00     0.091 A 
ATOM     43  F   UNL A   1      41.742  30.191  35.598  1.00  0.00    -0.205 F 
ATOM     44  C   UNL A   1      42.826  33.687  35.665  1.00  0.00     0.022 A 
BRANCH  42  45
ATOM     45  S   UNL A   1      41.417  32.455  37.665  1.00  0.00     0.127 S 
ATOM     46  O   UNL A   1      42.225  31.478  38.392  1.00  0.00    -0.237 OA
ATOM     47  O   UNL A   1      41.579  33.837  38.118  1.00  0.00    -0.237 OA
ATOM     48  O   UNL A   1      40.039  32.064  37.404  1.00  0.00    -0.744 OA
ENDBRANCH  42  45
ENDBRANCH  24  38
BRANCH  25  49
ATOM     49  C   UNL A   1      42.591  24.156  27.171  1.00  0.00     0.023 A 
ATOM     50  C   UNL A   1      43.201  24.408  25.928  1.00  0.00     0.012 A 
ATOM     51  C   UNL A   1      42.032  22.888  27.421  1.00  0.00     0.148 A 
ATOM     52  C   UNL A   1      43.239  23.419  24.944  1.00  0.00     0.002 A 
ATOM     53  C   UNL A   1      42.124  21.890  26.459  1.00  0.00     0.091 A 
ATOM     54  F   UNL A   1      41.449  22.675  28.609  1.00  0.00    -0.205 F 
ATOM     55  C   UNL A   1      42.714  22.158  25.214  1.00  0.00     0.022 A 
BRANCH  53  56
ATOM     56  S   UNL A   1      41.601  20.199  26.765  1.00  0.00     0.127 S 
ATOM     57  O   UNL A   1      40.197  20.382  27.124  1.00  0.00    -0.237 OA
ATOM     58  O   UNL A   1      41.828  19.575  25.461  1.00  0.00    -0.237 OA
ATOM     59  O   UNL A   1      42.463  19.704  27.829  1.00  0.00    -0.744 OA
ENDBRANCH  53  56
ENDBRANCH  25  49
BRANCH  37  60
ATOM     60  C   UNL A   1      47.148  25.971  32.164  1.00  0.00     0.023 A 
ATOM     61  C   UNL A   1      48.341  26.410  31.558  1.00  0.00     0.012 A 
ATOM     62  C   UNL A   1      47.211  25.076  33.251  1.00  0.00     0.148 A 
ATOM     63  C   UNL A   1      49.577  25.949  32.014  1.00  0.00     0.002 A 
ATOM     64  C   UNL A   1      48.446  24.659  33.731  1.00  0.00     0.091 A 
ATOM     65  F   UNL A   1      46.062  24.656  33.800  1.00  0.00    -0.205 F 
ATOM     66  C   UNL A   1      49.630  25.086  33.108  1.00  0.00     0.022 A 
BRANCH  64  67
ATOM     67  S   UNL A   1      48.616  23.629  35.193  1.00  0.00     0.127 S 
ATOM     68  O   UNL A   1      47.926  24.430  36.203  1.00  0.00    -0.237 OA
ATOM     69  O   UNL A   1      47.911  22.410  34.797  1.00  0.00    -0.237 OA
ATOM     70  O   UNL A   1      50.047  23.460  35.402  1.00  0.00    -0.744 OA
ENDBRANCH  64  67
ENDBRANCH  37  60
ENDBRANCH  11  12
ENDBRANCH   4   6
ENDBRANCH   1   2
BRANCH   1  71
ATOM     71  C   UNL A   1      33.945  27.812  25.936  1.00  0.00     0.042 C 
BRANCH  71  72
ATOM     72  C   UNL A   1      33.223  28.278  24.673  1.00  0.00     0.118 C 
BRANCH  72  73
ATOM     73  N   UNL A   1      33.794  27.795  23.427  1.00  0.00    -0.352 N 
ATOM     74  C   UNL A   1      33.399  26.719  22.669  1.00  0.00     0.251 C 
ATOM     75  H   UNL A   1      34.562  28.305  23.080  1.00  0.00     0.163 HD
ATOM     76  O   UNL A   1      33.771  26.591  21.505  1.00  0.00    -0.269 OA
BRANCH  74  77
ATOM     77  C   UNL A   1      32.596  25.650  23.289  1.00  0.00     0.041 A 
ATOM     78  C   UNL A   1      31.278  25.519  22.838  1.00  0.00     0.014 A 
ATOM     79  C   UNL A   1      33.107  24.830  24.311  1.00  0.00     0.039 A 
ATOM     80  C   UNL A   1      30.464  24.539  23.386  1.00  0.00     0.003 A 
ATOM     81  C   UNL A   1      32.293  23.827  24.854  1.00  0.00     0.039 A 
ATOM     82  C   UNL A   1      30.974  23.701  24.374  1.00  0.00     0.026 A 
BRANCH  81  83
ATOM     83  N   UNL A   1      32.791  22.840  25.736  1.00  0.00    -0.355 N 
ATOM     84  H   UNL A   1      32.534  22.898  26.685  1.00  0.00     0.167 HD
BRANCH  83  85
ATOM     85  C   UNL A   1      33.638  21.771  25.340  1.00  0.00     0.050 A 
ATOM     86  C   UNL A   1      33.033  20.544  25.035  1.00  0.00     0.047 A 
ATOM     87  C   UNL A   1      35.057  21.851  25.332  1.00  0.00     0.027 A 
ATOM     88  C   UNL A   1      33.820  19.445  24.786  1.00  0.00     0.114 A 
ATOM     89  C   UNL A   1      35.759  20.660  25.005  1.00  0.00     0.072 A 
ATOM     90  C   UNL A   1      35.815  23.000  25.665  1.00  0.00     0.051 A 
ATOM     91  N   UNL A   1      35.161  19.490  24.754  1.00  0.00    -0.256 NA
ATOM     92  C   UNL A   1      37.145  20.670  24.949  1.00  0.00     0.032 A 
ATOM     93  C   UNL A   1      37.208  22.964  25.619  1.00  0.00     0.124 A 
ATOM     94  C   UNL A   1      37.881  21.814  25.244  1.00  0.00     0.041 A 
ATOM     95  F   UNL A   1      37.914  24.056  25.945  1.00  0.00    -0.207 F 
ENDBRANCH  83  85
ENDBRANCH  81  83
ENDBRANCH  74  77
ENDBRANCH  72  73
ENDBRANCH  71  72
ENDBRANCH   1  71
TORSDOF 15
ENDMDL
MODEL 2
REMARK VINA RESULT:     -12.3      5.169      8.674
REMARK SMILES O=C(NCCCNC(=O)c1cccc(Nc2ccnc3ccc(F)cc23)c1)c1ccc(-c2c3nc(c(-c4cccc(S(=O)(=O)[O-])c4F)c4ccc([nH]4)c(-c4cccc(S(=O)(=O)[O-])c4F)c4nc(c(-c5cccc(S(=O)(=O)[O-])c5F)c5ccc2[nH]5)C=C4)C=C3)cc1
REMARK SMILES IDX 4 1 3 2 1 3 2 4 28 6 29 7 90 8 30 9 89 10 31 11 32 12 33 13
REMARK SMILES IDX 83 14 34 15 88 16 82 17 84 18 35 19 87 20 81 21 80 22 36 24
REMARK SMILES IDX 68 25 48 26 67 27 49 28 52 29 66 30 85 31 50 32 51 33 65 35
REMARK SMILES IDX 86 36 53 37 37 38 38 39 46 40 39 41 41 42 47 43 40 44 42 45
REMARK SMILES IDX 43 46 44 47 45 48 69 49 70 50 78 51 71 52 73 53 79 54 72 55
REMARK SMILES IDX 74 56 75 57 76 58 77 59 54 60 55 61 63 62 56 63 58 64 64 65
REMARK SMILES IDX 57 66 59 67 60 68 61 69 62 70 5 71 6 72 7 73 8 74 9 76 10 77
REMARK SMILES IDX 11 78 27 79 12 80 14 81 13 82 15 83 16 85 17 86 26 87 18 88
REMARK SMILES IDX 20 89 25 90 19 91 21 92 23 93 22 94 24 95
REMARK H PARENT 3 5 84 23 52 34 7 75 15 84
REMARK Flexibility Score: inf
ROOT
ATOM      1  C   UNL A   1      38.776  20.141  26.060  1.00  0.00     0.118 C 
ENDROOT
BRANCH   1   2
ATOM      2  N   UNL A   1      39.966  19.309  25.968  1.00  0.00    -0.352 N 
ATOM      3  O   UNL A   1      42.118  18.715  25.850  1.00  0.00    -0.269 OA
ATOM      4  C   UNL A   1      41.302  19.607  26.087  1.00  0.00     0.251 C 
ATOM      5  H   UNL A   1      39.779  18.359  25.789  1.00  0.00     0.163 HD
BRANCH   4   6
ATOM      6  C   UNL A   1      41.786  20.960  26.456  1.00  0.00     0.039 A 
ATOM      7  C   UNL A   1      42.222  21.273  27.746  1.00  0.00     0.014 A 
ATOM      8  C   UNL A   1      41.868  21.932  25.451  1.00  0.00     0.014 A 
ATOM      9  C   UNL A   1      42.610  22.580  28.059  1.00  0.00     0.010 A 
ATOM     10  C   UNL A   1      42.318  23.222  25.750  1.00  0.00     0.010 A 
ATOM     11  C   UNL A   1      42.657  23.572  27.066  1.00  0.00    -0.014 A 
BRANCH  11  12
ATOM     12  C   UNL A   1      43.084  24.960  27.393  1.00  0.00     0.031 A 
ATOM     13  C   UNL A   1      42.125  25.929  28.035  1.00  0.00     0.074 A 
ATOM     14  C   UNL A   1      44.325  25.372  27.067  1.00  0.00     0.049 A 
ATOM     15  N   UNL A   1      42.304  27.189  28.341  1.00  0.00    -0.248 NA
ATOM     16  C   UNL A   1      40.786  25.417  28.368  1.00  0.00     0.031 C 
ATOM     17  C   UNL A   1      45.338  24.547  26.406  1.00  0.00     0.029 A 
ATOM     18  N   UNL A   1      44.938  26.592  27.223  1.00  0.00    -0.354 N 
ATOM     19  C   UNL A   1      41.094  27.632  28.861  1.00  0.00     0.074 A 
ATOM     20  C   UNL A   1      40.184  26.508  28.822  1.00  0.00     0.031 C 
ATOM     21  C   UNL A   1      46.441  25.285  26.205  1.00  0.00     0.029 A 
ATOM     22  C   UNL A   1      46.199  26.645  26.679  1.00  0.00     0.049 A 
ATOM     23  H   UNL A   1      44.513  27.354  27.679  1.00  0.00     0.167 HD
ATOM     24  C   UNL A   1      40.770  28.859  29.342  1.00  0.00     0.034 A 
ATOM     25  C   UNL A   1      47.061  27.674  26.551  1.00  0.00     0.034 A 
ATOM     26  C   UNL A   1      41.684  29.970  29.405  1.00  0.00     0.049 A 
ATOM     27  C   UNL A   1      46.685  29.023  27.099  1.00  0.00     0.074 A 
ATOM     28  C   UNL A   1      41.470  31.229  29.939  1.00  0.00     0.029 A 
ATOM     29  N   UNL A   1      42.977  29.963  28.906  1.00  0.00    -0.354 N 
ATOM     30  N   UNL A   1      45.584  29.386  27.708  1.00  0.00    -0.248 NA
ATOM     31  C   UNL A   1      47.684  30.095  26.974  1.00  0.00     0.031 C 
ATOM     32  C   UNL A   1      42.625  31.993  29.737  1.00  0.00     0.029 A 
ATOM     33  C   UNL A   1      43.571  31.198  29.109  1.00  0.00     0.049 A 
ATOM     34  H   UNL A   1      43.411  29.193  28.473  1.00  0.00     0.167 HD
ATOM     35  C   UNL A   1      45.767  30.715  28.072  1.00  0.00     0.074 A 
ATOM     36  C   UNL A   1      47.094  31.090  27.623  1.00  0.00     0.031 C 
ATOM     37  C   UNL A   1      44.911  31.548  28.711  1.00  0.00     0.034 A 
BRANCH  24  38
ATOM     38  C   UNL A   1      39.370  29.060  29.865  1.00  0.00     0.023 A 
ATOM     39  C   UNL A   1      39.044  28.634  31.169  1.00  0.00     0.012 A 
ATOM     40  C   UNL A   1      38.393  29.713  29.089  1.00  0.00     0.148 A 
ATOM     41  C   UNL A   1      37.757  28.817  31.675  1.00  0.00     0.002 A 
ATOM     42  C   UNL A   1      37.125  29.931  29.618  1.00  0.00     0.091 A 
ATOM     43  F   UNL A   1      38.712  30.095  27.844  1.00  0.00    -0.205 F 
ATOM     44  C   UNL A   1      36.802  29.472  30.904  1.00  0.00     0.022 A 
BRANCH  42  45
ATOM     45  S   UNL A   1      35.853  30.837  28.728  1.00  0.00     0.127 S 
ATOM     46  O   UNL A   1      35.243  29.778  27.926  1.00  0.00    -0.237 OA
ATOM     47  O   UNL A   1      35.012  31.340  29.814  1.00  0.00    -0.237 OA
ATOM     48  O   UNL A   1      36.553  31.872  27.979  1.00  0.00    -0.744 OA
ENDBRANCH  42  45
ENDBRANCH  24  38
BRANCH  25  49
ATOM     49  C   UNL A   1      48.384  27.442  25.906  1.00  0.00     0.023 A 
ATOM     50  C   UNL A   1      49.466  26.990  26.684  1.00  0.00     0.012 A 
ATOM     51  C   UNL A   1      48.553  27.605  24.517  1.00  0.00     0.148 A 
ATOM     52  C   UNL A   1      50.700  26.719  26.093  1.00  0.00     0.002 A 
ATOM     53  C   UNL A   1      49.768  27.279  23.927  1.00  0.00     0.091 A 
ATOM     54  F   UNL A   1      47.511  28.046  23.798  1.00  0.00    -0.205 F 
ATOM     55  C   UNL A   1      50.847  26.850  24.715  1.00  0.00     0.022 A 
BRANCH  53  56
ATOM     56  S   UNL A   1      50.010  27.285  22.146  1.00  0.00     0.127 S 
ATOM     57  O   UNL A   1      49.820  28.697  21.824  1.00  0.00    -0.237 OA
ATOM     58  O   UNL A   1      51.388  26.805  22.031  1.00  0.00    -0.237 OA
ATOM     59  O   UNL A   1      49.009  26.376  21.607  1.00  0.00    -0.744 OA
ENDBRANCH  53  56
ENDBRANCH  25  49
BRANCH  37  60
ATOM     60  C   UNL A   1      45.385  32.944  29.024  1.00  0.00     0.023 A 
ATOM     61  C   UNL A   1      46.056  33.206  30.234  1.00  0.00     0.012 A 
ATOM     62  C   UNL A   1      45.248  33.973  28.071  1.00  0.00     0.148 A 
ATOM     63  C   UNL A   1      46.564  34.479  30.500  1.00  0.00     0.002 A 
ATOM     64  C   UNL A   1      45.798  35.224  28.321  1.00  0.00     0.091 A 
ATOM     65  F   UNL A   1      44.588  33.707  26.934  1.00  0.00    -0.205 F 
ATOM     66  C   UNL A   1      46.447  35.481  29.539  1.00  0.00     0.022 A 
BRANCH  64  67
ATOM     67  S   UNL A   1      45.783  36.545  27.105  1.00  0.00     0.127 S 
ATOM     68  O   UNL A   1      44.356  36.849  27.013  1.00  0.00    -0.237 OA
ATOM     69  O   UNL A   1      46.584  37.579  27.760  1.00  0.00    -0.237 OA
ATOM     70  O   UNL A   1      46.380  35.989  25.899  1.00  0.00    -0.744 OA
ENDBRANCH  64  67
ENDBRANCH  37  60
ENDBRANCH  11  12
ENDBRANCH   4   6
ENDBRANCH   1   2
BRANCH   1  71
ATOM     71  C   UNL A   1      37.838  20.013  24.858  1.00  0.00     0.042 C 
BRANCH  71  72
ATOM     72  C   UNL A   1      37.186  21.303  24.363  1.00  0.00     0.118 C 
BRANCH  72  73
ATOM     73  N   UNL A   1      37.770  22.526  24.889  1.00  0.00    -0.352 N 
ATOM     74  C   UNL A   1      37.183  23.473  25.693  1.00  0.00     0.251 C 
ATOM     75  H   UNL A   1      38.706  22.699  24.636  1.00  0.00     0.163 HD
ATOM     76  O   UNL A   1      37.860  24.300  26.298  1.00  0.00    -0.269 OA
BRANCH  74  77
ATOM     77  C   UNL A   1      35.713  23.562  25.757  1.00  0.00     0.041 A 
ATOM     78  C   UNL A   1      35.098  22.957  26.858  1.00  0.00     0.014 A 
ATOM     79  C   UNL A   1      34.958  24.182  24.744  1.00  0.00     0.039 A 
ATOM     80  C   UNL A   1      33.717  22.995  26.975  1.00  0.00     0.003 A 
ATOM     81  C   UNL A   1      33.564  24.238  24.868  1.00  0.00     0.039 A 
ATOM     82  C   UNL A   1      32.966  23.637  25.995  1.00  0.00     0.026 A 
BRANCH  81  83
ATOM     83  N   UNL A   1      32.755  25.011  24.003  1.00  0.00    -0.355 N 
ATOM     84  H   UNL A   1      32.022  24.555  23.528  1.00  0.00     0.167 HD
BRANCH  83  85
ATOM     85  C   UNL A   1      32.932  26.401  23.776  1.00  0.00     0.050 A 
ATOM     86  C   UNL A   1      33.543  26.788  22.575  1.00  0.00     0.047 A 
ATOM     87  C   UNL A   1      32.617  27.404  24.733  1.00  0.00     0.027 A 
ATOM     88  C   UNL A   1      33.864  28.110  22.374  1.00  0.00     0.114 A 
ATOM     89  C   UNL A   1      32.948  28.741  24.386  1.00  0.00     0.072 A 
ATOM     90  C   UNL A   1      32.046  27.168  26.007  1.00  0.00     0.051 A 
ATOM     91  N   UNL A   1      33.566  29.082  23.249  1.00  0.00    -0.256 NA
ATOM     92  C   UNL A   1      32.643  29.775  25.258  1.00  0.00     0.032 A 
ATOM     93  C   UNL A   1      31.775  28.233  26.866  1.00  0.00     0.124 A 
ATOM     94  C   UNL A   1      32.050  29.538  26.494  1.00  0.00     0.041 A 
ATOM     95  F   UNL A   1      31.243  27.997  28.073  1.00  0.00    -0.207 F 
ENDBRANCH  83  85
ENDBRANCH  81  83
ENDBRANCH  74  77
ENDBRANCH  72  73
ENDBRANCH  71  72
ENDBRANCH   1  71
TORSDOF 15
ENDMDL
MODEL 3
REMARK VINA RESULT:     -12.2      2.031      2.628
REMARK SMILES O=C(NCCCNC(=O)c1cccc(Nc2ccnc3ccc(F)cc23)c1)c1ccc(-c2c3nc(c(-c4cccc(S(=O)(=O)[O-])c4F)c4ccc([nH]4)c(-c4cccc(S(=O)(=O)[O-])c4F)c4nc(c(-c5cccc(S(=O)(=O)[O-])c5F)c5ccc2[nH]5)C=C4)C=C3)cc1
REMARK SMILES IDX 4 1 3 2 1 3 2 4 28 6 29 7 90 8 30 9 89 10 31 11 32 12 33 13
REMARK SMILES IDX 83 14 34 15 88 16 82 17 84 18 35 19 87 20 81 21 80 22 36 24
REMARK SMILES IDX 68 25 48 26 67 27 49 28 52 29 66 30 85 31 50 32 51 33 65 35
REMARK SMILES IDX 86 36 53 37 37 38 38 39 46 40 39 41 41 42 47 43 40 44 42 45
REMARK SMILES IDX 43 46 44 47 45 48 69 49 70 50 78 51 71 52 73 53 79 54 72 55
REMARK SMILES IDX 74 56 75 57 76 58 77 59 54 60 55 61 63 62 56 63 58 64 64 65
REMARK SMILES IDX 57 66 59 67 60 68 61 69 62 70 5 71 6 72 7 73 8 74 9 76 10 77
REMARK SMILES IDX 11 78 27 79 12 80 14 81 13 82 15 83 16 85 17 86 26 87 18 88
REMARK SMILES IDX 20 89 25 90 19 91 21 92 23 93 22 94 24 95
REMARK H PARENT 3 5 84 23 52 34 7 75 15 84
REMARK Flexibility Score: inf
ROOT
ATOM      1  C   UNL A   1      32.590  29.092  25.418  1.00  0.00     0.118 C 
ENDROOT
BRANCH   1   2
ATOM      2  N   UNL A   1      32.338  30.441  25.900  1.00  0.00    -0.352 N 
ATOM      3  O   UNL A   1      32.470  32.293  27.145  1.00  0.00    -0.269 OA
ATOM      4  C   UNL A   1      32.968  31.205  26.852  1.00  0.00     0.251 C 
ATOM      5  H   UNL A   1      31.576  30.888  25.464  1.00  0.00     0.163 HD
BRANCH   4   6
ATOM      6  C   UNL A   1      34.197  30.752  27.550  1.00  0.00     0.039 A 
ATOM      7  C   UNL A   1      34.388  29.426  27.946  1.00  0.00     0.014 A 
ATOM      8  C   UNL A   1      35.226  31.681  27.749  1.00  0.00     0.014 A 
ATOM      9  C   UNL A   1      35.537  29.063  28.656  1.00  0.00     0.010 A 
ATOM     10  C   UNL A   1      36.405  31.302  28.402  1.00  0.00     0.010 A 
ATOM     11  C   UNL A   1      36.557  29.998  28.897  1.00  0.00    -0.014 A 
BRANCH  11  12
ATOM     12  C   UNL A   1      37.789  29.611  29.638  1.00  0.00     0.031 A 
ATOM     13  C   UNL A   1      38.087  30.197  30.994  1.00  0.00     0.074 A 
ATOM     14  C   UNL A   1      38.672  28.765  29.071  1.00  0.00     0.049 A 
ATOM     15  N   UNL A   1      39.133  30.017  31.760  1.00  0.00    -0.248 NA
ATOM     16  C   UNL A   1      37.082  31.110  31.560  1.00  0.00     0.031 C 
ATOM     17  C   UNL A   1      38.524  28.159  27.747  1.00  0.00     0.029 A 
ATOM     18  N   UNL A   1      39.880  28.291  29.523  1.00  0.00    -0.354 N 
ATOM     19  C   UNL A   1      38.935  30.825  32.874  1.00  0.00     0.074 A 
ATOM     20  C   UNL A   1      37.671  31.503  32.680  1.00  0.00     0.031 C 
ATOM     21  C   UNL A   1      39.601  27.401  27.489  1.00  0.00     0.029 A 
ATOM     22  C   UNL A   1      40.536  27.503  28.607  1.00  0.00     0.049 A 
ATOM     23  H   UNL A   1      40.240  28.497  30.415  1.00  0.00     0.167 HD
ATOM     24  C   UNL A   1      39.725  30.980  33.966  1.00  0.00     0.034 A 
ATOM     25  C   UNL A   1      41.762  26.943  28.644  1.00  0.00     0.034 A 
ATOM     26  C   UNL A   1      40.969  30.286  34.169  1.00  0.00     0.049 A 
ATOM     27  C   UNL A   1      42.616  27.121  29.868  1.00  0.00     0.074 A 
ATOM     28  C   UNL A   1      41.804  30.324  35.274  1.00  0.00     0.029 A 
ATOM     29  N   UNL A   1      41.568  29.442  33.247  1.00  0.00    -0.354 N 
ATOM     30  N   UNL A   1      42.352  27.782  30.968  1.00  0.00    -0.248 NA
ATOM     31  C   UNL A   1      43.923  26.447  29.872  1.00  0.00     0.031 C 
ATOM     32  C   UNL A   1      42.921  29.524  35.006  1.00  0.00     0.029 A 
ATOM     33  C   UNL A   1      42.765  28.961  33.750  1.00  0.00     0.049 A 
ATOM     34  H   UNL A   1      41.195  29.216  32.363  1.00  0.00     0.167 HD
ATOM     35  C   UNL A   1      43.439  27.577  31.809  1.00  0.00     0.074 A 
ATOM     36  C   UNL A   1      44.362  26.718  31.094  1.00  0.00     0.031 C 
ATOM     37  C   UNL A   1      43.653  28.062  33.056  1.00  0.00     0.034 A 
BRANCH  24  38
ATOM     38  C   UNL A   1      39.252  31.923  35.044  1.00  0.00     0.023 A 
ATOM     39  C   UNL A   1      39.417  33.313  34.877  1.00  0.00     0.012 A 
ATOM     40  C   UNL A   1      38.601  31.439  36.195  1.00  0.00     0.148 A 
ATOM     41  C   UNL A   1      38.980  34.203  35.860  1.00  0.00     0.002 A 
ATOM     42  C   UNL A   1      38.129  32.335  37.149  1.00  0.00     0.091 A 
ATOM     43  F   UNL A   1      38.468  30.114  36.348  1.00  0.00    -0.205 F 
ATOM     44  C   UNL A   1      38.329  33.716  36.988  1.00  0.00     0.022 A 
BRANCH  42  45
ATOM     45  S   UNL A   1      37.207  31.804  38.597  1.00  0.00     0.127 S 
ATOM     46  O   UNL A   1      38.160  32.082  39.670  1.00  0.00    -0.237 OA
ATOM     47  O   UNL A   1      36.045  32.692  38.570  1.00  0.00    -0.237 OA
ATOM     48  O   UNL A   1      36.897  30.398  38.377  1.00  0.00    -0.744 OA
ENDBRANCH  42  45
ENDBRANCH  24  38
BRANCH  25  49
ATOM     49  C   UNL A   1      42.227  26.127  27.488  1.00  0.00     0.023 A 
ATOM     50  C   UNL A   1      43.046  26.717  26.507  1.00  0.00     0.012 A 
ATOM     51  C   UNL A   1      41.915  24.757  27.393  1.00  0.00     0.148 A 
ATOM     52  C   UNL A   1      43.534  25.960  25.442  1.00  0.00     0.002 A 
ATOM     53  C   UNL A   1      42.451  23.996  26.361  1.00  0.00     0.091 A 
ATOM     54  F   UNL A   1      41.126  24.219  28.334  1.00  0.00    -0.205 F 
ATOM     55  C   UNL A   1      43.249  24.599  25.376  1.00  0.00     0.022 A 
BRANCH  53  56
ATOM     56  S   UNL A   1      42.252  22.213  26.270  1.00  0.00     0.127 S 
ATOM     57  O   UNL A   1      40.806  22.081  26.118  1.00  0.00    -0.237 OA
ATOM     58  O   UNL A   1      43.031  21.886  25.076  1.00  0.00    -0.237 OA
ATOM     59  O   UNL A   1      42.804  21.689  27.511  1.00  0.00    -0.744 OA
ENDBRANCH  53  56
ENDBRANCH  25  49
BRANCH  37  60
ATOM     60  C   UNL A   1      44.912  27.643  33.771  1.00  0.00     0.023 A 
ATOM     61  C   UNL A   1      46.067  28.445  33.694  1.00  0.00     0.012 A 
ATOM     62  C   UNL A   1      44.915  26.502  34.597  1.00  0.00     0.148 A 
ATOM     63  C   UNL A   1      47.215  28.104  34.412  1.00  0.00     0.002 A 
ATOM     64  C   UNL A   1      46.044  26.195  35.347  1.00  0.00     0.091 A 
ATOM     65  F   UNL A   1      43.812  25.742  34.641  1.00  0.00    -0.205 F 
ATOM     66  C   UNL A   1      47.197  26.989  35.248  1.00  0.00     0.022 A 
BRANCH  64  67
ATOM     67  S   UNL A   1      46.082  24.838  36.523  1.00  0.00     0.127 S 
ATOM     68  O   UNL A   1      45.058  25.247  37.483  1.00  0.00    -0.237 OA
ATOM     69  O   UNL A   1      45.712  23.694  35.690  1.00  0.00    -0.237 OA
ATOM     70  O   UNL A   1      47.441  24.794  37.043  1.00  0.00    -0.744 OA
ENDBRANCH  64  67
ENDBRANCH  37  60
ENDBRANCH  11  12
ENDBRANCH   4   6
ENDBRANCH   1   2
BRANCH   1  71
ATOM     71  C   UNL A   1      33.529  29.032  24.212  1.00  0.00     0.042 C 
BRANCH  71  72
ATOM     72  C   UNL A   1      32.869  28.952  22.837  1.00  0.00     0.118 C 
BRANCH  72  73
ATOM     73  N   UNL A   1      33.379  27.903  21.971  1.00  0.00    -0.352 N 
ATOM     74  C   UNL A   1      32.968  26.594  21.883  1.00  0.00     0.251 C 
ATOM     75  H   UNL A   1      34.114  28.162  21.368  1.00  0.00     0.163 HD
ATOM     76  O   UNL A   1      33.276  25.894  20.922  1.00  0.00    -0.269 OA
BRANCH  74  77
ATOM     77  C   UNL A   1      32.228  25.989  23.005  1.00  0.00     0.041 A 
ATOM     78  C   UNL A   1      30.857  26.261  23.067  1.00  0.00     0.014 A 
ATOM     79  C   UNL A   1      32.867  25.215  23.990  1.00  0.00     0.039 A 
ATOM     80  C   UNL A   1      30.102  25.732  24.103  1.00  0.00     0.003 A 
ATOM     81  C   UNL A   1      32.104  24.663  25.028  1.00  0.00     0.039 A 
ATOM     82  C   UNL A   1      30.722  24.935  25.062  1.00  0.00     0.026 A 
BRANCH  81  83
ATOM     83  N   UNL A   1      32.631  23.716  25.937  1.00  0.00    -0.355 N 
ATOM     84  H   UNL A   1      32.556  23.911  26.899  1.00  0.00     0.167 HD
BRANCH  83  85
ATOM     85  C   UNL A   1      33.261  22.503  25.550  1.00  0.00     0.050 A 
ATOM     86  C   UNL A   1      32.442  21.382  25.355  1.00  0.00     0.047 A 
ATOM     87  C   UNL A   1      34.669  22.344  25.447  1.00  0.00     0.027 A 
ATOM     88  C   UNL A   1      33.019  20.156  25.120  1.00  0.00     0.114 A 
ATOM     89  C   UNL A   1      35.142  21.039  25.145  1.00  0.00     0.072 A 
ATOM     90  C   UNL A   1      35.627  23.365  25.664  1.00  0.00     0.051 A 
ATOM     91  N   UNL A   1      34.344  19.975  25.001  1.00  0.00    -0.256 NA
ATOM     92  C   UNL A   1      36.503  20.814  25.001  1.00  0.00     0.032 A 
ATOM     93  C   UNL A   1      36.989  23.095  25.532  1.00  0.00     0.124 A 
ATOM     94  C   UNL A   1      37.435  21.832  25.182  1.00  0.00     0.041 A 
ATOM     95  F   UNL A   1      37.885  24.066  25.749  1.00  0.00    -0.207 F 
ENDBRANCH  83  85
ENDBRANCH  81  83
ENDBRANCH  74  77
ENDBRANCH  72  73
ENDBRANCH  71  72
ENDBRANCH   1  71
TORSDOF 15
ENDMDL
