MODEL 1
REMARK VINA RESULT:     -12.3      0.000      0.000
REMARK SMILES CCOC(=O)c1ccc(NC(=O)[C@H]2CC=CC[C@@]2(C)C(=O)NCCCNC(=O)c2ccc(-c3c4nc(c(-c5cccc(S(=O)(=O)[O-])c5F)c5ccc([nH]5)c(-c5cccc(S(=O)(=O)[O-])c5F)c5nc(c(-c6cccc(S(=O)(=O)[O-])c6F)c6ccc3[nH]6)C=C5)C=C4)cc2)cc1
REMARK SMILES IDX 23 1 22 2 20 3 21 4 18 6 13 7 14 8 15 9 17 10 19 11 16 12
REMARK SMILES IDX 11 13 10 14 12 16 9 17 6 18 7 19 93 20 8 21 92 22 4 23 5 24
REMARK SMILES IDX 3 25 2 26 1 27 24 28 25 29 26 30 27 31 28 33 29 34 30 35
REMARK SMILES IDX 91 36 31 37 90 38 32 39 33 40 34 41 84 42 35 43 89 44 83 45
REMARK SMILES IDX 85 46 36 47 88 48 82 49 81 50 37 52 69 53 49 54 68 55 50 56
REMARK SMILES IDX 53 57 67 58 86 59 51 60 52 61 66 63 87 64 54 65 38 66 39 67
REMARK SMILES IDX 47 68 40 69 42 70 48 71 41 72 43 73 44 74 45 75 46 76 70 77
REMARK SMILES IDX 71 78 79 79 72 80 74 81 80 82 73 83 75 84 76 85 77 86 78 87
REMARK SMILES IDX 55 88 56 89 64 90 57 91 59 92 65 93 58 94 60 95 61 96 62 97
REMARK SMILES IDX 63 98
REMARK H PARENT 22 5 10 15 26 32 85 51 53 62
REMARK Flexibility Score: inf
ROOT
ATOM      1  C   UNL A   1      33.978  24.666  25.898  1.00  0.00     0.117 C 
ENDROOT
BRANCH   1   2
ATOM      2  N   UNL A   1      33.952  25.245  24.567  1.00  0.00    -0.356 N 
ATOM      3  C   UNL A   1      33.493  26.403  24.026  1.00  0.00     0.227 C 
ATOM      4  O   UNL A   1      33.517  26.386  22.793  1.00  0.00    -0.274 OA
ATOM      5  H   UNL A   1      34.367  24.656  23.895  1.00  0.00     0.163 HD
BRANCH   3   6
ATOM      6  C   UNL A   1      33.114  27.666  24.855  1.00  0.00     0.062 C 
ATOM      7  C   UNL A   1      31.603  27.664  25.401  1.00  0.00     0.098 C 
ATOM      8  C   UNL A   1      31.460  27.728  26.954  1.00  0.00     0.041 C 
ATOM      9  C   UNL A   1      32.466  28.572  27.655  1.00  0.00    -0.030 C 
ATOM     10  C   UNL A   1      34.130  27.841  26.016  1.00  0.00     0.044 C 
ATOM     11  C   UNL A   1      33.285  28.862  23.869  1.00  0.00     0.023 C 
ATOM     12  C   UNL A   1      33.716  28.638  27.203  1.00  0.00    -0.030 C 
BRANCH   7  13
ATOM     13  C   UNL A   1      30.647  26.540  24.949  1.00  0.00     0.228 C 
ATOM     14  N   UNL A   1      29.688  26.690  23.992  1.00  0.00    -0.326 N 
ATOM     15  H   UNL A   1      29.193  25.860  23.802  1.00  0.00     0.169 HD
ATOM     16  O   UNL A   1      30.738  25.401  25.429  1.00  0.00    -0.274 OA
BRANCH  14  17
ATOM     17  C   UNL A   1      29.261  27.775  23.224  1.00  0.00     0.041 A 
ATOM     18  C   UNL A   1      28.649  30.111  21.846  1.00  0.00     0.060 A 
ATOM     19  C   UNL A   1      27.647  29.434  22.542  1.00  0.00     0.018 A 
ATOM     20  C   UNL A   1      29.937  29.592  21.755  1.00  0.00     0.018 A 
ATOM     21  C   UNL A   1      27.953  28.248  23.207  1.00  0.00     0.027 A 
ATOM     22  C   UNL A   1      30.234  28.411  22.436  1.00  0.00     0.027 A 
BRANCH  18  23
ATOM     23  C   UNL A   1      28.317  31.407  21.249  1.00  0.00     0.338 C 
ATOM     24  O   UNL A   1      27.524  31.554  20.340  1.00  0.00    -0.246 OA
BRANCH  23  25
ATOM     25  O   UNL A   1      29.145  32.327  21.796  1.00  0.00    -0.462 OA
BRANCH  25  26
ATOM     26  C   UNL A   1      28.561  33.104  22.848  1.00  0.00     0.230 C 
ATOM     27  C   UNL A   1      29.653  33.869  23.575  1.00  0.00     0.049 C 
ENDBRANCH  25  26
ENDBRANCH  23  25
ENDBRANCH  18  23
ENDBRANCH  14  17
ENDBRANCH   7  13
ENDBRANCH   3   6
ENDBRANCH   1   2
BRANCH   1  28
ATOM     28  C   UNL A   1      34.926  23.471  25.984  1.00  0.00     0.042 C 
BRANCH  28  29
ATOM     29  C   UNL A   1      36.368  23.821  25.636  1.00  0.00     0.118 C 
BRANCH  29  30
ATOM     30  N   UNL A   1      37.276  22.752  26.017  1.00  0.00    -0.352 N 
ATOM     31  C   UNL A   1      38.593  22.833  26.390  1.00  0.00     0.251 C 
ATOM     32  H   UNL A   1      36.893  21.844  26.004  1.00  0.00     0.163 HD
ATOM     33  O   UNL A   1      39.300  21.831  26.330  1.00  0.00    -0.269 OA
BRANCH  31  34
ATOM     34  C   UNL A   1      39.152  24.115  26.873  1.00  0.00     0.039 A 
ATOM     35  C   UNL A   1      38.940  24.495  28.201  1.00  0.00     0.014 A 
ATOM     36  C   UNL A   1      39.828  24.973  26.002  1.00  0.00     0.014 A 
ATOM     37  C   UNL A   1      39.409  25.731  28.649  1.00  0.00     0.010 A 
ATOM     38  C   UNL A   1      40.390  26.150  26.478  1.00  0.00     0.010 A 
ATOM     39  C   UNL A   1      40.142  26.568  27.792  1.00  0.00    -0.014 A 
BRANCH  39  40
ATOM     40  C   UNL A   1      40.586  27.917  28.223  1.00  0.00     0.031 A 
ATOM     41  C   UNL A   1      42.049  28.278  28.164  1.00  0.00     0.074 A 
ATOM     42  C   UNL A   1      39.691  28.793  28.718  1.00  0.00     0.049 A 
ATOM     43  N   UNL A   1      42.638  29.396  28.503  1.00  0.00    -0.248 NA
ATOM     44  C   UNL A   1      42.979  27.236  27.693  1.00  0.00     0.031 C 
ATOM     45  C   UNL A   1      38.260  28.534  28.891  1.00  0.00     0.029 A 
ATOM     46  N   UNL A   1      39.855  30.074  29.178  1.00  0.00    -0.354 N 
ATOM     47  C   UNL A   1      44.001  29.173  28.335  1.00  0.00     0.074 A 
ATOM     48  C   UNL A   1      44.156  27.803  27.905  1.00  0.00     0.031 C 
ATOM     49  C   UNL A   1      37.673  29.631  29.394  1.00  0.00     0.029 A 
ATOM     50  C   UNL A   1      38.688  30.658  29.610  1.00  0.00     0.049 A 
ATOM     51  H   UNL A   1      40.727  30.532  29.198  1.00  0.00     0.167 HD
ATOM     52  C   UNL A   1      45.030  30.037  28.494  1.00  0.00     0.034 A 
ATOM     53  C   UNL A   1      38.464  31.886  30.116  1.00  0.00     0.034 A 
ATOM     54  C   UNL A   1      44.864  31.413  28.876  1.00  0.00     0.049 A 
ATOM     55  C   UNL A   1      39.617  32.844  30.240  1.00  0.00     0.074 A 
ATOM     56  C   UNL A   1      45.824  32.403  28.971  1.00  0.00     0.029 A 
ATOM     57  N   UNL A   1      43.656  31.988  29.239  1.00  0.00    -0.354 N 
ATOM     58  N   UNL A   1      40.877  32.666  29.928  1.00  0.00    -0.248 NA
ATOM     59  C   UNL A   1      39.307  34.189  30.746  1.00  0.00     0.031 C 
ATOM     60  C   UNL A   1      45.204  33.567  29.435  1.00  0.00     0.029 A 
ATOM     61  C   UNL A   1      43.847  33.317  29.575  1.00  0.00     0.049 A 
ATOM     62  H   UNL A   1      42.790  31.521  29.256  1.00  0.00     0.167 HD
ATOM     63  C   UNL A   1      41.503  33.887  30.149  1.00  0.00     0.074 A 
ATOM     64  C   UNL A   1      40.477  34.800  30.613  1.00  0.00     0.031 C 
ATOM     65  C   UNL A   1      42.806  34.225  29.986  1.00  0.00     0.034 A 
BRANCH  52  66
ATOM     66  C   UNL A   1      46.424  29.524  28.232  1.00  0.00     0.023 A 
ATOM     67  C   UNL A   1      46.984  29.620  26.941  1.00  0.00     0.012 A 
ATOM     68  C   UNL A   1      47.193  28.969  29.275  1.00  0.00     0.148 A 
ATOM     69  C   UNL A   1      48.261  29.126  26.679  1.00  0.00     0.002 A 
ATOM     70  C   UNL A   1      48.487  28.530  29.018  1.00  0.00     0.091 A 
ATOM     71  F   UNL A   1      46.641  28.864  30.491  1.00  0.00    -0.205 F 
ATOM     72  C   UNL A   1      49.016  28.590  27.719  1.00  0.00     0.022 A 
BRANCH  70  73
ATOM     73  S   UNL A   1      49.570  27.907  30.309  1.00  0.00     0.127 S 
ATOM     74  O   UNL A   1      48.845  26.717  30.754  1.00  0.00    -0.237 OA
ATOM     75  O   UNL A   1      50.801  27.630  29.568  1.00  0.00    -0.237 OA
ATOM     76  O   UNL A   1      49.681  28.976  31.291  1.00  0.00    -0.744 OA
ENDBRANCH  70  73
ENDBRANCH  52  66
BRANCH  53  77
ATOM     77  C   UNL A   1      37.075  32.310  30.454  1.00  0.00     0.023 A 
ATOM     78  C   UNL A   1      36.602  32.135  31.769  1.00  0.00     0.012 A 
ATOM     79  C   UNL A   1      36.234  32.907  29.496  1.00  0.00     0.148 A 
ATOM     80  C   UNL A   1      35.306  32.512  32.117  1.00  0.00     0.002 A 
ATOM     81  C   UNL A   1      34.962  33.331  29.861  1.00  0.00     0.091 A 
ATOM     82  F   UNL A   1      36.702  33.064  28.250  1.00  0.00    -0.205 F 
ATOM     83  C   UNL A   1      34.489  33.118  31.166  1.00  0.00     0.022 A 
BRANCH  81  84
ATOM     84  S   UNL A   1      33.882  34.230  28.743  1.00  0.00     0.127 S 
ATOM     85  O   UNL A   1      32.797  34.633  29.635  1.00  0.00    -0.237 OA
ATOM     86  O   UNL A   1      34.752  35.319  28.298  1.00  0.00    -0.237 OA
ATOM     87  O   UNL A   1      33.518  33.284  27.698  1.00  0.00    -0.744 OA
ENDBRANCH  81  84
ENDBRANCH  53  77
BRANCH  65  88
ATOM     88  C   UNL A   1      43.195  35.657  30.242  1.00  0.00     0.023 A 
ATOM     89  C   UNL A   1      43.754  36.036  31.478  1.00  0.00     0.012 A 
ATOM     90  C   UNL A   1      43.062  36.619  29.220  1.00  0.00     0.148 A 
ATOM     91  C   UNL A   1      44.133  37.358  31.708  1.00  0.00     0.002 A 
ATOM     92  C   UNL A   1      43.495  37.920  29.436  1.00  0.00     0.091 A 
ATOM     93  F   UNL A   1      42.510  36.244  28.056  1.00  0.00    -0.205 F 
ATOM     94  C   UNL A   1      44.015  38.296  30.685  1.00  0.00     0.022 A 
BRANCH  92  95
ATOM     95  S   UNL A   1      43.481  39.163  28.140  1.00  0.00     0.127 S 
ATOM     96  O   UNL A   1      44.072  40.312  28.822  1.00  0.00    -0.237 OA
ATOM     97  O   UNL A   1      44.334  38.554  27.118  1.00  0.00    -0.237 OA
ATOM     98  O   UNL A   1      42.087  39.317  27.746  1.00  0.00    -0.744 OA
ENDBRANCH  92  95
ENDBRANCH  65  88
ENDBRANCH  39  40
ENDBRANCH  31  34
ENDBRANCH  29  30
ENDBRANCH  28  29
ENDBRANCH   1  28
TORSDOF 18
ENDMDL
MODEL 2
REMARK VINA RESULT:     -12.0      5.183     10.216
REMARK SMILES CCOC(=O)c1ccc(NC(=O)[C@H]2CC=CC[C@@]2(C)C(=O)NCCCNC(=O)c2ccc(-c3c4nc(c(-c5cccc(S(=O)(=O)[O-])c5F)c5ccc([nH]5)c(-c5cccc(S(=O)(=O)[O-])c5F)c5nc(c(-c6cccc(S(=O)(=O)[O-])c6F)c6ccc3[nH]6)C=C5)C=C4)cc2)cc1
REMARK SMILES IDX 23 1 22 2 20 3 21 4 18 6 13 7 14 8 15 9 17 10 19 11 16 12
REMARK SMILES IDX 11 13 10 14 12 16 9 17 6 18 7 19 93 20 8 21 92 22 4 23 5 24
REMARK SMILES IDX 3 25 2 26 1 27 24 28 25 29 26 30 27 31 28 33 29 34 30 35
REMARK SMILES IDX 91 36 31 37 90 38 32 39 33 40 34 41 84 42 35 43 89 44 83 45
REMARK SMILES IDX 85 46 36 47 88 48 82 49 81 50 37 52 69 53 49 54 68 55 50 56
REMARK SMILES IDX 53 57 67 58 86 59 51 60 52 61 66 63 87 64 54 65 38 66 39 67
REMARK SMILES IDX 47 68 40 69 42 70 48 71 41 72 43 73 44 74 45 75 46 76 70 77
REMARK SMILES IDX 71 78 79 79 72 80 74 81 80 82 73 83 75 84 76 85 77 86 78 87
REMARK SMILES IDX 55 88 56 89 64 90 57 91 59 92 65 93 58 94 60 95 61 96 62 97
REMARK SMILES IDX 63 98
REMARK H PARENT 22 5 10 15 26 32 85 51 53 62
REMARK Flexibility Score: inf
ROOT
ATOM      1  C   UNL A   1      31.334  28.365  26.155  1.00  0.00     0.117 C 
ENDROOT
BRANCH   1   2
ATOM      2  N   UNL A   1      31.936  27.100  26.537  1.00  0.00    -0.356 N 
ATOM      3  C   UNL A   1      32.602  26.112  25.888  1.00  0.00     0.227 C 
ATOM      4  O   UNL A   1      32.768  25.115  26.594  1.00  0.00    -0.274 OA
ATOM      5  H   UNL A   1      31.838  26.916  27.500  1.00  0.00     0.163 HD
BRANCH   3   6
ATOM      6  C   UNL A   1      33.218  26.261  24.464  1.00  0.00     0.062 C 
ATOM      7  C   UNL A   1      32.163  26.065  23.269  1.00  0.00     0.098 C 
ATOM      8  C   UNL A   1      31.995  27.296  22.325  1.00  0.00     0.041 C 
ATOM      9  C   UNL A   1      33.238  28.070  22.054  1.00  0.00    -0.030 C 
ATOM     10  C   UNL A   1      33.938  27.633  24.358  1.00  0.00     0.044 C 
ATOM     11  C   UNL A   1      34.293  25.135  24.370  1.00  0.00     0.023 C 
ATOM     12  C   UNL A   1      34.157  28.212  23.005  1.00  0.00    -0.030 C 
BRANCH   7  13
ATOM     13  C   UNL A   1      30.727  25.609  23.606  1.00  0.00     0.228 C 
ATOM     14  N   UNL A   1      30.388  24.331  23.937  1.00  0.00    -0.326 N 
ATOM     15  H   UNL A   1      29.434  24.226  24.158  1.00  0.00     0.169 HD
ATOM     16  O   UNL A   1      29.794  26.424  23.628  1.00  0.00    -0.274 OA
BRANCH  14  17
ATOM     17  C   UNL A   1      31.111  23.140  24.027  1.00  0.00     0.041 A 
ATOM     18  C   UNL A   1      32.703  20.904  24.468  1.00  0.00     0.060 A 
ATOM     19  C   UNL A   1      32.682  21.502  23.208  1.00  0.00     0.018 A 
ATOM     20  C   UNL A   1      31.873  21.353  25.491  1.00  0.00     0.018 A 
ATOM     21  C   UNL A   1      31.859  22.604  22.985  1.00  0.00     0.027 A 
ATOM     22  C   UNL A   1      31.065  22.467  25.259  1.00  0.00     0.027 A 
BRANCH  18  23
ATOM     23  C   UNL A   1      33.654  19.814  24.697  1.00  0.00     0.338 C 
ATOM     24  O   UNL A   1      34.860  19.961  24.744  1.00  0.00    -0.246 OA
BRANCH  23  25
ATOM     25  O   UNL A   1      32.951  18.657  24.697  1.00  0.00    -0.462 OA
BRANCH  25  26
ATOM     26  C   UNL A   1      32.825  18.037  23.412  1.00  0.00     0.230 C 
ATOM     27  C   UNL A   1      33.937  17.018  23.234  1.00  0.00     0.049 C 
ENDBRANCH  25  26
ENDBRANCH  23  25
ENDBRANCH  18  23
ENDBRANCH  14  17
ENDBRANCH   7  13
ENDBRANCH   3   6
ENDBRANCH   1   2
BRANCH   1  28
ATOM     28  C   UNL A   1      31.834  29.523  27.018  1.00  0.00     0.042 C 
BRANCH  28  29
ATOM     29  C   UNL A   1      33.105  30.169  26.480  1.00  0.00     0.118 C 
BRANCH  29  30
ATOM     30  N   UNL A   1      33.136  31.592  26.776  1.00  0.00    -0.352 N 
ATOM     31  C   UNL A   1      33.897  32.262  27.699  1.00  0.00     0.251 C 
ATOM     32  H   UNL A   1      32.527  32.151  26.241  1.00  0.00     0.163 HD
ATOM     33  O   UNL A   1      33.552  33.382  28.068  1.00  0.00    -0.269 OA
BRANCH  31  34
ATOM     34  C   UNL A   1      35.131  31.646  28.235  1.00  0.00     0.039 A 
ATOM     35  C   UNL A   1      35.080  30.344  28.739  1.00  0.00     0.014 A 
ATOM     36  C   UNL A   1      36.322  32.374  28.304  1.00  0.00     0.014 A 
ATOM     37  C   UNL A   1      36.224  29.776  29.304  1.00  0.00     0.010 A 
ATOM     38  C   UNL A   1      37.484  31.770  28.764  1.00  0.00     0.010 A 
ATOM     39  C   UNL A   1      37.438  30.484  29.318  1.00  0.00    -0.014 A 
BRANCH  39  40
ATOM     40  C   UNL A   1      38.645  29.932  29.980  1.00  0.00     0.031 A 
ATOM     41  C   UNL A   1      39.010  30.385  31.371  1.00  0.00     0.074 A 
ATOM     42  C   UNL A   1      39.442  29.072  29.316  1.00  0.00     0.049 A 
ATOM     43  N   UNL A   1      40.026  30.031  32.115  1.00  0.00    -0.248 NA
ATOM     44  C   UNL A   1      38.138  31.394  31.998  1.00  0.00     0.031 C 
ATOM     45  C   UNL A   1      39.233  28.613  27.941  1.00  0.00     0.029 A 
ATOM     46  N   UNL A   1      40.595  28.440  29.706  1.00  0.00    -0.354 N 
ATOM     47  C   UNL A   1      39.942  30.807  33.267  1.00  0.00     0.074 A 
ATOM     48  C   UNL A   1      38.802  31.679  33.107  1.00  0.00     0.031 C 
ATOM     49  C   UNL A   1      40.209  27.753  27.612  1.00  0.00     0.029 A 
ATOM     50  C   UNL A   1      41.130  27.624  28.737  1.00  0.00     0.049 A 
ATOM     51  H   UNL A   1      41.001  28.560  30.595  1.00  0.00     0.167 HD
ATOM     52  C   UNL A   1      40.722  30.776  34.372  1.00  0.00     0.034 A 
ATOM     53  C   UNL A   1      42.235  26.855  28.760  1.00  0.00     0.034 A 
ATOM     54  C   UNL A   1      41.826  29.872  34.543  1.00  0.00     0.049 A 
ATOM     55  C   UNL A   1      43.061  26.803  30.016  1.00  0.00     0.074 A 
ATOM     56  C   UNL A   1      42.623  29.685  35.658  1.00  0.00     0.029 A 
ATOM     57  N   UNL A   1      42.297  29.010  33.565  1.00  0.00    -0.354 N 
ATOM     58  N   UNL A   1      42.876  27.428  31.154  1.00  0.00    -0.248 NA
ATOM     59  C   UNL A   1      44.225  25.906  30.005  1.00  0.00     0.031 C 
ATOM     60  C   UNL A   1      43.604  28.741  35.339  1.00  0.00     0.029 A 
ATOM     61  C   UNL A   1      43.383  28.300  34.043  1.00  0.00     0.049 A 
ATOM     62  H   UNL A   1      41.915  28.917  32.663  1.00  0.00     0.167 HD
ATOM     63  C   UNL A   1      43.866  26.962  32.011  1.00  0.00     0.074 A 
ATOM     64  C   UNL A   1      44.643  25.995  31.261  1.00  0.00     0.031 C 
ATOM     65  C   UNL A   1      44.114  27.303  33.300  1.00  0.00     0.034 A 
BRANCH  52  66
ATOM     66  C   UNL A   1      40.393  31.735  35.490  1.00  0.00     0.023 A 
ATOM     67  C   UNL A   1      41.204  32.867  35.714  1.00  0.00     0.012 A 
ATOM     68  C   UNL A   1      39.261  31.529  36.302  1.00  0.00     0.148 A 
ATOM     69  C   UNL A   1      40.926  33.747  36.759  1.00  0.00     0.002 A 
ATOM     70  C   UNL A   1      38.959  32.440  37.307  1.00  0.00     0.091 A 
ATOM     71  F   UNL A   1      38.512  30.438  36.092  1.00  0.00    -0.205 F 
ATOM     72  C   UNL A   1      39.799  33.539  37.549  1.00  0.00     0.022 A 
BRANCH  70  73
ATOM     73  S   UNL A   1      37.480  32.309  38.319  1.00  0.00     0.127 S 
ATOM     74  O   UNL A   1      37.276  30.861  38.358  1.00  0.00    -0.237 OA
ATOM     75  O   UNL A   1      37.922  32.897  39.584  1.00  0.00    -0.237 OA
ATOM     76  O   UNL A   1      36.450  33.068  37.625  1.00  0.00    -0.744 OA
ENDBRANCH  70  73
ENDBRANCH  52  66
BRANCH  53  77
ATOM     77  C   UNL A   1      42.571  26.000  27.586  1.00  0.00     0.023 A 
ATOM     78  C   UNL A   1      43.387  26.522  26.564  1.00  0.00     0.012 A 
ATOM     79  C   UNL A   1      42.114  24.671  27.488  1.00  0.00     0.148 A 
ATOM     80  C   UNL A   1      43.713  25.752  25.448  1.00  0.00     0.002 A 
ATOM     81  C   UNL A   1      42.487  23.891  26.400  1.00  0.00     0.091 A 
ATOM     82  F   UNL A   1      41.338  24.193  28.471  1.00  0.00    -0.205 F 
ATOM     83  C   UNL A   1      43.271  24.435  25.370  1.00  0.00     0.022 A 
BRANCH  81  84
ATOM     84  S   UNL A   1      42.070  22.149  26.270  1.00  0.00     0.127 S 
ATOM     85  O   UNL A   1      40.620  22.200  26.097  1.00  0.00    -0.237 OA
ATOM     86  O   UNL A   1      42.821  21.750  25.079  1.00  0.00    -0.237 OA
ATOM     87  O   UNL A   1      42.534  21.537  27.507  1.00  0.00    -0.744 OA
ENDBRANCH  81  84
ENDBRANCH  53  77
BRANCH  65  88
ATOM     88  C   UNL A   1      45.225  26.581  34.014  1.00  0.00     0.023 A 
ATOM     89  C   UNL A   1      46.530  27.111  34.025  1.00  0.00     0.012 A 
ATOM     90  C   UNL A   1      44.954  25.400  34.733  1.00  0.00     0.148 A 
ATOM     91  C   UNL A   1      47.556  26.453  34.703  1.00  0.00     0.002 A 
ATOM     92  C   UNL A   1      45.967  24.781  35.453  1.00  0.00     0.091 A 
ATOM     93  F   UNL A   1      43.709  24.900  34.696  1.00  0.00    -0.205 F 
ATOM     94  C   UNL A   1      47.272  25.296  35.426  1.00  0.00     0.022 A 
BRANCH  92  95
ATOM     95  S   UNL A   1      45.665  23.352  36.499  1.00  0.00     0.127 S 
ATOM     96  O   UNL A   1      45.145  23.976  37.714  1.00  0.00    -0.237 OA
ATOM     97  O   UNL A   1      44.673  22.606  35.723  1.00  0.00    -0.237 OA
ATOM     98  O   UNL A   1      46.948  22.679  36.640  1.00  0.00    -0.744 OA
ENDBRANCH  92  95
ENDBRANCH  65  88
ENDBRANCH  39  40
ENDBRANCH  31  34
ENDBRANCH  29  30
ENDBRANCH  28  29
ENDBRANCH   1  28
TORSDOF 18
ENDMDL
MODEL 3
REMARK VINA RESULT:     -12.0      2.043      2.414
REMARK SMILES CCOC(=O)c1ccc(NC(=O)[C@H]2CC=CC[C@@]2(C)C(=O)NCCCNC(=O)c2ccc(-c3c4nc(c(-c5cccc(S(=O)(=O)[O-])c5F)c5ccc([nH]5)c(-c5cccc(S(=O)(=O)[O-])c5F)c5nc(c(-c6cccc(S(=O)(=O)[O-])c6F)c6ccc3[nH]6)C=C5)C=C4)cc2)cc1
REMARK SMILES IDX 23 1 22 2 20 3 21 4 18 6 13 7 14 8 15 9 17 10 19 11 16 12
REMARK SMILES IDX 11 13 10 14 12 16 9 17 6 18 7 19 93 20 8 21 92 22 4 23 5 24
REMARK SMILES IDX 3 25 2 26 1 27 24 28 25 29 26 30 27 31 28 33 29 34 30 35
REMARK SMILES IDX 91 36 31 37 90 38 32 39 33 40 34 41 84 42 35 43 89 44 83 45
REMARK SMILES IDX 85 46 36 47 88 48 82 49 81 50 37 52 69 53 49 54 68 55 50 56
REMARK SMILES IDX 53 57 67 58 86 59 51 60 52 61 66 63 87 64 54 65 38 66 39 67
REMARK SMILES IDX 47 68 40 69 42 70 48 71 41 72 43 73 44 74 45 75 46 76 70 77
REMARK SMILES IDX 71 78 79 79 72 80 74 81 80 82 73 83 75 84 76 85 77 86 78 87
REMARK SMILES IDX 55 88 56 89 64 90 57 91 59 92 65 93 58 94 60 95 61 96 62 97
REMARK SMILES IDX 63 98
REMARK H PARENT 22 5 10 15 26 32 85 51 53 62
REMARK Flexibility Score: inf
ROOT
ATOM      1  C   UNL A   1      34.301  24.483  25.933  1.00  0.00     0.117 C 
ENDROOT
BRANCH   1   2
ATOM      2  N   UNL A   1      34.185  24.985  24.575  1.00  0.00    -0.356 N 
ATOM      3  C   UNL A   1      33.639  26.084  23.995  1.00  0.00     0.227 C 
ATOM      4  O   UNL A   1      33.610  25.999  22.765  1.00  0.00    -0.274 OA
ATOM      5  H   UNL A   1      34.604  24.383  23.918  1.00  0.00     0.163 HD
BRANCH   3   6
ATOM      6  C   UNL A   1      33.224  27.370  24.772  1.00  0.00     0.062 C 
ATOM      7  C   UNL A   1      31.709  27.355  25.305  1.00  0.00     0.098 C 
ATOM      8  C   UNL A   1      31.550  27.475  26.853  1.00  0.00     0.041 C 
ATOM      9  C   UNL A   1      32.532  28.367  27.530  1.00  0.00    -0.030 C 
ATOM     10  C   UNL A   1      34.226  27.611  25.934  1.00  0.00     0.044 C 
ATOM     11  C   UNL A   1      33.379  28.530  23.743  1.00  0.00     0.023 C 
ATOM     12  C   UNL A   1      33.784  28.443  27.086  1.00  0.00    -0.030 C 
BRANCH   7  13
ATOM     13  C   UNL A   1      30.782  26.193  24.888  1.00  0.00     0.228 C 
ATOM     14  N   UNL A   1      29.720  26.327  24.043  1.00  0.00    -0.326 N 
ATOM     15  H   UNL A   1      29.260  25.477  23.857  1.00  0.00     0.169 HD
ATOM     16  O   UNL A   1      30.993  25.040  25.290  1.00  0.00    -0.274 OA
BRANCH  14  17
ATOM     17  C   UNL A   1      29.149  27.419  23.386  1.00  0.00     0.041 A 
ATOM     18  C   UNL A   1      28.252  29.776  22.216  1.00  0.00     0.060 A 
ATOM     19  C   UNL A   1      27.371  28.995  22.964  1.00  0.00     0.018 A 
ATOM     20  C   UNL A   1      29.556  29.354  21.969  1.00  0.00     0.018 A 
ATOM     21  C   UNL A   1      27.819  27.800  23.524  1.00  0.00     0.027 A 
ATOM     22  C   UNL A   1      29.996  28.163  22.548  1.00  0.00     0.027 A 
BRANCH  18  23
ATOM     23  C   UNL A   1      27.779  31.075  21.731  1.00  0.00     0.338 C 
ATOM     24  O   UNL A   1      27.682  31.369  20.556  1.00  0.00    -0.246 OA
BRANCH  23  25
ATOM     25  O   UNL A   1      27.625  31.877  22.811  1.00  0.00    -0.462 OA
BRANCH  25  26
ATOM     26  C   UNL A   1      28.848  32.240  23.463  1.00  0.00     0.230 C 
ATOM     27  C   UNL A   1      29.117  33.718  23.241  1.00  0.00     0.049 C 
ENDBRANCH  25  26
ENDBRANCH  23  25
ENDBRANCH  18  23
ENDBRANCH  14  17
ENDBRANCH   7  13
ENDBRANCH   3   6
ENDBRANCH   1   2
BRANCH   1  28
ATOM     28  C   UNL A   1      35.307  23.338  26.036  1.00  0.00     0.042 C 
BRANCH  28  29
ATOM     29  C   UNL A   1      36.679  23.690  25.476  1.00  0.00     0.118 C 
BRANCH  29  30
ATOM     30  N   UNL A   1      37.683  22.726  25.897  1.00  0.00    -0.352 N 
ATOM     31  C   UNL A   1      38.947  22.953  26.377  1.00  0.00     0.251 C 
ATOM     32  H   UNL A   1      37.419  21.780  25.826  1.00  0.00     0.163 HD
ATOM     33  O   UNL A   1      39.777  22.049  26.343  1.00  0.00    -0.269 OA
BRANCH  31  34
ATOM     34  C   UNL A   1      39.302  24.274  26.942  1.00  0.00     0.039 A 
ATOM     35  C   UNL A   1      39.996  25.191  26.149  1.00  0.00     0.014 A 
ATOM     36  C   UNL A   1      39.012  24.582  28.274  1.00  0.00     0.014 A 
ATOM     37  C   UNL A   1      40.390  26.415  26.693  1.00  0.00     0.010 A 
ATOM     38  C   UNL A   1      39.306  25.842  28.779  1.00  0.00     0.010 A 
ATOM     39  C   UNL A   1      40.046  26.753  28.012  1.00  0.00    -0.014 A 
BRANCH  39  40
ATOM     40  C   UNL A   1      40.518  28.014  28.635  1.00  0.00     0.031 A 
ATOM     41  C   UNL A   1      41.997  28.271  28.777  1.00  0.00     0.074 A 
ATOM     42  C   UNL A   1      39.627  28.898  29.122  1.00  0.00     0.049 A 
ATOM     43  N   UNL A   1      42.610  29.301  29.300  1.00  0.00    -0.248 NA
ATOM     44  C   UNL A   1      42.910  27.216  28.300  1.00  0.00     0.031 C 
ATOM     45  C   UNL A   1      38.172  28.730  29.106  1.00  0.00     0.029 A 
ATOM     46  N   UNL A   1      39.815  30.111  29.735  1.00  0.00    -0.354 N 
ATOM     47  C   UNL A   1      43.967  28.997  29.260  1.00  0.00     0.074 A 
ATOM     48  C   UNL A   1      44.087  27.670  28.702  1.00  0.00     0.031 C 
ATOM     49  C   UNL A   1      37.599  29.810  29.659  1.00  0.00     0.029 A 
ATOM     50  C   UNL A   1      38.643  30.733  30.096  1.00  0.00     0.049 A 
ATOM     51  H   UNL A   1      40.704  30.498  29.900  1.00  0.00     0.167 HD
ATOM     52  C   UNL A   1      45.022  29.762  29.625  1.00  0.00     0.034 A 
ATOM     53  C   UNL A   1      38.437  31.915  30.706  1.00  0.00     0.034 A 
ATOM     54  C   UNL A   1      44.897  31.100  30.135  1.00  0.00     0.049 A 
ATOM     55  C   UNL A   1      39.624  32.768  31.061  1.00  0.00     0.074 A 
ATOM     56  C   UNL A   1      45.898  32.002  30.443  1.00  0.00     0.029 A 
ATOM     57  N   UNL A   1      43.692  31.723  30.424  1.00  0.00    -0.354 N 
ATOM     58  N   UNL A   1      40.899  32.530  30.872  1.00  0.00    -0.248 NA
ATOM     59  C   UNL A   1      39.341  34.074  31.674  1.00  0.00     0.031 C 
ATOM     60  C   UNL A   1      45.301  33.156  30.960  1.00  0.00     0.029 A 
ATOM     61  C   UNL A   1      43.924  32.993  30.922  1.00  0.00     0.049 A 
ATOM     62  H   UNL A   1      42.803  31.322  30.294  1.00  0.00     0.167 HD
ATOM     63  C   UNL A   1      41.569  33.673  31.294  1.00  0.00     0.074 A 
ATOM     64  C   UNL A   1      40.553  34.607  31.739  1.00  0.00     0.031 C 
ATOM     65  C   UNL A   1      42.900  33.929  31.313  1.00  0.00     0.034 A 
BRANCH  52  66
ATOM     66  C   UNL A   1      46.402  29.177  29.463  1.00  0.00     0.023 A 
ATOM     67  C   UNL A   1      46.957  28.377  30.484  1.00  0.00     0.012 A 
ATOM     68  C   UNL A   1      47.142  29.396  28.284  1.00  0.00     0.148 A 
ATOM     69  C   UNL A   1      48.242  27.851  30.358  1.00  0.00     0.002 A 
ATOM     70  C   UNL A   1      48.400  28.822  28.143  1.00  0.00     0.091 A 
ATOM     71  F   UNL A   1      46.612  30.176  27.332  1.00  0.00    -0.205 F 
ATOM     72  C   UNL A   1      48.959  28.065  29.184  1.00  0.00     0.022 A 
BRANCH  70  73
ATOM     73  S   UNL A   1      49.364  28.966  26.633  1.00  0.00     0.127 S 
ATOM     74  O   UNL A   1      48.431  28.443  25.636  1.00  0.00    -0.237 OA
ATOM     75  O   UNL A   1      49.595  30.409  26.554  1.00  0.00    -0.237 OA
ATOM     76  O   UNL A   1      50.565  28.171  26.847  1.00  0.00    -0.744 OA
ENDBRANCH  70  73
ENDBRANCH  52  66
BRANCH  53  77
ATOM     77  C   UNL A   1      37.047  32.404  30.934  1.00  0.00     0.023 A 
ATOM     78  C   UNL A   1      36.515  32.385  32.238  1.00  0.00     0.012 A 
ATOM     79  C   UNL A   1      36.262  32.909  29.880  1.00  0.00     0.148 A 
ATOM     80  C   UNL A   1      35.215  32.827  32.484  1.00  0.00     0.002 A 
ATOM     81  C   UNL A   1      34.987  33.398  30.140  1.00  0.00     0.091 A 
ATOM     82  F   UNL A   1      36.786  32.917  28.646  1.00  0.00    -0.205 F 
ATOM     83  C   UNL A   1      34.455  33.341  31.438  1.00  0.00     0.022 A 
BRANCH  81  84
ATOM     84  S   UNL A   1      33.979  34.190  28.883  1.00  0.00     0.127 S 
ATOM     85  O   UNL A   1      34.889  35.212  28.370  1.00  0.00    -0.237 OA
ATOM     86  O   UNL A   1      33.716  33.080  27.966  1.00  0.00    -0.237 OA
ATOM     87  O   UNL A   1      32.801  34.689  29.577  1.00  0.00    -0.744 OA
ENDBRANCH  81  84
ENDBRANCH  53  77
BRANCH  65  88
ATOM     88  C   UNL A   1      43.344  35.295  31.766  1.00  0.00     0.023 A 
ATOM     89  C   UNL A   1      43.591  36.313  30.825  1.00  0.00     0.012 A 
ATOM     90  C   UNL A   1      43.454  35.583  33.141  1.00  0.00     0.148 A 
ATOM     91  C   UNL A   1      43.982  37.584  31.244  1.00  0.00     0.002 A 
ATOM     92  C   UNL A   1      43.788  36.866  33.553  1.00  0.00     0.091 A 
ATOM     93  F   UNL A   1      43.234  34.595  34.022  1.00  0.00    -0.205 F 
ATOM     94  C   UNL A   1      44.069  37.864  32.606  1.00  0.00     0.022 A 
BRANCH  92  95
ATOM     95  S   UNL A   1      43.816  37.340  35.285  1.00  0.00     0.127 S 
ATOM     96  O   UNL A   1      44.893  36.501  35.806  1.00  0.00    -0.237 OA
ATOM     97  O   UNL A   1      44.134  38.766  35.211  1.00  0.00    -0.237 OA
ATOM     98  O   UNL A   1      42.487  37.046  35.804  1.00  0.00    -0.744 OA
ENDBRANCH  92  95
ENDBRANCH  65  88
ENDBRANCH  39  40
ENDBRANCH  31  34
ENDBRANCH  29  30
ENDBRANCH  28  29
ENDBRANCH   1  28
TORSDOF 18
ENDMDL
