MODEL 1
REMARK VINA RESULT:     -13.2      0.000      0.000
REMARK SMILES Cc1noc2c1-c1c(c(C(=O)NCCCNC(=O)c3ccc(-c4c5nc(c(-c6cccc(S(=O)(=O)[O-])c6F)c6ccc([nH]6)c(-c6cccc(S(=O)(=O)[O-])c6F)c6nc(c(-c7cccc(S(=O)(=O)[O-])c7F)c7ccc4[nH]7)C=C6)C=C5)cc3)nn1C)CC2
REMARK SMILES IDX 16 1 17 2 18 3 15 5 14 6 13 7 12 8 10 9 11 10 9 12 1 13 2 14
REMARK SMILES IDX 3 15 6 16 4 17 5 18 7 19 86 20 8 21 83 22 85 23 82 24 84 25
REMARK SMILES IDX 19 26 20 27 81 28 21 29 80 30 22 31 23 32 24 33 74 34 25 35
REMARK SMILES IDX 79 36 73 37 75 38 26 39 78 40 72 41 71 42 27 44 59 45 39 46
REMARK SMILES IDX 58 47 40 48 43 49 57 50 76 51 41 52 42 53 56 55 77 56 44 57
REMARK SMILES IDX 28 58 29 59 37 60 30 61 32 62 38 63 31 64 33 65 34 66 35 67
REMARK SMILES IDX 36 68 60 69 61 70 69 71 62 72 64 73 70 74 63 75 65 76 66 77
REMARK SMILES IDX 67 78 68 79 45 80 46 81 54 82 47 83 49 84 55 85 48 86 50 87
REMARK SMILES IDX 51 88 52 89 53 90
REMARK H PARENT 16 4 12 11 75 43 43 54
REMARK Flexibility Score: inf
ROOT
ATOM      1  N   UNL A   1      40.054  19.587  25.888  1.00  0.00    -0.352 N 
ATOM      2  C   UNL A   1      41.445  19.511  26.026  1.00  0.00     0.251 C 
ATOM      3  O   UNL A   1      42.069  18.513  25.768  1.00  0.00    -0.269 OA
ATOM      4  H   UNL A   1      39.574  18.732  25.796  1.00  0.00     0.163 HD
ENDROOT
BRANCH   1   5
ATOM      5  C   UNL A   1      39.229  20.812  25.869  1.00  0.00     0.118 C 
BRANCH   5   6
ATOM      6  C   UNL A   1      37.981  20.720  25.038  1.00  0.00     0.042 C 
BRANCH   6   7
ATOM      7  C   UNL A   1      36.924  21.727  25.441  1.00  0.00     0.118 C 
BRANCH   7   8
ATOM      8  N   UNL A   1      35.992  21.489  26.493  1.00  0.00    -0.351 N 
ATOM      9  C   UNL A   1      34.701  22.007  26.565  1.00  0.00     0.272 C 
ATOM     10  O   UNL A   1      33.953  21.465  27.382  1.00  0.00    -0.267 OA
ATOM     11  H   UNL A   1      36.285  20.909  27.232  1.00  0.00     0.163 HD
BRANCH   9  12
ATOM     12  C   UNL A   1      34.235  23.197  25.755  1.00  0.00     0.154 A 
ATOM     13  C   UNL A   1      33.533  28.115  23.067  1.00  0.00     0.071 C 
ATOM     14  C   UNL A   1      33.429  26.788  22.431  1.00  0.00     0.090 A 
ATOM     15  N   UNL A   1      33.259  26.732  21.095  1.00  0.00    -0.084 NA
ATOM     16  C   UNL A   1      33.501  25.496  22.981  1.00  0.00     0.066 A 
ATOM     17  O   UNL A   1      33.186  25.387  20.770  1.00  0.00    -0.360 OA
ATOM     18  C   UNL A   1      33.315  24.670  21.902  1.00  0.00     0.146 A 
ATOM     19  C   UNL A   1      33.716  24.842  24.294  1.00  0.00     0.077 A 
ATOM     20  C   UNL A   1      33.208  23.203  21.872  1.00  0.00     0.084 C 
ATOM     21  C   UNL A   1      33.930  23.466  24.355  1.00  0.00     0.012 A 
ATOM     22  N   UNL A   1      33.788  25.300  25.566  1.00  0.00    -0.267 N 
ATOM     23  C   UNL A   1      33.939  22.619  23.088  1.00  0.00     0.048 C 
ATOM     24  N   UNL A   1      34.045  24.338  26.454  1.00  0.00    -0.167 NA
ATOM     25  C   UNL A   1      33.578  26.633  26.068  1.00  0.00     0.174 C 
ENDBRANCH   9  12
ENDBRANCH   7   8
ENDBRANCH   6   7
ENDBRANCH   5   6
ENDBRANCH   1   5
BRANCH   2  26
ATOM     26  C   UNL A   1      42.106  20.734  26.529  1.00  0.00     0.039 A 
ATOM     27  C   UNL A   1      42.497  21.784  25.692  1.00  0.00     0.014 A 
ATOM     28  C   UNL A   1      42.065  20.880  27.903  1.00  0.00     0.014 A 
ATOM     29  C   UNL A   1      42.713  23.037  26.266  1.00  0.00     0.010 A 
ATOM     30  C   UNL A   1      41.961  22.148  28.387  1.00  0.00     0.010 A 
ATOM     31  C   UNL A   1      42.396  23.219  27.618  1.00  0.00    -0.014 A 
BRANCH  31  32
ATOM     32  C   UNL A   1      42.407  24.514  28.285  1.00  0.00     0.031 A 
ATOM     33  C   UNL A   1      41.189  25.343  28.089  1.00  0.00     0.074 A 
ATOM     34  C   UNL A   1      43.316  24.789  29.249  1.00  0.00     0.049 A 
ATOM     35  N   UNL A   1      41.066  26.397  27.352  1.00  0.00    -0.248 NA
ATOM     36  C   UNL A   1      39.914  24.854  28.636  1.00  0.00     0.031 C 
ATOM     37  C   UNL A   1      44.353  23.896  29.800  1.00  0.00     0.029 A 
ATOM     38  N   UNL A   1      43.392  25.864  30.075  1.00  0.00    -0.354 N 
ATOM     39  C   UNL A   1      39.769  26.861  27.580  1.00  0.00     0.074 A 
ATOM     40  C   UNL A   1      39.055  25.739  28.124  1.00  0.00     0.031 C 
ATOM     41  C   UNL A   1      44.732  24.338  31.017  1.00  0.00     0.029 A 
ATOM     42  C   UNL A   1      44.144  25.642  31.224  1.00  0.00     0.049 A 
ATOM     43  H   UNL A   1      42.955  26.723  29.878  1.00  0.00     0.167 HD
ATOM     44  C   UNL A   1      39.497  28.200  27.598  1.00  0.00     0.034 A 
ATOM     45  C   UNL A   1      44.256  26.465  32.293  1.00  0.00     0.034 A 
ATOM     46  C   UNL A   1      40.642  28.949  27.123  1.00  0.00     0.049 A 
ATOM     47  C   UNL A   1      43.863  27.815  31.834  1.00  0.00     0.074 A 
ATOM     48  C   UNL A   1      41.397  28.977  25.968  1.00  0.00     0.029 A 
ATOM     49  N   UNL A   1      41.405  29.561  28.091  1.00  0.00    -0.354 N 
ATOM     50  N   UNL A   1      44.533  28.488  30.938  1.00  0.00    -0.248 NA
ATOM     51  C   UNL A   1      42.483  28.226  32.024  1.00  0.00     0.031 C 
ATOM     52  C   UNL A   1      42.737  29.188  26.410  1.00  0.00     0.029 A 
ATOM     53  C   UNL A   1      42.723  29.355  27.797  1.00  0.00     0.049 A 
ATOM     54  H   UNL A   1      41.060  30.063  28.864  1.00  0.00     0.167 HD
ATOM     55  C   UNL A   1      43.551  29.060  30.138  1.00  0.00     0.074 A 
ATOM     56  C   UNL A   1      42.325  28.978  30.931  1.00  0.00     0.031 C 
ATOM     57  C   UNL A   1      43.763  29.258  28.801  1.00  0.00     0.034 A 
BRANCH  44  58
ATOM     58  C   UNL A   1      38.433  28.906  28.439  1.00  0.00     0.023 A 
ATOM     59  C   UNL A   1      37.631  29.859  27.759  1.00  0.00     0.012 A 
ATOM     60  C   UNL A   1      38.362  28.927  29.849  1.00  0.00     0.148 A 
ATOM     61  C   UNL A   1      36.931  30.862  28.436  1.00  0.00     0.002 A 
ATOM     62  C   UNL A   1      37.623  29.896  30.522  1.00  0.00     0.091 A 
ATOM     63  F   UNL A   1      39.074  28.069  30.577  1.00  0.00    -0.205 F 
ATOM     64  C   UNL A   1      36.940  30.892  29.822  1.00  0.00     0.022 A 
BRANCH  62  65
ATOM     65  S   UNL A   1      37.570  29.966  32.320  1.00  0.00     0.127 S 
ATOM     66  O   UNL A   1      38.957  30.295  32.636  1.00  0.00    -0.237 OA
ATOM     67  O   UNL A   1      36.606  31.044  32.547  1.00  0.00    -0.237 OA
ATOM     68  O   UNL A   1      37.112  28.653  32.756  1.00  0.00    -0.744 OA
ENDBRANCH  62  65
ENDBRANCH  44  58
BRANCH  45  69
ATOM     69  C   UNL A   1      44.470  26.125  33.715  1.00  0.00     0.023 A 
ATOM     70  C   UNL A   1      45.776  26.003  34.222  1.00  0.00     0.012 A 
ATOM     71  C   UNL A   1      43.396  26.174  34.633  1.00  0.00     0.148 A 
ATOM     72  C   UNL A   1      46.010  25.960  35.602  1.00  0.00     0.002 A 
ATOM     73  C   UNL A   1      43.634  26.124  36.004  1.00  0.00     0.091 A 
ATOM     74  F   UNL A   1      42.155  26.358  34.162  1.00  0.00    -0.205 F 
ATOM     75  C   UNL A   1      44.942  26.028  36.492  1.00  0.00     0.022 A 
BRANCH  73  76
ATOM     76  S   UNL A   1      42.307  26.228  37.213  1.00  0.00     0.127 S 
ATOM     77  O   UNL A   1      43.050  26.219  38.474  1.00  0.00    -0.237 OA
ATOM     78  O   UNL A   1      41.691  27.508  36.873  1.00  0.00    -0.237 OA
ATOM     79  O   UNL A   1      41.479  25.050  36.991  1.00  0.00    -0.744 OA
ENDBRANCH  73  76
ENDBRANCH  45  69
BRANCH  57  80
ATOM     80  C   UNL A   1      45.167  29.117  28.271  1.00  0.00     0.023 A 
ATOM     81  C   UNL A   1      45.650  27.915  27.712  1.00  0.00     0.012 A 
ATOM     82  C   UNL A   1      45.936  30.285  28.139  1.00  0.00     0.148 A 
ATOM     83  C   UNL A   1      46.877  27.878  27.043  1.00  0.00     0.002 A 
ATOM     84  C   UNL A   1      47.129  30.256  27.429  1.00  0.00     0.091 A 
ATOM     85  F   UNL A   1      45.459  31.419  28.673  1.00  0.00    -0.205 F 
ATOM     86  C   UNL A   1      47.608  29.053  26.886  1.00  0.00     0.022 A 
BRANCH  84  87
ATOM     87  S   UNL A   1      48.042  31.758  27.072  1.00  0.00     0.127 S 
ATOM     88  O   UNL A   1      47.141  32.452  26.153  1.00  0.00    -0.237 OA
ATOM     89  O   UNL A   1      48.163  32.375  28.393  1.00  0.00    -0.237 OA
ATOM     90  O   UNL A   1      49.312  31.329  26.498  1.00  0.00    -0.744 OA
ENDBRANCH  84  87
ENDBRANCH  57  80
ENDBRANCH  31  32
ENDBRANCH   2  26
TORSDOF 13
ENDMDL
MODEL 2
REMARK VINA RESULT:     -13.2      1.420      1.594
REMARK SMILES Cc1noc2c1-c1c(c(C(=O)NCCCNC(=O)c3ccc(-c4c5nc(c(-c6cccc(S(=O)(=O)[O-])c6F)c6ccc([nH]6)c(-c6cccc(S(=O)(=O)[O-])c6F)c6nc(c(-c7cccc(S(=O)(=O)[O-])c7F)c7ccc4[nH]7)C=C6)C=C5)cc3)nn1C)CC2
REMARK SMILES IDX 16 1 17 2 18 3 15 5 14 6 13 7 12 8 10 9 11 10 9 12 1 13 2 14
REMARK SMILES IDX 3 15 6 16 4 17 5 18 7 19 86 20 8 21 83 22 85 23 82 24 84 25
REMARK SMILES IDX 19 26 20 27 81 28 21 29 80 30 22 31 23 32 24 33 74 34 25 35
REMARK SMILES IDX 79 36 73 37 75 38 26 39 78 40 72 41 71 42 27 44 59 45 39 46
REMARK SMILES IDX 58 47 40 48 43 49 57 50 76 51 41 52 42 53 56 55 77 56 44 57
REMARK SMILES IDX 28 58 29 59 37 60 30 61 32 62 38 63 31 64 33 65 34 66 35 67
REMARK SMILES IDX 36 68 60 69 61 70 69 71 62 72 64 73 70 74 63 75 65 76 66 77
REMARK SMILES IDX 67 78 68 79 45 80 46 81 54 82 47 83 49 84 55 85 48 86 50 87
REMARK SMILES IDX 51 88 52 89 53 90
REMARK H PARENT 16 4 12 11 75 43 43 54
REMARK Flexibility Score: inf
ROOT
ATOM      1  N   UNL A   1      39.953  19.682  25.791  1.00  0.00    -0.352 N 
ATOM      2  C   UNL A   1      41.333  19.545  25.984  1.00  0.00     0.251 C 
ATOM      3  O   UNL A   1      41.926  18.527  25.730  1.00  0.00    -0.269 OA
ATOM      4  H   UNL A   1      39.443  18.850  25.660  1.00  0.00     0.163 HD
ENDROOT
BRANCH   1   5
ATOM      5  C   UNL A   1      39.181  20.941  25.764  1.00  0.00     0.118 C 
BRANCH   5   6
ATOM      6  C   UNL A   1      37.830  20.840  25.115  1.00  0.00     0.042 C 
BRANCH   6   7
ATOM      7  C   UNL A   1      36.841  21.858  25.642  1.00  0.00     0.118 C 
BRANCH   7   8
ATOM      8  N   UNL A   1      35.800  21.523  26.555  1.00  0.00    -0.351 N 
ATOM      9  C   UNL A   1      34.491  21.996  26.502  1.00  0.00     0.272 C 
ATOM     10  O   UNL A   1      33.672  21.378  27.187  1.00  0.00    -0.267 OA
ATOM     11  H   UNL A   1      36.024  20.904  27.287  1.00  0.00     0.163 HD
BRANCH   9  12
ATOM     12  C   UNL A   1      34.080  23.222  25.717  1.00  0.00     0.154 A 
ATOM     13  C   UNL A   1      33.588  28.236  23.163  1.00  0.00     0.071 C 
ATOM     14  C   UNL A   1      33.463  26.932  22.485  1.00  0.00     0.090 A 
ATOM     15  N   UNL A   1      33.326  26.921  21.144  1.00  0.00    -0.084 NA
ATOM     16  C   UNL A   1      33.484  25.623  22.997  1.00  0.00     0.066 A 
ATOM     17  O   UNL A   1      33.223  25.589  20.777  1.00  0.00    -0.360 OA
ATOM     18  C   UNL A   1      33.302  24.835  21.889  1.00  0.00     0.146 A 
ATOM     19  C   UNL A   1      33.646  24.924  24.294  1.00  0.00     0.077 A 
ATOM     20  C   UNL A   1      33.153  23.373  21.812  1.00  0.00     0.084 C 
ATOM     21  C   UNL A   1      33.819  23.542  24.319  1.00  0.00     0.012 A 
ATOM     22  N   UNL A   1      33.698  25.342  25.581  1.00  0.00    -0.267 N 
ATOM     23  C   UNL A   1      33.836  22.733  23.028  1.00  0.00     0.048 C 
ATOM     24  N   UNL A   1      33.904  24.347  26.446  1.00  0.00    -0.167 NA
ATOM     25  C   UNL A   1      33.514  26.665  26.118  1.00  0.00     0.174 C 
ENDBRANCH   9  12
ENDBRANCH   7   8
ENDBRANCH   6   7
ENDBRANCH   5   6
ENDBRANCH   1   5
BRANCH   2  26
ATOM     26  C   UNL A   1      42.023  20.729  26.539  1.00  0.00     0.039 A 
ATOM     27  C   UNL A   1      42.559  21.741  25.737  1.00  0.00     0.014 A 
ATOM     28  C   UNL A   1      41.861  20.894  27.903  1.00  0.00     0.014 A 
ATOM     29  C   UNL A   1      42.801  22.985  26.322  1.00  0.00     0.010 A 
ATOM     30  C   UNL A   1      41.794  22.172  28.367  1.00  0.00     0.010 A 
ATOM     31  C   UNL A   1      42.370  23.203  27.636  1.00  0.00    -0.014 A 
BRANCH  31  32
ATOM     32  C   UNL A   1      42.402  24.503  28.293  1.00  0.00     0.031 A 
ATOM     33  C   UNL A   1      41.174  25.327  28.139  1.00  0.00     0.074 A 
ATOM     34  C   UNL A   1      43.347  24.787  29.220  1.00  0.00     0.049 A 
ATOM     35  N   UNL A   1      41.020  26.375  27.399  1.00  0.00    -0.248 NA
ATOM     36  C   UNL A   1      39.923  24.838  28.737  1.00  0.00     0.031 C 
ATOM     37  C   UNL A   1      44.407  23.902  29.737  1.00  0.00     0.029 A 
ATOM     38  N   UNL A   1      43.451  25.868  30.034  1.00  0.00    -0.354 N 
ATOM     39  C   UNL A   1      39.731  26.837  27.673  1.00  0.00     0.074 A 
ATOM     40  C   UNL A   1      39.042  25.717  28.253  1.00  0.00     0.031 C 
ATOM     41  C   UNL A   1      44.831  24.353  30.935  1.00  0.00     0.029 A 
ATOM     42  C   UNL A   1      44.247  25.657  31.156  1.00  0.00     0.049 A 
ATOM     43  H   UNL A   1      43.003  26.725  29.848  1.00  0.00     0.167 HD
ATOM     44  C   UNL A   1      39.456  28.175  27.693  1.00  0.00     0.034 A 
ATOM     45  C   UNL A   1      44.397  26.488  32.214  1.00  0.00     0.034 A 
ATOM     46  C   UNL A   1      40.579  28.925  27.169  1.00  0.00     0.049 A 
ATOM     47  C   UNL A   1      43.983  27.833  31.760  1.00  0.00     0.074 A 
ATOM     48  C   UNL A   1      41.290  28.946  25.986  1.00  0.00     0.029 A 
ATOM     49  N   UNL A   1      41.377  29.545  28.102  1.00  0.00    -0.354 N 
ATOM     50  N   UNL A   1      44.615  28.502  30.835  1.00  0.00    -0.248 NA
ATOM     51  C   UNL A   1      42.609  28.242  32.000  1.00  0.00     0.031 C 
ATOM     52  C   UNL A   1      42.645  29.164  26.375  1.00  0.00     0.029 A 
ATOM     53  C   UNL A   1      42.683  29.341  27.760  1.00  0.00     0.049 A 
ATOM     54  H   UNL A   1      41.060  30.052  28.885  1.00  0.00     0.167 HD
ATOM     55  C   UNL A   1      43.602  29.065  30.069  1.00  0.00     0.074 A 
ATOM     56  C   UNL A   1      42.408  28.986  30.909  1.00  0.00     0.031 C 
ATOM     57  C   UNL A   1      43.761  29.254  28.724  1.00  0.00     0.034 A 
BRANCH  44  58
ATOM     58  C   UNL A   1      38.423  28.884  28.569  1.00  0.00     0.023 A 
ATOM     59  C   UNL A   1      37.645  29.885  27.931  1.00  0.00     0.012 A 
ATOM     60  C   UNL A   1      38.366  28.857  29.979  1.00  0.00     0.148 A 
ATOM     61  C   UNL A   1      36.983  30.885  28.650  1.00  0.00     0.002 A 
ATOM     62  C   UNL A   1      37.664  29.824  30.694  1.00  0.00     0.091 A 
ATOM     63  F   UNL A   1      39.056  27.952  30.669  1.00  0.00    -0.205 F 
ATOM     64  C   UNL A   1      37.006  30.866  30.036  1.00  0.00     0.022 A 
BRANCH  62  65
ATOM     65  S   UNL A   1      37.629  29.832  32.493  1.00  0.00     0.127 S 
ATOM     66  O   UNL A   1      38.993  30.251  32.805  1.00  0.00    -0.237 OA
ATOM     67  O   UNL A   1      36.594  30.829  32.766  1.00  0.00    -0.237 OA
ATOM     68  O   UNL A   1      37.274  28.476  32.891  1.00  0.00    -0.744 OA
ENDBRANCH  62  65
ENDBRANCH  44  58
BRANCH  45  69
ATOM     69  C   UNL A   1      44.666  26.159  33.629  1.00  0.00     0.023 A 
ATOM     70  C   UNL A   1      45.991  26.058  34.089  1.00  0.00     0.012 A 
ATOM     71  C   UNL A   1      43.626  26.197  34.585  1.00  0.00     0.148 A 
ATOM     72  C   UNL A   1      46.275  26.026  35.460  1.00  0.00     0.002 A 
ATOM     73  C   UNL A   1      43.912  26.157  35.946  1.00  0.00     0.091 A 
ATOM     74  F   UNL A   1      42.366  26.360  34.157  1.00  0.00    -0.205 F 
ATOM     75  C   UNL A   1      45.238  26.083  36.388  1.00  0.00     0.022 A 
BRANCH  73  76
ATOM     76  S   UNL A   1      42.628  26.249  37.201  1.00  0.00     0.127 S 
ATOM     77  O   UNL A   1      43.416  26.259  38.435  1.00  0.00    -0.237 OA
ATOM     78  O   UNL A   1      41.981  27.517  36.877  1.00  0.00    -0.237 OA
ATOM     79  O   UNL A   1      41.811  25.057  37.016  1.00  0.00    -0.744 OA
ENDBRANCH  73  76
ENDBRANCH  45  69
BRANCH  57  80
ATOM     80  C   UNL A   1      45.145  29.113  28.141  1.00  0.00     0.023 A 
ATOM     81  C   UNL A   1      46.125  30.120  28.261  1.00  0.00     0.012 A 
ATOM     82  C   UNL A   1      45.523  27.852  27.654  1.00  0.00     0.148 A 
ATOM     83  C   UNL A   1      47.452  29.876  27.897  1.00  0.00     0.002 A 
ATOM     84  C   UNL A   1      46.851  27.596  27.340  1.00  0.00     0.091 A 
ATOM     85  F   UNL A   1      44.578  26.906  27.549  1.00  0.00    -0.205 F 
ATOM     86  C   UNL A   1      47.819  28.608  27.452  1.00  0.00     0.022 A 
BRANCH  84  87
ATOM     87  S   UNL A   1      47.410  25.949  26.902  1.00  0.00     0.127 S 
ATOM     88  O   UNL A   1      46.501  25.599  25.812  1.00  0.00    -0.237 OA
ATOM     89  O   UNL A   1      48.795  26.185  26.494  1.00  0.00    -0.237 OA
ATOM     90  O   UNL A   1      47.275  25.145  28.111  1.00  0.00    -0.744 OA
ENDBRANCH  84  87
ENDBRANCH  57  80
ENDBRANCH  31  32
ENDBRANCH   2  26
TORSDOF 13
ENDMDL
MODEL 3
REMARK VINA RESULT:     -13.1      3.895      9.344
REMARK SMILES Cc1noc2c1-c1c(c(C(=O)NCCCNC(=O)c3ccc(-c4c5nc(c(-c6cccc(S(=O)(=O)[O-])c6F)c6ccc([nH]6)c(-c6cccc(S(=O)(=O)[O-])c6F)c6nc(c(-c7cccc(S(=O)(=O)[O-])c7F)c7ccc4[nH]7)C=C6)C=C5)cc3)nn1C)CC2
REMARK SMILES IDX 16 1 17 2 18 3 15 5 14 6 13 7 12 8 10 9 11 10 9 12 1 13 2 14
REMARK SMILES IDX 3 15 6 16 4 17 5 18 7 19 86 20 8 21 83 22 85 23 82 24 84 25
REMARK SMILES IDX 19 26 20 27 81 28 21 29 80 30 22 31 23 32 24 33 74 34 25 35
REMARK SMILES IDX 79 36 73 37 75 38 26 39 78 40 72 41 71 42 27 44 59 45 39 46
REMARK SMILES IDX 58 47 40 48 43 49 57 50 76 51 41 52 42 53 56 55 77 56 44 57
REMARK SMILES IDX 28 58 29 59 37 60 30 61 32 62 38 63 31 64 33 65 34 66 35 67
REMARK SMILES IDX 36 68 60 69 61 70 69 71 62 72 64 73 70 74 63 75 65 76 66 77
REMARK SMILES IDX 67 78 68 79 45 80 46 81 54 82 47 83 49 84 55 85 48 86 50 87
REMARK SMILES IDX 51 88 52 89 53 90
REMARK H PARENT 16 4 12 11 75 43 43 54
REMARK Flexibility Score: inf
ROOT
ATOM      1  N   UNL A   1      32.632  33.502  27.620  1.00  0.00    -0.352 N 
ATOM      2  C   UNL A   1      33.086  34.455  28.540  1.00  0.00     0.251 C 
ATOM      3  O   UNL A   1      32.482  35.471  28.772  1.00  0.00    -0.269 OA
ATOM      4  H   UNL A   1      31.926  33.792  26.998  1.00  0.00     0.163 HD
ENDROOT
BRANCH   1   5
ATOM      5  C   UNL A   1      33.102  32.108  27.482  1.00  0.00     0.118 C 
BRANCH   5   6
ATOM      6  C   UNL A   1      32.137  31.181  26.798  1.00  0.00     0.042 C 
BRANCH   6   7
ATOM      7  C   UNL A   1      32.810  29.973  26.181  1.00  0.00     0.118 C 
BRANCH   7   8
ATOM      8  N   UNL A   1      33.212  29.927  24.814  1.00  0.00    -0.351 N 
ATOM      9  C   UNL A   1      33.169  28.802  23.994  1.00  0.00     0.272 C 
ATOM     10  O   UNL A   1      33.274  29.019  22.785  1.00  0.00    -0.267 OA
ATOM     11  H   UNL A   1      33.548  30.762  24.415  1.00  0.00     0.163 HD
BRANCH   9  12
ATOM     12  C   UNL A   1      33.065  27.389  24.524  1.00  0.00     0.154 A 
ATOM     13  C   UNL A   1      33.504  22.478  27.279  1.00  0.00     0.071 C 
ATOM     14  C   UNL A   1      32.240  23.204  27.053  1.00  0.00     0.090 A 
ATOM     15  N   UNL A   1      31.118  22.727  27.628  1.00  0.00    -0.084 NA
ATOM     16  C   UNL A   1      31.971  24.379  26.329  1.00  0.00     0.066 A 
ATOM     17  O   UNL A   1      30.096  23.582  27.250  1.00  0.00    -0.360 OA
ATOM     18  C   UNL A   1      30.617  24.545  26.467  1.00  0.00     0.146 A 
ATOM     19  C   UNL A   1      32.692  25.402  25.536  1.00  0.00     0.077 A 
ATOM     20  C   UNL A   1      29.746  25.562  25.857  1.00  0.00     0.084 C 
ATOM     21  C   UNL A   1      32.036  26.571  25.154  1.00  0.00     0.012 A 
ATOM     22  N   UNL A   1      33.960  25.502  25.071  1.00  0.00    -0.267 N 
ATOM     23  C   UNL A   1      30.579  26.809  25.532  1.00  0.00     0.048 C 
ATOM     24  N   UNL A   1      34.191  26.647  24.425  1.00  0.00    -0.167 NA
ATOM     25  C   UNL A   1      35.033  24.545  25.135  1.00  0.00     0.174 C 
ENDBRANCH   9  12
ENDBRANCH   7   8
ENDBRANCH   6   7
ENDBRANCH   5   6
ENDBRANCH   1   5
BRANCH   2  26
ATOM     26  C   UNL A   1      34.370  34.144  29.204  1.00  0.00     0.039 A 
ATOM     27  C   UNL A   1      34.459  33.349  30.350  1.00  0.00     0.014 A 
ATOM     28  C   UNL A   1      35.489  34.472  28.459  1.00  0.00     0.014 A 
ATOM     29  C   UNL A   1      35.692  32.769  30.653  1.00  0.00     0.010 A 
ATOM     30  C   UNL A   1      36.572  33.656  28.581  1.00  0.00     0.010 A 
ATOM     31  C   UNL A   1      36.737  32.895  29.730  1.00  0.00    -0.014 A 
BRANCH  31  32
ATOM     32  C   UNL A   1      38.008  32.192  29.846  1.00  0.00     0.031 A 
ATOM     33  C   UNL A   1      38.040  30.830  29.250  1.00  0.00     0.074 A 
ATOM     34  C   UNL A   1      39.138  32.853  30.186  1.00  0.00     0.049 A 
ATOM     35  N   UNL A   1      38.043  29.699  29.875  1.00  0.00    -0.248 NA
ATOM     36  C   UNL A   1      37.876  30.699  27.794  1.00  0.00     0.031 C 
ATOM     37  C   UNL A   1      39.303  34.297  30.439  1.00  0.00     0.029 A 
ATOM     38  N   UNL A   1      40.421  32.410  30.200  1.00  0.00    -0.354 N 
ATOM     39  C   UNL A   1      38.176  28.726  28.882  1.00  0.00     0.074 A 
ATOM     40  C   UNL A   1      37.781  29.374  27.661  1.00  0.00     0.031 C 
ATOM     41  C   UNL A   1      40.598  34.640  30.286  1.00  0.00     0.029 A 
ATOM     42  C   UNL A   1      41.372  33.424  30.154  1.00  0.00     0.049 A 
ATOM     43  H   UNL A   1      40.657  31.455  30.239  1.00  0.00     0.167 HD
ATOM     44  C   UNL A   1      38.897  27.588  29.109  1.00  0.00     0.034 A 
ATOM     45  C   UNL A   1      42.707  33.280  29.991  1.00  0.00     0.034 A 
ATOM     46  C   UNL A   1      39.234  27.481  30.513  1.00  0.00     0.049 A 
ATOM     47  C   UNL A   1      43.032  31.886  30.362  1.00  0.00     0.074 A 
ATOM     48  C   UNL A   1      38.531  27.438  31.700  1.00  0.00     0.029 A 
ATOM     49  N   UNL A   1      40.526  27.813  30.849  1.00  0.00    -0.354 N 
ATOM     50  N   UNL A   1      42.884  31.414  31.570  1.00  0.00    -0.248 NA
ATOM     51  C   UNL A   1      43.085  30.892  29.304  1.00  0.00     0.031 C 
ATOM     52  C   UNL A   1      39.321  28.187  32.623  1.00  0.00     0.029 A 
ATOM     53  C   UNL A   1      40.497  28.581  31.978  1.00  0.00     0.049 A 
ATOM     54  H   UNL A   1      41.336  27.543  30.359  1.00  0.00     0.167 HD
ATOM     55  C   UNL A   1      42.353  30.145  31.376  1.00  0.00     0.074 A 
ATOM     56  C   UNL A   1      42.629  29.831  29.975  1.00  0.00     0.031 C 
ATOM     57  C   UNL A   1      41.475  29.607  32.277  1.00  0.00     0.034 A 
BRANCH  44  58
ATOM     58  C   UNL A   1      39.703  26.796  28.079  1.00  0.00     0.023 A 
ATOM     59  C   UNL A   1      39.631  25.382  28.182  1.00  0.00     0.012 A 
ATOM     60  C   UNL A   1      40.721  27.307  27.245  1.00  0.00     0.148 A 
ATOM     61  C   UNL A   1      40.599  24.544  27.621  1.00  0.00     0.002 A 
ATOM     62  C   UNL A   1      41.655  26.467  26.645  1.00  0.00     0.091 A 
ATOM     63  F   UNL A   1      40.868  28.619  27.079  1.00  0.00    -0.205 F 
ATOM     64  C   UNL A   1      41.625  25.088  26.864  1.00  0.00     0.022 A 
BRANCH  62  65
ATOM     65  S   UNL A   1      42.990  27.111  25.624  1.00  0.00     0.127 S 
ATOM     66  O   UNL A   1      43.842  27.741  26.628  1.00  0.00    -0.237 OA
ATOM     67  O   UNL A   1      43.528  25.886  25.030  1.00  0.00    -0.237 OA
ATOM     68  O   UNL A   1      42.360  28.012  24.668  1.00  0.00    -0.744 OA
ENDBRANCH  62  65
ENDBRANCH  44  58
BRANCH  45  69
ATOM     69  C   UNL A   1      43.672  34.190  29.340  1.00  0.00     0.023 A 
ATOM     70  C   UNL A   1      44.385  35.128  30.108  1.00  0.00     0.012 A 
ATOM     71  C   UNL A   1      44.084  33.964  28.006  1.00  0.00     0.148 A 
ATOM     72  C   UNL A   1      45.491  35.801  29.575  1.00  0.00     0.002 A 
ATOM     73  C   UNL A   1      45.179  34.641  27.479  1.00  0.00     0.091 A 
ATOM     74  F   UNL A   1      43.453  33.024  27.289  1.00  0.00    -0.205 F 
ATOM     75  C   UNL A   1      45.894  35.553  28.266  1.00  0.00     0.022 A 
BRANCH  73  76
ATOM     76  S   UNL A   1      45.769  34.356  25.805  1.00  0.00     0.127 S 
ATOM     77  O   UNL A   1      46.757  35.425  25.650  1.00  0.00    -0.237 OA
ATOM     78  O   UNL A   1      46.331  33.012  25.909  1.00  0.00    -0.237 OA
ATOM     79  O   UNL A   1      44.599  34.487  24.948  1.00  0.00    -0.744 OA
ENDBRANCH  73  76
ENDBRANCH  45  69
BRANCH  57  80
ATOM     80  C   UNL A   1      41.318  30.284  33.615  1.00  0.00     0.023 A 
ATOM     81  C   UNL A   1      42.269  30.153  34.648  1.00  0.00     0.012 A 
ATOM     82  C   UNL A   1      40.299  31.241  33.748  1.00  0.00     0.148 A 
ATOM     83  C   UNL A   1      42.202  30.955  35.791  1.00  0.00     0.002 A 
ATOM     84  C   UNL A   1      40.263  32.071  34.860  1.00  0.00     0.091 A 
ATOM     85  F   UNL A   1      39.405  31.354  32.754  1.00  0.00    -0.205 F 
ATOM     86  C   UNL A   1      41.208  31.927  35.889  1.00  0.00     0.022 A 
BRANCH  84  87
ATOM     87  S   UNL A   1      39.100  33.431  34.977  1.00  0.00     0.127 S 
ATOM     88  O   UNL A   1      37.814  32.738  34.934  1.00  0.00    -0.237 OA
ATOM     89  O   UNL A   1      39.435  34.021  36.274  1.00  0.00    -0.237 OA
ATOM     90  O   UNL A   1      39.382  34.299  33.840  1.00  0.00    -0.744 OA
ENDBRANCH  84  87
ENDBRANCH  57  80
ENDBRANCH  31  32
ENDBRANCH   2  26
TORSDOF 13
ENDMDL
