MODEL 1
REMARK VINA RESULT:     -13.2      0.000      0.000
REMARK SMILES CC(C)C(=O)Nc1ccc2c([C@H](C(=O)NCCCNC(=O)c3ccc(-c4c5nc(c(-c6cccc(S(=O)(=O)[O-])c6F)c6ccc([nH]6)c(-c6cccc(S(=O)(=O)[O-])c6F)c6nc(c(-c7cccc(S(=O)(=O)[O-])c7F)c7ccc4[nH]7)C=C6)C=C5)cc3)[NH+]3CC[NH+](CC(=O)N(C)C)CC3)c[nH]c2c1
REMARK SMILES IDX 17 1 16 2 15 3 13 4 14 5 12 7 11 8 7 9 8 10 100 11 9 12
REMARK SMILES IDX 99 13 10 14 98 15 97 16 6 18 4 19 5 20 2 22 1 23 3 24 85 25
REMARK SMILES IDX 86 26 96 27 87 29 95 30 88 31 89 33 90 34 91 35 92 36 93 37
REMARK SMILES IDX 94 38 18 39 19 40 20 41 21 43 22 44 23 45 84 46 24 47 83 48
REMARK SMILES IDX 25 49 26 50 27 51 77 52 28 53 82 54 76 55 78 56 29 57 81 58
REMARK SMILES IDX 75 59 74 60 30 62 62 63 42 64 61 65 43 66 46 67 60 68 79 69
REMARK SMILES IDX 44 70 45 71 59 73 80 74 47 75 31 76 32 77 40 78 33 79 35 80
REMARK SMILES IDX 41 81 34 82 36 83 37 84 38 85 39 86 63 87 64 88 72 89 65 90
REMARK SMILES IDX 67 91 73 92 66 93 68 94 69 95 70 96 71 97 48 98 49 99 57 100
REMARK SMILES IDX 50 101 52 102 58 103 51 104 53 105 54 106 55 107 56 108
REMARK H PARENT 15 6 98 17 6 21 85 28 88 32 19 42 78 61 46 72
REMARK Flexibility Score: inf
ROOT
ATOM      1  C   UNL A   1      31.753  29.148  26.722  1.00  0.00     0.042 C 
ENDROOT
BRANCH   1   2
ATOM      2  C   UNL A   1      32.215  27.688  26.938  1.00  0.00     0.118 C 
BRANCH   2   3
ATOM      3  N   UNL A   1      31.073  26.778  26.951  1.00  0.00    -0.351 N 
ATOM      4  C   UNL A   1      30.240  26.106  26.113  1.00  0.00     0.283 C 
ATOM      5  O   UNL A   1      29.368  25.556  26.816  1.00  0.00    -0.268 OA
ATOM      6  H   UNL A   1      30.822  26.586  27.882  1.00  0.00     0.163 HD
BRANCH   4   7
ATOM      7  C   UNL A   1      30.354  25.791  24.549  1.00  0.00     0.308 C 
BRANCH   7   8
ATOM      8  C   UNL A   1      30.857  26.999  23.704  1.00  0.00     0.044 A 
ATOM      9  C   UNL A   1      29.037  30.232  21.652  1.00  0.00     0.043 A 
ATOM     10  C   UNL A   1      28.168  29.299  22.200  1.00  0.00     0.027 A 
ATOM     11  C   UNL A   1      30.413  29.996  21.652  1.00  0.00     0.052 A 
ATOM     12  C   UNL A   1      28.646  28.204  22.928  1.00  0.00     0.013 A 
ATOM     13  C   UNL A   1      30.876  28.888  22.375  1.00  0.00     0.048 A 
ATOM     14  C   UNL A   1      30.036  28.002  23.052  1.00  0.00     0.009 A 
ATOM     15  N   UNL A   1      32.158  28.449  22.568  1.00  0.00    -0.361 N 
ATOM     16  C   UNL A   1      32.157  27.331  23.349  1.00  0.00     0.094 A 
ATOM     17  H   UNL A   1      32.962  28.879  22.199  1.00  0.00     0.166 HD
BRANCH   9  18
ATOM     18  N   UNL A   1      28.578  31.413  21.060  1.00  0.00    -0.326 N 
ATOM     19  C   UNL A   1      28.142  32.575  21.628  1.00  0.00     0.226 C 
ATOM     20  O   UNL A   1      27.646  33.424  20.876  1.00  0.00    -0.274 OA
ATOM     21  H   UNL A   1      28.568  31.405  20.075  1.00  0.00     0.169 HD
BRANCH  19  22
ATOM     22  C   UNL A   1      28.353  32.923  23.110  1.00  0.00     0.072 C 
ATOM     23  C   UNL A   1      28.231  31.752  24.077  1.00  0.00     0.018 C 
ATOM     24  C   UNL A   1      29.583  33.787  23.378  1.00  0.00     0.018 C 
ENDBRANCH  19  22
ENDBRANCH   9  18
ENDBRANCH   7   8
BRANCH   7  25
ATOM     25  N   UNL A   1      31.128  24.623  24.121  1.00  0.00    -0.312 N 
ATOM     26  C   UNL A   1      31.331  24.226  22.729  1.00  0.00     0.325 C 
ATOM     27  C   UNL A   1      32.013  23.949  25.042  1.00  0.00     0.325 C 
ATOM     28  H   UNL A   1      30.147  24.366  24.223  1.00  0.00     0.349 HD
ATOM     29  C   UNL A   1      32.811  24.190  22.244  1.00  0.00     0.325 C 
ATOM     30  C   UNL A   1      33.429  24.262  24.582  1.00  0.00     0.325 C 
ATOM     31  N   UNL A   1      33.850  23.903  23.244  1.00  0.00    -0.318 N 
ATOM     32  H   UNL A   1      34.608  24.538  22.990  1.00  0.00     0.348 HD
BRANCH  31  33
ATOM     33  C   UNL A   1      34.567  22.632  23.137  1.00  0.00     0.364 C 
BRANCH  33  34
ATOM     34  C   UNL A   1      35.980  22.703  23.720  1.00  0.00     0.277 C 
ATOM     35  O   UNL A   1      36.852  23.342  23.122  1.00  0.00    -0.268 OA
ATOM     36  N   UNL A   1      36.285  21.955  24.864  1.00  0.00    -0.344 N 
ATOM     37  C   UNL A   1      35.348  21.254  25.734  1.00  0.00     0.146 C 
ATOM     38  C   UNL A   1      37.681  21.853  25.245  1.00  0.00     0.146 C 
ENDBRANCH  33  34
ENDBRANCH  31  33
ENDBRANCH   7  25
ENDBRANCH   4   7
ENDBRANCH   2   3
ENDBRANCH   1   2
BRANCH   1  39
ATOM     39  C   UNL A   1      32.644  30.033  25.872  1.00  0.00     0.118 C 
BRANCH  39  40
ATOM     40  N   UNL A   1      32.610  31.416  26.319  1.00  0.00    -0.352 N 
ATOM     41  C   UNL A   1      33.328  32.098  27.277  1.00  0.00     0.251 C 
ATOM     42  H   UNL A   1      31.948  31.971  25.848  1.00  0.00     0.163 HD
ATOM     43  O   UNL A   1      32.891  33.196  27.627  1.00  0.00    -0.269 OA
BRANCH  41  44
ATOM     44  C   UNL A   1      34.582  31.585  27.903  1.00  0.00     0.039 A 
ATOM     45  C   UNL A   1      34.630  30.235  28.286  1.00  0.00     0.014 A 
ATOM     46  C   UNL A   1      35.669  32.397  28.228  1.00  0.00     0.014 A 
ATOM     47  C   UNL A   1      35.745  29.715  28.961  1.00  0.00     0.010 A 
ATOM     48  C   UNL A   1      36.828  31.854  28.788  1.00  0.00     0.010 A 
ATOM     49  C   UNL A   1      36.868  30.518  29.207  1.00  0.00    -0.014 A 
BRANCH  49  50
ATOM     50  C   UNL A   1      38.060  30.007  29.946  1.00  0.00     0.031 A 
ATOM     51  C   UNL A   1      38.327  30.459  31.365  1.00  0.00     0.074 A 
ATOM     52  C   UNL A   1      38.946  29.198  29.330  1.00  0.00     0.049 A 
ATOM     53  N   UNL A   1      39.341  30.181  32.146  1.00  0.00    -0.248 NA
ATOM     54  C   UNL A   1      37.344  31.370  31.976  1.00  0.00     0.031 C 
ATOM     55  C   UNL A   1      38.851  28.740  27.943  1.00  0.00     0.029 A 
ATOM     56  N   UNL A   1      40.114  28.634  29.785  1.00  0.00    -0.354 N 
ATOM     57  C   UNL A   1      39.147  30.924  33.307  1.00  0.00     0.074 A 
ATOM     58  C   UNL A   1      37.936  31.690  33.118  1.00  0.00     0.031 C 
ATOM     59  C   UNL A   1      39.904  27.953  27.665  1.00  0.00     0.029 A 
ATOM     60  C   UNL A   1      40.770  27.881  28.838  1.00  0.00     0.049 A 
ATOM     61  H   UNL A   1      40.450  28.758  30.702  1.00  0.00     0.167 HD
ATOM     62  C   UNL A   1      39.887  30.949  34.442  1.00  0.00     0.034 A 
ATOM     63  C   UNL A   1      41.938  27.212  28.902  1.00  0.00     0.034 A 
ATOM     64  C   UNL A   1      41.053  30.136  34.657  1.00  0.00     0.049 A 
ATOM     65  C   UNL A   1      42.717  27.216  30.191  1.00  0.00     0.074 A 
ATOM     66  C   UNL A   1      41.808  30.001  35.810  1.00  0.00     0.029 A 
ATOM     67  N   UNL A   1      41.640  29.324  33.700  1.00  0.00    -0.354 N 
ATOM     68  N   UNL A   1      42.430  27.799  31.328  1.00  0.00    -0.248 NA
ATOM     69  C   UNL A   1      43.965  26.438  30.213  1.00  0.00     0.031 C 
ATOM     70  C   UNL A   1      42.871  29.135  35.537  1.00  0.00     0.029 A 
ATOM     71  C   UNL A   1      42.756  28.698  34.227  1.00  0.00     0.049 A 
ATOM     72  H   UNL A   1      41.311  29.208  32.779  1.00  0.00     0.167 HD
ATOM     73  C   UNL A   1      43.436  27.430  32.212  1.00  0.00     0.074 A 
ATOM     74  C   UNL A   1      44.331  26.555  31.483  1.00  0.00     0.031 C 
ATOM     75  C   UNL A   1      43.611  27.789  33.508  1.00  0.00     0.034 A 
BRANCH  62  76
ATOM     76  C   UNL A   1      39.437  31.856  35.561  1.00  0.00     0.023 A 
ATOM     77  C   UNL A   1      39.800  33.219  35.552  1.00  0.00     0.012 A 
ATOM     78  C   UNL A   1      38.607  31.373  36.593  1.00  0.00     0.148 A 
ATOM     79  C   UNL A   1      39.385  34.074  36.571  1.00  0.00     0.002 A 
ATOM     80  C   UNL A   1      38.155  32.243  37.579  1.00  0.00     0.091 A 
ATOM     81  F   UNL A   1      38.284  30.072  36.597  1.00  0.00    -0.205 F 
ATOM     82  C   UNL A   1      38.555  33.589  37.578  1.00  0.00     0.022 A 
BRANCH  80  83
ATOM     83  S   UNL A   1      37.014  31.736  38.871  1.00  0.00     0.127 S 
ATOM     84  O   UNL A   1      35.920  32.690  38.687  1.00  0.00    -0.237 OA
ATOM     85  O   UNL A   1      36.696  30.363  38.479  1.00  0.00    -0.237 OA
ATOM     86  O   UNL A   1      37.745  31.857  40.123  1.00  0.00    -0.744 OA
ENDBRANCH  80  83
ENDBRANCH  62  76
BRANCH  63  87
ATOM     87  C   UNL A   1      42.410  26.419  27.730  1.00  0.00     0.023 A 
ATOM     88  C   UNL A   1      43.223  27.039  26.760  1.00  0.00     0.012 A 
ATOM     89  C   UNL A   1      42.080  25.058  27.582  1.00  0.00     0.148 A 
ATOM     90  C   UNL A   1      43.674  26.327  25.649  1.00  0.00     0.002 A 
ATOM     91  C   UNL A   1      42.580  24.340  26.501  1.00  0.00     0.091 A 
ATOM     92  F   UNL A   1      41.297  24.490  28.508  1.00  0.00    -0.205 F 
ATOM     93  C   UNL A   1      43.362  24.977  25.524  1.00  0.00     0.022 A 
BRANCH  91  94
ATOM     94  S   UNL A   1      42.342  22.569  26.323  1.00  0.00     0.127 S 
ATOM     95  O   UNL A   1      40.887  22.462  26.312  1.00  0.00    -0.237 OA
ATOM     96  O   UNL A   1      42.993  22.308  25.040  1.00  0.00    -0.237 OA
ATOM     97  O   UNL A   1      43.012  21.966  27.470  1.00  0.00    -0.744 OA
ENDBRANCH  91  94
ENDBRANCH  63  87
BRANCH  75  98
ATOM     98  C   UNL A   1      44.786  27.206  34.247  1.00  0.00     0.023 A 
ATOM     99  C   UNL A   1      46.009  27.905  34.293  1.00  0.00     0.012 A 
ATOM    100  C   UNL A   1      44.654  25.998  34.961  1.00  0.00     0.148 A 
ATOM    101  C   UNL A   1      47.091  27.395  35.007  1.00  0.00     0.002 A 
ATOM    102  C   UNL A   1      45.719  25.523  35.715  1.00  0.00     0.091 A 
ATOM    103  F   UNL A   1      43.488  25.339  34.892  1.00  0.00    -0.205 F 
ATOM    104  C   UNL A   1      46.943  26.212  35.729  1.00  0.00     0.022 A 
BRANCH 102 105
ATOM    105  S   UNL A   1      45.587  24.064  36.756  1.00  0.00     0.127 S 
ATOM    106  O   UNL A   1      46.992  23.721  36.966  1.00  0.00    -0.237 OA
ATOM    107  O   UNL A   1      44.903  24.588  37.939  1.00  0.00    -0.237 OA
ATOM    108  O   UNL A   1      44.815  23.094  35.992  1.00  0.00    -0.744 OA
ENDBRANCH 102 105
ENDBRANCH  75  98
ENDBRANCH  49  50
ENDBRANCH  41  44
ENDBRANCH  39  40
ENDBRANCH   1  39
TORSDOF 19
ENDMDL
MODEL 2
REMARK VINA RESULT:     -12.9      0.801      7.134
REMARK SMILES CC(C)C(=O)Nc1ccc2c([C@H](C(=O)NCCCNC(=O)c3ccc(-c4c5nc(c(-c6cccc(S(=O)(=O)[O-])c6F)c6ccc([nH]6)c(-c6cccc(S(=O)(=O)[O-])c6F)c6nc(c(-c7cccc(S(=O)(=O)[O-])c7F)c7ccc4[nH]7)C=C6)C=C5)cc3)[NH+]3CC[NH+](CC(=O)N(C)C)CC3)c[nH]c2c1
REMARK SMILES IDX 17 1 16 2 15 3 13 4 14 5 12 7 11 8 7 9 8 10 100 11 9 12
REMARK SMILES IDX 99 13 10 14 98 15 97 16 6 18 4 19 5 20 2 22 1 23 3 24 85 25
REMARK SMILES IDX 86 26 96 27 87 29 95 30 88 31 89 33 90 34 91 35 92 36 93 37
REMARK SMILES IDX 94 38 18 39 19 40 20 41 21 43 22 44 23 45 84 46 24 47 83 48
REMARK SMILES IDX 25 49 26 50 27 51 77 52 28 53 82 54 76 55 78 56 29 57 81 58
REMARK SMILES IDX 75 59 74 60 30 62 62 63 42 64 61 65 43 66 46 67 60 68 79 69
REMARK SMILES IDX 44 70 45 71 59 73 80 74 47 75 31 76 32 77 40 78 33 79 35 80
REMARK SMILES IDX 41 81 34 82 36 83 37 84 38 85 39 86 63 87 64 88 72 89 65 90
REMARK SMILES IDX 67 91 73 92 66 93 68 94 69 95 70 96 71 97 48 98 49 99 57 100
REMARK SMILES IDX 50 101 52 102 58 103 51 104 53 105 54 106 55 107 56 108
REMARK H PARENT 15 6 98 17 6 21 85 28 88 32 19 42 78 61 46 72
REMARK Flexibility Score: inf
ROOT
ATOM      1  C   UNL A   1      31.765  28.997  26.797  1.00  0.00     0.042 C 
ENDROOT
BRANCH   1   2
ATOM      2  C   UNL A   1      32.240  27.530  26.911  1.00  0.00     0.118 C 
BRANCH   2   3
ATOM      3  N   UNL A   1      31.104  26.613  26.889  1.00  0.00    -0.351 N 
ATOM      4  C   UNL A   1      30.271  25.973  26.026  1.00  0.00     0.283 C 
ATOM      5  O   UNL A   1      29.406  25.386  26.707  1.00  0.00    -0.268 OA
ATOM      6  H   UNL A   1      30.859  26.378  27.812  1.00  0.00     0.163 HD
BRANCH   4   7
ATOM      7  C   UNL A   1      30.381  25.728  24.449  1.00  0.00     0.308 C 
BRANCH   7   8
ATOM      8  C   UNL A   1      30.876  26.975  23.656  1.00  0.00     0.044 A 
ATOM      9  C   UNL A   1      29.032  30.176  21.577  1.00  0.00     0.043 A 
ATOM     10  C   UNL A   1      28.175  29.196  22.059  1.00  0.00     0.027 A 
ATOM     11  C   UNL A   1      30.414  29.996  21.646  1.00  0.00     0.052 A 
ATOM     12  C   UNL A   1      28.660  28.105  22.788  1.00  0.00     0.013 A 
ATOM     13  C   UNL A   1      30.885  28.892  22.369  1.00  0.00     0.048 A 
ATOM     14  C   UNL A   1      30.048  27.957  22.982  1.00  0.00     0.009 A 
ATOM     15  N   UNL A   1      32.172  28.501  22.621  1.00  0.00    -0.361 N 
ATOM     16  C   UNL A   1      32.177  27.366  23.378  1.00  0.00     0.094 A 
ATOM     17  H   UNL A   1      32.976  28.972  22.304  1.00  0.00     0.166 HD
BRANCH   9  18
ATOM     18  N   UNL A   1      28.555  31.350  20.985  1.00  0.00    -0.326 N 
ATOM     19  C   UNL A   1      28.035  32.477  21.552  1.00  0.00     0.226 C 
ATOM     20  O   UNL A   1      27.545  33.322  20.792  1.00  0.00    -0.274 OA
ATOM     21  H   UNL A   1      28.603  31.366  20.002  1.00  0.00     0.169 HD
BRANCH  19  22
ATOM     22  C   UNL A   1      28.141  32.796  23.052  1.00  0.00     0.072 C 
ATOM     23  C   UNL A   1      27.661  31.694  23.987  1.00  0.00     0.018 C 
ATOM     24  C   UNL A   1      29.488  33.383  23.469  1.00  0.00     0.018 C 
ENDBRANCH  19  22
ENDBRANCH   9  18
ENDBRANCH   7   8
BRANCH   7  25
ATOM     25  N   UNL A   1      31.157  24.583  23.966  1.00  0.00    -0.312 N 
ATOM     26  C   UNL A   1      31.417  24.291  22.558  1.00  0.00     0.325 C 
ATOM     27  C   UNL A   1      31.989  23.825  24.870  1.00  0.00     0.325 C 
ATOM     28  H   UNL A   1      30.168  24.336  24.004  1.00  0.00     0.349 HD
ATOM     29  C   UNL A   1      32.917  24.267  22.138  1.00  0.00     0.325 C 
ATOM     30  C   UNL A   1      33.429  24.147  24.499  1.00  0.00     0.325 C 
ATOM     31  N   UNL A   1      33.905  23.885  23.158  1.00  0.00    -0.318 N 
ATOM     32  H   UNL A   1      34.683  24.524  22.988  1.00  0.00     0.348 HD
BRANCH  31  33
ATOM     33  C   UNL A   1      34.609  22.613  22.984  1.00  0.00     0.364 C 
BRANCH  33  34
ATOM     34  C   UNL A   1      36.021  22.638  23.573  1.00  0.00     0.277 C 
ATOM     35  O   UNL A   1      36.886  23.345  23.046  1.00  0.00    -0.268 OA
ATOM     36  N   UNL A   1      36.333  21.778  24.633  1.00  0.00    -0.344 N 
ATOM     37  C   UNL A   1      35.403  20.981  25.425  1.00  0.00     0.146 C 
ATOM     38  C   UNL A   1      37.730  21.650  25.003  1.00  0.00     0.146 C 
ENDBRANCH  33  34
ENDBRANCH  31  33
ENDBRANCH   7  25
ENDBRANCH   4   7
ENDBRANCH   2   3
ENDBRANCH   1   2
BRANCH   1  39
ATOM     39  C   UNL A   1      32.556  29.907  25.878  1.00  0.00     0.118 C 
BRANCH  39  40
ATOM     40  N   UNL A   1      32.390  31.307  26.236  1.00  0.00    -0.352 N 
ATOM     41  C   UNL A   1      33.059  32.122  27.121  1.00  0.00     0.251 C 
ATOM     42  H   UNL A   1      31.660  31.758  25.754  1.00  0.00     0.163 HD
ATOM     43  O   UNL A   1      32.520  33.191  27.415  1.00  0.00    -0.269 OA
BRANCH  41  44
ATOM     44  C   UNL A   1      34.378  31.784  27.735  1.00  0.00     0.039 A 
ATOM     45  C   UNL A   1      34.559  30.490  28.248  1.00  0.00     0.014 A 
ATOM     46  C   UNL A   1      35.400  32.714  27.924  1.00  0.00     0.014 A 
ATOM     47  C   UNL A   1      35.742  30.139  28.918  1.00  0.00     0.010 A 
ATOM     48  C   UNL A   1      36.624  32.331  28.480  1.00  0.00     0.010 A 
ATOM     49  C   UNL A   1      36.798  31.055  29.027  1.00  0.00    -0.014 A 
BRANCH  49  50
ATOM     50  C   UNL A   1      38.059  30.725  29.756  1.00  0.00     0.031 A 
ATOM     51  C   UNL A   1      39.103  29.841  29.111  1.00  0.00     0.074 A 
ATOM     52  C   UNL A   1      38.243  31.153  31.022  1.00  0.00     0.049 A 
ATOM     53  N   UNL A   1      40.227  29.388  29.607  1.00  0.00    -0.248 NA
ATOM     54  C   UNL A   1      38.834  29.375  27.739  1.00  0.00     0.031 C 
ATOM     55  C   UNL A   1      37.289  31.952  31.792  1.00  0.00     0.029 A 
ATOM     56  N   UNL A   1      39.287  30.955  31.894  1.00  0.00    -0.354 N 
ATOM     57  C   UNL A   1      40.764  28.546  28.639  1.00  0.00     0.074 A 
ATOM     58  C   UNL A   1      39.828  28.522  27.537  1.00  0.00     0.031 C 
ATOM     59  C   UNL A   1      37.797  32.192  33.012  1.00  0.00     0.029 A 
ATOM     60  C   UNL A   1      39.094  31.532  33.128  1.00  0.00     0.049 A 
ATOM     61  H   UNL A   1      40.097  30.448  31.657  1.00  0.00     0.167 HD
ATOM     62  C   UNL A   1      41.940  27.873  28.645  1.00  0.00     0.034 A 
ATOM     63  C   UNL A   1      39.868  31.527  34.231  1.00  0.00     0.034 A 
ATOM     64  C   UNL A   1      42.903  27.949  29.710  1.00  0.00     0.049 A 
ATOM     65  C   UNL A   1      41.193  30.813  34.196  1.00  0.00     0.074 A 
ATOM     66  C   UNL A   1      44.172  27.400  29.764  1.00  0.00     0.029 A 
ATOM     67  N   UNL A   1      42.703  28.611  30.911  1.00  0.00    -0.354 N 
ATOM     68  N   UNL A   1      41.751  30.154  33.210  1.00  0.00    -0.248 NA
ATOM     69  C   UNL A   1      42.012  30.873  35.416  1.00  0.00     0.031 C 
ATOM     70  C   UNL A   1      44.725  27.700  31.013  1.00  0.00     0.029 A 
ATOM     71  C   UNL A   1      43.817  28.471  31.721  1.00  0.00     0.049 A 
ATOM     72  H   UNL A   1      41.889  29.110  31.152  1.00  0.00     0.167 HD
ATOM     73  C   UNL A   1      42.998  29.755  33.673  1.00  0.00     0.074 A 
ATOM     74  C   UNL A   1      43.123  30.263  35.024  1.00  0.00     0.031 C 
ATOM     75  C   UNL A   1      43.951  29.025  33.044  1.00  0.00     0.034 A 
BRANCH  62  76
ATOM     76  C   UNL A   1      42.277  27.024  27.443  1.00  0.00     0.023 A 
ATOM     77  C   UNL A   1      42.929  27.603  26.333  1.00  0.00     0.012 A 
ATOM     78  C   UNL A   1      41.999  25.643  27.433  1.00  0.00     0.148 A 
ATOM     79  C   UNL A   1      43.258  26.833  25.218  1.00  0.00     0.002 A 
ATOM     80  C   UNL A   1      42.375  24.872  26.338  1.00  0.00     0.091 A 
ATOM     81  F   UNL A   1      41.364  25.110  28.486  1.00  0.00    -0.205 F 
ATOM     82  C   UNL A   1      42.990  25.467  25.225  1.00  0.00     0.022 A 
BRANCH  80  83
ATOM     83  S   UNL A   1      42.152  23.090  26.285  1.00  0.00     0.127 S 
ATOM     84  O   UNL A   1      42.930  22.662  27.447  1.00  0.00    -0.237 OA
ATOM     85  O   UNL A   1      40.704  22.956  26.439  1.00  0.00    -0.237 OA
ATOM     86  O   UNL A   1      42.668  22.658  24.994  1.00  0.00    -0.744 OA
ENDBRANCH  80  83
ENDBRANCH  62  76
BRANCH  63  87
ATOM     87  C   UNL A   1      39.444  32.284  35.445  1.00  0.00     0.023 A 
ATOM     88  C   UNL A   1      39.769  33.651  35.553  1.00  0.00     0.012 A 
ATOM     89  C   UNL A   1      38.705  31.670  36.474  1.00  0.00     0.148 A 
ATOM     90  C   UNL A   1      39.393  34.386  36.677  1.00  0.00     0.002 A 
ATOM     91  C   UNL A   1      38.285  32.422  37.566  1.00  0.00     0.091 A 
ATOM     92  F   UNL A   1      38.416  30.367  36.358  1.00  0.00    -0.205 F 
ATOM     93  C   UNL A   1      38.643  33.775  37.678  1.00  0.00     0.022 A 
BRANCH  91  94
ATOM     94  S   UNL A   1      37.207  31.759  38.840  1.00  0.00     0.127 S 
ATOM     95  O   UNL A   1      36.068  32.669  38.772  1.00  0.00    -0.237 OA
ATOM     96  O   UNL A   1      36.952  30.408  38.343  1.00  0.00    -0.237 OA
ATOM     97  O   UNL A   1      37.983  31.809  40.075  1.00  0.00    -0.744 OA
ENDBRANCH  91  94
ENDBRANCH  63  87
BRANCH  75  98
ATOM     98  C   UNL A   1      45.238  28.764  33.780  1.00  0.00     0.023 A 
ATOM     99  C   UNL A   1      46.303  29.682  33.688  1.00  0.00     0.012 A 
ATOM    100  C   UNL A   1      45.363  27.644  34.626  1.00  0.00     0.148 A 
ATOM    101  C   UNL A   1      47.484  29.471  34.398  1.00  0.00     0.002 A 
ATOM    102  C   UNL A   1      46.522  27.469  35.372  1.00  0.00     0.091 A 
ATOM    103  F   UNL A   1      44.345  26.773  34.688  1.00  0.00    -0.205 F 
ATOM    104  C   UNL A   1      47.589  28.374  35.250  1.00  0.00     0.022 A 
BRANCH 102 105
ATOM    105  S   UNL A   1      46.705  26.142  36.570  1.00  0.00     0.127 S 
ATOM    106  O   UNL A   1      45.424  26.198  37.273  1.00  0.00    -0.237 OA
ATOM    107  O   UNL A   1      46.879  24.970  35.712  1.00  0.00    -0.237 OA
ATOM    108  O   UNL A   1      47.873  26.483  37.372  1.00  0.00    -0.744 OA
ENDBRANCH 102 105
ENDBRANCH  75  98
ENDBRANCH  49  50
ENDBRANCH  41  44
ENDBRANCH  39  40
ENDBRANCH   1  39
TORSDOF 19
ENDMDL
MODEL 3
REMARK VINA RESULT:     -12.7      1.982      7.431
REMARK SMILES CC(C)C(=O)Nc1ccc2c([C@H](C(=O)NCCCNC(=O)c3ccc(-c4c5nc(c(-c6cccc(S(=O)(=O)[O-])c6F)c6ccc([nH]6)c(-c6cccc(S(=O)(=O)[O-])c6F)c6nc(c(-c7cccc(S(=O)(=O)[O-])c7F)c7ccc4[nH]7)C=C6)C=C5)cc3)[NH+]3CC[NH+](CC(=O)N(C)C)CC3)c[nH]c2c1
REMARK SMILES IDX 17 1 16 2 15 3 13 4 14 5 12 7 11 8 7 9 8 10 100 11 9 12
REMARK SMILES IDX 99 13 10 14 98 15 97 16 6 18 4 19 5 20 2 22 1 23 3 24 85 25
REMARK SMILES IDX 86 26 96 27 87 29 95 30 88 31 89 33 90 34 91 35 92 36 93 37
REMARK SMILES IDX 94 38 18 39 19 40 20 41 21 43 22 44 23 45 84 46 24 47 83 48
REMARK SMILES IDX 25 49 26 50 27 51 77 52 28 53 82 54 76 55 78 56 29 57 81 58
REMARK SMILES IDX 75 59 74 60 30 62 62 63 42 64 61 65 43 66 46 67 60 68 79 69
REMARK SMILES IDX 44 70 45 71 59 73 80 74 47 75 31 76 32 77 40 78 33 79 35 80
REMARK SMILES IDX 41 81 34 82 36 83 37 84 38 85 39 86 63 87 64 88 72 89 65 90
REMARK SMILES IDX 67 91 73 92 66 93 68 94 69 95 70 96 71 97 48 98 49 99 57 100
REMARK SMILES IDX 50 101 52 102 58 103 51 104 53 105 54 106 55 107 56 108
REMARK H PARENT 15 6 98 17 6 21 85 28 88 32 19 42 78 61 46 72
REMARK Flexibility Score: inf
ROOT
ATOM      1  C   UNL A   1      31.433  29.095  26.674  1.00  0.00     0.042 C 
ENDROOT
BRANCH   1   2
ATOM      2  C   UNL A   1      31.996  27.745  27.177  1.00  0.00     0.118 C 
BRANCH   2   3
ATOM      3  N   UNL A   1      31.004  26.684  27.036  1.00  0.00    -0.351 N 
ATOM      4  C   UNL A   1      30.489  25.824  26.117  1.00  0.00     0.283 C 
ATOM      5  O   UNL A   1      29.544  25.219  26.660  1.00  0.00    -0.268 OA
ATOM      6  H   UNL A   1      30.556  26.541  27.900  1.00  0.00     0.163 HD
BRANCH   4   7
ATOM      7  C   UNL A   1      31.023  25.390  24.673  1.00  0.00     0.308 C 
BRANCH   7   8
ATOM      8  C   UNL A   1      31.501  26.587  23.797  1.00  0.00     0.044 A 
ATOM      9  C   UNL A   1      29.618  29.763  21.714  1.00  0.00     0.043 A 
ATOM     10  C   UNL A   1      28.767  28.833  22.293  1.00  0.00     0.027 A 
ATOM     11  C   UNL A   1      30.996  29.540  21.697  1.00  0.00     0.052 A 
ATOM     12  C   UNL A   1      29.267  27.756  23.034  1.00  0.00     0.013 A 
ATOM     13  C   UNL A   1      31.481  28.450  22.433  1.00  0.00     0.048 A 
ATOM     14  C   UNL A   1      30.660  27.569  23.140  1.00  0.00     0.009 A 
ATOM     15  N   UNL A   1      32.770  28.027  22.615  1.00  0.00    -0.361 N 
ATOM     16  C   UNL A   1      32.792  26.923  23.416  1.00  0.00     0.094 A 
ATOM     17  H   UNL A   1      33.565  28.457  22.224  1.00  0.00     0.166 HD
BRANCH   9  18
ATOM     18  N   UNL A   1      29.139  30.929  21.107  1.00  0.00    -0.326 N 
ATOM     19  C   UNL A   1      28.604  32.056  21.659  1.00  0.00     0.226 C 
ATOM     20  O   UNL A   1      28.116  32.890  20.886  1.00  0.00    -0.274 OA
ATOM     21  H   UNL A   1      29.198  30.936  20.124  1.00  0.00     0.169 HD
BRANCH  19  22
ATOM     22  C   UNL A   1      28.692  32.389  23.157  1.00  0.00     0.072 C 
ATOM     23  C   UNL A   1      29.044  33.834  23.483  1.00  0.00     0.018 C 
ATOM     24  C   UNL A   1      27.519  31.864  23.982  1.00  0.00     0.018 C 
ENDBRANCH  19  22
ENDBRANCH   9  18
ENDBRANCH   7   8
BRANCH   7  25
ATOM     25  N   UNL A   1      32.061  24.360  24.587  1.00  0.00    -0.312 N 
ATOM     26  C   UNL A   1      32.645  23.671  25.736  1.00  0.00     0.325 C 
ATOM     27  C   UNL A   1      32.366  23.726  23.326  1.00  0.00     0.325 C 
ATOM     28  H   UNL A   1      32.494  25.276  24.708  1.00  0.00     0.349 HD
ATOM     29  C   UNL A   1      32.457  22.125  25.766  1.00  0.00     0.325 C 
ATOM     30  C   UNL A   1      31.852  22.298  23.430  1.00  0.00     0.325 C 
ATOM     31  N   UNL A   1      32.344  21.427  24.476  1.00  0.00    -0.318 N 
ATOM     32  H   UNL A   1      31.620  20.727  24.646  1.00  0.00     0.348 HD
BRANCH  31  33
ATOM     33  C   UNL A   1      33.438  20.538  24.084  1.00  0.00     0.364 C 
BRANCH  33  34
ATOM     34  C   UNL A   1      33.244  19.108  24.593  1.00  0.00     0.277 C 
ATOM     35  O   UNL A   1      33.563  18.828  25.753  1.00  0.00    -0.268 OA
ATOM     36  N   UNL A   1      32.808  18.119  23.702  1.00  0.00    -0.344 N 
ATOM     37  C   UNL A   1      32.290  18.315  22.353  1.00  0.00     0.146 C 
ATOM     38  C   UNL A   1      32.868  16.740  24.149  1.00  0.00     0.146 C 
ENDBRANCH  33  34
ENDBRANCH  31  33
ENDBRANCH   7  25
ENDBRANCH   4   7
ENDBRANCH   2   3
ENDBRANCH   1   2
BRANCH   1  39
ATOM     39  C   UNL A   1      32.373  29.978  25.876  1.00  0.00     0.118 C 
BRANCH  39  40
ATOM     40  N   UNL A   1      32.220  31.380  26.228  1.00  0.00    -0.352 N 
ATOM     41  C   UNL A   1      32.901  32.195  27.105  1.00  0.00     0.251 C 
ATOM     42  H   UNL A   1      31.490  31.834  25.748  1.00  0.00     0.163 HD
ATOM     43  O   UNL A   1      32.370  33.270  27.396  1.00  0.00    -0.269 OA
BRANCH  41  44
ATOM     44  C   UNL A   1      34.221  31.851  27.711  1.00  0.00     0.039 A 
ATOM     45  C   UNL A   1      34.417  30.542  28.176  1.00  0.00     0.014 A 
ATOM     46  C   UNL A   1      35.230  32.786  27.940  1.00  0.00     0.014 A 
ATOM     47  C   UNL A   1      35.601  30.181  28.838  1.00  0.00     0.010 A 
ATOM     48  C   UNL A   1      36.456  32.399  28.487  1.00  0.00     0.010 A 
ATOM     49  C   UNL A   1      36.645  31.105  28.987  1.00  0.00    -0.014 A 
BRANCH  49  50
ATOM     50  C   UNL A   1      37.906  30.764  29.709  1.00  0.00     0.031 A 
ATOM     51  C   UNL A   1      38.928  29.852  29.068  1.00  0.00     0.074 A 
ATOM     52  C   UNL A   1      38.110  31.208  30.966  1.00  0.00     0.049 A 
ATOM     53  N   UNL A   1      40.049  29.387  29.560  1.00  0.00    -0.248 NA
ATOM     54  C   UNL A   1      38.638  29.370  27.706  1.00  0.00     0.031 C 
ATOM     55  C   UNL A   1      37.178  32.036  31.733  1.00  0.00     0.029 A 
ATOM     56  N   UNL A   1      39.159  31.005  31.831  1.00  0.00    -0.354 N 
ATOM     57  C   UNL A   1      40.562  28.520  28.600  1.00  0.00     0.074 A 
ATOM     58  C   UNL A   1      39.614  28.496  27.508  1.00  0.00     0.031 C 
ATOM     59  C   UNL A   1      37.702  32.286  32.944  1.00  0.00     0.029 A 
ATOM     60  C   UNL A   1      38.988  31.604  33.058  1.00  0.00     0.049 A 
ATOM     61  H   UNL A   1      39.957  30.480  31.595  1.00  0.00     0.167 HD
ATOM     62  C   UNL A   1      41.726  27.826  28.605  1.00  0.00     0.034 A 
ATOM     63  C   UNL A   1      39.772  31.602  34.154  1.00  0.00     0.034 A 
ATOM     64  C   UNL A   1      42.700  27.902  29.660  1.00  0.00     0.049 A 
ATOM     65  C   UNL A   1      41.084  30.864  34.117  1.00  0.00     0.074 A 
ATOM     66  C   UNL A   1      43.959  27.331  29.711  1.00  0.00     0.029 A 
ATOM     67  N   UNL A   1      42.523  28.586  30.853  1.00  0.00    -0.354 N 
ATOM     68  N   UNL A   1      41.621  30.181  33.136  1.00  0.00    -0.248 NA
ATOM     69  C   UNL A   1      41.916  30.928  35.329  1.00  0.00     0.031 C 
ATOM     70  C   UNL A   1      44.530  27.641  30.950  1.00  0.00     0.029 A 
ATOM     71  C   UNL A   1      43.642  28.438  31.654  1.00  0.00     0.049 A 
ATOM     72  H   UNL A   1      41.720  29.102  31.094  1.00  0.00     0.167 HD
ATOM     73  C   UNL A   1      42.865  29.767  33.594  1.00  0.00     0.074 A 
ATOM     74  C   UNL A   1      43.012  30.293  34.935  1.00  0.00     0.031 C 
ATOM     75  C   UNL A   1      43.799  29.010  32.967  1.00  0.00     0.034 A 
BRANCH  62  76
ATOM     76  C   UNL A   1      42.035  26.954  27.414  1.00  0.00     0.023 A 
ATOM     77  C   UNL A   1      42.615  27.521  26.259  1.00  0.00     0.012 A 
ATOM     78  C   UNL A   1      41.806  25.564  27.456  1.00  0.00     0.148 A 
ATOM     79  C   UNL A   1      42.918  26.729  25.152  1.00  0.00     0.002 A 
ATOM     80  C   UNL A   1      42.157  24.774  26.367  1.00  0.00     0.091 A 
ATOM     81  F   UNL A   1      41.239  25.043  28.553  1.00  0.00    -0.205 F 
ATOM     82  C   UNL A   1      42.699  25.355  25.210  1.00  0.00     0.022 A 
BRANCH  80  83
ATOM     83  S   UNL A   1      41.994  22.984  26.376  1.00  0.00     0.127 S 
ATOM     84  O   UNL A   1      40.544  22.821  26.474  1.00  0.00    -0.237 OA
ATOM     85  O   UNL A   1      42.561  22.618  25.078  1.00  0.00    -0.237 OA
ATOM     86  O   UNL A   1      42.755  22.517  27.525  1.00  0.00    -0.744 OA
ENDBRANCH  80  83
ENDBRANCH  62  76
BRANCH  63  87
ATOM     87  C   UNL A   1      39.373  32.386  35.359  1.00  0.00     0.023 A 
ATOM     88  C   UNL A   1      38.557  31.781  36.336  1.00  0.00     0.012 A 
ATOM     89  C   UNL A   1      39.814  33.709  35.556  1.00  0.00     0.148 A 
ATOM     90  C   UNL A   1      38.161  32.488  37.471  1.00  0.00     0.002 A 
ATOM     91  C   UNL A   1      39.461  34.389  36.716  1.00  0.00     0.091 A 
ATOM     92  F   UNL A   1      40.580  34.270  34.611  1.00  0.00    -0.205 F 
ATOM     93  C   UNL A   1      38.620  33.788  37.666  1.00  0.00     0.022 A 
BRANCH  91  94
ATOM     94  S   UNL A   1      40.109  36.015  37.119  1.00  0.00     0.127 S 
ATOM     95  O   UNL A   1      41.536  35.744  37.253  1.00  0.00    -0.237 OA
ATOM     96  O   UNL A   1      39.732  36.788  35.937  1.00  0.00    -0.237 OA
ATOM     97  O   UNL A   1      39.423  36.417  38.343  1.00  0.00    -0.744 OA
ENDBRANCH  91  94
ENDBRANCH  63  87
BRANCH  75  98
ATOM     98  C   UNL A   1      45.088  28.738  33.696  1.00  0.00     0.023 A 
ATOM     99  C   UNL A   1      46.162  29.645  33.594  1.00  0.00     0.012 A 
ATOM    100  C   UNL A   1      45.207  27.618  34.543  1.00  0.00     0.148 A 
ATOM    101  C   UNL A   1      47.345  29.423  34.296  1.00  0.00     0.002 A 
ATOM    102  C   UNL A   1      46.369  27.433  35.282  1.00  0.00     0.091 A 
ATOM    103  F   UNL A   1      44.181  26.758  34.614  1.00  0.00    -0.205 F 
ATOM    104  C   UNL A   1      47.444  28.326  35.150  1.00  0.00     0.022 A 
BRANCH 102 105
ATOM    105  S   UNL A   1      46.547  26.107  36.481  1.00  0.00     0.127 S 
ATOM    106  O   UNL A   1      46.518  24.924  35.623  1.00  0.00    -0.237 OA
ATOM    107  O   UNL A   1      47.851  26.398  37.076  1.00  0.00    -0.237 OA
ATOM    108  O   UNL A   1      45.422  26.240  37.397  1.00  0.00    -0.744 OA
ENDBRANCH 102 105
ENDBRANCH  75  98
ENDBRANCH  49  50
ENDBRANCH  41  44
ENDBRANCH  39  40
ENDBRANCH   1  39
TORSDOF 19
ENDMDL
