MODEL 1
REMARK VINA RESULT:     -12.5      0.000      0.000
REMARK SMILES CCOC(=O)c1c(NC(=O)[C@@H]2[C@@H](C(=O)NCCCNC(=O)c3ccc(-c4c5nc(c(-c6cccc(S(=O)(=O)[O-])c6F)c6ccc([nH]6)c(-c6cccc(S(=O)(=O)[O-])c6F)c6nc(c(-c7cccc(S(=O)(=O)[O-])c7F)c7ccc4[nH]7)C=C6)C=C5)cc3)[C@@H]3C=C[C@H]2CC3)sc2c1CCC2
REMARK SMILES IDX 16 1 15 2 13 3 14 4 12 6 11 7 88 8 85 9 87 10 89 11 86 12
REMARK SMILES IDX 90 13 9 14 8 15 10 17 7 18 6 19 93 20 91 21 92 22 94 23
REMARK SMILES IDX 96 24 95 25 4 26 5 27 3 28 2 29 1 30 17 31 18 32 19 33 20 34
REMARK SMILES IDX 21 36 22 37 23 38 84 39 24 40 83 41 25 42 26 43 27 44 77 45
REMARK SMILES IDX 28 46 82 47 76 48 78 49 29 50 81 51 75 52 74 53 30 55 62 56
REMARK SMILES IDX 42 57 61 58 43 59 46 60 60 61 79 62 44 63 45 64 59 66 80 67
REMARK SMILES IDX 47 68 31 69 32 70 40 71 33 72 35 73 41 74 34 75 36 76 37 77
REMARK SMILES IDX 38 78 39 79 63 80 64 81 72 82 65 83 67 84 73 85 66 86 68 87
REMARK SMILES IDX 69 88 70 89 71 90 48 91 49 92 57 93 50 94 52 95 58 96 51 97
REMARK SMILES IDX 53 98 54 99 55 100 56 101
REMARK H PARENT 15 5 8 16 19 35 78 54 46 65
REMARK Flexibility Score: inf
ROOT
ATOM      1  C   UNL A   1      37.583  22.116  25.418  1.00  0.00     0.117 C 
ENDROOT
BRANCH   1   2
ATOM      2  N   UNL A   1      37.070  22.508  24.121  1.00  0.00    -0.356 N 
ATOM      3  C   UNL A   1      35.836  22.806  23.661  1.00  0.00     0.224 C 
ATOM      4  O   UNL A   1      35.808  23.626  22.735  1.00  0.00    -0.275 OA
ATOM      5  H   UNL A   1      37.768  22.569  23.429  1.00  0.00     0.163 HD
BRANCH   3   6
ATOM      6  C   UNL A   1      34.512  22.243  24.172  1.00  0.00     0.098 C 
ATOM      7  C   UNL A   1      33.430  23.344  24.443  1.00  0.00     0.099 C 
ATOM      8  C   UNL A   1      32.534  22.825  25.619  1.00  0.00     0.025 C 
ATOM      9  C   UNL A   1      34.497  21.168  25.300  1.00  0.00     0.025 C 
ATOM     10  C   UNL A   1      32.103  21.395  25.339  1.00  0.00    -0.027 C 
ATOM     11  C   UNL A   1      33.416  22.840  26.873  1.00  0.00     0.009 C 
ATOM     12  C   UNL A   1      33.116  20.529  25.166  1.00  0.00    -0.027 C 
ATOM     13  C   UNL A   1      34.444  21.717  26.750  1.00  0.00     0.009 C 
BRANCH   7  14
ATOM     14  C   UNL A   1      32.537  23.699  23.233  1.00  0.00     0.229 C 
ATOM     15  N   UNL A   1      31.993  24.960  23.078  1.00  0.00    -0.317 N 
ATOM     16  H   UNL A   1      31.442  25.097  22.273  1.00  0.00     0.170 HD
ATOM     17  O   UNL A   1      32.194  22.854  22.403  1.00  0.00    -0.274 OA
BRANCH  15  18
ATOM     18  C   UNL A   1      32.127  26.050  23.914  1.00  0.00     0.110 A 
ATOM     19  C   UNL A   1      31.262  26.486  24.917  1.00  0.00     0.098 A 
ATOM     20  C   UNL A   1      32.010  27.322  25.801  1.00  0.00    -0.017 A 
ATOM     21  S   UNL A   1      33.485  27.097  23.747  1.00  0.00    -0.122 S 
ATOM     22  C   UNL A   1      33.244  27.634  25.304  1.00  0.00     0.011 A 
ATOM     23  C   UNL A   1      31.870  27.799  27.202  1.00  0.00     0.038 C 
ATOM     24  C   UNL A   1      34.147  28.300  26.263  1.00  0.00     0.047 C 
ATOM     25  C   UNL A   1      33.143  28.690  27.386  1.00  0.00     0.010 C 
BRANCH  19  26
ATOM     26  C   UNL A   1      29.924  25.992  25.134  1.00  0.00     0.341 C 
ATOM     27  O   UNL A   1      29.535  25.529  26.228  1.00  0.00    -0.246 OA
BRANCH  26  28
ATOM     28  O   UNL A   1      29.184  26.004  24.004  1.00  0.00    -0.462 OA
BRANCH  28  29
ATOM     29  C   UNL A   1      28.254  27.086  23.835  1.00  0.00     0.230 C 
ATOM     30  C   UNL A   1      28.828  28.208  22.984  1.00  0.00     0.049 C 
ENDBRANCH  28  29
ENDBRANCH  26  28
ENDBRANCH  19  26
ENDBRANCH  15  18
ENDBRANCH   7  14
ENDBRANCH   3   6
ENDBRANCH   1   2
BRANCH   1  31
ATOM     31  C   UNL A   1      38.298  20.758  25.412  1.00  0.00     0.042 C 
BRANCH  31  32
ATOM     32  C   UNL A   1      39.571  20.741  26.246  1.00  0.00     0.118 C 
BRANCH  32  33
ATOM     33  N   UNL A   1      40.450  19.599  25.967  1.00  0.00    -0.352 N 
ATOM     34  C   UNL A   1      41.840  19.588  25.940  1.00  0.00     0.251 C 
ATOM     35  H   UNL A   1      40.005  18.743  25.774  1.00  0.00     0.163 HD
ATOM     36  O   UNL A   1      42.468  18.672  25.441  1.00  0.00    -0.269 OA
BRANCH  34  37
ATOM     37  C   UNL A   1      42.523  20.754  26.529  1.00  0.00     0.039 A 
ATOM     38  C   UNL A   1      42.790  21.880  25.748  1.00  0.00     0.014 A 
ATOM     39  C   UNL A   1      42.603  20.796  27.914  1.00  0.00     0.014 A 
ATOM     40  C   UNL A   1      42.980  23.106  26.386  1.00  0.00     0.010 A 
ATOM     41  C   UNL A   1      42.630  22.032  28.523  1.00  0.00     0.010 A 
ATOM     42  C   UNL A   1      42.825  23.201  27.779  1.00  0.00    -0.014 A 
BRANCH  42  43
ATOM     43  C   UNL A   1      42.719  24.520  28.426  1.00  0.00     0.031 A 
ATOM     44  C   UNL A   1      41.456  25.300  28.209  1.00  0.00     0.074 A 
ATOM     45  C   UNL A   1      43.575  24.977  29.368  1.00  0.00     0.049 A 
ATOM     46  N   UNL A   1      41.327  26.434  27.599  1.00  0.00    -0.248 NA
ATOM     47  C   UNL A   1      40.183  24.737  28.682  1.00  0.00     0.031 C 
ATOM     48  C   UNL A   1      44.710  24.283  29.991  1.00  0.00     0.029 A 
ATOM     49  N   UNL A   1      43.503  26.134  30.088  1.00  0.00    -0.354 N 
ATOM     50  C   UNL A   1      40.003  26.836  27.787  1.00  0.00     0.074 A 
ATOM     51  C   UNL A   1      39.316  25.692  28.330  1.00  0.00     0.031 C 
ATOM     52  C   UNL A   1      45.010  24.878  31.164  1.00  0.00     0.029 A 
ATOM     53  C   UNL A   1      44.259  26.112  31.250  1.00  0.00     0.049 A 
ATOM     54  H   UNL A   1      42.966  26.911  29.807  1.00  0.00     0.167 HD
ATOM     55  C   UNL A   1      39.618  28.141  27.667  1.00  0.00     0.034 A 
ATOM     56  C   UNL A   1      44.276  27.040  32.230  1.00  0.00     0.034 A 
ATOM     57  C   UNL A   1      40.647  28.946  27.059  1.00  0.00     0.049 A 
ATOM     58  C   UNL A   1      43.830  28.314  31.631  1.00  0.00     0.074 A 
ATOM     59  C   UNL A   1      41.342  28.941  25.867  1.00  0.00     0.029 A 
ATOM     60  N   UNL A   1      41.340  29.792  27.890  1.00  0.00    -0.354 N 
ATOM     61  N   UNL A   1      44.500  28.953  30.712  1.00  0.00    -0.248 NA
ATOM     62  C   UNL A   1      42.450  28.729  31.803  1.00  0.00     0.031 C 
ATOM     63  C   UNL A   1      42.654  29.389  26.206  1.00  0.00     0.029 A 
ATOM     64  C   UNL A   1      42.665  29.671  27.575  1.00  0.00     0.049 A 
ATOM     65  H   UNL A   1      40.954  30.376  28.582  1.00  0.00     0.167 HD
ATOM     66  C   UNL A   1      43.525  29.515  29.901  1.00  0.00     0.074 A 
ATOM     67  C   UNL A   1      42.309  29.483  30.710  1.00  0.00     0.031 C 
ATOM     68  C   UNL A   1      43.728  29.678  28.559  1.00  0.00     0.034 A 
BRANCH  55  69
ATOM     69  C   UNL A   1      38.455  28.811  28.377  1.00  0.00     0.023 A 
ATOM     70  C   UNL A   1      37.532  29.531  27.576  1.00  0.00     0.012 A 
ATOM     71  C   UNL A   1      38.369  29.008  29.771  1.00  0.00     0.148 A 
ATOM     72  C   UNL A   1      36.622  30.442  28.127  1.00  0.00     0.002 A 
ATOM     73  C   UNL A   1      37.404  29.851  30.320  1.00  0.00     0.091 A 
ATOM     74  F   UNL A   1      39.301  28.493  30.578  1.00  0.00    -0.205 F 
ATOM     75  C   UNL A   1      36.552  30.597  29.502  1.00  0.00     0.022 A 
BRANCH  73  76
ATOM     76  S   UNL A   1      37.224  30.019  32.099  1.00  0.00     0.127 S 
ATOM     77  O   UNL A   1      35.994  30.796  32.199  1.00  0.00    -0.237 OA
ATOM     78  O   UNL A   1      37.111  28.625  32.530  1.00  0.00    -0.237 OA
ATOM     79  O   UNL A   1      38.450  30.676  32.537  1.00  0.00    -0.744 OA
ENDBRANCH  73  76
ENDBRANCH  55  69
BRANCH  56  80
ATOM     80  C   UNL A   1      44.523  26.867  33.674  1.00  0.00     0.023 A 
ATOM     81  C   UNL A   1      45.748  27.279  34.228  1.00  0.00     0.012 A 
ATOM     82  C   UNL A   1      43.464  26.537  34.550  1.00  0.00     0.148 A 
ATOM     83  C   UNL A   1      45.905  27.396  35.614  1.00  0.00     0.002 A 
ATOM     84  C   UNL A   1      43.628  26.648  35.928  1.00  0.00     0.091 A 
ATOM     85  F   UNL A   1      42.274  26.204  34.031  1.00  0.00    -0.205 F 
ATOM     86  C   UNL A   1      44.844  27.088  36.462  1.00  0.00     0.022 A 
BRANCH  84  87
ATOM     87  S   UNL A   1      42.293  26.284  37.075  1.00  0.00     0.127 S 
ATOM     88  O   UNL A   1      41.944  24.909  36.712  1.00  0.00    -0.237 OA
ATOM     89  O   UNL A   1      42.959  26.426  38.366  1.00  0.00    -0.237 OA
ATOM     90  O   UNL A   1      41.252  27.261  36.779  1.00  0.00    -0.744 OA
ENDBRANCH  84  87
ENDBRANCH  56  80
BRANCH  68  91
ATOM     91  C   UNL A   1      45.131  29.528  28.018  1.00  0.00     0.023 A 
ATOM     92  C   UNL A   1      46.074  30.573  28.095  1.00  0.00     0.012 A 
ATOM     93  C   UNL A   1      45.565  28.258  27.597  1.00  0.00     0.148 A 
ATOM     94  C   UNL A   1      47.409  30.367  27.737  1.00  0.00     0.002 A 
ATOM     95  C   UNL A   1      46.904  28.044  27.286  1.00  0.00     0.091 A 
ATOM     96  F   UNL A   1      44.662  27.265  27.535  1.00  0.00    -0.205 F 
ATOM     97  C   UNL A   1      47.827  29.100  27.345  1.00  0.00     0.022 A 
BRANCH  95  98
ATOM     98  S   UNL A   1      47.527  26.404  26.910  1.00  0.00     0.127 S 
ATOM     99  O   UNL A   1      46.947  26.148  25.593  1.00  0.00    -0.237 OA
ATOM    100  O   UNL A   1      48.977  26.605  26.909  1.00  0.00    -0.237 OA
ATOM    101  O   UNL A   1      47.051  25.544  27.987  1.00  0.00    -0.744 OA
ENDBRANCH  95  98
ENDBRANCH  68  91
ENDBRANCH  42  43
ENDBRANCH  34  37
ENDBRANCH  32  33
ENDBRANCH  31  32
ENDBRANCH   1  31
TORSDOF 18
ENDMDL
MODEL 2
REMARK VINA RESULT:     -12.2      3.627      9.119
REMARK SMILES CCOC(=O)c1c(NC(=O)[C@@H]2[C@@H](C(=O)NCCCNC(=O)c3ccc(-c4c5nc(c(-c6cccc(S(=O)(=O)[O-])c6F)c6ccc([nH]6)c(-c6cccc(S(=O)(=O)[O-])c6F)c6nc(c(-c7cccc(S(=O)(=O)[O-])c7F)c7ccc4[nH]7)C=C6)C=C5)cc3)[C@@H]3C=C[C@H]2CC3)sc2c1CCC2
REMARK SMILES IDX 16 1 15 2 13 3 14 4 12 6 11 7 88 8 85 9 87 10 89 11 86 12
REMARK SMILES IDX 90 13 9 14 8 15 10 17 7 18 6 19 93 20 91 21 92 22 94 23
REMARK SMILES IDX 96 24 95 25 4 26 5 27 3 28 2 29 1 30 17 31 18 32 19 33 20 34
REMARK SMILES IDX 21 36 22 37 23 38 84 39 24 40 83 41 25 42 26 43 27 44 77 45
REMARK SMILES IDX 28 46 82 47 76 48 78 49 29 50 81 51 75 52 74 53 30 55 62 56
REMARK SMILES IDX 42 57 61 58 43 59 46 60 60 61 79 62 44 63 45 64 59 66 80 67
REMARK SMILES IDX 47 68 31 69 32 70 40 71 33 72 35 73 41 74 34 75 36 76 37 77
REMARK SMILES IDX 38 78 39 79 63 80 64 81 72 82 65 83 67 84 73 85 66 86 68 87
REMARK SMILES IDX 69 88 70 89 71 90 48 91 49 92 57 93 50 94 52 95 58 96 51 97
REMARK SMILES IDX 53 98 54 99 55 100 56 101
REMARK H PARENT 15 5 8 16 19 35 78 54 46 65
REMARK Flexibility Score: inf
ROOT
ATOM      1  C   UNL A   1      31.765  29.880  27.011  1.00  0.00     0.117 C 
ENDROOT
BRANCH   1   2
ATOM      2  N   UNL A   1      32.555  28.666  27.042  1.00  0.00    -0.356 N 
ATOM      3  C   UNL A   1      32.591  27.561  26.266  1.00  0.00     0.224 C 
ATOM      4  O   UNL A   1      33.699  27.014  26.189  1.00  0.00    -0.275 OA
ATOM      5  H   UNL A   1      33.201  28.641  27.784  1.00  0.00     0.163 HD
BRANCH   3   6
ATOM      6  C   UNL A   1      31.424  26.951  25.494  1.00  0.00     0.098 C 
ATOM      7  C   UNL A   1      31.628  25.435  25.154  1.00  0.00     0.099 C 
ATOM      8  C   UNL A   1      30.881  25.165  23.803  1.00  0.00     0.025 C 
ATOM      9  C   UNL A   1      30.801  27.707  24.283  1.00  0.00     0.025 C 
ATOM     10  C   UNL A   1      29.476  25.742  23.873  1.00  0.00    -0.027 C 
ATOM     11  C   UNL A   1      31.668  25.909  22.718  1.00  0.00     0.009 C 
ATOM     12  C   UNL A   1      29.425  27.061  24.128  1.00  0.00    -0.027 C 
ATOM     13  C   UNL A   1      31.441  27.408  22.902  1.00  0.00     0.009 C 
BRANCH   7  14
ATOM     14  C   UNL A   1      31.122  24.447  26.228  1.00  0.00     0.229 C 
ATOM     15  N   UNL A   1      31.868  23.350  26.616  1.00  0.00    -0.317 N 
ATOM     16  H   UNL A   1      31.469  22.779  27.311  1.00  0.00     0.170 HD
ATOM     17  O   UNL A   1      29.994  24.537  26.721  1.00  0.00    -0.274 OA
BRANCH  15  18
ATOM     18  C   UNL A   1      33.105  22.958  26.145  1.00  0.00     0.110 A 
ATOM     19  C   UNL A   1      33.408  22.269  24.971  1.00  0.00     0.098 A 
ATOM     20  C   UNL A   1      34.786  22.505  24.674  1.00  0.00    -0.017 A 
ATOM     21  S   UNL A   1      34.518  23.276  27.079  1.00  0.00    -0.122 S 
ATOM     22  C   UNL A   1      35.444  23.115  25.704  1.00  0.00     0.011 A 
ATOM     23  C   UNL A   1      35.654  22.421  23.471  1.00  0.00     0.038 C 
ATOM     24  C   UNL A   1      36.803  23.590  25.376  1.00  0.00     0.047 C 
ATOM     25  C   UNL A   1      37.050  22.854  24.027  1.00  0.00     0.010 C 
BRANCH  19  26
ATOM     26  C   UNL A   1      32.445  21.631  24.109  1.00  0.00     0.341 C 
ATOM     27  O   UNL A   1      32.163  22.054  22.966  1.00  0.00    -0.246 OA
BRANCH  26  28
ATOM     28  O   UNL A   1      31.825  20.593  24.712  1.00  0.00    -0.462 OA
BRANCH  28  29
ATOM     29  C   UNL A   1      32.589  19.392  24.908  1.00  0.00     0.230 C 
ATOM     30  C   UNL A   1      32.589  18.504  23.672  1.00  0.00     0.049 C 
ENDBRANCH  28  29
ENDBRANCH  26  28
ENDBRANCH  19  26
ENDBRANCH  15  18
ENDBRANCH   7  14
ENDBRANCH   3   6
ENDBRANCH   1   2
BRANCH   1  31
ATOM     31  C   UNL A   1      32.538  31.104  26.503  1.00  0.00     0.042 C 
BRANCH  31  32
ATOM     32  C   UNL A   1      33.149  31.940  27.618  1.00  0.00     0.118 C 
BRANCH  32  33
ATOM     33  N   UNL A   1      32.612  33.304  27.704  1.00  0.00    -0.352 N 
ATOM     34  C   UNL A   1      33.031  34.327  28.546  1.00  0.00     0.251 C 
ATOM     35  H   UNL A   1      31.867  33.518  27.097  1.00  0.00     0.163 HD
ATOM     36  O   UNL A   1      32.358  35.324  28.733  1.00  0.00    -0.269 OA
BRANCH  34  37
ATOM     37  C   UNL A   1      34.327  34.138  29.223  1.00  0.00     0.039 A 
ATOM     38  C   UNL A   1      34.455  33.195  30.244  1.00  0.00     0.014 A 
ATOM     39  C   UNL A   1      35.438  34.699  28.610  1.00  0.00     0.014 A 
ATOM     40  C   UNL A   1      35.723  32.693  30.535  1.00  0.00     0.010 A 
ATOM     41  C   UNL A   1      36.657  34.082  28.791  1.00  0.00     0.010 A 
ATOM     42  C   UNL A   1      36.825  33.081  29.754  1.00  0.00    -0.014 A 
BRANCH  42  43
ATOM     43  C   UNL A   1      38.096  32.342  29.844  1.00  0.00     0.031 A 
ATOM     44  C   UNL A   1      38.144  30.969  29.241  1.00  0.00     0.074 A 
ATOM     45  C   UNL A   1      39.270  32.890  30.229  1.00  0.00     0.049 A 
ATOM     46  N   UNL A   1      38.325  29.845  29.859  1.00  0.00    -0.248 NA
ATOM     47  C   UNL A   1      37.921  30.817  27.796  1.00  0.00     0.031 C 
ATOM     48  C   UNL A   1      39.563  34.290  30.564  1.00  0.00     0.029 A 
ATOM     49  N   UNL A   1      40.508  32.315  30.251  1.00  0.00    -0.354 N 
ATOM     50  C   UNL A   1      38.449  28.866  28.869  1.00  0.00     0.074 A 
ATOM     51  C   UNL A   1      38.048  29.497  27.637  1.00  0.00     0.031 C 
ATOM     52  C   UNL A   1      40.889  34.510  30.449  1.00  0.00     0.029 A 
ATOM     53  C   UNL A   1      41.546  33.233  30.271  1.00  0.00     0.049 A 
ATOM     54  H   UNL A   1      40.648  31.340  30.252  1.00  0.00     0.167 HD
ATOM     55  C   UNL A   1      39.060  27.669  29.108  1.00  0.00     0.034 A 
ATOM     56  C   UNL A   1      42.866  32.976  30.150  1.00  0.00     0.034 A 
ATOM     57  C   UNL A   1      39.275  27.452  30.516  1.00  0.00     0.049 A 
ATOM     58  C   UNL A   1      43.075  31.574  30.563  1.00  0.00     0.074 A 
ATOM     59  C   UNL A   1      38.485  27.382  31.646  1.00  0.00     0.029 A 
ATOM     60  N   UNL A   1      40.563  27.586  30.972  1.00  0.00    -0.354 N 
ATOM     61  N   UNL A   1      42.878  31.142  31.779  1.00  0.00    -0.248 NA
ATOM     62  C   UNL A   1      43.184  30.547  29.543  1.00  0.00     0.031 C 
ATOM     63  C   UNL A   1      39.277  27.962  32.683  1.00  0.00     0.029 A 
ATOM     64  C   UNL A   1      40.510  28.315  32.127  1.00  0.00     0.049 A 
ATOM     65  H   UNL A   1      41.374  27.224  30.546  1.00  0.00     0.167 HD
ATOM     66  C   UNL A   1      42.392  29.854  31.612  1.00  0.00     0.074 A 
ATOM     67  C   UNL A   1      42.758  29.494  30.246  1.00  0.00     0.031 C 
ATOM     68  C   UNL A   1      41.488  29.320  32.489  1.00  0.00     0.034 A 
BRANCH  55  69
ATOM     69  C   UNL A   1      39.781  26.802  28.092  1.00  0.00     0.023 A 
ATOM     70  C   UNL A   1      39.507  25.411  28.111  1.00  0.00     0.012 A 
ATOM     71  C   UNL A   1      40.891  27.216  27.325  1.00  0.00     0.148 A 
ATOM     72  C   UNL A   1      40.327  24.481  27.461  1.00  0.00     0.002 A 
ATOM     73  C   UNL A   1      41.653  26.293  26.609  1.00  0.00     0.091 A 
ATOM     74  F   UNL A   1      41.310  28.483  27.384  1.00  0.00    -0.205 F 
ATOM     75  C   UNL A   1      41.398  24.923  26.701  1.00  0.00     0.022 A 
BRANCH  73  76
ATOM     76  S   UNL A   1      43.000  26.830  25.548  1.00  0.00     0.127 S 
ATOM     77  O   UNL A   1      43.948  27.361  26.521  1.00  0.00    -0.237 OA
ATOM     78  O   UNL A   1      43.405  25.579  24.907  1.00  0.00    -0.237 OA
ATOM     79  O   UNL A   1      42.393  27.792  24.635  1.00  0.00    -0.744 OA
ENDBRANCH  73  76
ENDBRANCH  55  69
BRANCH  56  80
ATOM     80  C   UNL A   1      43.932  33.819  29.576  1.00  0.00     0.023 A 
ATOM     81  C   UNL A   1      44.754  34.580  30.425  1.00  0.00     0.012 A 
ATOM     82  C   UNL A   1      44.308  33.679  28.221  1.00  0.00     0.148 A 
ATOM     83  C   UNL A   1      45.938  35.156  29.949  1.00  0.00     0.002 A 
ATOM     84  C   UNL A   1      45.483  34.258  27.752  1.00  0.00     0.091 A 
ATOM     85  F   UNL A   1      43.564  32.902  27.420  1.00  0.00    -0.205 F 
ATOM     86  C   UNL A   1      46.306  34.988  28.616  1.00  0.00     0.022 A 
BRANCH  84  87
ATOM     87  S   UNL A   1      46.022  34.064  26.048  1.00  0.00     0.127 S 
ATOM     88  O   UNL A   1      47.205  34.926  26.002  1.00  0.00    -0.237 OA
ATOM     89  O   UNL A   1      46.304  32.633  25.983  1.00  0.00    -0.237 OA
ATOM     90  O   UNL A   1      44.909  34.536  25.234  1.00  0.00    -0.744 OA
ENDBRANCH  84  87
ENDBRANCH  56  80
BRANCH  68  91
ATOM     91  C   UNL A   1      41.257  30.023  33.806  1.00  0.00     0.023 A 
ATOM     92  C   UNL A   1      42.130  29.860  34.901  1.00  0.00     0.012 A 
ATOM     93  C   UNL A   1      40.257  31.010  33.883  1.00  0.00     0.148 A 
ATOM     94  C   UNL A   1      41.993  30.637  36.054  1.00  0.00     0.002 A 
ATOM     95  C   UNL A   1      40.153  31.814  35.013  1.00  0.00     0.091 A 
ATOM     96  F   UNL A   1      39.435  31.166  32.832  1.00  0.00    -0.205 F 
ATOM     97  C   UNL A   1      41.014  31.624  36.105  1.00  0.00     0.022 A 
BRANCH  95  98
ATOM     98  S   UNL A   1      39.003  33.191  35.081  1.00  0.00     0.127 S 
ATOM     99  O   UNL A   1      39.450  34.021  33.964  1.00  0.00    -0.237 OA
ATOM    100  O   UNL A   1      37.710  32.538  34.876  1.00  0.00    -0.237 OA
ATOM    101  O   UNL A   1      39.166  33.775  36.406  1.00  0.00    -0.744 OA
ENDBRANCH  95  98
ENDBRANCH  68  91
ENDBRANCH  42  43
ENDBRANCH  34  37
ENDBRANCH  32  33
ENDBRANCH  31  32
ENDBRANCH   1  31
TORSDOF 18
ENDMDL
MODEL 3
REMARK VINA RESULT:     -11.6      2.284      6.258
REMARK SMILES CCOC(=O)c1c(NC(=O)[C@@H]2[C@@H](C(=O)NCCCNC(=O)c3ccc(-c4c5nc(c(-c6cccc(S(=O)(=O)[O-])c6F)c6ccc([nH]6)c(-c6cccc(S(=O)(=O)[O-])c6F)c6nc(c(-c7cccc(S(=O)(=O)[O-])c7F)c7ccc4[nH]7)C=C6)C=C5)cc3)[C@@H]3C=C[C@H]2CC3)sc2c1CCC2
REMARK SMILES IDX 16 1 15 2 13 3 14 4 12 6 11 7 88 8 85 9 87 10 89 11 86 12
REMARK SMILES IDX 90 13 9 14 8 15 10 17 7 18 6 19 93 20 91 21 92 22 94 23
REMARK SMILES IDX 96 24 95 25 4 26 5 27 3 28 2 29 1 30 17 31 18 32 19 33 20 34
REMARK SMILES IDX 21 36 22 37 23 38 84 39 24 40 83 41 25 42 26 43 27 44 77 45
REMARK SMILES IDX 28 46 82 47 76 48 78 49 29 50 81 51 75 52 74 53 30 55 62 56
REMARK SMILES IDX 42 57 61 58 43 59 46 60 60 61 79 62 44 63 45 64 59 66 80 67
REMARK SMILES IDX 47 68 31 69 32 70 40 71 33 72 35 73 41 74 34 75 36 76 37 77
REMARK SMILES IDX 38 78 39 79 63 80 64 81 72 82 65 83 67 84 73 85 66 86 68 87
REMARK SMILES IDX 69 88 70 89 71 90 48 91 49 92 57 93 50 94 52 95 58 96 51 97
REMARK SMILES IDX 53 98 54 99 55 100 56 101
REMARK H PARENT 15 5 8 16 19 35 78 54 46 65
REMARK Flexibility Score: inf
ROOT
ATOM      1  C   UNL A   1      37.827  22.742  25.608  1.00  0.00     0.117 C 
ENDROOT
BRANCH   1   2
ATOM      2  N   UNL A   1      37.362  22.693  24.237  1.00  0.00    -0.356 N 
ATOM      3  C   UNL A   1      36.136  22.710  23.671  1.00  0.00     0.224 C 
ATOM      4  O   UNL A   1      36.088  23.229  22.548  1.00  0.00    -0.275 OA
ATOM      5  H   UNL A   1      38.093  22.634  23.580  1.00  0.00     0.163 HD
BRANCH   3   6
ATOM      6  C   UNL A   1      34.843  22.171  24.278  1.00  0.00     0.098 C 
ATOM      7  C   UNL A   1      33.757  23.276  24.512  1.00  0.00     0.099 C 
ATOM      8  C   UNL A   1      32.919  22.835  25.760  1.00  0.00     0.025 C 
ATOM      9  C   UNL A   1      34.892  21.183  25.481  1.00  0.00     0.025 C 
ATOM     10  C   UNL A   1      32.498  21.383  25.605  1.00  0.00    -0.027 C 
ATOM     11  C   UNL A   1      33.851  22.954  26.971  1.00  0.00     0.009 C 
ATOM     12  C   UNL A   1      33.516  20.519  25.454  1.00  0.00    -0.027 C 
ATOM     13  C   UNL A   1      34.890  21.838  26.888  1.00  0.00     0.009 C 
BRANCH   7  14
ATOM     14  C   UNL A   1      32.809  23.529  23.318  1.00  0.00     0.229 C 
ATOM     15  N   UNL A   1      32.172  24.743  23.141  1.00  0.00    -0.317 N 
ATOM     16  H   UNL A   1      31.592  24.815  22.349  1.00  0.00     0.170 HD
ATOM     17  O   UNL A   1      32.506  22.635  22.523  1.00  0.00    -0.274 OA
BRANCH  15  18
ATOM     18  C   UNL A   1      32.250  25.865  23.941  1.00  0.00     0.110 A 
ATOM     19  C   UNL A   1      31.287  26.382  24.807  1.00  0.00     0.098 A 
ATOM     20  C   UNL A   1      31.956  27.229  25.743  1.00  0.00    -0.017 A 
ATOM     21  S   UNL A   1      33.664  26.848  23.903  1.00  0.00    -0.122 S 
ATOM     22  C   UNL A   1      33.255  27.468  25.393  1.00  0.00     0.011 A 
ATOM     23  C   UNL A   1      31.664  27.778  27.092  1.00  0.00     0.038 C 
ATOM     24  C   UNL A   1      34.060  28.144  26.429  1.00  0.00     0.047 C 
ATOM     25  C   UNL A   1      32.943  28.626  27.399  1.00  0.00     0.010 C 
BRANCH  19  26
ATOM     26  C   UNL A   1      29.912  25.952  24.874  1.00  0.00     0.341 C 
ATOM     27  O   UNL A   1      29.431  25.349  25.858  1.00  0.00    -0.246 OA
BRANCH  26  28
ATOM     28  O   UNL A   1      29.244  26.192  23.724  1.00  0.00    -0.462 OA
BRANCH  28  29
ATOM     29  C   UNL A   1      28.451  27.388  23.660  1.00  0.00     0.230 C 
ATOM     30  C   UNL A   1      29.106  28.466  22.809  1.00  0.00     0.049 C 
ENDBRANCH  28  29
ENDBRANCH  26  28
ENDBRANCH  19  26
ENDBRANCH  15  18
ENDBRANCH   7  14
ENDBRANCH   3   6
ENDBRANCH   1   2
BRANCH   1  31
ATOM     31  C   UNL A   1      38.545  21.463  26.060  1.00  0.00     0.042 C 
BRANCH  31  32
ATOM     32  C   UNL A   1      39.982  21.699  26.503  1.00  0.00     0.118 C 
BRANCH  32  33
ATOM     33  N   UNL A   1      40.880  20.567  26.244  1.00  0.00    -0.352 N 
ATOM     34  C   UNL A   1      42.230  20.616  25.920  1.00  0.00     0.251 C 
ATOM     35  H   UNL A   1      40.478  19.670  26.304  1.00  0.00     0.163 HD
ATOM     36  O   UNL A   1      42.819  19.651  25.464  1.00  0.00    -0.269 OA
BRANCH  34  37
ATOM     37  C   UNL A   1      42.917  21.902  26.135  1.00  0.00     0.039 A 
ATOM     38  C   UNL A   1      42.699  22.969  25.262  1.00  0.00     0.014 A 
ATOM     39  C   UNL A   1      43.523  22.086  27.370  1.00  0.00     0.014 A 
ATOM     40  C   UNL A   1      42.948  24.265  25.716  1.00  0.00     0.010 A 
ATOM     41  C   UNL A   1      43.611  23.371  27.862  1.00  0.00     0.010 A 
ATOM     42  C   UNL A   1      43.336  24.477  27.050  1.00  0.00    -0.014 A 
BRANCH  42  43
ATOM     43  C   UNL A   1      43.306  25.832  27.625  1.00  0.00     0.031 A 
ATOM     44  C   UNL A   1      44.404  26.776  27.234  1.00  0.00     0.074 A 
ATOM     45  C   UNL A   1      42.254  26.351  28.298  1.00  0.00     0.049 A 
ATOM     46  N   UNL A   1      45.309  27.292  28.003  1.00  0.00    -0.248 NA
ATOM     47  C   UNL A   1      44.546  27.157  25.821  1.00  0.00     0.031 C 
ATOM     48  C   UNL A   1      40.936  25.752  28.543  1.00  0.00     0.029 A 
ATOM     49  N   UNL A   1      42.099  27.618  28.780  1.00  0.00    -0.354 N 
ATOM     50  C   UNL A   1      46.005  28.222  27.227  1.00  0.00     0.074 A 
ATOM     51  C   UNL A   1      45.590  27.989  25.866  1.00  0.00     0.031 C 
ATOM     52  C   UNL A   1      40.048  26.725  28.832  1.00  0.00     0.029 A 
ATOM     53  C   UNL A   1      40.777  27.960  29.023  1.00  0.00     0.049 A 
ATOM     54  H   UNL A   1      42.854  28.230  28.939  1.00  0.00     0.167 HD
ATOM     55  C   UNL A   1      46.720  29.242  27.786  1.00  0.00     0.034 A 
ATOM     56  C   UNL A   1      40.298  29.176  29.360  1.00  0.00     0.034 A 
ATOM     57  C   UNL A   1      46.893  29.056  29.204  1.00  0.00     0.049 A 
ATOM     58  C   UNL A   1      41.409  29.926  29.979  1.00  0.00     0.074 A 
ATOM     59  C   UNL A   1      47.446  28.092  30.023  1.00  0.00     0.029 A 
ATOM     60  N   UNL A   1      46.139  29.855  30.027  1.00  0.00    -0.354 N 
ATOM     61  N   UNL A   1      41.966  29.589  31.109  1.00  0.00    -0.248 NA
ATOM     62  C   UNL A   1      42.152  30.878  29.174  1.00  0.00     0.031 C 
ATOM     63  C   UNL A   1      46.615  28.077  31.183  1.00  0.00     0.029 A 
ATOM     64  C   UNL A   1      45.630  29.054  31.012  1.00  0.00     0.049 A 
ATOM     65  H   UNL A   1      45.993  30.824  29.928  1.00  0.00     0.167 HD
ATOM     66  C   UNL A   1      43.303  29.922  30.948  1.00  0.00     0.074 A 
ATOM     67  C   UNL A   1      43.319  30.851  29.822  1.00  0.00     0.031 C 
ATOM     68  C   UNL A   1      44.291  29.191  31.547  1.00  0.00     0.034 A 
BRANCH  55  69
ATOM     69  C   UNL A   1      47.007  30.595  27.161  1.00  0.00     0.023 A 
ATOM     70  C   UNL A   1      48.329  31.096  27.271  1.00  0.00     0.012 A 
ATOM     71  C   UNL A   1      46.021  31.507  26.728  1.00  0.00     0.148 A 
ATOM     72  C   UNL A   1      48.638  32.440  27.030  1.00  0.00     0.002 A 
ATOM     73  C   UNL A   1      46.351  32.823  26.406  1.00  0.00     0.091 A 
ATOM     74  F   UNL A   1      44.731  31.158  26.751  1.00  0.00    -0.205 F 
ATOM     75  C   UNL A   1      47.649  33.305  26.588  1.00  0.00     0.022 A 
BRANCH  73  76
ATOM     76  S   UNL A   1      45.117  33.953  25.753  1.00  0.00     0.127 S 
ATOM     77  O   UNL A   1      45.936  35.103  25.386  1.00  0.00    -0.237 OA
ATOM     78  O   UNL A   1      44.572  33.197  24.625  1.00  0.00    -0.237 OA
ATOM     79  O   UNL A   1      44.172  34.146  26.847  1.00  0.00    -0.744 OA
ENDBRANCH  73  76
ENDBRANCH  55  69
BRANCH  56  80
ATOM     80  C   UNL A   1      38.983  29.776  29.062  1.00  0.00     0.023 A 
ATOM     81  C   UNL A   1      38.266  29.359  27.926  1.00  0.00     0.012 A 
ATOM     82  C   UNL A   1      38.318  30.566  30.026  1.00  0.00     0.148 A 
ATOM     83  C   UNL A   1      36.915  29.688  27.771  1.00  0.00     0.002 A 
ATOM     84  C   UNL A   1      36.975  30.895  29.864  1.00  0.00     0.091 A 
ATOM     85  F   UNL A   1      38.974  30.914  31.142  1.00  0.00    -0.205 F 
ATOM     86  C   UNL A   1      36.268  30.448  28.743  1.00  0.00     0.022 A 
BRANCH  84  87
ATOM     87  S   UNL A   1      36.079  31.857  31.090  1.00  0.00     0.127 S 
ATOM     88  O   UNL A   1      36.056  30.947  32.237  1.00  0.00    -0.237 OA
ATOM     89  O   UNL A   1      36.943  33.022  31.249  1.00  0.00    -0.237 OA
ATOM     90  O   UNL A   1      34.768  32.106  30.501  1.00  0.00    -0.744 OA
ENDBRANCH  84  87
ENDBRANCH  56  80
BRANCH  68  91
ATOM     91  C   UNL A   1      43.909  28.210  32.630  1.00  0.00     0.023 A 
ATOM     92  C   UNL A   1      43.915  26.817  32.410  1.00  0.00     0.012 A 
ATOM     93  C   UNL A   1      43.724  28.684  33.942  1.00  0.00     0.148 A 
ATOM     94  C   UNL A   1      43.715  25.920  33.461  1.00  0.00     0.002 A 
ATOM     95  C   UNL A   1      43.572  27.787  34.994  1.00  0.00     0.091 A 
ATOM     96  F   UNL A   1      43.728  30.011  34.146  1.00  0.00    -0.205 F 
ATOM     97  C   UNL A   1      43.557  26.403  34.756  1.00  0.00     0.022 A 
BRANCH  95  98
ATOM     98  S   UNL A   1      43.503  28.345  36.699  1.00  0.00     0.127 S 
ATOM     99  O   UNL A   1      44.749  29.098  36.827  1.00  0.00    -0.237 OA
ATOM    100  O   UNL A   1      42.290  29.164  36.718  1.00  0.00    -0.237 OA
ATOM    101  O   UNL A   1      43.411  27.135  37.507  1.00  0.00    -0.744 OA
ENDBRANCH  95  98
ENDBRANCH  68  91
ENDBRANCH  42  43
ENDBRANCH  34  37
ENDBRANCH  32  33
ENDBRANCH  31  32
ENDBRANCH   1  31
TORSDOF 18
ENDMDL
