MODEL 1
REMARK VINA RESULT:      -8.2      0.000      0.000
REMARK SMILES CCCCCCCNC(=O)Oc1cccc(-c2ccc([C@@H](C)C(=O)NCCCNC(=O)c3ccc(-c4c5nc(c(-c6cccc(S(=O)(=O)[O-])c6F)c6ccc([nH]6)c(-c6cccc(S(=O)(=O)[O-])c6F)c6nc(c(-c7cccc(S(=O)(=O)[O-])c7F)c7ccc4[nH]7)C=C6)C=C5)cc3)cc2F)c1
REMARK SMILES IDX 17 1 18 2 19 3 20 4 95 5 96 6 97 7 16 8 12 9 13 10 98 11
REMARK SMILES IDX 14 12 15 13 11 14 9 15 8 16 10 18 7 19 6 20 5 21 4 22 3 23
REMARK SMILES IDX 2 24 1 25 21 26 22 27 23 28 24 29 25 30 26 32 27 33 28 34
REMARK SMILES IDX 29 35 30 36 31 38 32 39 33 40 94 41 34 42 93 43 35 44 36 45
REMARK SMILES IDX 37 46 87 47 38 48 92 49 86 50 88 51 39 52 91 53 85 54 84 55
REMARK SMILES IDX 40 57 72 58 52 59 71 60 53 61 56 62 70 63 89 64 54 65 55 66
REMARK SMILES IDX 69 68 90 69 57 70 41 71 42 72 50 73 43 74 45 75 51 76 44 77
REMARK SMILES IDX 46 78 47 79 48 80 49 81 73 82 74 83 82 84 75 85 77 86 83 87
REMARK SMILES IDX 76 88 78 89 79 90 80 91 81 92 58 93 59 94 67 95 60 96 62 97
REMARK SMILES IDX 68 98 61 99 63 100 64 101 65 102 66 103
REMARK H PARENT 8 17 25 31 29 37 88 56 56 67
REMARK Flexibility Score: inf
ROOT
ATOM      1  C   UNL A   1      40.366  34.194  30.818  1.00  0.00     0.018 A 
ATOM      2  C   UNL A   1      40.469  34.307  32.214  1.00  0.00     0.012 A 
ATOM      3  C   UNL A   1      39.336  34.373  33.035  1.00  0.00     0.005 A 
ATOM      4  C   UNL A   1      38.051  34.412  32.493  1.00  0.00    -0.033 A 
ATOM      5  C   UNL A   1      37.934  34.275  31.103  1.00  0.00     0.044 A 
ATOM      6  C   UNL A   1      39.066  34.145  30.292  1.00  0.00     0.131 A 
ATOM      7  F   UNL A   1      38.863  33.971  28.977  1.00  0.00    -0.206 F 
ENDROOT
BRANCH   1   8
ATOM      8  C   UNL A   1      41.584  34.176  29.976  1.00  0.00    -0.012 A 
ATOM      9  C   UNL A   1      43.548  33.034  29.107  1.00  0.00     0.133 A 
ATOM     10  C   UNL A   1      43.820  34.080  28.235  1.00  0.00     0.047 A 
ATOM     11  C   UNL A   1      42.454  33.073  29.972  1.00  0.00     0.056 A 
ATOM     12  C   UNL A   1      42.983  35.188  28.230  1.00  0.00     0.004 A 
ATOM     13  C   UNL A   1      41.889  35.240  29.100  1.00  0.00     0.009 A 
BRANCH   9  14
ATOM     14  O   UNL A   1      44.485  31.995  29.164  1.00  0.00    -0.410 OA
BRANCH  14  15
ATOM     15  C   UNL A   1      44.037  30.695  28.999  1.00  0.00     0.412 C 
ATOM     16  N   UNL A   1      44.881  29.777  29.563  1.00  0.00    -0.321 N 
ATOM     17  H   UNL A   1      44.657  28.827  29.431  1.00  0.00     0.167 HD
ATOM     18  O   UNL A   1      43.003  30.340  28.449  1.00  0.00    -0.224 OA
BRANCH  16  19
ATOM     19  C   UNL A   1      46.072  30.067  30.335  1.00  0.00     0.119 C 
BRANCH  19  20
ATOM     20  C   UNL A   1      47.110  28.953  30.191  1.00  0.00     0.021 C 
BRANCH  20  21
ATOM     21  C   UNL A   1      46.875  28.017  28.998  1.00  0.00     0.002 C 
BRANCH  21  22
ATOM     22  C   UNL A   1      47.889  26.878  28.860  1.00  0.00     0.000 C 
BRANCH  22  23
ATOM     23  C   UNL A   1      48.130  26.396  27.426  1.00  0.00    -0.000 C 
BRANCH  23  24
ATOM     24  C   UNL A   1      49.184  27.184  26.644  1.00  0.00    -0.003 C 
ATOM     25  C   UNL A   1      50.583  26.599  26.763  1.00  0.00     0.004 C 
ENDBRANCH  23  24
ENDBRANCH  22  23
ENDBRANCH  21  22
ENDBRANCH  20  21
ENDBRANCH  19  20
ENDBRANCH  16  19
ENDBRANCH  14  15
ENDBRANCH   9  14
ENDBRANCH   1   8
BRANCH   4  26
ATOM     26  C   UNL A   1      36.806  34.626  33.336  1.00  0.00     0.105 C 
ATOM     27  C   UNL A   1      35.725  35.499  32.700  1.00  0.00     0.023 C 
BRANCH  26  28
ATOM     28  C   UNL A   1      36.277  33.346  34.001  1.00  0.00     0.227 C 
ATOM     29  O   UNL A   1      36.261  33.259  35.236  1.00  0.00    -0.274 OA
ATOM     30  N   UNL A   1      35.788  32.276  33.319  1.00  0.00    -0.356 N 
ATOM     31  H   UNL A   1      35.455  31.551  33.897  1.00  0.00     0.163 HD
BRANCH  30  32
ATOM     32  C   UNL A   1      35.663  32.000  31.901  1.00  0.00     0.117 C 
BRANCH  32  33
ATOM     33  C   UNL A   1      34.449  32.683  31.275  1.00  0.00     0.042 C 
BRANCH  33  34
ATOM     34  C   UNL A   1      34.714  33.271  29.895  1.00  0.00     0.118 C 
BRANCH  34  35
ATOM     35  N   UNL A   1      34.169  32.439  28.828  1.00  0.00    -0.352 N 
ATOM     36  C   UNL A   1      34.724  31.383  28.149  1.00  0.00     0.251 C 
ATOM     37  H   UNL A   1      33.256  32.675  28.548  1.00  0.00     0.163 HD
ATOM     38  O   UNL A   1      34.164  30.973  27.133  1.00  0.00    -0.269 OA
BRANCH  36  39
ATOM     39  C   UNL A   1      35.974  30.738  28.612  1.00  0.00     0.039 A 
ATOM     40  C   UNL A   1      37.199  31.320  28.266  1.00  0.00     0.014 A 
ATOM     41  C   UNL A   1      35.957  29.541  29.331  1.00  0.00     0.014 A 
ATOM     42  C   UNL A   1      38.396  30.732  28.685  1.00  0.00     0.010 A 
ATOM     43  C   UNL A   1      37.145  29.003  29.820  1.00  0.00     0.010 A 
ATOM     44  C   UNL A   1      38.379  29.581  29.491  1.00  0.00    -0.014 A 
BRANCH  44  45
ATOM     45  C   UNL A   1      39.636  28.972  29.998  1.00  0.00     0.031 A 
ATOM     46  C   UNL A   1      40.335  29.556  31.198  1.00  0.00     0.074 A 
ATOM     47  C   UNL A   1      40.198  27.949  29.324  1.00  0.00     0.049 A 
ATOM     48  N   UNL A   1      41.471  29.204  31.743  1.00  0.00    -0.248 NA
ATOM     49  C   UNL A   1      39.687  30.703  31.858  1.00  0.00     0.031 C 
ATOM     50  C   UNL A   1      39.663  27.352  28.098  1.00  0.00     0.029 A 
ATOM     51  N   UNL A   1      41.358  27.251  29.554  1.00  0.00    -0.354 N 
ATOM     52  C   UNL A   1      41.695  30.108  32.775  1.00  0.00     0.074 A 
ATOM     53  C   UNL A   1      40.591  31.041  32.767  1.00  0.00     0.031 C 
ATOM     54  C   UNL A   1      40.492  26.381  27.683  1.00  0.00     0.029 A 
ATOM     55  C   UNL A   1      41.631  26.305  28.593  1.00  0.00     0.049 A 
ATOM     56  H   UNL A   1      41.938  27.412  30.332  1.00  0.00     0.167 HD
ATOM     57  C   UNL A   1      42.715  30.142  33.666  1.00  0.00     0.034 A 
ATOM     58  C   UNL A   1      42.684  25.476  28.452  1.00  0.00     0.034 A 
ATOM     59  C   UNL A   1      43.784  29.181  33.703  1.00  0.00     0.049 A 
ATOM     60  C   UNL A   1      43.768  25.491  29.495  1.00  0.00     0.074 A 
ATOM     61  C   UNL A   1      44.808  29.070  34.626  1.00  0.00     0.029 A 
ATOM     62  N   UNL A   1      43.971  28.169  32.774  1.00  0.00    -0.354 N 
ATOM     63  N   UNL A   1      43.880  26.251  30.557  1.00  0.00    -0.248 NA
ATOM     64  C   UNL A   1      44.850  24.506  29.344  1.00  0.00     0.031 C 
ATOM     65  C   UNL A   1      45.629  28.005  34.242  1.00  0.00     0.029 A 
ATOM     66  C   UNL A   1      45.097  27.433  33.097  1.00  0.00     0.049 A 
ATOM     67  H   UNL A   1      43.388  27.998  32.000  1.00  0.00     0.167 HD
ATOM     68  C   UNL A   1      45.025  25.820  31.217  1.00  0.00     0.074 A 
ATOM     69  C   UNL A   1      45.558  24.715  30.447  1.00  0.00     0.031 C 
ATOM     70  C   UNL A   1      45.591  26.304  32.350  1.00  0.00     0.034 A 
BRANCH  57  71
ATOM     71  C   UNL A   1      42.699  31.222  34.717  1.00  0.00     0.023 A 
ATOM     72  C   UNL A   1      42.263  30.917  36.022  1.00  0.00     0.012 A 
ATOM     73  C   UNL A   1      43.191  32.512  34.438  1.00  0.00     0.148 A 
ATOM     74  C   UNL A   1      42.289  31.884  37.026  1.00  0.00     0.002 A 
ATOM     75  C   UNL A   1      43.255  33.459  35.454  1.00  0.00     0.091 A 
ATOM     76  F   UNL A   1      43.585  32.789  33.187  1.00  0.00    -0.205 F 
ATOM     77  C   UNL A   1      42.794  33.150  36.744  1.00  0.00     0.022 A 
BRANCH  75  78
ATOM     78  S   UNL A   1      43.966  35.092  35.220  1.00  0.00     0.127 S 
ATOM     79  O   UNL A   1      42.954  35.737  34.384  1.00  0.00    -0.237 OA
ATOM     80  O   UNL A   1      44.035  35.596  36.591  1.00  0.00    -0.237 OA
ATOM     81  O   UNL A   1      45.258  34.883  34.582  1.00  0.00    -0.744 OA
ENDBRANCH  75  78
ENDBRANCH  57  71
BRANCH  58  82
ATOM     82  C   UNL A   1      42.721  24.517  27.310  1.00  0.00     0.023 A 
ATOM     83  C   UNL A   1      43.379  24.883  26.122  1.00  0.00     0.012 A 
ATOM     84  C   UNL A   1      42.156  23.229  27.415  1.00  0.00     0.148 A 
ATOM     85  C   UNL A   1      43.451  23.998  25.046  1.00  0.00     0.002 A 
ATOM     86  C   UNL A   1      42.278  22.333  26.360  1.00  0.00     0.091 A 
ATOM     87  F   UNL A   1      41.534  22.900  28.556  1.00  0.00    -0.205 F 
ATOM     88  C   UNL A   1      42.909  22.720  25.168  1.00  0.00     0.022 A 
BRANCH  86  89
ATOM     89  S   UNL A   1      41.721  20.627  26.462  1.00  0.00     0.127 S 
ATOM     90  O   UNL A   1      40.272  20.776  26.345  1.00  0.00    -0.237 OA
ATOM     91  O   UNL A   1      42.373  20.026  25.298  1.00  0.00    -0.237 OA
ATOM     92  O   UNL A   1      42.192  20.125  27.744  1.00  0.00    -0.744 OA
ENDBRANCH  86  89
ENDBRANCH  58  82
BRANCH  70  93
ATOM     93  C   UNL A   1      46.840  25.630  32.854  1.00  0.00     0.023 A 
ATOM     94  C   UNL A   1      48.105  26.116  32.466  1.00  0.00     0.012 A 
ATOM     95  C   UNL A   1      46.760  24.572  33.782  1.00  0.00     0.148 A 
ATOM     96  C   UNL A   1      49.269  25.538  32.968  1.00  0.00     0.002 A 
ATOM     97  C   UNL A   1      47.924  24.035  34.315  1.00  0.00     0.091 A 
ATOM     98  F   UNL A   1      45.547  24.113  34.126  1.00  0.00    -0.205 F 
ATOM     99  C   UNL A   1      49.180  24.508  33.901  1.00  0.00     0.022 A 
BRANCH  97 100
ATOM    100  S   UNL A   1      47.904  22.772  35.593  1.00  0.00     0.127 S 
ATOM    101  O   UNL A   1      49.329  22.609  35.874  1.00  0.00    -0.237 OA
ATOM    102  O   UNL A   1      47.142  23.421  36.661  1.00  0.00    -0.237 OA
ATOM    103  O   UNL A   1      47.247  21.613  35.002  1.00  0.00    -0.744 OA
ENDBRANCH  97 100
ENDBRANCH  70  93
ENDBRANCH  44  45
ENDBRANCH  36  39
ENDBRANCH  34  35
ENDBRANCH  33  34
ENDBRANCH  32  33
ENDBRANCH  30  32
ENDBRANCH  26  28
ENDBRANCH   4  26
TORSDOF 23
ENDMDL
MODEL 2
REMARK VINA RESULT:      -8.1      3.103     10.306
REMARK SMILES CCCCCCCNC(=O)Oc1cccc(-c2ccc([C@@H](C)C(=O)NCCCNC(=O)c3ccc(-c4c5nc(c(-c6cccc(S(=O)(=O)[O-])c6F)c6ccc([nH]6)c(-c6cccc(S(=O)(=O)[O-])c6F)c6nc(c(-c7cccc(S(=O)(=O)[O-])c7F)c7ccc4[nH]7)C=C6)C=C5)cc3)cc2F)c1
REMARK SMILES IDX 17 1 18 2 19 3 20 4 95 5 96 6 97 7 16 8 12 9 13 10 98 11
REMARK SMILES IDX 14 12 15 13 11 14 9 15 8 16 10 18 7 19 6 20 5 21 4 22 3 23
REMARK SMILES IDX 2 24 1 25 21 26 22 27 23 28 24 29 25 30 26 32 27 33 28 34
REMARK SMILES IDX 29 35 30 36 31 38 32 39 33 40 94 41 34 42 93 43 35 44 36 45
REMARK SMILES IDX 37 46 87 47 38 48 92 49 86 50 88 51 39 52 91 53 85 54 84 55
REMARK SMILES IDX 40 57 72 58 52 59 71 60 53 61 56 62 70 63 89 64 54 65 55 66
REMARK SMILES IDX 69 68 90 69 57 70 41 71 42 72 50 73 43 74 45 75 51 76 44 77
REMARK SMILES IDX 46 78 47 79 48 80 49 81 73 82 74 83 82 84 75 85 77 86 83 87
REMARK SMILES IDX 76 88 78 89 79 90 80 91 81 92 58 93 59 94 67 95 60 96 62 97
REMARK SMILES IDX 68 98 61 99 63 100 64 101 65 102 66 103
REMARK H PARENT 8 17 25 31 29 37 88 56 56 67
REMARK Flexibility Score: inf
ROOT
ATOM      1  C   UNL A   1      41.111  25.232  27.814  1.00  0.00     0.018 A 
ATOM      2  C   UNL A   1      42.273  24.693  28.388  1.00  0.00     0.012 A 
ATOM      3  C   UNL A   1      42.672  23.372  28.148  1.00  0.00     0.005 A 
ATOM      4  C   UNL A   1      41.884  22.506  27.389  1.00  0.00    -0.033 A 
ATOM      5  C   UNL A   1      40.734  23.038  26.790  1.00  0.00     0.044 A 
ATOM      6  C   UNL A   1      40.374  24.376  26.982  1.00  0.00     0.131 A 
ATOM      7  F   UNL A   1      39.284  24.817  26.334  1.00  0.00    -0.206 F 
ENDROOT
BRANCH   1   8
ATOM      8  C   UNL A   1      40.693  26.617  28.130  1.00  0.00    -0.012 A 
ATOM      9  C   UNL A   1      40.440  28.451  29.708  1.00  0.00     0.133 A 
ATOM     10  C   UNL A   1      40.054  29.321  28.696  1.00  0.00     0.047 A 
ATOM     11  C   UNL A   1      40.752  27.117  29.442  1.00  0.00     0.056 A 
ATOM     12  C   UNL A   1      39.975  28.847  27.394  1.00  0.00     0.004 A 
ATOM     13  C   UNL A   1      40.276  27.509  27.118  1.00  0.00     0.009 A 
BRANCH   9  14
ATOM     14  O   UNL A   1      40.388  28.938  31.019  1.00  0.00    -0.410 OA
BRANCH  14  15
ATOM     15  C   UNL A   1      39.309  28.584  31.811  1.00  0.00     0.412 C 
ATOM     16  N   UNL A   1      38.567  29.668  32.197  1.00  0.00    -0.321 N 
ATOM     17  H   UNL A   1      37.817  29.497  32.813  1.00  0.00     0.167 HD
ATOM     18  O   UNL A   1      38.981  27.451  32.141  1.00  0.00    -0.224 OA
BRANCH  16  19
ATOM     19  C   UNL A   1      38.778  31.041  31.788  1.00  0.00     0.119 C 
BRANCH  19  20
ATOM     20  C   UNL A   1      37.798  31.448  30.687  1.00  0.00     0.021 C 
BRANCH  20  21
ATOM     21  C   UNL A   1      36.449  30.720  30.738  1.00  0.00     0.002 C 
BRANCH  21  22
ATOM     22  C   UNL A   1      36.334  29.505  29.813  1.00  0.00     0.000 C 
BRANCH  22  23
ATOM     23  C   UNL A   1      36.290  29.832  28.317  1.00  0.00    -0.000 C 
BRANCH  23  24
ATOM     24  C   UNL A   1      35.130  30.733  27.883  1.00  0.00    -0.003 C 
ATOM     25  C   UNL A   1      34.200  30.074  26.876  1.00  0.00     0.004 C 
ENDBRANCH  23  24
ENDBRANCH  22  23
ENDBRANCH  21  22
ENDBRANCH  20  21
ENDBRANCH  19  20
ENDBRANCH  16  19
ENDBRANCH  14  15
ENDBRANCH   9  14
ENDBRANCH   1   8
BRANCH   4  26
ATOM     26  C   UNL A   1      42.205  21.031  27.222  1.00  0.00     0.105 C 
ATOM     27  C   UNL A   1      41.203  20.065  27.852  1.00  0.00     0.023 C 
BRANCH  26  28
ATOM     28  C   UNL A   1      42.648  20.647  25.801  1.00  0.00     0.227 C 
ATOM     29  O   UNL A   1      42.235  19.597  25.293  1.00  0.00    -0.274 OA
ATOM     30  N   UNL A   1      43.467  21.407  25.025  1.00  0.00    -0.356 N 
ATOM     31  H   UNL A   1      43.623  21.036  24.126  1.00  0.00     0.163 HD
BRANCH  30  32
ATOM     32  C   UNL A   1      44.152  22.661  25.270  1.00  0.00     0.117 C 
BRANCH  32  33
ATOM     33  C   UNL A   1      45.671  22.523  25.197  1.00  0.00     0.042 C 
BRANCH  33  34
ATOM     34  C   UNL A   1      46.427  23.616  25.941  1.00  0.00     0.118 C 
BRANCH  34  35
ATOM     35  N   UNL A   1      46.958  24.631  25.039  1.00  0.00    -0.352 N 
ATOM     36  C   UNL A   1      46.735  25.985  24.988  1.00  0.00     0.251 C 
ATOM     37  H   UNL A   1      47.576  24.290  24.354  1.00  0.00     0.163 HD
ATOM     38  O   UNL A   1      47.117  26.611  24.001  1.00  0.00    -0.269 OA
BRANCH  36  39
ATOM     39  C   UNL A   1      46.045  26.696  26.089  1.00  0.00     0.039 A 
ATOM     40  C   UNL A   1      46.809  27.196  27.150  1.00  0.00     0.014 A 
ATOM     41  C   UNL A   1      44.655  26.826  26.117  1.00  0.00     0.014 A 
ATOM     42  C   UNL A   1      46.184  27.867  28.206  1.00  0.00     0.010 A 
ATOM     43  C   UNL A   1      44.043  27.568  27.125  1.00  0.00     0.010 A 
ATOM     44  C   UNL A   1      44.796  28.084  28.188  1.00  0.00    -0.014 A 
BRANCH  44  45
ATOM     45  C   UNL A   1      44.118  28.846  29.270  1.00  0.00     0.031 A 
ATOM     46  C   UNL A   1      43.821  30.313  29.096  1.00  0.00     0.074 A 
ATOM     47  C   UNL A   1      43.852  28.240  30.443  1.00  0.00     0.049 A 
ATOM     48  N   UNL A   1      43.299  31.155  29.949  1.00  0.00    -0.248 NA
ATOM     49  C   UNL A   1      44.181  30.921  27.803  1.00  0.00     0.031 C 
ATOM     50  C   UNL A   1      44.171  26.847  30.765  1.00  0.00     0.029 A 
ATOM     51  N   UNL A   1      43.282  28.724  31.595  1.00  0.00    -0.354 N 
ATOM     52  C   UNL A   1      43.309  32.393  29.318  1.00  0.00     0.074 A 
ATOM     53  C   UNL A   1      43.912  32.201  28.018  1.00  0.00     0.031 C 
ATOM     54  C   UNL A   1      43.795  26.589  32.028  1.00  0.00     0.029 A 
ATOM     55  C   UNL A   1      43.237  27.803  32.616  1.00  0.00     0.049 A 
ATOM     56  H   UNL A   1      42.938  29.641  31.681  1.00  0.00     0.167 HD
ATOM     57  C   UNL A   1      42.835  33.580  29.769  1.00  0.00     0.034 A 
ATOM     58  C   UNL A   1      42.806  27.923  33.887  1.00  0.00     0.034 A 
ATOM     59  C   UNL A   1      42.189  33.756  31.042  1.00  0.00     0.049 A 
ATOM     60  C   UNL A   1      42.222  29.233  34.339  1.00  0.00     0.074 A 
ATOM     61  C   UNL A   1      41.586  34.894  31.549  1.00  0.00     0.029 A 
ATOM     62  N   UNL A   1      42.066  32.773  32.011  1.00  0.00    -0.354 N 
ATOM     63  N   UNL A   1      42.096  30.354  33.670  1.00  0.00    -0.248 NA
ATOM     64  C   UNL A   1      41.684  29.287  35.707  1.00  0.00     0.031 C 
ATOM     65  C   UNL A   1      41.120  34.604  32.835  1.00  0.00     0.029 A 
ATOM     66  C   UNL A   1      41.404  33.277  33.116  1.00  0.00     0.049 A 
ATOM     67  H   UNL A   1      42.400  31.850  31.925  1.00  0.00     0.167 HD
ATOM     68  C   UNL A   1      41.439  31.236  34.520  1.00  0.00     0.074 A 
ATOM     69  C   UNL A   1      41.173  30.511  35.746  1.00  0.00     0.031 C 
ATOM     70  C   UNL A   1      41.100  32.532  34.311  1.00  0.00     0.034 A 
BRANCH  57  71
ATOM     71  C   UNL A   1      42.943  34.776  28.860  1.00  0.00     0.023 A 
ATOM     72  C   UNL A   1      41.826  35.174  28.097  1.00  0.00     0.012 A 
ATOM     73  C   UNL A   1      44.117  35.553  28.821  1.00  0.00     0.148 A 
ATOM     74  C   UNL A   1      41.883  36.307  27.288  1.00  0.00     0.002 A 
ATOM     75  C   UNL A   1      44.153  36.708  28.046  1.00  0.00     0.091 A 
ATOM     76  F   UNL A   1      45.175  35.150  29.539  1.00  0.00    -0.205 F 
ATOM     77  C   UNL A   1      43.042  37.079  27.271  1.00  0.00     0.022 A 
BRANCH  75  78
ATOM     78  S   UNL A   1      45.565  37.818  28.018  1.00  0.00     0.127 S 
ATOM     79  O   UNL A   1      45.218  38.709  26.912  1.00  0.00    -0.237 OA
ATOM     80  O   UNL A   1      45.497  38.435  29.342  1.00  0.00    -0.237 OA
ATOM     81  O   UNL A   1      46.735  36.978  27.797  1.00  0.00    -0.744 OA
ENDBRANCH  75  78
ENDBRANCH  57  71
BRANCH  58  82
ATOM     82  C   UNL A   1      42.849  26.741  34.796  1.00  0.00     0.023 A 
ATOM     83  C   UNL A   1      41.691  25.959  34.968  1.00  0.00     0.012 A 
ATOM     84  C   UNL A   1      44.040  26.358  35.447  1.00  0.00     0.148 A 
ATOM     85  C   UNL A   1      41.707  24.835  35.794  1.00  0.00     0.002 A 
ATOM     86  C   UNL A   1      44.064  25.206  36.225  1.00  0.00     0.091 A 
ATOM     87  F   UNL A   1      45.131  27.116  35.270  1.00  0.00    -0.205 F 
ATOM     88  C   UNL A   1      42.895  24.453  36.414  1.00  0.00     0.022 A 
BRANCH  86  89
ATOM     89  S   UNL A   1      45.568  24.564  36.968  1.00  0.00     0.127 S 
ATOM     90  O   UNL A   1      46.441  24.418  35.805  1.00  0.00    -0.237 OA
ATOM     91  O   UNL A   1      45.939  25.645  37.882  1.00  0.00    -0.237 OA
ATOM     92  O   UNL A   1      45.194  23.320  37.624  1.00  0.00    -0.744 OA
ENDBRANCH  86  89
ENDBRANCH  58  82
BRANCH  70  93
ATOM     93  C   UNL A   1      40.376  33.255  35.415  1.00  0.00     0.023 A 
ATOM     94  C   UNL A   1      38.971  33.176  35.503  1.00  0.00     0.012 A 
ATOM     95  C   UNL A   1      41.094  33.940  36.417  1.00  0.00     0.148 A 
ATOM     96  C   UNL A   1      38.292  33.794  36.551  1.00  0.00     0.002 A 
ATOM     97  C   UNL A   1      40.412  34.510  37.484  1.00  0.00     0.091 A 
ATOM     98  F   UNL A   1      42.428  34.018  36.307  1.00  0.00    -0.205 F 
ATOM     99  C   UNL A   1      39.011  34.449  37.547  1.00  0.00     0.022 A 
BRANCH  97 100
ATOM    100  S   UNL A   1      41.262  35.290  38.862  1.00  0.00     0.127 S 
ATOM    101  O   UNL A   1      40.144  35.693  39.713  1.00  0.00    -0.237 OA
ATOM    102  O   UNL A   1      42.068  34.190  39.394  1.00  0.00    -0.237 OA
ATOM    103  O   UNL A   1      42.038  36.383  38.289  1.00  0.00    -0.744 OA
ENDBRANCH  97 100
ENDBRANCH  70  93
ENDBRANCH  44  45
ENDBRANCH  36  39
ENDBRANCH  34  35
ENDBRANCH  33  34
ENDBRANCH  32  33
ENDBRANCH  30  32
ENDBRANCH  26  28
ENDBRANCH   4  26
TORSDOF 23
ENDMDL
MODEL 3
REMARK VINA RESULT:      -7.9      3.052      8.621
REMARK SMILES CCCCCCCNC(=O)Oc1cccc(-c2ccc([C@@H](C)C(=O)NCCCNC(=O)c3ccc(-c4c5nc(c(-c6cccc(S(=O)(=O)[O-])c6F)c6ccc([nH]6)c(-c6cccc(S(=O)(=O)[O-])c6F)c6nc(c(-c7cccc(S(=O)(=O)[O-])c7F)c7ccc4[nH]7)C=C6)C=C5)cc3)cc2F)c1
REMARK SMILES IDX 17 1 18 2 19 3 20 4 95 5 96 6 97 7 16 8 12 9 13 10 98 11
REMARK SMILES IDX 14 12 15 13 11 14 9 15 8 16 10 18 7 19 6 20 5 21 4 22 3 23
REMARK SMILES IDX 2 24 1 25 21 26 22 27 23 28 24 29 25 30 26 32 27 33 28 34
REMARK SMILES IDX 29 35 30 36 31 38 32 39 33 40 94 41 34 42 93 43 35 44 36 45
REMARK SMILES IDX 37 46 87 47 38 48 92 49 86 50 88 51 39 52 91 53 85 54 84 55
REMARK SMILES IDX 40 57 72 58 52 59 71 60 53 61 56 62 70 63 89 64 54 65 55 66
REMARK SMILES IDX 69 68 90 69 57 70 41 71 42 72 50 73 43 74 45 75 51 76 44 77
REMARK SMILES IDX 46 78 47 79 48 80 49 81 73 82 74 83 82 84 75 85 77 86 83 87
REMARK SMILES IDX 76 88 78 89 79 90 80 91 81 92 58 93 59 94 67 95 60 96 62 97
REMARK SMILES IDX 68 98 61 99 63 100 64 101 65 102 66 103
REMARK H PARENT 8 17 25 31 29 37 88 56 56 67
REMARK Flexibility Score: inf
ROOT
ATOM      1  C   UNL A   1      39.014  29.709  28.630  1.00  0.00     0.018 A 
ATOM      2  C   UNL A   1      39.621  30.515  29.607  1.00  0.00     0.012 A 
ATOM      3  C   UNL A   1      39.049  31.721  30.030  1.00  0.00     0.005 A 
ATOM      4  C   UNL A   1      37.887  32.217  29.438  1.00  0.00    -0.033 A 
ATOM      5  C   UNL A   1      37.258  31.411  28.478  1.00  0.00     0.044 A 
ATOM      6  C   UNL A   1      37.800  30.177  28.105  1.00  0.00     0.131 A 
ATOM      7  F   UNL A   1      37.110  29.448  27.215  1.00  0.00    -0.206 F 
ENDROOT
BRANCH   1   8
ATOM      8  C   UNL A   1      39.673  28.465  28.171  1.00  0.00    -0.012 A 
ATOM      9  C   UNL A   1      41.618  27.285  27.311  1.00  0.00     0.133 A 
ATOM     10  C   UNL A   1      40.986  26.057  27.456  1.00  0.00     0.047 A 
ATOM     11  C   UNL A   1      40.979  28.477  27.655  1.00  0.00     0.056 A 
ATOM     12  C   UNL A   1      39.690  26.019  27.950  1.00  0.00     0.004 A 
ATOM     13  C   UNL A   1      39.038  27.210  28.290  1.00  0.00     0.009 A 
BRANCH   9  14
ATOM     14  O   UNL A   1      42.875  27.284  26.695  1.00  0.00    -0.410 OA
BRANCH  14  15
ATOM     15  C   UNL A   1      42.932  27.331  25.313  1.00  0.00     0.412 C 
ATOM     16  N   UNL A   1      43.632  26.281  24.784  1.00  0.00    -0.321 N 
ATOM     17  H   UNL A   1      43.765  26.281  23.808  1.00  0.00     0.167 HD
ATOM     18  O   UNL A   1      42.412  28.167  24.585  1.00  0.00    -0.224 OA
BRANCH  16  19
ATOM     19  C   UNL A   1      44.198  25.169  25.519  1.00  0.00     0.119 C 
BRANCH  19  20
ATOM     20  C   UNL A   1      44.260  23.908  24.657  1.00  0.00     0.021 C 
BRANCH  20  21
ATOM     21  C   UNL A   1      43.298  22.795  25.090  1.00  0.00     0.002 C 
BRANCH  21  22
ATOM     22  C   UNL A   1      42.710  22.959  26.495  1.00  0.00     0.000 C 
BRANCH  22  23
ATOM     23  C   UNL A   1      42.417  21.648  27.232  1.00  0.00    -0.000 C 
BRANCH  23  24
ATOM     24  C   UNL A   1      42.180  20.435  26.328  1.00  0.00    -0.003 C 
ATOM     25  C   UNL A   1      40.746  19.930  26.364  1.00  0.00     0.004 C 
ENDBRANCH  23  24
ENDBRANCH  22  23
ENDBRANCH  21  22
ENDBRANCH  20  21
ENDBRANCH  19  20
ENDBRANCH  16  19
ENDBRANCH  14  15
ENDBRANCH   9  14
ENDBRANCH   1   8
BRANCH   4  26
ATOM     26  C   UNL A   1      37.313  33.585  29.765  1.00  0.00     0.105 C 
ATOM     27  C   UNL A   1      35.804  33.726  29.570  1.00  0.00     0.023 C 
BRANCH  26  28
ATOM     28  C   UNL A   1      37.842  34.184  31.077  1.00  0.00     0.227 C 
ATOM     29  O   UNL A   1      38.824  34.937  31.054  1.00  0.00    -0.274 OA
ATOM     30  N   UNL A   1      37.285  33.964  32.298  1.00  0.00    -0.356 N 
ATOM     31  H   UNL A   1      37.724  34.452  33.032  1.00  0.00     0.163 HD
BRANCH  30  32
ATOM     32  C   UNL A   1      36.166  33.146  32.723  1.00  0.00     0.117 C 
BRANCH  32  33
ATOM     33  C   UNL A   1      35.781  33.390  34.180  1.00  0.00     0.042 C 
BRANCH  33  34
ATOM     34  C   UNL A   1      36.932  33.876  35.052  1.00  0.00     0.118 C 
BRANCH  34  35
ATOM     35  N   UNL A   1      37.103  33.057  36.246  1.00  0.00    -0.352 N 
ATOM     36  C   UNL A   1      37.906  31.967  36.473  1.00  0.00     0.251 C 
ATOM     37  H   UNL A   1      36.551  33.329  37.014  1.00  0.00     0.163 HD
ATOM     38  O   UNL A   1      37.722  31.297  37.488  1.00  0.00    -0.269 OA
BRANCH  36  39
ATOM     39  C   UNL A   1      38.977  31.586  35.524  1.00  0.00     0.039 A 
ATOM     40  C   UNL A   1      38.633  30.861  34.377  1.00  0.00     0.014 A 
ATOM     41  C   UNL A   1      40.318  31.884  35.776  1.00  0.00     0.014 A 
ATOM     42  C   UNL A   1      39.624  30.484  33.465  1.00  0.00     0.010 A 
ATOM     43  C   UNL A   1      41.291  31.582  34.826  1.00  0.00     0.010 A 
ATOM     44  C   UNL A   1      40.960  30.866  33.668  1.00  0.00    -0.014 A 
BRANCH  44  45
ATOM     45  C   UNL A   1      42.020  30.528  32.682  1.00  0.00     0.031 A 
ATOM     46  C   UNL A   1      42.745  29.210  32.767  1.00  0.00     0.074 A 
ATOM     47  C   UNL A   1      42.392  31.444  31.766  1.00  0.00     0.049 A 
ATOM     48  N   UNL A   1      43.739  28.768  32.041  1.00  0.00    -0.248 NA
ATOM     49  C   UNL A   1      42.316  28.276  33.822  1.00  0.00     0.031 C 
ATOM     50  C   UNL A   1      41.825  32.788  31.639  1.00  0.00     0.029 A 
ATOM     51  N   UNL A   1      43.356  31.396  30.790  1.00  0.00    -0.354 N 
ATOM     52  C   UNL A   1      44.082  27.532  32.576  1.00  0.00     0.074 A 
ATOM     53  C   UNL A   1      43.208  27.302  33.704  1.00  0.00     0.031 C 
ATOM     54  C   UNL A   1      42.452  33.438  30.645  1.00  0.00     0.029 A 
ATOM     55  C   UNL A   1      43.484  32.571  30.084  1.00  0.00     0.049 A 
ATOM     56  H   UNL A   1      43.903  30.598  30.611  1.00  0.00     0.167 HD
ATOM     57  C   UNL A   1      45.023  26.654  32.151  1.00  0.00     0.034 A 
ATOM     58  C   UNL A   1      44.341  32.916  29.104  1.00  0.00     0.034 A 
ATOM     59  C   UNL A   1      45.855  26.864  30.997  1.00  0.00     0.049 A 
ATOM     60  C   UNL A   1      45.330  31.898  28.606  1.00  0.00     0.074 A 
ATOM     61  C   UNL A   1      46.767  25.994  30.426  1.00  0.00     0.029 A 
ATOM     62  N   UNL A   1      45.882  28.025  30.241  1.00  0.00    -0.354 N 
ATOM     63  N   UNL A   1      45.531  30.671  29.024  1.00  0.00    -0.248 NA
ATOM     64  C   UNL A   1      46.182  32.293  27.475  1.00  0.00     0.031 C 
ATOM     65  C   UNL A   1      47.363  26.639  29.338  1.00  0.00     0.029 A 
ATOM     66  C   UNL A   1      46.799  27.899  29.212  1.00  0.00     0.049 A 
ATOM     67  H   UNL A   1      45.330  28.823  30.410  1.00  0.00     0.167 HD
ATOM     68  C   UNL A   1      46.509  30.138  28.192  1.00  0.00     0.074 A 
ATOM     69  C   UNL A   1      46.843  31.169  27.230  1.00  0.00     0.031 C 
ATOM     70  C   UNL A   1      47.088  28.913  28.230  1.00  0.00     0.034 A 
BRANCH  57  71
ATOM     71  C   UNL A   1      45.169  25.356  32.901  1.00  0.00     0.023 A 
ATOM     72  C   UNL A   1      44.411  24.235  32.506  1.00  0.00     0.012 A 
ATOM     73  C   UNL A   1      46.112  25.221  33.939  1.00  0.00     0.148 A 
ATOM     74  C   UNL A   1      44.566  23.008  33.150  1.00  0.00     0.002 A 
ATOM     75  C   UNL A   1      46.293  23.983  34.547  1.00  0.00     0.091 A 
ATOM     76  F   UNL A   1      46.811  26.302  34.312  1.00  0.00    -0.205 F 
ATOM     77  C   UNL A   1      45.514  22.880  34.162  1.00  0.00     0.022 A 
BRANCH  75  78
ATOM     78  S   UNL A   1      47.544  23.689  35.802  1.00  0.00     0.127 S 
ATOM     79  O   UNL A   1      47.057  24.517  36.904  1.00  0.00    -0.237 OA
ATOM     80  O   UNL A   1      47.424  22.248  36.023  1.00  0.00    -0.237 OA
ATOM     81  O   UNL A   1      48.810  24.112  35.218  1.00  0.00    -0.744 OA
ENDBRANCH  75  78
ENDBRANCH  57  71
BRANCH  58  82
ATOM     82  C   UNL A   1      44.248  34.270  28.485  1.00  0.00     0.023 A 
ATOM     83  C   UNL A   1      43.430  34.458  27.355  1.00  0.00     0.012 A 
ATOM     84  C   UNL A   1      44.920  35.379  29.039  1.00  0.00     0.148 A 
ATOM     85  C   UNL A   1      43.304  35.717  26.768  1.00  0.00     0.002 A 
ATOM     86  C   UNL A   1      44.748  36.641  28.482  1.00  0.00     0.091 A 
ATOM     87  F   UNL A   1      45.694  35.178  30.115  1.00  0.00    -0.205 F 
ATOM     88  C   UNL A   1      43.955  36.810  27.337  1.00  0.00     0.022 A 
BRANCH  86  89
ATOM     89  S   UNL A   1      45.446  38.129  29.209  1.00  0.00     0.127 S 
ATOM     90  O   UNL A   1      46.879  37.909  29.030  1.00  0.00    -0.237 OA
ATOM     91  O   UNL A   1      44.874  39.176  28.361  1.00  0.00    -0.237 OA
ATOM     92  O   UNL A   1      44.989  38.155  30.591  1.00  0.00    -0.744 OA
ENDBRANCH  86  89
ENDBRANCH  58  82
BRANCH  70  93
ATOM     93  C   UNL A   1      48.125  28.594  27.187  1.00  0.00     0.023 A 
ATOM     94  C   UNL A   1      49.495  28.690  27.506  1.00  0.00     0.012 A 
ATOM     95  C   UNL A   1      47.743  28.115  25.917  1.00  0.00     0.148 A 
ATOM     96  C   UNL A   1      50.466  28.345  26.569  1.00  0.00     0.002 A 
ATOM     97  C   UNL A   1      48.717  27.726  25.007  1.00  0.00     0.091 A 
ATOM     98  F   UNL A   1      46.436  28.046  25.627  1.00  0.00    -0.205 F 
ATOM     99  C   UNL A   1      50.079  27.852  25.325  1.00  0.00     0.022 A 
BRANCH  97 100
ATOM    100  S   UNL A   1      48.310  26.989  23.419  1.00  0.00     0.127 S 
ATOM    101  O   UNL A   1      49.635  26.791  22.834  1.00  0.00    -0.237 OA
ATOM    102  O   UNL A   1      47.627  25.757  23.813  1.00  0.00    -0.237 OA
ATOM    103  O   UNL A   1      47.463  27.956  22.733  1.00  0.00    -0.744 OA
ENDBRANCH  97 100
ENDBRANCH  70  93
ENDBRANCH  44  45
ENDBRANCH  36  39
ENDBRANCH  34  35
ENDBRANCH  33  34
ENDBRANCH  32  33
ENDBRANCH  30  32
ENDBRANCH  26  28
ENDBRANCH   4  26
TORSDOF 23
ENDMDL
