MODEL 1
REMARK VINA RESULT:     -11.7      0.000      0.000
REMARK SMILES C[C@@H](C(=O)NCCCNC(=O)c1ccc(-c2c3nc(c(-c4cccc(S(=O)(=O)[O-])c4F)c4ccc([nH]4)c(-c4cccc(S(=O)(=O)[O-])c4F)c4nc(c(-c5cccc(S(=O)(=O)[O-])c5F)c5ccc2[nH]5)C=C4)C=C3)cc1)c1ccc(C[C@H]2CCCC2=O)cc1
REMARK SMILES IDX 7 1 6 2 5 3 3 4 4 5 2 7 1 8 75 9 76 10 87 11 77 12 86 13
REMARK SMILES IDX 78 14 79 15 80 16 81 17 84 18 82 19 83 20 85 21 8 22 9 23
REMARK SMILES IDX 10 24 11 26 12 27 13 28 74 29 14 30 73 31 15 32 16 33 17 34
REMARK SMILES IDX 67 35 18 36 72 37 66 38 68 39 19 40 71 41 65 42 64 43 20 45
REMARK SMILES IDX 52 46 32 47 51 48 33 49 36 50 50 51 69 52 34 53 35 54 49 56
REMARK SMILES IDX 70 57 37 58 21 59 22 60 30 61 23 62 25 63 31 64 24 65 26 66
REMARK SMILES IDX 27 67 28 68 29 69 53 70 54 71 62 72 55 73 57 74 63 75 56 76
REMARK SMILES IDX 58 77 59 78 60 79 61 80 38 81 39 82 47 83 40 84 42 85 48 86
REMARK SMILES IDX 41 87 43 88 44 89 45 90 46 91
REMARK H PARENT 5 6 9 25 68 44 36 55
REMARK Flexibility Score: inf
ROOT
ATOM      1  C   UNL A   1      33.260  29.051  24.890  1.00  0.00     0.042 C 
ENDROOT
BRANCH   1   2
ATOM      2  C   UNL A   1      31.734  29.056  24.882  1.00  0.00     0.117 C 
BRANCH   2   3
ATOM      3  N   UNL A   1      31.211  29.534  23.619  1.00  0.00    -0.356 N 
ATOM      4  C   UNL A   1      30.585  28.860  22.613  1.00  0.00     0.227 C 
ATOM      5  O   UNL A   1      30.305  29.516  21.607  1.00  0.00    -0.274 OA
ATOM      6  H   UNL A   1      31.327  30.499  23.461  1.00  0.00     0.163 HD
BRANCH   4   7
ATOM      7  C   UNL A   1      30.213  27.376  22.790  1.00  0.00     0.105 C 
ATOM      8  C   UNL A   1      29.094  27.161  23.813  1.00  0.00     0.023 C 
BRANCH   7   9
ATOM      9  C   UNL A   1      31.434  26.539  23.162  1.00  0.00    -0.036 A 
ATOM     10  C   UNL A   1      31.465  25.813  24.361  1.00  0.00     0.005 A 
ATOM     11  C   UNL A   1      32.557  26.506  22.326  1.00  0.00     0.005 A 
ATOM     12  C   UNL A   1      32.587  25.067  24.712  1.00  0.00     0.004 A 
ATOM     13  C   UNL A   1      33.693  25.779  22.693  1.00  0.00     0.004 A 
ATOM     14  C   UNL A   1      33.725  25.066  23.899  1.00  0.00    -0.047 A 
BRANCH  14  15
ATOM     15  C   UNL A   1      34.968  24.332  24.334  1.00  0.00     0.047 C 
BRANCH  15  16
ATOM     16  C   UNL A   1      35.244  22.994  23.635  1.00  0.00     0.060 C 
ATOM     17  C   UNL A   1      36.708  22.671  23.330  1.00  0.00     0.012 C 
ATOM     18  C   UNL A   1      34.824  21.799  24.459  1.00  0.00     0.136 C 
ATOM     19  C   UNL A   1      37.194  21.765  24.454  1.00  0.00     0.009 C 
ATOM     20  C   UNL A   1      35.987  20.937  24.873  1.00  0.00     0.076 C 
ATOM     21  O   UNL A   1      33.657  21.546  24.738  1.00  0.00    -0.299 OA
ENDBRANCH  15  16
ENDBRANCH  14  15
ENDBRANCH   7   9
ENDBRANCH   4   7
ENDBRANCH   2   3
ENDBRANCH   1   2
BRANCH   1  22
ATOM     22  C   UNL A   1      33.868  29.137  26.286  1.00  0.00     0.118 C 
BRANCH  22  23
ATOM     23  N   UNL A   1      33.781  30.476  26.852  1.00  0.00    -0.352 N 
ATOM     24  C   UNL A   1      34.570  31.069  27.808  1.00  0.00     0.251 C 
ATOM     25  H   UNL A   1      33.053  31.037  26.501  1.00  0.00     0.163 HD
ATOM     26  O   UNL A   1      34.227  32.139  28.305  1.00  0.00    -0.269 OA
BRANCH  24  27
ATOM     27  C   UNL A   1      35.820  30.411  28.243  1.00  0.00     0.039 A 
ATOM     28  C   UNL A   1      36.970  30.542  27.459  1.00  0.00     0.014 A 
ATOM     29  C   UNL A   1      35.852  29.666  29.423  1.00  0.00     0.014 A 
ATOM     30  C   UNL A   1      38.171  29.973  27.893  1.00  0.00     0.010 A 
ATOM     31  C   UNL A   1      37.063  29.174  29.893  1.00  0.00     0.010 A 
ATOM     32  C   UNL A   1      38.232  29.310  29.129  1.00  0.00    -0.014 A 
BRANCH  32  33
ATOM     33  C   UNL A   1      39.494  28.725  29.648  1.00  0.00     0.031 A 
ATOM     34  C   UNL A   1      40.238  29.429  30.751  1.00  0.00     0.074 A 
ATOM     35  C   UNL A   1      40.032  27.645  29.051  1.00  0.00     0.049 A 
ATOM     36  N   UNL A   1      41.426  29.181  31.236  1.00  0.00    -0.248 NA
ATOM     37  C   UNL A   1      39.569  30.589  31.363  1.00  0.00     0.031 C 
ATOM     38  C   UNL A   1      39.438  26.913  27.931  1.00  0.00     0.029 A 
ATOM     39  N   UNL A   1      41.224  27.001  29.275  1.00  0.00    -0.354 N 
ATOM     40  C   UNL A   1      41.670  30.182  32.167  1.00  0.00     0.074 A 
ATOM     41  C   UNL A   1      40.520  31.058  32.157  1.00  0.00     0.031 C 
ATOM     42  C   UNL A   1      40.273  25.930  27.557  1.00  0.00     0.029 A 
ATOM     43  C   UNL A   1      41.477  25.988  28.380  1.00  0.00     0.049 A 
ATOM     44  H   UNL A   1      41.839  27.243  30.004  1.00  0.00     0.167 HD
ATOM     45  C   UNL A   1      42.743  30.346  32.977  1.00  0.00     0.034 A 
ATOM     46  C   UNL A   1      42.566  25.209  28.223  1.00  0.00     0.034 A 
ATOM     47  C   UNL A   1      43.865  29.449  33.008  1.00  0.00     0.049 A 
ATOM     48  C   UNL A   1      43.734  25.386  29.154  1.00  0.00     0.074 A 
ATOM     49  C   UNL A   1      44.963  29.475  33.850  1.00  0.00     0.029 A 
ATOM     50  N   UNL A   1      44.040  28.370  32.155  1.00  0.00    -0.354 N 
ATOM     51  N   UNL A   1      43.891  26.254  30.123  1.00  0.00    -0.248 NA
ATOM     52  C   UNL A   1      44.861  24.454  28.996  1.00  0.00     0.031 C 
ATOM     53  C   UNL A   1      45.817  28.428  33.484  1.00  0.00     0.029 A 
ATOM     54  C   UNL A   1      45.229  27.726  32.444  1.00  0.00     0.049 A 
ATOM     55  H   UNL A   1      43.408  28.102  31.449  1.00  0.00     0.167 HD
ATOM     56  C   UNL A   1      45.109  25.948  30.720  1.00  0.00     0.074 A 
ATOM     57  C   UNL A   1      45.647  24.808  30.005  1.00  0.00     0.031 C 
ATOM     58  C   UNL A   1      45.725  26.556  31.762  1.00  0.00     0.034 A 
BRANCH  45  59
ATOM     59  C   UNL A   1      42.734  31.527  33.914  1.00  0.00     0.023 A 
ATOM     60  C   UNL A   1      43.197  32.781  33.466  1.00  0.00     0.012 A 
ATOM     61  C   UNL A   1      42.243  31.404  35.229  1.00  0.00     0.148 A 
ATOM     62  C   UNL A   1      43.225  33.879  34.325  1.00  0.00     0.002 A 
ATOM     63  C   UNL A   1      42.223  32.516  36.063  1.00  0.00     0.091 A 
ATOM     64  F   UNL A   1      41.824  30.201  35.647  1.00  0.00    -0.205 F 
ATOM     65  C   UNL A   1      42.729  33.749  35.619  1.00  0.00     0.022 A 
BRANCH  63  66
ATOM     66  S   UNL A   1      41.524  32.469  37.717  1.00  0.00     0.127 S 
ATOM     67  O   UNL A   1      41.750  33.840  38.171  1.00  0.00    -0.237 OA
ATOM     68  O   UNL A   1      40.123  32.139  37.450  1.00  0.00    -0.237 OA
ATOM     69  O   UNL A   1      42.262  31.439  38.434  1.00  0.00    -0.744 OA
ENDBRANCH  63  66
ENDBRANCH  45  59
BRANCH  46  70
ATOM     70  C   UNL A   1      42.571  24.154  27.170  1.00  0.00     0.023 A 
ATOM     71  C   UNL A   1      43.222  24.400  25.947  1.00  0.00     0.012 A 
ATOM     72  C   UNL A   1      41.985  22.894  27.396  1.00  0.00     0.148 A 
ATOM     73  C   UNL A   1      43.267  23.420  24.955  1.00  0.00     0.002 A 
ATOM     74  C   UNL A   1      42.081  21.902  26.426  1.00  0.00     0.091 A 
ATOM     75  F   UNL A   1      41.368  22.682  28.567  1.00  0.00    -0.205 F 
ATOM     76  C   UNL A   1      42.706  22.168  25.198  1.00  0.00     0.022 A 
BRANCH  74  77
ATOM     77  S   UNL A   1      41.510  20.222  26.701  1.00  0.00     0.127 S 
ATOM     78  O   UNL A   1      40.071  20.418  26.860  1.00  0.00    -0.237 OA
ATOM     79  O   UNL A   1      41.909  19.565  25.455  1.00  0.00    -0.237 OA
ATOM     80  O   UNL A   1      42.215  19.750  27.884  1.00  0.00    -0.744 OA
ENDBRANCH  74  77
ENDBRANCH  46  70
BRANCH  58  81
ATOM     81  C   UNL A   1      47.026  25.976  32.253  1.00  0.00     0.023 A 
ATOM     82  C   UNL A   1      48.249  26.428  31.724  1.00  0.00     0.012 A 
ATOM     83  C   UNL A   1      47.029  25.055  33.320  1.00  0.00     0.148 A 
ATOM     84  C   UNL A   1      49.458  25.956  32.236  1.00  0.00     0.002 A 
ATOM     85  C   UNL A   1      48.236  24.629  33.859  1.00  0.00     0.091 A 
ATOM     86  F   UNL A   1      45.852  24.623  33.795  1.00  0.00    -0.205 F 
ATOM     87  C   UNL A   1      49.451  25.069  33.311  1.00  0.00     0.022 A 
BRANCH  85  88
ATOM     88  S   UNL A   1      48.324  23.571  35.307  1.00  0.00     0.127 S 
ATOM     89  O   UNL A   1      47.673  24.400  36.322  1.00  0.00    -0.237 OA
ATOM     90  O   UNL A   1      47.548  22.405  34.885  1.00  0.00    -0.237 OA
ATOM     91  O   UNL A   1      49.739  23.309  35.532  1.00  0.00    -0.744 OA
ENDBRANCH  85  88
ENDBRANCH  58  81
ENDBRANCH  32  33
ENDBRANCH  24  27
ENDBRANCH  22  23
ENDBRANCH   1  22
TORSDOF 16
ENDMDL
MODEL 2
REMARK VINA RESULT:     -11.6      3.389      8.765
REMARK SMILES C[C@@H](C(=O)NCCCNC(=O)c1ccc(-c2c3nc(c(-c4cccc(S(=O)(=O)[O-])c4F)c4ccc([nH]4)c(-c4cccc(S(=O)(=O)[O-])c4F)c4nc(c(-c5cccc(S(=O)(=O)[O-])c5F)c5ccc2[nH]5)C=C4)C=C3)cc1)c1ccc(C[C@H]2CCCC2=O)cc1
REMARK SMILES IDX 7 1 6 2 5 3 3 4 4 5 2 7 1 8 75 9 76 10 87 11 77 12 86 13
REMARK SMILES IDX 78 14 79 15 80 16 81 17 84 18 82 19 83 20 85 21 8 22 9 23
REMARK SMILES IDX 10 24 11 26 12 27 13 28 74 29 14 30 73 31 15 32 16 33 17 34
REMARK SMILES IDX 67 35 18 36 72 37 66 38 68 39 19 40 71 41 65 42 64 43 20 45
REMARK SMILES IDX 52 46 32 47 51 48 33 49 36 50 50 51 69 52 34 53 35 54 49 56
REMARK SMILES IDX 70 57 37 58 21 59 22 60 30 61 23 62 25 63 31 64 24 65 26 66
REMARK SMILES IDX 27 67 28 68 29 69 53 70 54 71 62 72 55 73 57 74 63 75 56 76
REMARK SMILES IDX 58 77 59 78 60 79 61 80 38 81 39 82 47 83 40 84 42 85 48 86
REMARK SMILES IDX 41 87 43 88 44 89 45 90 46 91
REMARK H PARENT 5 6 9 25 68 44 36 55
REMARK Flexibility Score: inf
ROOT
ATOM      1  C   UNL A   1      31.588  31.809  26.577  1.00  0.00     0.042 C 
ENDROOT
BRANCH   1   2
ATOM      2  C   UNL A   1      31.869  30.371  26.151  1.00  0.00     0.117 C 
BRANCH   2   3
ATOM      3  N   UNL A   1      31.257  30.066  24.875  1.00  0.00    -0.356 N 
ATOM      4  C   UNL A   1      31.675  29.244  23.870  1.00  0.00     0.227 C 
ATOM      5  O   UNL A   1      30.980  29.229  22.851  1.00  0.00    -0.274 OA
ATOM      6  H   UNL A   1      30.403  30.526  24.704  1.00  0.00     0.163 HD
BRANCH   4   7
ATOM      7  C   UNL A   1      32.918  28.357  24.064  1.00  0.00     0.105 C 
ATOM      8  C   UNL A   1      33.848  28.362  22.847  1.00  0.00     0.023 C 
BRANCH   7   9
ATOM      9  C   UNL A   1      32.528  26.926  24.422  1.00  0.00    -0.036 A 
ATOM     10  C   UNL A   1      32.444  25.938  23.431  1.00  0.00     0.005 A 
ATOM     11  C   UNL A   1      32.219  26.581  25.744  1.00  0.00     0.005 A 
ATOM     12  C   UNL A   1      32.066  24.637  23.753  1.00  0.00     0.004 A 
ATOM     13  C   UNL A   1      31.814  25.282  26.062  1.00  0.00     0.004 A 
ATOM     14  C   UNL A   1      31.717  24.302  25.066  1.00  0.00    -0.047 A 
BRANCH  14  15
ATOM     15  C   UNL A   1      31.219  22.915  25.387  1.00  0.00     0.047 C 
BRANCH  15  16
ATOM     16  C   UNL A   1      32.274  21.913  25.876  1.00  0.00     0.060 C 
ATOM     17  C   UNL A   1      33.398  21.571  24.895  1.00  0.00     0.012 C 
ATOM     18  C   UNL A   1      33.045  22.408  27.077  1.00  0.00     0.136 C 
ATOM     19  C   UNL A   1      34.585  22.447  25.275  1.00  0.00     0.009 C 
ATOM     20  C   UNL A   1      34.507  22.622  26.786  1.00  0.00     0.076 C 
ATOM     21  O   UNL A   1      32.538  22.590  28.179  1.00  0.00    -0.299 OA
ENDBRANCH  15  16
ENDBRANCH  14  15
ENDBRANCH   7   9
ENDBRANCH   4   7
ENDBRANCH   2   3
ENDBRANCH   1   2
BRANCH   1  22
ATOM     22  C   UNL A   1      32.754  32.474  27.300  1.00  0.00     0.118 C 
BRANCH  22  23
ATOM     23  N   UNL A   1      32.490  33.870  27.621  1.00  0.00    -0.352 N 
ATOM     24  C   UNL A   1      33.061  34.664  28.586  1.00  0.00     0.251 C 
ATOM     25  H   UNL A   1      31.803  34.308  27.069  1.00  0.00     0.163 HD
ATOM     26  O   UNL A   1      32.573  35.762  28.841  1.00  0.00    -0.269 OA
BRANCH  24  27
ATOM     27  C   UNL A   1      34.251  34.188  29.321  1.00  0.00     0.039 A 
ATOM     28  C   UNL A   1      34.080  33.455  30.499  1.00  0.00     0.014 A 
ATOM     29  C   UNL A   1      35.534  34.469  28.846  1.00  0.00     0.014 A 
ATOM     30  C   UNL A   1      35.198  32.951  31.169  1.00  0.00     0.010 A 
ATOM     31  C   UNL A   1      36.638  33.896  29.466  1.00  0.00     0.010 A 
ATOM     32  C   UNL A   1      36.484  33.143  30.640  1.00  0.00    -0.014 A 
BRANCH  32  33
ATOM     33  C   UNL A   1      37.697  32.592  31.295  1.00  0.00     0.031 A 
ATOM     34  C   UNL A   1      38.420  31.433  30.663  1.00  0.00     0.074 A 
ATOM     35  C   UNL A   1      38.071  33.042  32.508  1.00  0.00     0.049 A 
ATOM     36  N   UNL A   1      39.392  30.704  31.142  1.00  0.00    -0.248 NA
ATOM     37  C   UNL A   1      37.960  31.019  29.327  1.00  0.00     0.031 C 
ATOM     38  C   UNL A   1      37.412  34.116  33.253  1.00  0.00     0.029 A 
ATOM     39  N   UNL A   1      39.071  32.619  33.348  1.00  0.00    -0.354 N 
ATOM     40  C   UNL A   1      39.624  29.714  30.195  1.00  0.00     0.074 A 
ATOM     41  C   UNL A   1      38.669  29.918  29.129  1.00  0.00     0.031 C 
ATOM     42  C   UNL A   1      38.016  34.258  34.444  1.00  0.00     0.029 A 
ATOM     43  C   UNL A   1      39.075  33.261  34.564  1.00  0.00     0.049 A 
ATOM     44  H   UNL A   1      39.722  31.922  33.105  1.00  0.00     0.167 HD
ATOM     45  C   UNL A   1      40.561  28.737  30.200  1.00  0.00     0.034 A 
ATOM     46  C   UNL A   1      39.829  33.055  35.663  1.00  0.00     0.034 A 
ATOM     47  C   UNL A   1      41.532  28.565  31.246  1.00  0.00     0.049 A 
ATOM     48  C   UNL A   1      40.887  31.986  35.635  1.00  0.00     0.074 A 
ATOM     49  C   UNL A   1      42.579  27.663  31.307  1.00  0.00     0.029 A 
ATOM     50  N   UNL A   1      41.571  29.304  32.418  1.00  0.00    -0.354 N 
ATOM     51  N   UNL A   1      41.183  31.145  34.674  1.00  0.00    -0.248 NA
ATOM     52  C   UNL A   1      41.740  31.860  36.826  1.00  0.00     0.031 C 
ATOM     53  C   UNL A   1      43.232  27.836  32.532  1.00  0.00     0.029 A 
ATOM     54  C   UNL A   1      42.617  28.875  33.214  1.00  0.00     0.049 A 
ATOM     55  H   UNL A   1      40.944  30.028  32.649  1.00  0.00     0.167 HD
ATOM     56  C   UNL A   1      42.282  30.421  35.123  1.00  0.00     0.074 A 
ATOM     57  C   UNL A   1      42.602  30.927  36.443  1.00  0.00     0.031 C 
ATOM     58  C   UNL A   1      42.961  29.428  34.500  1.00  0.00     0.034 A 
BRANCH  45  59
ATOM     59  C   UNL A   1      40.596  27.800  29.019  1.00  0.00     0.023 A 
ATOM     60  C   UNL A   1      39.673  26.737  28.941  1.00  0.00     0.012 A 
ATOM     61  C   UNL A   1      41.522  27.986  27.974  1.00  0.00     0.148 A 
ATOM     62  C   UNL A   1      39.707  25.841  27.873  1.00  0.00     0.002 A 
ATOM     63  C   UNL A   1      41.514  27.121  26.886  1.00  0.00     0.091 A 
ATOM     64  F   UNL A   1      42.406  28.990  28.071  1.00  0.00    -0.205 F 
ATOM     65  C   UNL A   1      40.620  26.040  26.842  1.00  0.00     0.022 A 
BRANCH  63  66
ATOM     66  S   UNL A   1      42.594  27.346  25.467  1.00  0.00     0.127 S 
ATOM     67  O   UNL A   1      43.906  27.423  26.106  1.00  0.00    -0.237 OA
ATOM     68  O   UNL A   1      42.359  26.119  24.704  1.00  0.00    -0.237 OA
ATOM     69  O   UNL A   1      42.141  28.563  24.809  1.00  0.00    -0.744 OA
ENDBRANCH  63  66
ENDBRANCH  45  59
BRANCH  46  70
ATOM     70  C   UNL A   1      39.639  33.922  36.859  1.00  0.00     0.023 A 
ATOM     71  C   UNL A   1      40.016  35.277  36.799  1.00  0.00     0.012 A 
ATOM     72  C   UNL A   1      39.039  33.427  38.034  1.00  0.00     0.148 A 
ATOM     73  C   UNL A   1      39.823  36.119  37.895  1.00  0.00     0.002 A 
ATOM     74  C   UNL A   1      38.799  34.284  39.102  1.00  0.00     0.091 A 
ATOM     75  F   UNL A   1      38.691  32.133  38.070  1.00  0.00    -0.205 F 
ATOM     76  C   UNL A   1      39.206  35.625  39.042  1.00  0.00     0.022 A 
BRANCH  74  77
ATOM     77  S   UNL A   1      37.891  33.774  40.565  1.00  0.00     0.127 S 
ATOM     78  O   UNL A   1      38.790  32.779  41.144  1.00  0.00    -0.237 OA
ATOM     79  O   UNL A   1      37.799  35.030  41.311  1.00  0.00    -0.237 OA
ATOM     80  O   UNL A   1      36.615  33.264  40.083  1.00  0.00    -0.744 OA
ENDBRANCH  74  77
ENDBRANCH  46  70
BRANCH  58  81
ATOM     81  C   UNL A   1      44.166  28.849  35.196  1.00  0.00     0.023 A 
ATOM     82  C   UNL A   1      45.440  29.413  34.996  1.00  0.00     0.012 A 
ATOM     83  C   UNL A   1      44.007  27.807  36.133  1.00  0.00     0.148 A 
ATOM     84  C   UNL A   1      46.543  28.935  35.704  1.00  0.00     0.002 A 
ATOM     85  C   UNL A   1      45.099  27.372  36.871  1.00  0.00     0.091 A 
ATOM     86  F   UNL A   1      42.787  27.273  36.292  1.00  0.00    -0.205 F 
ATOM     87  C   UNL A   1      46.370  27.926  36.651  1.00  0.00     0.022 A 
BRANCH  85  88
ATOM     88  S   UNL A   1      44.951  26.154  38.182  1.00  0.00     0.127 S 
ATOM     89  O   UNL A   1      44.504  24.973  37.443  1.00  0.00    -0.237 OA
ATOM     90  O   UNL A   1      46.323  26.073  38.685  1.00  0.00    -0.237 OA
ATOM     91  O   UNL A   1      43.988  26.695  39.131  1.00  0.00    -0.744 OA
ENDBRANCH  85  88
ENDBRANCH  58  81
ENDBRANCH  32  33
ENDBRANCH  24  27
ENDBRANCH  22  23
ENDBRANCH   1  22
TORSDOF 16
ENDMDL
MODEL 3
REMARK VINA RESULT:     -11.6      2.549      8.116
REMARK SMILES C[C@@H](C(=O)NCCCNC(=O)c1ccc(-c2c3nc(c(-c4cccc(S(=O)(=O)[O-])c4F)c4ccc([nH]4)c(-c4cccc(S(=O)(=O)[O-])c4F)c4nc(c(-c5cccc(S(=O)(=O)[O-])c5F)c5ccc2[nH]5)C=C4)C=C3)cc1)c1ccc(C[C@H]2CCCC2=O)cc1
REMARK SMILES IDX 7 1 6 2 5 3 3 4 4 5 2 7 1 8 75 9 76 10 87 11 77 12 86 13
REMARK SMILES IDX 78 14 79 15 80 16 81 17 84 18 82 19 83 20 85 21 8 22 9 23
REMARK SMILES IDX 10 24 11 26 12 27 13 28 74 29 14 30 73 31 15 32 16 33 17 34
REMARK SMILES IDX 67 35 18 36 72 37 66 38 68 39 19 40 71 41 65 42 64 43 20 45
REMARK SMILES IDX 52 46 32 47 51 48 33 49 36 50 50 51 69 52 34 53 35 54 49 56
REMARK SMILES IDX 70 57 37 58 21 59 22 60 30 61 23 62 25 63 31 64 24 65 26 66
REMARK SMILES IDX 27 67 28 68 29 69 53 70 54 71 62 72 55 73 57 74 63 75 56 76
REMARK SMILES IDX 58 77 59 78 60 79 61 80 38 81 39 82 47 83 40 84 42 85 48 86
REMARK SMILES IDX 41 87 43 88 44 89 45 90 46 91
REMARK H PARENT 5 6 9 25 68 44 36 55
REMARK Flexibility Score: inf
ROOT
ATOM      1  C   UNL A   1      31.938  28.773  26.515  1.00  0.00     0.042 C 
ENDROOT
BRANCH   1   2
ATOM      2  C   UNL A   1      32.465  27.342  26.579  1.00  0.00     0.117 C 
BRANCH   2   3
ATOM      3  N   UNL A   1      31.401  26.396  26.842  1.00  0.00    -0.356 N 
ATOM      4  C   UNL A   1      30.860  25.433  26.043  1.00  0.00     0.227 C 
ATOM      5  O   UNL A   1      29.904  24.809  26.508  1.00  0.00    -0.274 OA
ATOM      6  H   UNL A   1      31.004  26.457  27.741  1.00  0.00     0.163 HD
BRANCH   4   7
ATOM      7  C   UNL A   1      31.480  25.134  24.665  1.00  0.00     0.105 C 
ATOM      8  C   UNL A   1      30.479  25.289  23.516  1.00  0.00     0.023 C 
BRANCH   7   9
ATOM      9  C   UNL A   1      32.110  23.744  24.630  1.00  0.00    -0.036 A 
ATOM     10  C   UNL A   1      31.568  22.733  23.824  1.00  0.00     0.005 A 
ATOM     11  C   UNL A   1      33.223  23.446  25.425  1.00  0.00     0.005 A 
ATOM     12  C   UNL A   1      32.128  21.458  23.808  1.00  0.00     0.004 A 
ATOM     13  C   UNL A   1      33.768  22.159  25.429  1.00  0.00     0.004 A 
ATOM     14  C   UNL A   1      33.214  21.148  24.633  1.00  0.00    -0.047 A 
BRANCH  14  15
ATOM     15  C   UNL A   1      33.754  19.741  24.678  1.00  0.00     0.047 C 
BRANCH  15  16
ATOM     16  C   UNL A   1      32.821  18.640  24.157  1.00  0.00     0.060 C 
ATOM     17  C   UNL A   1      33.204  17.994  22.823  1.00  0.00     0.012 C 
ATOM     18  C   UNL A   1      32.748  17.443  25.076  1.00  0.00     0.136 C 
ATOM     19  C   UNL A   1      33.936  16.702  23.163  1.00  0.00     0.009 C 
ATOM     20  C   UNL A   1      33.304  16.191  24.451  1.00  0.00     0.076 C 
ATOM     21  O   UNL A   1      32.263  17.484  26.202  1.00  0.00    -0.299 OA
ENDBRANCH  15  16
ENDBRANCH  14  15
ENDBRANCH   7   9
ENDBRANCH   4   7
ENDBRANCH   2   3
ENDBRANCH   1   2
BRANCH   1  22
ATOM     22  C   UNL A   1      32.974  29.789  26.048  1.00  0.00     0.118 C 
BRANCH  22  23
ATOM     23  N   UNL A   1      32.610  31.157  26.390  1.00  0.00    -0.352 N 
ATOM     24  C   UNL A   1      33.209  32.022  27.274  1.00  0.00     0.251 C 
ATOM     25  H   UNL A   1      31.822  31.514  25.922  1.00  0.00     0.163 HD
ATOM     26  O   UNL A   1      32.645  33.070  27.580  1.00  0.00    -0.269 OA
BRANCH  24  27
ATOM     27  C   UNL A   1      34.520  31.681  27.864  1.00  0.00     0.039 A 
ATOM     28  C   UNL A   1      35.519  32.657  27.922  1.00  0.00     0.014 A 
ATOM     29  C   UNL A   1      34.760  30.396  28.357  1.00  0.00     0.014 A 
ATOM     30  C   UNL A   1      36.741  32.360  28.531  1.00  0.00     0.010 A 
ATOM     31  C   UNL A   1      35.943  30.130  29.036  1.00  0.00     0.010 A 
ATOM     32  C   UNL A   1      36.951  31.103  29.119  1.00  0.00    -0.014 A 
BRANCH  32  33
ATOM     33  C   UNL A   1      38.217  30.758  29.812  1.00  0.00     0.031 A 
ATOM     34  C   UNL A   1      39.165  29.776  29.178  1.00  0.00     0.074 A 
ATOM     35  C   UNL A   1      38.455  31.222  31.054  1.00  0.00     0.049 A 
ATOM     36  N   UNL A   1      40.236  29.219  29.678  1.00  0.00    -0.248 NA
ATOM     37  C   UNL A   1      38.842  29.336  27.810  1.00  0.00     0.031 C 
ATOM     38  C   UNL A   1      37.581  32.128  31.800  1.00  0.00     0.029 A 
ATOM     39  N   UNL A   1      39.482  30.956  31.925  1.00  0.00    -0.354 N 
ATOM     40  C   UNL A   1      40.682  28.324  28.713  1.00  0.00     0.074 A 
ATOM     41  C   UNL A   1      39.749  28.392  27.611  1.00  0.00     0.031 C 
ATOM     42  C   UNL A   1      38.101  32.333  33.022  1.00  0.00     0.029 A 
ATOM     43  C   UNL A   1      39.320  31.541  33.159  1.00  0.00     0.049 A 
ATOM     44  H   UNL A   1      40.258  30.399  31.690  1.00  0.00     0.167 HD
ATOM     45  C   UNL A   1      41.782  27.535  28.730  1.00  0.00     0.034 A 
ATOM     46  C   UNL A   1      40.055  31.434  34.284  1.00  0.00     0.034 A 
ATOM     47  C   UNL A   1      42.726  27.503  29.814  1.00  0.00     0.049 A 
ATOM     48  C   UNL A   1      41.292  30.578  34.272  1.00  0.00     0.074 A 
ATOM     49  C   UNL A   1      43.918  26.805  29.895  1.00  0.00     0.029 A 
ATOM     50  N   UNL A   1      42.582  28.191  31.009  1.00  0.00    -0.354 N 
ATOM     51  N   UNL A   1      41.775  29.843  33.300  1.00  0.00    -0.248 NA
ATOM     52  C   UNL A   1      42.107  30.563  35.496  1.00  0.00     0.031 C 
ATOM     53  C   UNL A   1      44.479  27.047  31.154  1.00  0.00     0.029 A 
ATOM     54  C   UNL A   1      43.658  27.930  31.838  1.00  0.00     0.049 A 
ATOM     55  H   UNL A   1      41.825  28.779  31.233  1.00  0.00     0.167 HD
ATOM     56  C   UNL A   1      42.970  29.314  33.777  1.00  0.00     0.074 A 
ATOM     57  C   UNL A   1      43.140  29.819  35.124  1.00  0.00     0.031 C 
ATOM     58  C   UNL A   1      43.844  28.486  33.155  1.00  0.00     0.034 A 
BRANCH  45  59
ATOM     59  C   UNL A   1      42.035  26.667  27.525  1.00  0.00     0.023 A 
ATOM     60  C   UNL A   1      42.644  27.219  26.378  1.00  0.00     0.012 A 
ATOM     61  C   UNL A   1      41.696  25.299  27.533  1.00  0.00     0.148 A 
ATOM     62  C   UNL A   1      42.860  26.440  25.242  1.00  0.00     0.002 A 
ATOM     63  C   UNL A   1      41.963  24.517  26.416  1.00  0.00     0.091 A 
ATOM     64  F   UNL A   1      41.099  24.794  28.622  1.00  0.00    -0.205 F 
ATOM     65  C   UNL A   1      42.529  25.089  25.265  1.00  0.00     0.022 A 
BRANCH  63  66
ATOM     66  S   UNL A   1      41.653  22.748  26.380  1.00  0.00     0.127 S 
ATOM     67  O   UNL A   1      42.371  22.348  25.171  1.00  0.00    -0.237 OA
ATOM     68  O   UNL A   1      42.270  22.302  27.630  1.00  0.00    -0.237 OA
ATOM     69  O   UNL A   1      40.206  22.596  26.332  1.00  0.00    -0.744 OA
ENDBRANCH  63  66
ENDBRANCH  45  59
BRANCH  46  70
ATOM     70  C   UNL A   1      39.663  32.205  35.497  1.00  0.00     0.023 A 
ATOM     71  C   UNL A   1      40.093  33.538  35.638  1.00  0.00     0.012 A 
ATOM     72  C   UNL A   1      38.824  31.646  36.480  1.00  0.00     0.148 A 
ATOM     73  C   UNL A   1      39.717  34.293  36.750  1.00  0.00     0.002 A 
ATOM     74  C   UNL A   1      38.407  32.420  37.556  1.00  0.00     0.091 A 
ATOM     75  F   UNL A   1      38.428  30.374  36.326  1.00  0.00    -0.205 F 
ATOM     76  C   UNL A   1      38.866  33.738  37.703  1.00  0.00     0.022 A 
BRANCH  74  77
ATOM     77  S   UNL A   1      37.207  31.838  38.760  1.00  0.00     0.127 S 
ATOM     78  O   UNL A   1      37.912  32.067  40.019  1.00  0.00    -0.237 OA
ATOM     79  O   UNL A   1      36.078  32.736  38.513  1.00  0.00    -0.237 OA
ATOM     80  O   UNL A   1      36.953  30.444  38.426  1.00  0.00    -0.744 OA
ENDBRANCH  74  77
ENDBRANCH  46  70
BRANCH  58  81
ATOM     81  C   UNL A   1      45.107  28.110  33.886  1.00  0.00     0.023 A 
ATOM     82  C   UNL A   1      46.226  28.963  33.855  1.00  0.00     0.012 A 
ATOM     83  C   UNL A   1      45.136  26.955  34.694  1.00  0.00     0.148 A 
ATOM     84  C   UNL A   1      47.365  28.661  34.601  1.00  0.00     0.002 A 
ATOM     85  C   UNL A   1      46.254  26.688  35.473  1.00  0.00     0.091 A 
ATOM     86  F   UNL A   1      44.066  26.147  34.693  1.00  0.00    -0.205 F 
ATOM     87  C   UNL A   1      47.374  27.533  35.420  1.00  0.00     0.022 A 
BRANCH  85  88
ATOM     88  S   UNL A   1      46.314  25.318  36.634  1.00  0.00     0.127 S 
ATOM     89  O   UNL A   1      45.308  25.717  37.618  1.00  0.00    -0.237 OA
ATOM     90  O   UNL A   1      45.927  24.185  35.793  1.00  0.00    -0.237 OA
ATOM     91  O   UNL A   1      47.683  25.267  37.129  1.00  0.00    -0.744 OA
ENDBRANCH  85  88
ENDBRANCH  58  81
ENDBRANCH  32  33
ENDBRANCH  24  27
ENDBRANCH  22  23
ENDBRANCH   1  22
TORSDOF 16
ENDMDL
