MODEL 1
REMARK VINA RESULT:     -10.2      0.000      0.000
REMARK SMILES C[C@@H](CO)C[NH2+]CC(C)(C)C(=O)NCCCNC(=O)c1ccc(-c2c3nc(c(-c4cccc(S(=O)(=O)[O-])c4F)c4ccc([nH]4)c(-c4cccc(S(=O)(=O)[O-])c4F)c4nc(c(-c5cccc(S(=O)(=O)[O-])c5F)c5ccc2[nH]5)C=C4)C=C3)cc1
REMARK SMILES IDX 11 1 12 2 13 3 8 5 9 6 10 7 7 8 6 9 5 12 2 13 1 14 3 15 4 16
REMARK SMILES IDX 14 18 15 19 16 20 17 21 18 22 19 24 20 25 21 26 82 27 22 28
REMARK SMILES IDX 81 29 23 30 24 31 25 32 75 33 26 34 80 35 74 36 76 37 27 38
REMARK SMILES IDX 79 39 73 40 72 41 28 43 60 44 40 45 59 46 41 47 44 48 58 49
REMARK SMILES IDX 77 50 42 51 43 52 57 54 78 55 45 56 29 57 30 58 38 59 31 60
REMARK SMILES IDX 33 61 39 62 32 63 34 64 35 65 36 66 37 67 61 68 62 69 70 70
REMARK SMILES IDX 63 71 65 72 71 73 64 74 66 75 67 76 68 77 69 78 46 79 47 80
REMARK SMILES IDX 55 81 48 82 50 83 56 84 49 85 51 86 52 87 53 88 54 89
REMARK H PARENT 13 4 6 10 6 11 4 17 17 23 76 42 44 53
REMARK Flexibility Score: inf
ROOT
ATOM      1  C   UNL A   1      33.151  28.671  25.626  1.00  0.00     0.231 C 
ATOM      2  O   UNL A   1      33.838  28.119  26.492  1.00  0.00    -0.274 OA
ATOM      3  N   UNL A   1      32.671  29.896  25.955  1.00  0.00    -0.355 N 
ATOM      4  H   UNL A   1      33.271  30.440  26.514  1.00  0.00     0.163 HD
ENDROOT
BRANCH   1   5
ATOM      5  C   UNL A   1      32.859  28.001  24.270  1.00  0.00     0.092 C 
ATOM      6  C   UNL A   1      33.681  26.731  23.985  1.00  0.00     0.027 C 
ATOM      7  C   UNL A   1      33.127  29.063  23.189  1.00  0.00     0.027 C 
BRANCH   5   8
ATOM      8  C   UNL A   1      31.334  27.614  24.219  1.00  0.00     0.276 C 
BRANCH   8   9
ATOM      9  N   UNL A   1      30.570  27.951  22.992  1.00  0.00    -0.345 N 
ATOM     10  H   UNL A   1      30.972  28.791  22.575  1.00  0.00     0.346 HD
ATOM     11  H   UNL A   1      30.628  27.156  22.356  1.00  0.00     0.346 HD
BRANCH   9  12
ATOM     12  C   UNL A   1      29.151  28.197  23.277  1.00  0.00     0.266 C 
BRANCH  12  13
ATOM     13  C   UNL A   1      28.537  29.364  22.482  1.00  0.00     0.067 C 
ATOM     14  C   UNL A   1      27.326  29.964  23.204  1.00  0.00     0.016 C 
BRANCH  13  15
ATOM     15  C   UNL A   1      29.616  30.438  22.248  1.00  0.00     0.165 C 
BRANCH  15  16
ATOM     16  O   UNL A   1      30.400  30.179  21.088  1.00  0.00    -0.396 OA
ATOM     17  H   UNL A   1      30.574  29.228  21.022  1.00  0.00     0.210 HD
ENDBRANCH  15  16
ENDBRANCH  13  15
ENDBRANCH  12  13
ENDBRANCH   9  12
ENDBRANCH   8   9
ENDBRANCH   5   8
ENDBRANCH   1   5
BRANCH   3  18
ATOM     18  C   UNL A   1      31.414  30.529  25.613  1.00  0.00     0.117 C 
BRANCH  18  19
ATOM     19  C   UNL A   1      31.365  31.955  26.147  1.00  0.00     0.042 C 
BRANCH  19  20
ATOM     20  C   UNL A   1      32.532  32.309  27.057  1.00  0.00     0.118 C 
BRANCH  20  21
ATOM     21  N   UNL A   1      32.488  33.695  27.506  1.00  0.00    -0.352 N 
ATOM     22  C   UNL A   1      33.211  34.320  28.491  1.00  0.00     0.251 C 
ATOM     23  H   UNL A   1      31.842  34.269  27.033  1.00  0.00     0.163 HD
ATOM     24  O   UNL A   1      32.874  35.439  28.876  1.00  0.00    -0.269 OA
BRANCH  22  25
ATOM     25  C   UNL A   1      34.378  33.645  29.096  1.00  0.00     0.039 A 
ATOM     26  C   UNL A   1      35.652  34.177  28.893  1.00  0.00     0.014 A 
ATOM     27  C   UNL A   1      34.215  32.488  29.863  1.00  0.00     0.014 A 
ATOM     28  C   UNL A   1      36.755  33.584  29.509  1.00  0.00     0.010 A 
ATOM     29  C   UNL A   1      35.297  31.960  30.557  1.00  0.00     0.010 A 
ATOM     30  C   UNL A   1      36.582  32.492  30.377  1.00  0.00    -0.014 A 
BRANCH  30  31
ATOM     31  C   UNL A   1      37.730  31.902  31.110  1.00  0.00     0.031 A 
ATOM     32  C   UNL A   1      38.554  30.807  30.486  1.00  0.00     0.074 A 
ATOM     33  C   UNL A   1      37.974  32.286  32.378  1.00  0.00     0.049 A 
ATOM     34  N   UNL A   1      39.568  30.152  30.988  1.00  0.00    -0.248 NA
ATOM     35  C   UNL A   1      38.167  30.368  29.134  1.00  0.00     0.031 C 
ATOM     36  C   UNL A   1      37.185  33.263  33.131  1.00  0.00     0.029 A 
ATOM     37  N   UNL A   1      38.936  31.879  33.268  1.00  0.00    -0.354 N 
ATOM     38  C   UNL A   1      39.910  29.197  30.039  1.00  0.00     0.074 A 
ATOM     39  C   UNL A   1      38.974  29.334  28.946  1.00  0.00     0.031 C 
ATOM     40  C   UNL A   1      37.695  33.382  34.366  1.00  0.00     0.029 A 
ATOM     41  C   UNL A   1      38.826  32.468  34.505  1.00  0.00     0.049 A 
ATOM     42  H   UNL A   1      39.639  31.227  33.042  1.00  0.00     0.167 HD
ATOM     43  C   UNL A   1      40.927  28.302  30.061  1.00  0.00     0.034 A 
ATOM     44  C   UNL A   1      39.541  32.287  35.631  1.00  0.00     0.034 A 
ATOM     45  C   UNL A   1      41.877  28.195  31.135  1.00  0.00     0.049 A 
ATOM     46  C   UNL A   1      40.702  31.333  35.616  1.00  0.00     0.074 A 
ATOM     47  C   UNL A   1      43.012  27.406  31.203  1.00  0.00     0.029 A 
ATOM     48  N   UNL A   1      41.791  28.876  32.339  1.00  0.00    -0.354 N 
ATOM     49  N   UNL A   1      41.128  30.572  34.637  1.00  0.00    -0.248 NA
ATOM     50  C   UNL A   1      41.506  31.241  36.842  1.00  0.00     0.031 C 
ATOM     51  C   UNL A   1      43.588  27.580  32.467  1.00  0.00     0.029 A 
ATOM     52  C   UNL A   1      42.837  28.508  33.169  1.00  0.00     0.049 A 
ATOM     53  H   UNL A   1      41.088  29.526  32.571  1.00  0.00     0.167 HD
ATOM     54  C   UNL A   1      42.263  29.929  35.118  1.00  0.00     0.074 A 
ATOM     55  C   UNL A   1      42.471  30.411  36.469  1.00  0.00     0.031 C 
ATOM     56  C   UNL A   1      43.053  29.016  34.501  1.00  0.00     0.034 A 
BRANCH  43  57
ATOM     57  C   UNL A   1      41.077  27.388  28.871  1.00  0.00     0.023 A 
ATOM     58  C   UNL A   1      40.304  26.212  28.783  1.00  0.00     0.012 A 
ATOM     59  C   UNL A   1      41.963  27.709  27.824  1.00  0.00     0.148 A 
ATOM     60  C   UNL A   1      40.447  25.344  27.699  1.00  0.00     0.002 A 
ATOM     61  C   UNL A   1      42.062  26.866  26.723  1.00  0.00     0.091 A 
ATOM     62  F   UNL A   1      42.708  28.818  27.932  1.00  0.00    -0.205 F 
ATOM     63  C   UNL A   1      41.318  25.676  26.667  1.00  0.00     0.022 A 
BRANCH  61  64
ATOM     64  S   UNL A   1      43.091  27.252  25.301  1.00  0.00     0.127 S 
ATOM     65  O   UNL A   1      43.180  25.952  24.640  1.00  0.00    -0.237 OA
ATOM     66  O   UNL A   1      42.278  28.241  24.593  1.00  0.00    -0.237 OA
ATOM     67  O   UNL A   1      44.340  27.770  25.841  1.00  0.00    -0.744 OA
ENDBRANCH  61  64
ENDBRANCH  43  57
BRANCH  44  68
ATOM     68  C   UNL A   1      39.199  33.074  36.849  1.00  0.00     0.023 A 
ATOM     69  C   UNL A   1      39.685  34.388  36.989  1.00  0.00     0.012 A 
ATOM     70  C   UNL A   1      38.338  32.549  37.831  1.00  0.00     0.148 A 
ATOM     71  C   UNL A   1      39.334  35.159  38.098  1.00  0.00     0.002 A 
ATOM     72  C   UNL A   1      37.945  33.342  38.902  1.00  0.00     0.091 A 
ATOM     73  F   UNL A   1      37.892  31.294  37.677  1.00  0.00    -0.205 F 
ATOM     74  C   UNL A   1      38.455  34.642  39.046  1.00  0.00     0.022 A 
BRANCH  72  75
ATOM     75  S   UNL A   1      36.707  32.815  40.093  1.00  0.00     0.127 S 
ATOM     76  O   UNL A   1      36.640  33.970  40.985  1.00  0.00    -0.237 OA
ATOM     77  O   UNL A   1      35.535  32.625  39.238  1.00  0.00    -0.237 OA
ATOM     78  O   UNL A   1      37.225  31.591  40.688  1.00  0.00    -0.744 OA
ENDBRANCH  72  75
ENDBRANCH  44  68
BRANCH  56  79
ATOM     79  C   UNL A   1      44.240  28.490  35.267  1.00  0.00     0.023 A 
ATOM     80  C   UNL A   1      45.484  29.148  35.183  1.00  0.00     0.012 A 
ATOM     81  C   UNL A   1      44.102  27.381  36.126  1.00  0.00     0.148 A 
ATOM     82  C   UNL A   1      46.580  28.689  35.912  1.00  0.00     0.002 A 
ATOM     83  C   UNL A   1      45.185  26.963  36.891  1.00  0.00     0.091 A 
ATOM     84  F   UNL A   1      42.917  26.757  36.181  1.00  0.00    -0.205 F 
ATOM     85  C   UNL A   1      46.427  27.606  36.775  1.00  0.00     0.022 A 
BRANCH  83  86
ATOM     86  S   UNL A   1      45.055  25.641  38.102  1.00  0.00     0.127 S 
ATOM     87  O   UNL A   1      46.436  25.529  38.568  1.00  0.00    -0.237 OA
ATOM     88  O   UNL A   1      44.125  26.208  39.079  1.00  0.00    -0.237 OA
ATOM     89  O   UNL A   1      44.543  24.483  37.381  1.00  0.00    -0.744 OA
ENDBRANCH  83  86
ENDBRANCH  56  79
ENDBRANCH  30  31
ENDBRANCH  22  25
ENDBRANCH  20  21
ENDBRANCH  19  20
ENDBRANCH  18  19
ENDBRANCH   3  18
TORSDOF 19
ENDMDL
MODEL 2
REMARK VINA RESULT:     -10.2      1.500      2.136
REMARK SMILES C[C@@H](CO)C[NH2+]CC(C)(C)C(=O)NCCCNC(=O)c1ccc(-c2c3nc(c(-c4cccc(S(=O)(=O)[O-])c4F)c4ccc([nH]4)c(-c4cccc(S(=O)(=O)[O-])c4F)c4nc(c(-c5cccc(S(=O)(=O)[O-])c5F)c5ccc2[nH]5)C=C4)C=C3)cc1
REMARK SMILES IDX 11 1 12 2 13 3 8 5 9 6 10 7 7 8 6 9 5 12 2 13 1 14 3 15 4 16
REMARK SMILES IDX 14 18 15 19 16 20 17 21 18 22 19 24 20 25 21 26 82 27 22 28
REMARK SMILES IDX 81 29 23 30 24 31 25 32 75 33 26 34 80 35 74 36 76 37 27 38
REMARK SMILES IDX 79 39 73 40 72 41 28 43 60 44 40 45 59 46 41 47 44 48 58 49
REMARK SMILES IDX 77 50 42 51 43 52 57 54 78 55 45 56 29 57 30 58 38 59 31 60
REMARK SMILES IDX 33 61 39 62 32 63 34 64 35 65 36 66 37 67 61 68 62 69 70 70
REMARK SMILES IDX 63 71 65 72 71 73 64 74 66 75 67 76 68 77 69 78 46 79 47 80
REMARK SMILES IDX 55 81 48 82 50 83 56 84 49 85 51 86 52 87 53 88 54 89
REMARK H PARENT 13 4 6 10 6 11 4 17 17 23 76 42 44 53
REMARK Flexibility Score: inf
ROOT
ATOM      1  C   UNL A   1      32.762  29.336  25.080  1.00  0.00     0.231 C 
ATOM      2  O   UNL A   1      33.311  29.425  23.977  1.00  0.00    -0.274 OA
ATOM      3  N   UNL A   1      31.800  30.258  25.330  1.00  0.00    -0.355 N 
ATOM      4  H   UNL A   1      31.267  30.523  24.547  1.00  0.00     0.163 HD
ENDROOT
BRANCH   1   5
ATOM      5  C   UNL A   1      33.158  28.251  26.100  1.00  0.00     0.092 C 
ATOM      6  C   UNL A   1      32.016  27.778  27.018  1.00  0.00     0.027 C 
ATOM      7  C   UNL A   1      34.309  28.835  26.938  1.00  0.00     0.027 C 
BRANCH   5   8
ATOM      8  C   UNL A   1      33.701  26.998  25.316  1.00  0.00     0.276 C 
BRANCH   8   9
ATOM      9  N   UNL A   1      33.085  26.675  24.005  1.00  0.00    -0.345 N 
ATOM     10  H   UNL A   1      32.242  27.237  23.891  1.00  0.00     0.346 HD
ATOM     11  H   UNL A   1      33.769  26.880  23.277  1.00  0.00     0.346 HD
BRANCH   9  12
ATOM     12  C   UNL A   1      32.726  25.256  23.899  1.00  0.00     0.266 C 
BRANCH  12  13
ATOM     13  C   UNL A   1      32.287  24.815  22.491  1.00  0.00     0.067 C 
ATOM     14  C   UNL A   1      32.495  25.930  21.460  1.00  0.00     0.016 C 
BRANCH  13  15
ATOM     15  C   UNL A   1      33.072  23.552  22.090  1.00  0.00     0.165 C 
BRANCH  15  16
ATOM     16  O   UNL A   1      33.185  23.406  20.678  1.00  0.00    -0.396 OA
ATOM     17  H   UNL A   1      33.766  22.657  20.476  1.00  0.00     0.210 HD
ENDBRANCH  15  16
ENDBRANCH  13  15
ENDBRANCH  12  13
ENDBRANCH   9  12
ENDBRANCH   8   9
ENDBRANCH   5   8
ENDBRANCH   1   5
BRANCH   3  18
ATOM     18  C   UNL A   1      31.435  30.914  26.569  1.00  0.00     0.117 C 
BRANCH  18  19
ATOM     19  C   UNL A   1      31.701  32.411  26.485  1.00  0.00     0.042 C 
BRANCH  19  20
ATOM     20  C   UNL A   1      32.740  32.906  27.481  1.00  0.00     0.118 C 
BRANCH  20  21
ATOM     21  N   UNL A   1      32.553  34.309  27.830  1.00  0.00    -0.352 N 
ATOM     22  C   UNL A   1      33.141  35.049  28.825  1.00  0.00     0.251 C 
ATOM     23  H   UNL A   1      31.909  34.799  27.269  1.00  0.00     0.163 HD
ATOM     24  O   UNL A   1      32.689  36.159  29.106  1.00  0.00    -0.269 OA
BRANCH  22  25
ATOM     25  C   UNL A   1      34.299  34.509  29.566  1.00  0.00     0.039 A 
ATOM     26  C   UNL A   1      34.088  33.876  30.792  1.00  0.00     0.014 A 
ATOM     27  C   UNL A   1      35.593  34.628  29.052  1.00  0.00     0.014 A 
ATOM     28  C   UNL A   1      35.167  33.309  31.471  1.00  0.00     0.010 A 
ATOM     29  C   UNL A   1      36.649  33.975  29.678  1.00  0.00     0.010 A 
ATOM     30  C   UNL A   1      36.452  33.321  30.902  1.00  0.00    -0.014 A 
BRANCH  30  31
ATOM     31  C   UNL A   1      37.595  32.648  31.567  1.00  0.00     0.031 A 
ATOM     32  C   UNL A   1      38.298  31.497  30.899  1.00  0.00     0.074 A 
ATOM     33  C   UNL A   1      37.942  33.012  32.817  1.00  0.00     0.049 A 
ATOM     34  N   UNL A   1      39.290  30.769  31.342  1.00  0.00    -0.248 NA
ATOM     35  C   UNL A   1      37.801  31.088  29.575  1.00  0.00     0.031 C 
ATOM     36  C   UNL A   1      37.273  34.043  33.613  1.00  0.00     0.029 A 
ATOM     37  N   UNL A   1      38.923  32.535  33.650  1.00  0.00    -0.354 N 
ATOM     38  C   UNL A   1      39.505  29.792  30.378  1.00  0.00     0.074 A 
ATOM     39  C   UNL A   1      38.517  29.998  29.343  1.00  0.00     0.031 C 
ATOM     40  C   UNL A   1      37.863  34.124  34.814  1.00  0.00     0.029 A 
ATOM     41  C   UNL A   1      38.930  33.130  34.889  1.00  0.00     0.049 A 
ATOM     42  H   UNL A   1      39.562  31.834  33.385  1.00  0.00     0.167 HD
ATOM     43  C   UNL A   1      40.453  28.825  30.343  1.00  0.00     0.034 A 
ATOM     44  C   UNL A   1      39.696  32.897  35.971  1.00  0.00     0.034 A 
ATOM     45  C   UNL A   1      41.455  28.648  31.358  1.00  0.00     0.049 A 
ATOM     46  C   UNL A   1      40.781  31.860  35.890  1.00  0.00     0.074 A 
ATOM     47  C   UNL A   1      42.531  27.779  31.362  1.00  0.00     0.029 A 
ATOM     48  N   UNL A   1      41.490  29.332  32.563  1.00  0.00    -0.354 N 
ATOM     49  N   UNL A   1      41.091  31.071  34.890  1.00  0.00    -0.248 NA
ATOM     50  C   UNL A   1      41.648  31.709  37.067  1.00  0.00     0.031 C 
ATOM     51  C   UNL A   1      43.193  27.908  32.589  1.00  0.00     0.029 A 
ATOM     52  C   UNL A   1      42.555  28.889  33.331  1.00  0.00     0.049 A 
ATOM     53  H   UNL A   1      40.852  30.032  32.834  1.00  0.00     0.167 HD
ATOM     54  C   UNL A   1      42.203  30.346  35.306  1.00  0.00     0.074 A 
ATOM     55  C   UNL A   1      42.526  30.811  36.640  1.00  0.00     0.031 C 
ATOM     56  C   UNL A   1      42.887  29.379  34.645  1.00  0.00     0.034 A 
BRANCH  43  57
ATOM     57  C   UNL A   1      40.465  27.903  29.149  1.00  0.00     0.023 A 
ATOM     58  C   UNL A   1      39.548  26.834  29.074  1.00  0.00     0.012 A 
ATOM     59  C   UNL A   1      41.364  28.114  28.086  1.00  0.00     0.148 A 
ATOM     60  C   UNL A   1      39.561  25.959  27.988  1.00  0.00     0.002 A 
ATOM     61  C   UNL A   1      41.336  27.269  26.982  1.00  0.00     0.091 A 
ATOM     62  F   UNL A   1      42.245  29.121  28.181  1.00  0.00    -0.205 F 
ATOM     63  C   UNL A   1      40.447  26.183  26.939  1.00  0.00     0.022 A 
BRANCH  61  64
ATOM     64  S   UNL A   1      42.379  27.528  25.542  1.00  0.00     0.127 S 
ATOM     65  O   UNL A   1      43.696  27.679  26.155  1.00  0.00    -0.237 OA
ATOM     66  O   UNL A   1      42.192  26.281  24.800  1.00  0.00    -0.237 OA
ATOM     67  O   UNL A   1      41.855  28.712  24.877  1.00  0.00    -0.744 OA
ENDBRANCH  61  64
ENDBRANCH  43  57
BRANCH  44  68
ATOM     68  C   UNL A   1      39.486  33.706  37.204  1.00  0.00     0.023 A 
ATOM     69  C   UNL A   1      39.956  35.032  37.257  1.00  0.00     0.012 A 
ATOM     70  C   UNL A   1      38.760  33.188  38.294  1.00  0.00     0.148 A 
ATOM     71  C   UNL A   1      39.725  35.821  38.384  1.00  0.00     0.002 A 
ATOM     72  C   UNL A   1      38.481  33.998  39.387  1.00  0.00     0.091 A 
ATOM     73  F   UNL A   1      38.326  31.921  38.221  1.00  0.00    -0.205 F 
ATOM     74  C   UNL A   1      38.977  35.310  39.442  1.00  0.00     0.022 A 
BRANCH  72  75
ATOM     75  S   UNL A   1      37.407  33.476  40.729  1.00  0.00     0.127 S 
ATOM     76  O   UNL A   1      37.229  34.721  41.472  1.00  0.00    -0.237 OA
ATOM     77  O   UNL A   1      36.224  33.017  40.001  1.00  0.00    -0.237 OA
ATOM     78  O   UNL A   1      38.130  32.424  41.430  1.00  0.00    -0.744 OA
ENDBRANCH  72  75
ENDBRANCH  44  68
BRANCH  56  79
ATOM     79  C   UNL A   1      44.075  28.766  35.342  1.00  0.00     0.023 A 
ATOM     80  C   UNL A   1      45.369  29.278  35.112  1.00  0.00     0.012 A 
ATOM     81  C   UNL A   1      43.899  27.728  36.278  1.00  0.00     0.148 A 
ATOM     82  C   UNL A   1      46.471  28.740  35.775  1.00  0.00     0.002 A 
ATOM     83  C   UNL A   1      44.996  27.234  36.975  1.00  0.00     0.091 A 
ATOM     84  F   UNL A   1      42.664  27.242  36.471  1.00  0.00    -0.205 F 
ATOM     85  C   UNL A   1      46.284  27.729  36.714  1.00  0.00     0.022 A 
BRANCH  83  86
ATOM     86  S   UNL A   1      44.837  26.002  38.273  1.00  0.00     0.127 S 
ATOM     87  O   UNL A   1      43.840  26.619  39.147  1.00  0.00    -0.237 OA
ATOM     88  O   UNL A   1      44.360  24.833  37.533  1.00  0.00    -0.237 OA
ATOM     89  O   UNL A   1      46.166  25.851  38.851  1.00  0.00    -0.744 OA
ENDBRANCH  83  86
ENDBRANCH  56  79
ENDBRANCH  30  31
ENDBRANCH  22  25
ENDBRANCH  20  21
ENDBRANCH  19  20
ENDBRANCH  18  19
ENDBRANCH   3  18
TORSDOF 19
ENDMDL
MODEL 3
REMARK VINA RESULT:     -10.0      3.956     10.063
REMARK SMILES C[C@@H](CO)C[NH2+]CC(C)(C)C(=O)NCCCNC(=O)c1ccc(-c2c3nc(c(-c4cccc(S(=O)(=O)[O-])c4F)c4ccc([nH]4)c(-c4cccc(S(=O)(=O)[O-])c4F)c4nc(c(-c5cccc(S(=O)(=O)[O-])c5F)c5ccc2[nH]5)C=C4)C=C3)cc1
REMARK SMILES IDX 11 1 12 2 13 3 8 5 9 6 10 7 7 8 6 9 5 12 2 13 1 14 3 15 4 16
REMARK SMILES IDX 14 18 15 19 16 20 17 21 18 22 19 24 20 25 21 26 82 27 22 28
REMARK SMILES IDX 81 29 23 30 24 31 25 32 75 33 26 34 80 35 74 36 76 37 27 38
REMARK SMILES IDX 79 39 73 40 72 41 28 43 60 44 40 45 59 46 41 47 44 48 58 49
REMARK SMILES IDX 77 50 42 51 43 52 57 54 78 55 45 56 29 57 30 58 38 59 31 60
REMARK SMILES IDX 33 61 39 62 32 63 34 64 35 65 36 66 37 67 61 68 62 69 70 70
REMARK SMILES IDX 63 71 65 72 71 73 64 74 66 75 67 76 68 77 69 78 46 79 47 80
REMARK SMILES IDX 55 81 48 82 50 83 56 84 49 85 51 86 52 87 53 88 54 89
REMARK H PARENT 13 4 6 10 6 11 4 17 17 23 76 42 44 53
REMARK Flexibility Score: inf
ROOT
ATOM      1  C   UNL A   1      34.985  33.106  32.053  1.00  0.00     0.231 C 
ATOM      2  O   UNL A   1      35.299  31.913  32.102  1.00  0.00    -0.274 OA
ATOM      3  N   UNL A   1      34.054  33.426  31.120  1.00  0.00    -0.355 N 
ATOM      4  H   UNL A   1      33.365  32.740  30.969  1.00  0.00     0.163 HD
ENDROOT
BRANCH   1   5
ATOM      5  C   UNL A   1      35.620  34.154  32.987  1.00  0.00     0.092 C 
ATOM      6  C   UNL A   1      34.703  35.334  33.355  1.00  0.00     0.027 C 
ATOM      7  C   UNL A   1      36.887  34.664  32.277  1.00  0.00     0.027 C 
BRANCH   5   8
ATOM      8  C   UNL A   1      36.052  33.441  34.322  1.00  0.00     0.276 C 
BRANCH   8   9
ATOM      9  N   UNL A   1      37.165  32.460  34.262  1.00  0.00    -0.345 N 
ATOM     10  H   UNL A   1      36.772  31.524  34.153  1.00  0.00     0.346 HD
ATOM     11  H   UNL A   1      37.759  32.707  33.471  1.00  0.00     0.346 HD
BRANCH   9  12
ATOM     12  C   UNL A   1      37.992  32.488  35.474  1.00  0.00     0.266 C 
BRANCH  12  13
ATOM     13  C   UNL A   1      37.984  33.837  36.216  1.00  0.00     0.067 C 
ATOM     14  C   UNL A   1      38.180  33.652  37.725  1.00  0.00     0.016 C 
BRANCH  13  15
ATOM     15  C   UNL A   1      39.086  34.741  35.632  1.00  0.00     0.165 C 
BRANCH  15  16
ATOM     16  O   UNL A   1      39.550  34.285  34.366  1.00  0.00    -0.396 OA
ATOM     17  H   UNL A   1      39.206  34.863  33.668  1.00  0.00     0.210 HD
ENDBRANCH  15  16
ENDBRANCH  13  15
ENDBRANCH  12  13
ENDBRANCH   9  12
ENDBRANCH   8   9
ENDBRANCH   5   8
ENDBRANCH   1   5
BRANCH   3  18
ATOM     18  C   UNL A   1      33.915  34.620  30.312  1.00  0.00     0.117 C 
BRANCH  18  19
ATOM     19  C   UNL A   1      33.698  34.258  28.848  1.00  0.00     0.042 C 
BRANCH  19  20
ATOM     20  C   UNL A   1      34.679  33.219  28.322  1.00  0.00     0.118 C 
BRANCH  20  21
ATOM     21  N   UNL A   1      34.007  32.076  27.716  1.00  0.00    -0.352 N 
ATOM     22  C   UNL A   1      34.470  30.803  27.498  1.00  0.00     0.251 C 
ATOM     23  H   UNL A   1      33.083  32.242  27.417  1.00  0.00     0.163 HD
ATOM     24  O   UNL A   1      33.835  30.040  26.770  1.00  0.00    -0.269 OA
BRANCH  22  25
ATOM     25  C   UNL A   1      35.733  30.356  28.121  1.00  0.00     0.039 A 
ATOM     26  C   UNL A   1      35.699  29.789  29.396  1.00  0.00     0.014 A 
ATOM     27  C   UNL A   1      36.950  30.498  27.449  1.00  0.00     0.014 A 
ATOM     28  C   UNL A   1      36.877  29.308  29.970  1.00  0.00     0.010 A 
ATOM     29  C   UNL A   1      38.102  29.928  27.976  1.00  0.00     0.010 A 
ATOM     30  C   UNL A   1      38.083  29.340  29.249  1.00  0.00    -0.014 A 
BRANCH  30  31
ATOM     31  C   UNL A   1      39.329  28.755  29.806  1.00  0.00     0.031 A 
ATOM     32  C   UNL A   1      39.979  29.358  31.022  1.00  0.00     0.074 A 
ATOM     33  C   UNL A   1      39.928  27.735  29.161  1.00  0.00     0.049 A 
ATOM     34  N   UNL A   1      41.083  29.004  31.627  1.00  0.00    -0.248 NA
ATOM     35  C   UNL A   1      39.321  30.533  31.617  1.00  0.00     0.031 C 
ATOM     36  C   UNL A   1      39.453  27.129  27.915  1.00  0.00     0.029 A 
ATOM     37  N   UNL A   1      41.082  27.049  29.445  1.00  0.00    -0.354 N 
ATOM     38  C   UNL A   1      41.277  29.935  32.639  1.00  0.00     0.074 A 
ATOM     39  C   UNL A   1      40.196  30.890  32.546  1.00  0.00     0.031 C 
ATOM     40  C   UNL A   1      40.305  26.161  27.544  1.00  0.00     0.029 A 
ATOM     41  C   UNL A   1      41.403  26.099  28.505  1.00  0.00     0.049 A 
ATOM     42  H   UNL A   1      41.629  27.221  30.245  1.00  0.00     0.167 HD
ATOM     43  C   UNL A   1      42.252  29.979  33.579  1.00  0.00     0.034 A 
ATOM     44  C   UNL A   1      42.465  25.277  28.414  1.00  0.00     0.034 A 
ATOM     45  C   UNL A   1      43.304  29.005  33.688  1.00  0.00     0.049 A 
ATOM     46  C   UNL A   1      43.505  25.301  29.499  1.00  0.00     0.074 A 
ATOM     47  C   UNL A   1      44.270  28.890  34.672  1.00  0.00     0.029 A 
ATOM     48  N   UNL A   1      43.547  27.995  32.770  1.00  0.00    -0.354 N 
ATOM     49  N   UNL A   1      43.569  26.070  30.559  1.00  0.00    -0.248 NA
ATOM     50  C   UNL A   1      44.595  24.322  29.400  1.00  0.00     0.031 C 
ATOM     51  C   UNL A   1      45.122  27.835  34.326  1.00  0.00     0.029 A 
ATOM     52  C   UNL A   1      44.662  27.266  33.149  1.00  0.00     0.049 A 
ATOM     53  H   UNL A   1      43.006  27.822  31.966  1.00  0.00     0.167 HD
ATOM     54  C   UNL A   1      44.690  25.652  31.267  1.00  0.00     0.074 A 
ATOM     55  C   UNL A   1      45.260  24.544  30.526  1.00  0.00     0.031 C 
ATOM     56  C   UNL A   1      45.204  26.147  32.421  1.00  0.00     0.034 A 
BRANCH  43  57
ATOM     57  C   UNL A   1      42.204  31.105  34.581  1.00  0.00     0.023 A 
ATOM     58  C   UNL A   1      41.561  30.919  35.822  1.00  0.00     0.012 A 
ATOM     59  C   UNL A   1      42.823  32.340  34.305  1.00  0.00     0.148 A 
ATOM     60  C   UNL A   1      41.489  31.958  36.750  1.00  0.00     0.002 A 
ATOM     61  C   UNL A   1      42.792  33.353  35.256  1.00  0.00     0.091 A 
ATOM     62  F   UNL A   1      43.411  32.510  33.112  1.00  0.00    -0.205 F 
ATOM     63  C   UNL A   1      42.112  33.170  36.470  1.00  0.00     0.022 A 
BRANCH  61  64
ATOM     64  S   UNL A   1      43.641  34.920  35.025  1.00  0.00     0.127 S 
ATOM     65  O   UNL A   1      43.939  35.301  36.404  1.00  0.00    -0.237 OA
ATOM     66  O   UNL A   1      44.808  34.525  34.235  1.00  0.00    -0.237 OA
ATOM     67  O   UNL A   1      42.701  35.784  34.324  1.00  0.00    -0.744 OA
ENDBRANCH  61  64
ENDBRANCH  43  57
BRANCH  44  68
ATOM     68  C   UNL A   1      42.559  24.327  27.270  1.00  0.00     0.023 A 
ATOM     69  C   UNL A   1      43.287  24.691  26.121  1.00  0.00     0.012 A 
ATOM     70  C   UNL A   1      41.990  23.042  27.348  1.00  0.00     0.148 A 
ATOM     71  C   UNL A   1      43.428  23.796  25.059  1.00  0.00     0.002 A 
ATOM     72  C   UNL A   1      42.185  22.136  26.313  1.00  0.00     0.091 A 
ATOM     73  F   UNL A   1      41.299  22.721  28.451  1.00  0.00    -0.205 F 
ATOM     74  C   UNL A   1      42.890  22.516  25.160  1.00  0.00     0.022 A 
BRANCH  72  75
ATOM     75  S   UNL A   1      41.654  20.422  26.416  1.00  0.00     0.127 S 
ATOM     76  O   UNL A   1      40.209  20.546  26.236  1.00  0.00    -0.237 OA
ATOM     77  O   UNL A   1      42.368  19.821  25.290  1.00  0.00    -0.237 OA
ATOM     78  O   UNL A   1      42.085  19.951  27.725  1.00  0.00    -0.744 OA
ENDBRANCH  72  75
ENDBRANCH  44  68
BRANCH  56  79
ATOM     79  C   UNL A   1      46.438  25.481  32.976  1.00  0.00     0.023 A 
ATOM     80  C   UNL A   1      47.714  26.002  32.683  1.00  0.00     0.012 A 
ATOM     81  C   UNL A   1      46.325  24.379  33.847  1.00  0.00     0.148 A 
ATOM     82  C   UNL A   1      48.860  25.414  33.217  1.00  0.00     0.002 A 
ATOM     83  C   UNL A   1      47.468  23.831  34.418  1.00  0.00     0.091 A 
ATOM     84  F   UNL A   1      45.104  23.885  34.101  1.00  0.00    -0.205 F 
ATOM     85  C   UNL A   1      48.737  24.339  34.094  1.00  0.00     0.022 A 
BRANCH  83  86
ATOM     86  S   UNL A   1      47.399  22.511  35.634  1.00  0.00     0.127 S 
ATOM     87  O   UNL A   1      48.816  22.298  35.922  1.00  0.00    -0.237 OA
ATOM     88  O   UNL A   1      46.642  23.130  36.722  1.00  0.00    -0.237 OA
ATOM     89  O   UNL A   1      46.720  21.398  34.982  1.00  0.00    -0.744 OA
ENDBRANCH  83  86
ENDBRANCH  56  79
ENDBRANCH  30  31
ENDBRANCH  22  25
ENDBRANCH  20  21
ENDBRANCH  19  20
ENDBRANCH  18  19
ENDBRANCH   3  18
TORSDOF 19
ENDMDL
