MODEL 1
REMARK VINA RESULT:     -13.2      0.000      0.000
REMARK SMILES CC(=O)Nc1cccc(-c2ccc(F)c(C(=O)NCCCNC(=O)c3ccc(-c4c5nc(c(-c6cccc(S(=O)(=O)[O-])c6F)c6ccc([nH]6)c(-c6cccc(S(=O)(=O)[O-])c6F)c6nc(c(-c7cccc(S(=O)(=O)[O-])c7F)c7ccc4[nH]7)C=C6)C=C5)cc3)c2)c1
REMARK SMILES IDX 20 1 19 2 18 3 16 4 17 5 15 7 10 8 11 9 88 10 12 11 13 12
REMARK SMILES IDX 14 13 9 14 5 15 6 16 89 17 7 18 8 19 4 20 1 21 2 22 3 23
REMARK SMILES IDX 21 25 22 26 23 27 24 29 25 30 26 31 87 32 27 33 86 34 28 35
REMARK SMILES IDX 29 36 30 37 80 38 31 39 85 40 79 41 81 42 32 43 84 44 78 45
REMARK SMILES IDX 77 46 33 48 65 49 45 50 64 51 46 52 49 53 63 54 82 55 47 56
REMARK SMILES IDX 48 57 62 59 83 60 50 61 34 62 35 63 43 64 36 65 38 66 44 67
REMARK SMILES IDX 37 68 39 69 40 70 41 71 42 72 66 73 67 74 75 75 68 76 70 77
REMARK SMILES IDX 76 78 69 79 71 80 72 81 73 82 74 83 51 84 52 85 60 86 53 87
REMARK SMILES IDX 55 88 61 89 54 90 56 91 57 92 58 93 59 94
REMARK H PARENT 18 6 4 24 22 28 81 47 49 58
REMARK Flexibility Score: inf
ROOT
ATOM      1  C   UNL A   1      31.626  28.490  25.510  1.00  0.00     0.042 C 
ENDROOT
BRANCH   1   2
ATOM      2  C   UNL A   1      31.974  27.074  25.061  1.00  0.00     0.118 C 
BRANCH   2   3
ATOM      3  N   UNL A   1      31.560  26.048  26.012  1.00  0.00    -0.352 N 
ATOM      4  C   UNL A   1      31.929  24.769  26.355  1.00  0.00     0.254 C 
ATOM      5  O   UNL A   1      31.331  24.304  27.329  1.00  0.00    -0.269 OA
ATOM      6  H   UNL A   1      30.805  26.359  26.561  1.00  0.00     0.163 HD
BRANCH   4   7
ATOM      7  C   UNL A   1      32.952  23.931  25.664  1.00  0.00     0.076 A 
ATOM      8  C   UNL A   1      33.684  21.843  24.565  1.00  0.00    -0.017 A 
ATOM      9  C   UNL A   1      34.976  22.349  24.446  1.00  0.00     0.012 A 
ATOM     10  C   UNL A   1      32.699  22.663  25.152  1.00  0.00     0.025 A 
ATOM     11  C   UNL A   1      35.259  23.636  24.908  1.00  0.00     0.041 A 
ATOM     12  C   UNL A   1      34.260  24.409  25.517  1.00  0.00     0.135 A 
ATOM     13  F   UNL A   1      34.623  25.620  25.963  1.00  0.00    -0.206 F 
BRANCH   8  14
ATOM     14  C   UNL A   1      33.298  20.465  24.212  1.00  0.00    -0.016 A 
ATOM     15  C   UNL A   1      33.936  18.101  24.074  1.00  0.00     0.041 A 
ATOM     16  C   UNL A   1      32.953  17.912  23.100  1.00  0.00     0.026 A 
ATOM     17  C   UNL A   1      34.097  19.376  24.622  1.00  0.00     0.034 A 
ATOM     18  C   UNL A   1      32.108  18.961  22.729  1.00  0.00     0.003 A 
ATOM     19  C   UNL A   1      32.276  20.229  23.286  1.00  0.00     0.009 A 
BRANCH  15  20
ATOM     20  N   UNL A   1      34.777  17.012  24.362  1.00  0.00    -0.326 N 
ATOM     21  C   UNL A   1      33.197  15.453  25.498  1.00  0.00     0.114 C 
ATOM     22  C   UNL A   1      34.583  15.874  25.089  1.00  0.00     0.221 C 
ATOM     23  O   UNL A   1      35.552  15.160  25.359  1.00  0.00    -0.275 OA
ATOM     24  H   UNL A   1      35.675  17.084  23.965  1.00  0.00     0.169 HD
ENDBRANCH  15  20
ENDBRANCH   8  14
ENDBRANCH   4   7
ENDBRANCH   2   3
ENDBRANCH   1   2
BRANCH   1  25
ATOM     25  C   UNL A   1      32.849  29.401  25.593  1.00  0.00     0.118 C 
BRANCH  25  26
ATOM     26  N   UNL A   1      32.506  30.746  26.057  1.00  0.00    -0.352 N 
ATOM     27  C   UNL A   1      33.046  31.528  27.048  1.00  0.00     0.251 C 
ATOM     28  H   UNL A   1      31.759  31.164  25.572  1.00  0.00     0.163 HD
ATOM     29  O   UNL A   1      32.423  32.511  27.442  1.00  0.00    -0.269 OA
BRANCH  27  30
ATOM     30  C   UNL A   1      34.360  31.202  27.637  1.00  0.00     0.039 A 
ATOM     31  C   UNL A   1      35.316  32.214  27.778  1.00  0.00     0.014 A 
ATOM     32  C   UNL A   1      34.670  29.893  28.009  1.00  0.00     0.014 A 
ATOM     33  C   UNL A   1      36.549  31.925  28.367  1.00  0.00     0.010 A 
ATOM     34  C   UNL A   1      35.860  29.626  28.677  1.00  0.00     0.010 A 
ATOM     35  C   UNL A   1      36.812  30.637  28.862  1.00  0.00    -0.014 A 
BRANCH  35  36
ATOM     36  C   UNL A   1      38.060  30.324  29.604  1.00  0.00     0.031 A 
ATOM     37  C   UNL A   1      39.062  29.360  29.030  1.00  0.00     0.074 A 
ATOM     38  C   UNL A   1      38.226  30.814  30.849  1.00  0.00     0.049 A 
ATOM     39  N   UNL A   1      40.148  28.878  29.577  1.00  0.00    -0.248 NA
ATOM     40  C   UNL A   1      38.794  28.845  27.678  1.00  0.00     0.031 C 
ATOM     41  C   UNL A   1      37.284  31.696  31.542  1.00  0.00     0.029 A 
ATOM     42  N   UNL A   1      39.227  30.613  31.765  1.00  0.00    -0.354 N 
ATOM     43  C   UNL A   1      40.669  27.976  28.657  1.00  0.00     0.074 A 
ATOM     44  C   UNL A   1      39.762  27.952  27.530  1.00  0.00     0.031 C 
ATOM     45  C   UNL A   1      37.751  31.959  32.772  1.00  0.00     0.029 A 
ATOM     46  C   UNL A   1      39.002  31.234  32.972  1.00  0.00     0.049 A 
ATOM     47  H   UNL A   1      40.030  30.074  31.577  1.00  0.00     0.167 HD
ATOM     48  C   UNL A   1      41.812  27.254  28.731  1.00  0.00     0.034 A 
ATOM     49  C   UNL A   1      39.712  31.209  34.117  1.00  0.00     0.034 A 
ATOM     50  C   UNL A   1      42.729  27.313  29.838  1.00  0.00     0.049 A 
ATOM     51  C   UNL A   1      40.988  30.414  34.165  1.00  0.00     0.074 A 
ATOM     52  C   UNL A   1      43.961  26.699  29.966  1.00  0.00     0.029 A 
ATOM     53  N   UNL A   1      42.506  28.014  31.013  1.00  0.00    -0.354 N 
ATOM     54  N   UNL A   1      41.551  29.700  33.221  1.00  0.00    -0.248 NA
ATOM     55  C   UNL A   1      41.741  30.445  35.426  1.00  0.00     0.031 C 
ATOM     56  C   UNL A   1      44.470  27.003  31.234  1.00  0.00     0.029 A 
ATOM     57  C   UNL A   1      43.567  27.831  31.883  1.00  0.00     0.049 A 
ATOM     58  H   UNL A   1      41.710  28.561  31.201  1.00  0.00     0.167 HD
ATOM     59  C   UNL A   1      42.735  29.216  33.764  1.00  0.00     0.074 A 
ATOM     60  C   UNL A   1      42.821  29.743  35.111  1.00  0.00     0.031 C 
ATOM     61  C   UNL A   1      43.658  28.394  33.207  1.00  0.00     0.034 A 
BRANCH  48  62
ATOM     62  C   UNL A   1      42.160  26.372  27.559  1.00  0.00     0.023 A 
ATOM     63  C   UNL A   1      42.893  26.905  26.479  1.00  0.00     0.012 A 
ATOM     64  C   UNL A   1      41.808  25.008  27.547  1.00  0.00     0.148 A 
ATOM     65  C   UNL A   1      43.236  26.108  25.388  1.00  0.00     0.002 A 
ATOM     66  C   UNL A   1      42.193  24.208  26.477  1.00  0.00     0.091 A 
ATOM     67  F   UNL A   1      41.092  24.522  28.572  1.00  0.00    -0.205 F 
ATOM     68  C   UNL A   1      42.895  24.758  25.392  1.00  0.00     0.022 A 
BRANCH  66  69
ATOM     69  S   UNL A   1      41.872  22.441  26.423  1.00  0.00     0.127 S 
ATOM     70  O   UNL A   1      40.411  22.409  26.358  1.00  0.00    -0.237 OA
ATOM     71  O   UNL A   1      42.545  22.044  25.186  1.00  0.00    -0.237 OA
ATOM     72  O   UNL A   1      42.455  21.889  27.637  1.00  0.00    -0.744 OA
ENDBRANCH  66  69
ENDBRANCH  48  62
BRANCH  49  73
ATOM     73  C   UNL A   1      39.254  32.004  35.292  1.00  0.00     0.023 A 
ATOM     74  C   UNL A   1      38.385  31.410  36.228  1.00  0.00     0.012 A 
ATOM     75  C   UNL A   1      39.701  33.322  35.510  1.00  0.00     0.148 A 
ATOM     76  C   UNL A   1      37.946  32.125  37.343  1.00  0.00     0.002 A 
ATOM     77  C   UNL A   1      39.305  34.008  36.652  1.00  0.00     0.091 A 
ATOM     78  F   UNL A   1      40.521  33.872  34.603  1.00  0.00    -0.205 F 
ATOM     79  C   UNL A   1      38.413  33.418  37.561  1.00  0.00     0.022 A 
BRANCH  77  80
ATOM     80  S   UNL A   1      39.964  35.622  37.087  1.00  0.00     0.127 S 
ATOM     81  O   UNL A   1      39.269  35.902  38.341  1.00  0.00    -0.237 OA
ATOM     82  O   UNL A   1      41.393  35.338  37.224  1.00  0.00    -0.237 OA
ATOM     83  O   UNL A   1      39.632  36.499  35.972  1.00  0.00    -0.744 OA
ENDBRANCH  77  80
ENDBRANCH  49  73
BRANCH  61  84
ATOM     84  C   UNL A   1      44.852  28.018  34.044  1.00  0.00     0.023 A 
ATOM     85  C   UNL A   1      46.041  28.766  33.937  1.00  0.00     0.012 A 
ATOM     86  C   UNL A   1      44.772  26.976  34.989  1.00  0.00     0.148 A 
ATOM     87  C   UNL A   1      47.144  28.463  34.736  1.00  0.00     0.002 A 
ATOM     88  C   UNL A   1      45.858  26.712  35.816  1.00  0.00     0.091 A 
ATOM     89  F   UNL A   1      43.638  26.267  35.064  1.00  0.00    -0.205 F 
ATOM     90  C   UNL A   1      47.048  27.446  35.682  1.00  0.00     0.022 A 
BRANCH  88  91
ATOM     91  S   UNL A   1      45.798  25.486  37.128  1.00  0.00     0.127 S 
ATOM     92  O   UNL A   1      45.527  24.261  36.377  1.00  0.00    -0.237 OA
ATOM     93  O   UNL A   1      47.147  25.571  37.690  1.00  0.00    -0.237 OA
ATOM     94  O   UNL A   1      44.737  25.911  38.030  1.00  0.00    -0.744 OA
ENDBRANCH  88  91
ENDBRANCH  61  84
ENDBRANCH  35  36
ENDBRANCH  27  30
ENDBRANCH  25  26
ENDBRANCH   1  25
TORSDOF 15
ENDMDL
MODEL 2
REMARK VINA RESULT:     -13.0      4.974     10.549
REMARK SMILES CC(=O)Nc1cccc(-c2ccc(F)c(C(=O)NCCCNC(=O)c3ccc(-c4c5nc(c(-c6cccc(S(=O)(=O)[O-])c6F)c6ccc([nH]6)c(-c6cccc(S(=O)(=O)[O-])c6F)c6nc(c(-c7cccc(S(=O)(=O)[O-])c7F)c7ccc4[nH]7)C=C6)C=C5)cc3)c2)c1
REMARK SMILES IDX 20 1 19 2 18 3 16 4 17 5 15 7 10 8 11 9 88 10 12 11 13 12
REMARK SMILES IDX 14 13 9 14 5 15 6 16 89 17 7 18 8 19 4 20 1 21 2 22 3 23
REMARK SMILES IDX 21 25 22 26 23 27 24 29 25 30 26 31 87 32 27 33 86 34 28 35
REMARK SMILES IDX 29 36 30 37 80 38 31 39 85 40 79 41 81 42 32 43 84 44 78 45
REMARK SMILES IDX 77 46 33 48 65 49 45 50 64 51 46 52 49 53 63 54 82 55 47 56
REMARK SMILES IDX 48 57 62 59 83 60 50 61 34 62 35 63 43 64 36 65 38 66 44 67
REMARK SMILES IDX 37 68 39 69 40 70 41 71 42 72 66 73 67 74 75 75 68 76 70 77
REMARK SMILES IDX 76 78 69 79 71 80 72 81 73 82 74 83 51 84 52 85 60 86 53 87
REMARK SMILES IDX 55 88 61 89 54 90 56 91 57 92 58 93 59 94
REMARK H PARENT 18 6 4 24 22 28 81 47 49 58
REMARK Flexibility Score: inf
ROOT
ATOM      1  C   UNL A   1      34.637  22.081  26.226  1.00  0.00     0.042 C 
ENDROOT
BRANCH   1   2
ATOM      2  C   UNL A   1      33.417  22.814  25.678  1.00  0.00     0.118 C 
BRANCH   2   3
ATOM      3  N   UNL A   1      33.635  23.387  24.354  1.00  0.00    -0.352 N 
ATOM      4  C   UNL A   1      33.525  24.615  23.745  1.00  0.00     0.254 C 
ATOM      5  O   UNL A   1      33.927  24.650  22.579  1.00  0.00    -0.269 OA
ATOM      6  H   UNL A   1      33.947  22.703  23.719  1.00  0.00     0.163 HD
BRANCH   4   7
ATOM      7  C   UNL A   1      32.974  25.859  24.360  1.00  0.00     0.076 A 
ATOM      8  C   UNL A   1      31.319  27.689  24.475  1.00  0.00    -0.017 A 
ATOM      9  C   UNL A   1      32.035  28.283  25.512  1.00  0.00     0.012 A 
ATOM     10  C   UNL A   1      31.800  26.476  23.942  1.00  0.00     0.025 A 
ATOM     11  C   UNL A   1      33.196  27.668  25.989  1.00  0.00     0.041 A 
ATOM     12  C   UNL A   1      33.660  26.479  25.411  1.00  0.00     0.135 A 
ATOM     13  F   UNL A   1      34.800  25.974  25.905  1.00  0.00    -0.206 F 
BRANCH   8  14
ATOM     14  C   UNL A   1      30.147  28.300  23.823  1.00  0.00    -0.016 A 
ATOM     15  C   UNL A   1      28.809  30.316  23.421  1.00  0.00     0.041 A 
ATOM     16  C   UNL A   1      27.708  29.506  23.134  1.00  0.00     0.026 A 
ATOM     17  C   UNL A   1      30.018  29.704  23.761  1.00  0.00     0.034 A 
ATOM     18  C   UNL A   1      27.833  28.114  23.126  1.00  0.00     0.003 A 
ATOM     19  C   UNL A   1      29.046  27.515  23.461  1.00  0.00     0.009 A 
BRANCH  15  20
ATOM     20  N   UNL A   1      28.598  31.705  23.456  1.00  0.00    -0.326 N 
ATOM     21  C   UNL A   1      28.119  32.193  21.058  1.00  0.00     0.114 C 
ATOM     22  C   UNL A   1      28.420  32.628  22.467  1.00  0.00     0.221 C 
ATOM     23  O   UNL A   1      28.450  33.828  22.751  1.00  0.00    -0.275 OA
ATOM     24  H   UNL A   1      28.573  32.083  24.365  1.00  0.00     0.169 HD
ENDBRANCH  15  20
ENDBRANCH   8  14
ENDBRANCH   4   7
ENDBRANCH   2   3
ENDBRANCH   1   2
BRANCH   1  25
ATOM     25  C   UNL A   1      35.915  22.400  25.454  1.00  0.00     0.118 C 
BRANCH  25  26
ATOM     26  N   UNL A   1      36.889  21.309  25.521  1.00  0.00    -0.352 N 
ATOM     27  C   UNL A   1      38.242  21.315  25.752  1.00  0.00     0.251 C 
ATOM     28  H   UNL A   1      36.507  20.414  25.375  1.00  0.00     0.163 HD
ATOM     29  O   UNL A   1      38.899  20.311  25.492  1.00  0.00    -0.269 OA
BRANCH  27  30
ATOM     30  C   UNL A   1      38.908  22.508  26.312  1.00  0.00     0.039 A 
ATOM     31  C   UNL A   1      40.023  22.343  27.141  1.00  0.00     0.014 A 
ATOM     32  C   UNL A   1      38.410  23.787  26.061  1.00  0.00     0.014 A 
ATOM     33  C   UNL A   1      40.684  23.465  27.647  1.00  0.00     0.010 A 
ATOM     34  C   UNL A   1      39.120  24.903  26.489  1.00  0.00     0.010 A 
ATOM     35  C   UNL A   1      40.262  24.756  27.287  1.00  0.00    -0.014 A 
BRANCH  35  36
ATOM     36  C   UNL A   1      41.011  25.968  27.702  1.00  0.00     0.031 A 
ATOM     37  C   UNL A   1      40.312  27.076  28.442  1.00  0.00     0.074 A 
ATOM     38  C   UNL A   1      42.289  26.121  27.303  1.00  0.00     0.049 A 
ATOM     39  N   UNL A   1      40.767  28.252  28.787  1.00  0.00    -0.248 NA
ATOM     40  C   UNL A   1      38.907  26.845  28.816  1.00  0.00     0.031 C 
ATOM     41  C   UNL A   1      43.050  25.150  26.513  1.00  0.00     0.029 A 
ATOM     42  N   UNL A   1      43.163  27.165  27.475  1.00  0.00    -0.354 N 
ATOM     43  C   UNL A   1      39.699  28.915  29.379  1.00  0.00     0.074 A 
ATOM     44  C   UNL A   1      38.562  28.023  29.317  1.00  0.00     0.031 C 
ATOM     45  C   UNL A   1      44.275  25.642  26.271  1.00  0.00     0.029 A 
ATOM     46  C   UNL A   1      44.374  26.978  26.848  1.00  0.00     0.049 A 
ATOM     47  H   UNL A   1      42.945  27.971  27.998  1.00  0.00     0.167 HD
ATOM     48  C   UNL A   1      39.673  30.144  29.947  1.00  0.00     0.034 A 
ATOM     49  C   UNL A   1      45.438  27.797  26.735  1.00  0.00     0.034 A 
ATOM     50  C   UNL A   1      40.817  31.010  30.040  1.00  0.00     0.049 A 
ATOM     51  C   UNL A   1      45.390  29.149  27.392  1.00  0.00     0.074 A 
ATOM     52  C   UNL A   1      40.922  32.230  30.682  1.00  0.00     0.029 A 
ATOM     53  N   UNL A   1      42.051  30.756  29.460  1.00  0.00    -0.354 N 
ATOM     54  N   UNL A   1      44.424  29.690  28.095  1.00  0.00    -0.248 NA
ATOM     55  C   UNL A   1      46.587  29.991  27.266  1.00  0.00     0.031 C 
ATOM     56  C   UNL A   1      42.211  32.729  30.464  1.00  0.00     0.029 A 
ATOM     57  C   UNL A   1      42.918  31.806  29.709  1.00  0.00     0.049 A 
ATOM     58  H   UNL A   1      42.277  29.948  28.946  1.00  0.00     0.167 HD
ATOM     59  C   UNL A   1      44.905  30.925  28.514  1.00  0.00     0.074 A 
ATOM     60  C   UNL A   1      46.259  31.038  28.011  1.00  0.00     0.031 C 
ATOM     61  C   UNL A   1      44.276  31.887  29.235  1.00  0.00     0.034 A 
BRANCH  48  62
ATOM     62  C   UNL A   1      38.374  30.607  30.556  1.00  0.00     0.023 A 
ATOM     63  C   UNL A   1      38.107  30.339  31.915  1.00  0.00     0.012 A 
ATOM     64  C   UNL A   1      37.441  31.346  29.803  1.00  0.00     0.148 A 
ATOM     65  C   UNL A   1      36.918  30.765  32.504  1.00  0.00     0.002 A 
ATOM     66  C   UNL A   1      36.278  31.808  30.410  1.00  0.00     0.091 A 
ATOM     67  F   UNL A   1      37.700  31.574  28.507  1.00  0.00    -0.205 F 
ATOM     68  C   UNL A   1      36.009  31.507  31.755  1.00  0.00     0.022 A 
BRANCH  66  69
ATOM     69  S   UNL A   1      35.081  32.839  29.554  1.00  0.00     0.127 S 
ATOM     70  O   UNL A   1      34.127  33.131  30.623  1.00  0.00    -0.237 OA
ATOM     71  O   UNL A   1      35.899  33.979  29.139  1.00  0.00    -0.237 OA
ATOM     72  O   UNL A   1      34.564  32.031  28.459  1.00  0.00    -0.744 OA
ENDBRANCH  66  69
ENDBRANCH  48  62
BRANCH  49  73
ATOM     73  C   UNL A   1      46.657  27.335  26.011  1.00  0.00     0.023 A 
ATOM     74  C   UNL A   1      46.773  27.588  24.630  1.00  0.00     0.012 A 
ATOM     75  C   UNL A   1      47.712  26.687  26.682  1.00  0.00     0.148 A 
ATOM     76  C   UNL A   1      47.905  27.176  23.925  1.00  0.00     0.002 A 
ATOM     77  C   UNL A   1      48.861  26.332  25.986  1.00  0.00     0.091 A 
ATOM     78  F   UNL A   1      47.578  26.449  27.995  1.00  0.00    -0.205 F 
ATOM     79  C   UNL A   1      48.952  26.559  24.604  1.00  0.00     0.022 A 
BRANCH  77  80
ATOM     80  S   UNL A   1      50.315  25.660  26.800  1.00  0.00     0.127 S 
ATOM     81  O   UNL A   1      50.664  26.733  27.726  1.00  0.00    -0.237 OA
ATOM     82  O   UNL A   1      49.779  24.452  27.428  1.00  0.00    -0.237 OA
ATOM     83  O   UNL A   1      51.280  25.404  25.738  1.00  0.00    -0.744 OA
ENDBRANCH  77  80
ENDBRANCH  49  73
BRANCH  61  84
ATOM     84  C   UNL A   1      45.046  33.146  29.536  1.00  0.00     0.023 A 
ATOM     85  C   UNL A   1      45.846  33.214  30.693  1.00  0.00     0.012 A 
ATOM     86  C   UNL A   1      45.037  34.230  28.636  1.00  0.00     0.148 A 
ATOM     87  C   UNL A   1      46.602  34.354  30.968  1.00  0.00     0.002 A 
ATOM     88  C   UNL A   1      45.832  35.342  28.890  1.00  0.00     0.091 A 
ATOM     89  F   UNL A   1      44.258  34.152  27.548  1.00  0.00    -0.205 F 
ATOM     90  C   UNL A   1      46.604  35.411  30.061  1.00  0.00     0.022 A 
BRANCH  88  91
ATOM     91  S   UNL A   1      45.974  36.712  27.737  1.00  0.00     0.127 S 
ATOM     92  O   UNL A   1      46.996  37.537  28.380  1.00  0.00    -0.237 OA
ATOM     93  O   UNL A   1      46.415  36.040  26.513  1.00  0.00    -0.237 OA
ATOM     94  O   UNL A   1      44.650  37.312  27.656  1.00  0.00    -0.744 OA
ENDBRANCH  88  91
ENDBRANCH  61  84
ENDBRANCH  35  36
ENDBRANCH  27  30
ENDBRANCH  25  26
ENDBRANCH   1  25
TORSDOF 15
ENDMDL
MODEL 3
REMARK VINA RESULT:     -13.0      5.251     10.008
REMARK SMILES CC(=O)Nc1cccc(-c2ccc(F)c(C(=O)NCCCNC(=O)c3ccc(-c4c5nc(c(-c6cccc(S(=O)(=O)[O-])c6F)c6ccc([nH]6)c(-c6cccc(S(=O)(=O)[O-])c6F)c6nc(c(-c7cccc(S(=O)(=O)[O-])c7F)c7ccc4[nH]7)C=C6)C=C5)cc3)c2)c1
REMARK SMILES IDX 20 1 19 2 18 3 16 4 17 5 15 7 10 8 11 9 88 10 12 11 13 12
REMARK SMILES IDX 14 13 9 14 5 15 6 16 89 17 7 18 8 19 4 20 1 21 2 22 3 23
REMARK SMILES IDX 21 25 22 26 23 27 24 29 25 30 26 31 87 32 27 33 86 34 28 35
REMARK SMILES IDX 29 36 30 37 80 38 31 39 85 40 79 41 81 42 32 43 84 44 78 45
REMARK SMILES IDX 77 46 33 48 65 49 45 50 64 51 46 52 49 53 63 54 82 55 47 56
REMARK SMILES IDX 48 57 62 59 83 60 50 61 34 62 35 63 43 64 36 65 38 66 44 67
REMARK SMILES IDX 37 68 39 69 40 70 41 71 42 72 66 73 67 74 75 75 68 76 70 77
REMARK SMILES IDX 76 78 69 79 71 80 72 81 73 82 74 83 51 84 52 85 60 86 53 87
REMARK SMILES IDX 55 88 61 89 54 90 56 91 57 92 58 93 59 94
REMARK H PARENT 18 6 4 24 22 28 81 47 49 58
REMARK Flexibility Score: inf
ROOT
ATOM      1  C   UNL A   1      42.301  19.029  26.108  1.00  0.00     0.042 C 
ENDROOT
BRANCH   1   2
ATOM      2  C   UNL A   1      43.655  19.641  25.767  1.00  0.00     0.118 C 
BRANCH   2   3
ATOM      3  N   UNL A   1      43.567  20.744  24.816  1.00  0.00    -0.352 N 
ATOM      4  C   UNL A   1      44.099  22.002  24.663  1.00  0.00     0.254 C 
ATOM      5  O   UNL A   1      43.800  22.564  23.606  1.00  0.00    -0.269 OA
ATOM      6  H   UNL A   1      42.955  20.526  24.076  1.00  0.00     0.163 HD
BRANCH   4   7
ATOM      7  C   UNL A   1      44.971  22.717  25.642  1.00  0.00     0.076 A 
ATOM      8  C   UNL A   1      45.405  23.706  27.864  1.00  0.00    -0.017 A 
ATOM      9  C   UNL A   1      46.642  24.171  27.424  1.00  0.00     0.012 A 
ATOM     10  C   UNL A   1      44.612  22.968  26.962  1.00  0.00     0.025 A 
ATOM     11  C   UNL A   1      47.057  23.900  26.118  1.00  0.00     0.041 A 
ATOM     12  C   UNL A   1      46.226  23.191  25.240  1.00  0.00     0.135 A 
ATOM     13  F   UNL A   1      46.685  23.003  23.994  1.00  0.00    -0.206 F 
BRANCH   8  14
ATOM     14  C   UNL A   1      44.822  24.023  29.179  1.00  0.00    -0.016 A 
ATOM     15  C   UNL A   1      44.776  25.514  31.126  1.00  0.00     0.041 A 
ATOM     16  C   UNL A   1      44.242  24.471  31.888  1.00  0.00     0.026 A 
ATOM     17  C   UNL A   1      45.058  25.279  29.778  1.00  0.00     0.034 A 
ATOM     18  C   UNL A   1      43.939  23.242  31.297  1.00  0.00     0.003 A 
ATOM     19  C   UNL A   1      44.221  23.021  29.950  1.00  0.00     0.009 A 
BRANCH  15  20
ATOM     20  N   UNL A   1      45.098  26.706  31.798  1.00  0.00    -0.326 N 
ATOM     21  C   UNL A   1      42.989  28.010  31.529  1.00  0.00     0.114 C 
ATOM     22  C   UNL A   1      44.439  27.895  31.916  1.00  0.00     0.221 C 
ATOM     23  O   UNL A   1      45.029  28.864  32.401  1.00  0.00    -0.275 OA
ATOM     24  H   UNL A   1      45.960  26.678  32.272  1.00  0.00     0.169 HD
ENDBRANCH  15  20
ENDBRANCH   8  14
ENDBRANCH   4   7
ENDBRANCH   2   3
ENDBRANCH   1   2
BRANCH   1  25
ATOM     25  C   UNL A   1      41.397  19.985  26.883  1.00  0.00     0.118 C 
BRANCH  25  26
ATOM     26  N   UNL A   1      40.087  20.143  26.251  1.00  0.00    -0.352 N 
ATOM     27  C   UNL A   1      39.221  21.208  26.214  1.00  0.00     0.251 C 
ATOM     28  H   UNL A   1      39.771  19.346  25.767  1.00  0.00     0.163 HD
ATOM     29  O   UNL A   1      38.060  21.024  25.857  1.00  0.00    -0.269 OA
BRANCH  27  30
ATOM     30  C   UNL A   1      39.671  22.562  26.591  1.00  0.00     0.039 A 
ATOM     31  C   UNL A   1      40.661  22.706  27.569  1.00  0.00     0.014 A 
ATOM     32  C   UNL A   1      39.089  23.693  26.017  1.00  0.00     0.014 A 
ATOM     33  C   UNL A   1      41.121  23.981  27.909  1.00  0.00     0.010 A 
ATOM     34  C   UNL A   1      39.610  24.953  26.288  1.00  0.00     0.010 A 
ATOM     35  C   UNL A   1      40.629  25.112  27.237  1.00  0.00    -0.014 A 
BRANCH  35  36
ATOM     36  C   UNL A   1      41.181  26.468  27.481  1.00  0.00     0.031 A 
ATOM     37  C   UNL A   1      42.539  26.841  26.949  1.00  0.00     0.074 A 
ATOM     38  C   UNL A   1      40.511  27.317  28.285  1.00  0.00     0.049 A 
ATOM     39  N   UNL A   1      43.232  27.931  27.153  1.00  0.00    -0.248 NA
ATOM     40  C   UNL A   1      43.220  25.848  26.103  1.00  0.00     0.031 C 
ATOM     41  C   UNL A   1      39.223  27.037  28.923  1.00  0.00     0.029 A 
ATOM     42  N   UNL A   1      40.837  28.572  28.733  1.00  0.00    -0.354 N 
ATOM     43  C   UNL A   1      44.443  27.739  26.499  1.00  0.00     0.074 A 
ATOM     44  C   UNL A   1      44.404  26.415  25.918  1.00  0.00     0.031 C 
ATOM     45  C   UNL A   1      38.868  28.088  29.678  1.00  0.00     0.029 A 
ATOM     46  C   UNL A   1      39.919  29.097  29.613  1.00  0.00     0.049 A 
ATOM     47  H   UNL A   1      41.649  29.052  28.451  1.00  0.00     0.167 HD
ATOM     48  C   UNL A   1      45.483  28.597  26.370  1.00  0.00     0.034 A 
ATOM     49  C   UNL A   1      39.930  30.254  30.306  1.00  0.00     0.034 A 
ATOM     50  C   UNL A   1      45.499  29.927  26.917  1.00  0.00     0.049 A 
ATOM     51  C   UNL A   1      41.088  31.197  30.128  1.00  0.00     0.074 A 
ATOM     52  C   UNL A   1      46.459  30.910  26.759  1.00  0.00     0.029 A 
ATOM     53  N   UNL A   1      44.517  30.456  27.741  1.00  0.00    -0.354 N 
ATOM     54  N   UNL A   1      42.148  31.068  29.368  1.00  0.00    -0.248 NA
ATOM     55  C   UNL A   1      41.037  32.458  30.881  1.00  0.00     0.031 C 
ATOM     56  C   UNL A   1      46.072  32.023  27.515  1.00  0.00     0.029 A 
ATOM     57  C   UNL A   1      44.857  31.743  28.120  1.00  0.00     0.049 A 
ATOM     58  H   UNL A   1      43.698  29.984  28.017  1.00  0.00     0.167 HD
ATOM     59  C   UNL A   1      42.880  32.238  29.532  1.00  0.00     0.074 A 
ATOM     60  C   UNL A   1      42.125  33.077  30.441  1.00  0.00     0.031 C 
ATOM     61  C   UNL A   1      44.077  32.581  28.995  1.00  0.00     0.034 A 
BRANCH  48  62
ATOM     62  C   UNL A   1      46.672  28.140  25.565  1.00  0.00     0.023 A 
ATOM     63  C   UNL A   1      46.646  28.251  24.159  1.00  0.00     0.012 A 
ATOM     64  C   UNL A   1      47.831  27.649  26.197  1.00  0.00     0.148 A 
ATOM     65  C   UNL A   1      47.738  27.844  23.393  1.00  0.00     0.002 A 
ATOM     66  C   UNL A   1      48.933  27.289  25.429  1.00  0.00     0.091 A 
ATOM     67  F   UNL A   1      47.832  27.530  27.532  1.00  0.00    -0.205 F 
ATOM     68  C   UNL A   1      48.883  27.373  24.028  1.00  0.00     0.022 A 
BRANCH  66  69
ATOM     69  S   UNL A   1      50.484  26.745  26.154  1.00  0.00     0.127 S 
ATOM     70  O   UNL A   1      50.863  27.912  26.949  1.00  0.00    -0.237 OA
ATOM     71  O   UNL A   1      50.066  25.583  26.939  1.00  0.00    -0.237 OA
ATOM     72  O   UNL A   1      51.365  26.438  25.036  1.00  0.00    -0.744 OA
ENDBRANCH  66  69
ENDBRANCH  48  62
BRANCH  49  73
ATOM     73  C   UNL A   1      38.780  30.602  31.189  1.00  0.00     0.023 A 
ATOM     74  C   UNL A   1      38.846  30.285  32.559  1.00  0.00     0.012 A 
ATOM     75  C   UNL A   1      37.648  31.275  30.693  1.00  0.00     0.148 A 
ATOM     76  C   UNL A   1      37.790  30.605  33.414  1.00  0.00     0.002 A 
ATOM     77  C   UNL A   1      36.625  31.643  31.560  1.00  0.00     0.091 A 
ATOM     78  F   UNL A   1      37.601  31.561  29.383  1.00  0.00    -0.205 F 
ATOM     79  C   UNL A   1      36.686  31.293  32.918  1.00  0.00     0.022 A 
BRANCH  77  80
ATOM     80  S   UNL A   1      35.232  32.650  31.040  1.00  0.00     0.127 S 
ATOM     81  O   UNL A   1      35.859  33.956  30.851  1.00  0.00    -0.237 OA
ATOM     82  O   UNL A   1      34.818  31.980  29.807  1.00  0.00    -0.237 OA
ATOM     83  O   UNL A   1      34.258  32.568  32.121  1.00  0.00    -0.744 OA
ENDBRANCH  77  80
ENDBRANCH  49  73
BRANCH  61  84
ATOM     84  C   UNL A   1      44.645  33.927  29.362  1.00  0.00     0.023 A 
ATOM     85  C   UNL A   1      45.470  34.048  30.497  1.00  0.00     0.012 A 
ATOM     86  C   UNL A   1      44.426  35.051  28.542  1.00  0.00     0.148 A 
ATOM     87  C   UNL A   1      46.044  35.276  30.830  1.00  0.00     0.002 A 
ATOM     88  C   UNL A   1      45.041  36.259  28.851  1.00  0.00     0.091 A 
ATOM     89  F   UNL A   1      43.626  34.918  27.475  1.00  0.00    -0.205 F 
ATOM     90  C   UNL A   1      45.839  36.376  30.001  1.00  0.00     0.022 A 
BRANCH  88  91
ATOM     91  S   UNL A   1      44.914  37.706  27.795  1.00  0.00     0.127 S 
ATOM     92  O   UNL A   1      45.609  38.717  28.591  1.00  0.00    -0.237 OA
ATOM     93  O   UNL A   1      45.633  37.275  26.595  1.00  0.00    -0.237 OA
ATOM     94  O   UNL A   1      43.490  37.939  27.598  1.00  0.00    -0.744 OA
ENDBRANCH  88  91
ENDBRANCH  61  84
ENDBRANCH  35  36
ENDBRANCH  27  30
ENDBRANCH  25  26
ENDBRANCH   1  25
TORSDOF 15
ENDMDL
