MODEL 1
REMARK VINA RESULT:     -12.4      0.000      0.000
REMARK SMILES CC(C)(C)OC(=O)N1CC(Cc2ccc(C(=O)NCCCNC(=O)c3ccc(-c4c5nc(c(-c6cccc(S(=O)(=O)[O-])c6F)c6ccc([nH]6)c(-c6cccc(S(=O)(=O)[O-])c6F)c6nc(c(-c7cccc(S(=O)(=O)[O-])c7F)c7ccc4[nH]7)C=C6)C=C5)cc3)cc2)C1
REMARK SMILES IDX 19 1 18 2 16 3 17 4 15 6 12 7 13 8 89 9 14 10 88 11 11 12
REMARK SMILES IDX 10 13 6 14 7 15 8 16 9 17 90 18 5 19 2 20 1 21 3 22 4 23
REMARK SMILES IDX 20 24 21 25 22 26 23 27 24 29 25 30 26 31 87 32 27 33 86 34
REMARK SMILES IDX 28 35 29 36 30 37 80 38 31 39 85 40 79 41 81 42 32 43 84 44
REMARK SMILES IDX 78 45 77 46 33 48 65 49 45 50 64 51 46 52 49 53 63 54 82 55
REMARK SMILES IDX 47 56 48 57 62 59 83 60 50 61 34 62 35 63 43 64 36 65 38 66
REMARK SMILES IDX 44 67 37 68 39 69 40 70 41 71 42 72 66 73 67 74 75 75 68 76
REMARK SMILES IDX 70 77 76 78 69 79 71 80 72 81 73 82 74 83 51 84 52 85 60 86
REMARK SMILES IDX 53 87 55 88 61 89 54 90 56 91 57 92 58 93 59 94
REMARK H PARENT 18 5 22 28 81 47 49 58
REMARK Flexibility Score: inf
ROOT
ATOM      1  C   UNL A   1      35.362  21.438  25.943  1.00  0.00     0.118 C 
ENDROOT
BRANCH   1   2
ATOM      2  N   UNL A   1      34.405  20.343  25.982  1.00  0.00    -0.352 N 
ATOM      3  C   UNL A   1      33.136  20.234  25.471  1.00  0.00     0.251 C 
ATOM      4  O   UNL A   1      32.587  19.133  25.491  1.00  0.00    -0.269 OA
ATOM      5  H   UNL A   1      34.723  19.541  26.457  1.00  0.00     0.163 HD
BRANCH   3   6
ATOM      6  C   UNL A   1      32.432  21.380  24.845  1.00  0.00     0.039 A 
ATOM      7  C   UNL A   1      31.030  23.579  23.781  1.00  0.00    -0.048 A 
ATOM      8  C   UNL A   1      30.878  23.231  25.127  1.00  0.00     0.004 A 
ATOM      9  C   UNL A   1      31.924  22.846  22.986  1.00  0.00     0.004 A 
ATOM     10  C   UNL A   1      31.579  22.142  25.655  1.00  0.00     0.014 A 
ATOM     11  C   UNL A   1      32.631  21.766  23.518  1.00  0.00     0.014 A 
BRANCH   7  12
ATOM     12  C   UNL A   1      30.255  24.725  23.180  1.00  0.00     0.042 C 
BRANCH  12  13
ATOM     13  C   UNL A   1      30.395  25.962  24.055  1.00  0.00     0.033 C 
ATOM     14  C   UNL A   1      31.383  29.083  24.571  1.00  0.00     0.410 C 
ATOM     15  O   UNL A   1      30.556  29.979  24.469  1.00  0.00    -0.224 OA
ATOM     16  N   UNL A   1      31.189  27.837  24.064  1.00  0.00    -0.307 N 
ATOM     17  C   UNL A   1      30.058  27.289  23.348  1.00  0.00     0.128 C 
ATOM     18  C   UNL A   1      31.810  26.551  24.299  1.00  0.00     0.128 C 
BRANCH  14  19
ATOM     19  O   UNL A   1      32.593  29.195  25.176  1.00  0.00    -0.444 OA
BRANCH  19  20
ATOM     20  C   UNL A   1      32.691  29.336  26.619  1.00  0.00     0.106 C 
ATOM     21  C   UNL A   1      32.394  30.818  26.896  1.00  0.00     0.056 C 
ATOM     22  C   UNL A   1      34.124  29.019  27.060  1.00  0.00     0.056 C 
ATOM     23  C   UNL A   1      31.666  28.496  27.397  1.00  0.00     0.056 C 
ENDBRANCH  19  20
ENDBRANCH  14  19
ENDBRANCH  12  13
ENDBRANCH   7  12
ENDBRANCH   3   6
ENDBRANCH   1   2
BRANCH   1  24
ATOM     24  C   UNL A   1      36.259  21.371  24.708  1.00  0.00     0.042 C 
BRANCH  24  25
ATOM     25  C   UNL A   1      37.688  21.851  24.953  1.00  0.00     0.118 C 
BRANCH  25  26
ATOM     26  N   UNL A   1      38.476  20.883  25.703  1.00  0.00    -0.352 N 
ATOM     27  C   UNL A   1      39.590  21.073  26.485  1.00  0.00     0.251 C 
ATOM     28  H   UNL A   1      38.163  19.952  25.641  1.00  0.00     0.163 HD
ATOM     29  O   UNL A   1      40.222  20.096  26.878  1.00  0.00    -0.269 OA
BRANCH  27  30
ATOM     30  C   UNL A   1      40.042  22.437  26.846  1.00  0.00     0.039 A 
ATOM     31  C   UNL A   1      41.051  22.579  27.806  1.00  0.00     0.014 A 
ATOM     32  C   UNL A   1      39.453  23.572  26.284  1.00  0.00     0.014 A 
ATOM     33  C   UNL A   1      41.505  23.854  28.159  1.00  0.00     0.010 A 
ATOM     34  C   UNL A   1      39.942  24.840  26.596  1.00  0.00     0.010 A 
ATOM     35  C   UNL A   1      40.970  24.994  27.540  1.00  0.00    -0.014 A 
BRANCH  35  36
ATOM     36  C   UNL A   1      41.482  26.354  27.848  1.00  0.00     0.031 A 
ATOM     37  C   UNL A   1      42.884  26.746  27.466  1.00  0.00     0.074 A 
ATOM     38  C   UNL A   1      40.716  27.206  28.556  1.00  0.00     0.049 A 
ATOM     39  N   UNL A   1      43.525  27.858  27.715  1.00  0.00    -0.248 NA
ATOM     40  C   UNL A   1      43.678  25.748  26.729  1.00  0.00     0.031 C 
ATOM     41  C   UNL A   1      39.368  26.918  29.051  1.00  0.00     0.029 A 
ATOM     42  N   UNL A   1      40.973  28.475  29.013  1.00  0.00    -0.354 N 
ATOM     43  C   UNL A   1      44.805  27.683  27.202  1.00  0.00     0.074 A 
ATOM     44  C   UNL A   1      44.856  26.348  26.645  1.00  0.00     0.031 C 
ATOM     45  C   UNL A   1      38.920  27.975  29.746  1.00  0.00     0.029 A 
ATOM     46  C   UNL A   1      39.952  29.007  29.765  1.00  0.00     0.049 A 
ATOM     47  H   UNL A   1      41.808  28.959  28.819  1.00  0.00     0.167 HD
ATOM     48  C   UNL A   1      45.835  28.563  27.170  1.00  0.00     0.034 A 
ATOM     49  C   UNL A   1      39.858  30.192  30.402  1.00  0.00     0.034 A 
ATOM     50  C   UNL A   1      45.764  29.910  27.669  1.00  0.00     0.049 A 
ATOM     51  C   UNL A   1      40.994  31.171  30.301  1.00  0.00     0.074 A 
ATOM     52  C   UNL A   1      46.720  30.907  27.595  1.00  0.00     0.029 A 
ATOM     53  N   UNL A   1      44.675  30.450  28.336  1.00  0.00    -0.354 N 
ATOM     54  N   UNL A   1      42.135  31.048  29.667  1.00  0.00    -0.248 NA
ATOM     55  C   UNL A   1      40.818  32.469  30.971  1.00  0.00     0.031 C 
ATOM     56  C   UNL A   1      46.209  32.051  28.219  1.00  0.00     0.029 A 
ATOM     57  C   UNL A   1      44.935  31.765  28.681  1.00  0.00     0.049 A 
ATOM     58  H   UNL A   1      43.839  29.969  28.534  1.00  0.00     0.167 HD
ATOM     59  C   UNL A   1      42.799  32.258  29.835  1.00  0.00     0.074 A 
ATOM     60  C   UNL A   1      41.923  33.110  30.614  1.00  0.00     0.031 C 
ATOM     61  C   UNL A   1      44.031  32.622  29.403  1.00  0.00     0.034 A 
BRANCH  48  62
ATOM     62  C   UNL A   1      47.110  28.120  26.504  1.00  0.00     0.023 A 
ATOM     63  C   UNL A   1      48.176  27.658  27.302  1.00  0.00     0.012 A 
ATOM     64  C   UNL A   1      47.237  28.103  25.102  1.00  0.00     0.148 A 
ATOM     65  C   UNL A   1      49.359  27.211  26.717  1.00  0.00     0.002 A 
ATOM     66  C   UNL A   1      48.408  27.623  24.524  1.00  0.00     0.091 A 
ATOM     67  F   UNL A   1      46.223  28.570  24.360  1.00  0.00    -0.205 F 
ATOM     68  C   UNL A   1      49.472  27.184  25.331  1.00  0.00     0.022 A 
BRANCH  66  69
ATOM     69  S   UNL A   1      48.617  27.488  22.745  1.00  0.00     0.127 S 
ATOM     70  O   UNL A   1      49.952  28.055  22.560  1.00  0.00    -0.237 OA
ATOM     71  O   UNL A   1      48.532  26.043  22.527  1.00  0.00    -0.237 OA
ATOM     72  O   UNL A   1      47.521  28.250  22.160  1.00  0.00    -0.744 OA
ENDBRANCH  66  69
ENDBRANCH  48  62
BRANCH  49  73
ATOM     73  C   UNL A   1      38.602  30.544  31.121  1.00  0.00     0.023 A 
ATOM     74  C   UNL A   1      38.475  30.205  32.483  1.00  0.00     0.012 A 
ATOM     75  C   UNL A   1      37.560  31.249  30.488  1.00  0.00     0.148 A 
ATOM     76  C   UNL A   1      37.325  30.544  33.195  1.00  0.00     0.002 A 
ATOM     77  C   UNL A   1      36.439  31.628  31.218  1.00  0.00     0.091 A 
ATOM     78  F   UNL A   1      37.689  31.546  29.187  1.00  0.00    -0.205 F 
ATOM     79  C   UNL A   1      36.312  31.265  32.568  1.00  0.00     0.022 A 
BRANCH  77  80
ATOM     80  S   UNL A   1      35.158  32.675  30.516  1.00  0.00     0.127 S 
ATOM     81  O   UNL A   1      35.903  33.891  30.203  1.00  0.00    -0.237 OA
ATOM     82  O   UNL A   1      34.726  31.899  29.352  1.00  0.00    -0.237 OA
ATOM     83  O   UNL A   1      34.146  32.792  31.558  1.00  0.00    -0.744 OA
ENDBRANCH  77  80
ENDBRANCH  49  73
BRANCH  61  84
ATOM     84  C   UNL A   1      44.508  34.008  29.744  1.00  0.00     0.023 A 
ATOM     85  C   UNL A   1      45.353  34.193  30.855  1.00  0.00     0.012 A 
ATOM     86  C   UNL A   1      44.189  35.108  28.924  1.00  0.00     0.148 A 
ATOM     87  C   UNL A   1      45.856  35.457  31.160  1.00  0.00     0.002 A 
ATOM     88  C   UNL A   1      44.726  36.358  29.212  1.00  0.00     0.091 A 
ATOM     89  F   UNL A   1      43.364  34.917  27.886  1.00  0.00    -0.205 F 
ATOM     90  C   UNL A   1      45.553  36.536  30.333  1.00  0.00     0.022 A 
BRANCH  88  91
ATOM     91  S   UNL A   1      44.451  37.779  28.147  1.00  0.00     0.127 S 
ATOM     92  O   UNL A   1      45.283  38.797  28.786  1.00  0.00    -0.237 OA
ATOM     93  O   UNL A   1      44.950  37.307  26.854  1.00  0.00    -0.237 OA
ATOM     94  O   UNL A   1      43.015  38.023  28.180  1.00  0.00    -0.744 OA
ENDBRANCH  88  91
ENDBRANCH  61  84
ENDBRANCH  35  36
ENDBRANCH  27  30
ENDBRANCH  25  26
ENDBRANCH  24  25
ENDBRANCH   1  24
TORSDOF 17
ENDMDL
MODEL 2
REMARK VINA RESULT:     -12.3      5.477      9.243
REMARK SMILES CC(C)(C)OC(=O)N1CC(Cc2ccc(C(=O)NCCCNC(=O)c3ccc(-c4c5nc(c(-c6cccc(S(=O)(=O)[O-])c6F)c6ccc([nH]6)c(-c6cccc(S(=O)(=O)[O-])c6F)c6nc(c(-c7cccc(S(=O)(=O)[O-])c7F)c7ccc4[nH]7)C=C6)C=C5)cc3)cc2)C1
REMARK SMILES IDX 19 1 18 2 16 3 17 4 15 6 12 7 13 8 89 9 14 10 88 11 11 12
REMARK SMILES IDX 10 13 6 14 7 15 8 16 9 17 90 18 5 19 2 20 1 21 3 22 4 23
REMARK SMILES IDX 20 24 21 25 22 26 23 27 24 29 25 30 26 31 87 32 27 33 86 34
REMARK SMILES IDX 28 35 29 36 30 37 80 38 31 39 85 40 79 41 81 42 32 43 84 44
REMARK SMILES IDX 78 45 77 46 33 48 65 49 45 50 64 51 46 52 49 53 63 54 82 55
REMARK SMILES IDX 47 56 48 57 62 59 83 60 50 61 34 62 35 63 43 64 36 65 38 66
REMARK SMILES IDX 44 67 37 68 39 69 40 70 41 71 42 72 66 73 67 74 75 75 68 76
REMARK SMILES IDX 70 77 76 78 69 79 71 80 72 81 73 82 74 83 51 84 52 85 60 86
REMARK SMILES IDX 53 87 55 88 61 89 54 90 56 91 57 92 58 93 59 94
REMARK H PARENT 18 5 22 28 81 47 49 58
REMARK Flexibility Score: inf
ROOT
ATOM      1  C   UNL A   1      31.703  30.622  26.399  1.00  0.00     0.118 C 
ENDROOT
BRANCH   1   2
ATOM      2  N   UNL A   1      31.390  30.343  25.007  1.00  0.00    -0.352 N 
ATOM      3  C   UNL A   1      31.359  29.163  24.307  1.00  0.00     0.251 C 
ATOM      4  O   UNL A   1      30.898  29.168  23.167  1.00  0.00    -0.269 OA
ATOM      5  H   UNL A   1      31.161  31.138  24.474  1.00  0.00     0.163 HD
BRANCH   3   6
ATOM      6  C   UNL A   1      31.807  27.878  24.899  1.00  0.00     0.039 A 
ATOM      7  C   UNL A   1      32.790  25.467  25.972  1.00  0.00    -0.048 A 
ATOM      8  C   UNL A   1      33.654  26.350  25.317  1.00  0.00     0.004 A 
ATOM      9  C   UNL A   1      31.441  25.823  26.124  1.00  0.00     0.004 A 
ATOM     10  C   UNL A   1      33.166  27.549  24.790  1.00  0.00     0.014 A 
ATOM     11  C   UNL A   1      30.958  27.026  25.606  1.00  0.00     0.014 A 
BRANCH   7  12
ATOM     12  C   UNL A   1      33.285  24.150  26.515  1.00  0.00     0.042 C 
BRANCH  12  13
ATOM     13  C   UNL A   1      33.503  23.167  25.374  1.00  0.00     0.033 C 
ATOM     14  C   UNL A   1      32.973  20.256  23.882  1.00  0.00     0.410 C 
ATOM     15  O   UNL A   1      32.153  20.207  22.976  1.00  0.00    -0.224 OA
ATOM     16  N   UNL A   1      33.031  21.280  24.774  1.00  0.00    -0.307 N 
ATOM     17  C   UNL A   1      32.220  22.474  24.873  1.00  0.00     0.128 C 
ATOM     18  C   UNL A   1      34.040  21.748  25.700  1.00  0.00     0.128 C 
BRANCH  14  19
ATOM     19  O   UNL A   1      33.918  19.315  24.138  1.00  0.00    -0.444 OA
BRANCH  19  20
ATOM     20  C   UNL A   1      33.555  17.913  24.262  1.00  0.00     0.106 C 
ATOM     21  C   UNL A   1      34.862  17.196  24.635  1.00  0.00     0.056 C 
ATOM     22  C   UNL A   1      33.068  17.397  22.904  1.00  0.00     0.056 C 
ATOM     23  C   UNL A   1      32.530  17.631  25.370  1.00  0.00     0.056 C 
ENDBRANCH  19  20
ENDBRANCH  14  19
ENDBRANCH  12  13
ENDBRANCH   7  12
ENDBRANCH   3   6
ENDBRANCH   1   2
BRANCH   1  24
ATOM     24  C   UNL A   1      31.478  32.091  26.754  1.00  0.00     0.042 C 
BRANCH  24  25
ATOM     25  C   UNL A   1      32.767  32.882  26.971  1.00  0.00     0.118 C 
BRANCH  25  26
ATOM     26  N   UNL A   1      32.527  34.159  27.629  1.00  0.00    -0.352 N 
ATOM     27  C   UNL A   1      33.085  34.677  28.774  1.00  0.00     0.251 C 
ATOM     28  H   UNL A   1      31.866  34.739  27.186  1.00  0.00     0.163 HD
ATOM     29  O   UNL A   1      32.605  35.694  29.268  1.00  0.00    -0.269 OA
BRANCH  27  30
ATOM     30  C   UNL A   1      34.243  34.018  29.420  1.00  0.00     0.039 A 
ATOM     31  C   UNL A   1      35.534  34.394  29.031  1.00  0.00     0.014 A 
ATOM     32  C   UNL A   1      34.070  33.006  30.368  1.00  0.00     0.014 A 
ATOM     33  C   UNL A   1      36.646  33.795  29.632  1.00  0.00     0.010 A 
ATOM     34  C   UNL A   1      35.178  32.449  31.005  1.00  0.00     0.010 A 
ATOM     35  C   UNL A   1      36.478  32.835  30.641  1.00  0.00    -0.014 A 
BRANCH  35  36
ATOM     36  C   UNL A   1      37.642  32.235  31.341  1.00  0.00     0.031 A 
ATOM     37  C   UNL A   1      38.401  31.094  30.718  1.00  0.00     0.074 A 
ATOM     38  C   UNL A   1      37.959  32.655  32.581  1.00  0.00     0.049 A 
ATOM     39  N   UNL A   1      39.394  30.400  31.210  1.00  0.00    -0.248 NA
ATOM     40  C   UNL A   1      37.972  30.661  29.378  1.00  0.00     0.031 C 
ATOM     41  C   UNL A   1      37.253  33.700  33.324  1.00  0.00     0.029 A 
ATOM     42  N   UNL A   1      38.934  32.231  33.450  1.00  0.00    -0.354 N 
ATOM     43  C   UNL A   1      39.685  29.427  30.262  1.00  0.00     0.074 A 
ATOM     44  C   UNL A   1      38.749  29.607  29.172  1.00  0.00     0.031 C 
ATOM     45  C   UNL A   1      37.813  33.832  34.537  1.00  0.00     0.029 A 
ATOM     46  C   UNL A   1      38.903  32.870  34.667  1.00  0.00     0.049 A 
ATOM     47  H   UNL A   1      39.594  31.536  33.222  1.00  0.00     0.167 HD
ATOM     48  C   UNL A   1      40.661  28.487  30.281  1.00  0.00     0.034 A 
ATOM     49  C   UNL A   1      39.664  32.698  35.767  1.00  0.00     0.034 A 
ATOM     50  C   UNL A   1      41.629  28.347  31.335  1.00  0.00     0.049 A 
ATOM     51  C   UNL A   1      40.777  31.687  35.738  1.00  0.00     0.074 A 
ATOM     52  C   UNL A   1      42.714  27.491  31.400  1.00  0.00     0.029 A 
ATOM     53  N   UNL A   1      41.629  29.082  32.511  1.00  0.00    -0.354 N 
ATOM     54  N   UNL A   1      41.140  30.889  34.764  1.00  0.00    -0.248 NA
ATOM     55  C   UNL A   1      41.609  31.577  36.946  1.00  0.00     0.031 C 
ATOM     56  C   UNL A   1      43.371  27.708  32.617  1.00  0.00     0.029 A 
ATOM     57  C   UNL A   1      42.694  28.699  33.309  1.00  0.00     0.049 A 
ATOM     58  H   UNL A   1      40.970  29.776  32.743  1.00  0.00     0.167 HD
ATOM     59  C   UNL A   1      42.259  30.205  35.227  1.00  0.00     0.074 A 
ATOM     60  C   UNL A   1      42.526  30.698  36.563  1.00  0.00     0.031 C 
ATOM     61  C   UNL A   1      42.985  29.241  34.611  1.00  0.00     0.034 A 
BRANCH  48  62
ATOM     62  C   UNL A   1      40.780  27.580  29.085  1.00  0.00     0.023 A 
ATOM     63  C   UNL A   1      39.936  26.455  28.992  1.00  0.00     0.012 A 
ATOM     64  C   UNL A   1      41.672  27.864  28.034  1.00  0.00     0.148 A 
ATOM     65  C   UNL A   1      39.996  25.612  27.884  1.00  0.00     0.002 A 
ATOM     66  C   UNL A   1      41.703  27.038  26.916  1.00  0.00     0.091 A 
ATOM     67  F   UNL A   1      42.486  28.924  28.152  1.00  0.00    -0.205 F 
ATOM     68  C   UNL A   1      40.871  25.908  26.843  1.00  0.00     0.022 A 
BRANCH  66  69
ATOM     69  S   UNL A   1      42.751  27.379  25.497  1.00  0.00     0.127 S 
ATOM     70  O   UNL A   1      42.165  28.617  24.988  1.00  0.00    -0.237 OA
ATOM     71  O   UNL A   1      44.070  27.535  26.111  1.00  0.00    -0.237 OA
ATOM     72  O   UNL A   1      42.627  26.217  24.626  1.00  0.00    -0.744 OA
ENDBRANCH  66  69
ENDBRANCH  48  62
BRANCH  49  73
ATOM     73  C   UNL A   1      39.446  33.567  36.957  1.00  0.00     0.023 A 
ATOM     74  C   UNL A   1      39.873  34.908  36.911  1.00  0.00     0.012 A 
ATOM     75  C   UNL A   1      38.781  33.095  38.105  1.00  0.00     0.148 A 
ATOM     76  C   UNL A   1      39.660  35.759  37.996  1.00  0.00     0.002 A 
ATOM     77  C   UNL A   1      38.528  33.963  39.162  1.00  0.00     0.091 A 
ATOM     78  F   UNL A   1      38.399  31.811  38.139  1.00  0.00    -0.205 F 
ATOM     79  C   UNL A   1      38.978  35.291  39.116  1.00  0.00     0.022 A 
BRANCH  77  80
ATOM     80  S   UNL A   1      37.535  33.471  40.577  1.00  0.00     0.127 S 
ATOM     81  O   UNL A   1      38.347  32.407  41.159  1.00  0.00    -0.237 OA
ATOM     82  O   UNL A   1      37.480  34.706  41.362  1.00  0.00    -0.237 OA
ATOM     83  O   UNL A   1      36.250  33.067  40.021  1.00  0.00    -0.744 OA
ENDBRANCH  77  80
ENDBRANCH  49  73
BRANCH  61  84
ATOM     84  C   UNL A   1      44.152  28.659  35.362  1.00  0.00     0.023 A 
ATOM     85  C   UNL A   1      45.431  29.224  35.196  1.00  0.00     0.012 A 
ATOM     86  C   UNL A   1      43.971  27.611  36.286  1.00  0.00     0.148 A 
ATOM     87  C   UNL A   1      46.519  28.742  35.923  1.00  0.00     0.002 A 
ATOM     88  C   UNL A   1      45.053  27.162  37.035  1.00  0.00     0.091 A 
ATOM     89  F   UNL A   1      42.752  27.069  36.411  1.00  0.00    -0.205 F 
ATOM     90  C   UNL A   1      46.328  27.720  36.850  1.00  0.00     0.022 A 
BRANCH  88  91
ATOM     91  S   UNL A   1      44.872  25.908  38.309  1.00  0.00     0.127 S 
ATOM     92  O   UNL A   1      46.265  25.621  38.647  1.00  0.00    -0.237 OA
ATOM     93  O   UNL A   1      44.126  26.619  39.350  1.00  0.00    -0.237 OA
ATOM     94  O   UNL A   1      44.134  24.817  37.685  1.00  0.00    -0.744 OA
ENDBRANCH  88  91
ENDBRANCH  61  84
ENDBRANCH  35  36
ENDBRANCH  27  30
ENDBRANCH  25  26
ENDBRANCH  24  25
ENDBRANCH   1  24
TORSDOF 17
ENDMDL
MODEL 3
REMARK VINA RESULT:     -12.3      1.956      2.480
REMARK SMILES CC(C)(C)OC(=O)N1CC(Cc2ccc(C(=O)NCCCNC(=O)c3ccc(-c4c5nc(c(-c6cccc(S(=O)(=O)[O-])c6F)c6ccc([nH]6)c(-c6cccc(S(=O)(=O)[O-])c6F)c6nc(c(-c7cccc(S(=O)(=O)[O-])c7F)c7ccc4[nH]7)C=C6)C=C5)cc3)cc2)C1
REMARK SMILES IDX 19 1 18 2 16 3 17 4 15 6 12 7 13 8 89 9 14 10 88 11 11 12
REMARK SMILES IDX 10 13 6 14 7 15 8 16 9 17 90 18 5 19 2 20 1 21 3 22 4 23
REMARK SMILES IDX 20 24 21 25 22 26 23 27 24 29 25 30 26 31 87 32 27 33 86 34
REMARK SMILES IDX 28 35 29 36 30 37 80 38 31 39 85 40 79 41 81 42 32 43 84 44
REMARK SMILES IDX 78 45 77 46 33 48 65 49 45 50 64 51 46 52 49 53 63 54 82 55
REMARK SMILES IDX 47 56 48 57 62 59 83 60 50 61 34 62 35 63 43 64 36 65 38 66
REMARK SMILES IDX 44 67 37 68 39 69 40 70 41 71 42 72 66 73 67 74 75 75 68 76
REMARK SMILES IDX 70 77 76 78 69 79 71 80 72 81 73 82 74 83 51 84 52 85 60 86
REMARK SMILES IDX 53 87 55 88 61 89 54 90 56 91 57 92 58 93 59 94
REMARK H PARENT 18 5 22 28 81 47 49 58
REMARK Flexibility Score: inf
ROOT
ATOM      1  C   UNL A   1      35.632  21.149  25.139  1.00  0.00     0.118 C 
ENDROOT
BRANCH   1   2
ATOM      2  N   UNL A   1      34.626  20.179  25.538  1.00  0.00    -0.352 N 
ATOM      3  C   UNL A   1      33.266  20.157  25.350  1.00  0.00     0.251 C 
ATOM      4  O   UNL A   1      32.649  19.133  25.639  1.00  0.00    -0.269 OA
ATOM      5  H   UNL A   1      34.981  19.402  26.028  1.00  0.00     0.163 HD
BRANCH   3   6
ATOM      6  C   UNL A   1      32.530  21.302  24.759  1.00  0.00     0.039 A 
ATOM      7  C   UNL A   1      31.074  23.498  23.765  1.00  0.00    -0.048 A 
ATOM      8  C   UNL A   1      31.005  23.163  25.120  1.00  0.00     0.004 A 
ATOM      9  C   UNL A   1      31.912  22.752  22.922  1.00  0.00     0.004 A 
ATOM     10  C   UNL A   1      31.733  22.076  25.614  1.00  0.00     0.014 A 
ATOM     11  C   UNL A   1      32.646  21.674  23.419  1.00  0.00     0.014 A 
BRANCH   7  12
ATOM     12  C   UNL A   1      30.268  24.643  23.202  1.00  0.00     0.042 C 
BRANCH  12  13
ATOM     13  C   UNL A   1      30.418  25.869  24.091  1.00  0.00     0.033 C 
ATOM     14  C   UNL A   1      31.511  28.942  24.674  1.00  0.00     0.410 C 
ATOM     15  O   UNL A   1      30.729  29.873  24.538  1.00  0.00    -0.224 OA
ATOM     16  N   UNL A   1      31.289  27.707  24.150  1.00  0.00    -0.307 N 
ATOM     17  C   UNL A   1      30.172  27.212  23.376  1.00  0.00     0.128 C 
ATOM     18  C   UNL A   1      31.843  26.395  24.407  1.00  0.00     0.128 C 
BRANCH  14  19
ATOM     19  O   UNL A   1      32.694  29.000  25.337  1.00  0.00    -0.444 OA
BRANCH  19  20
ATOM     20  C   UNL A   1      32.730  29.237  26.771  1.00  0.00     0.106 C 
ATOM     21  C   UNL A   1      34.147  28.830  27.205  1.00  0.00     0.056 C 
ATOM     22  C   UNL A   1      31.711  28.323  27.459  1.00  0.00     0.056 C 
ATOM     23  C   UNL A   1      32.521  30.707  27.164  1.00  0.00     0.056 C 
ENDBRANCH  19  20
ENDBRANCH  14  19
ENDBRANCH  12  13
ENDBRANCH   7  12
ENDBRANCH   3   6
ENDBRANCH   1   2
BRANCH   1  24
ATOM     24  C   UNL A   1      35.482  22.471  25.891  1.00  0.00     0.042 C 
BRANCH  24  25
ATOM     25  C   UNL A   1      36.772  23.285  25.978  1.00  0.00     0.118 C 
BRANCH  25  26
ATOM     26  N   UNL A   1      37.955  22.439  26.055  1.00  0.00    -0.352 N 
ATOM     27  C   UNL A   1      39.256  22.772  26.345  1.00  0.00     0.251 C 
ATOM     28  H   UNL A   1      37.798  21.485  25.873  1.00  0.00     0.163 HD
ATOM     29  O   UNL A   1      40.143  21.940  26.170  1.00  0.00    -0.269 OA
BRANCH  27  30
ATOM     30  C   UNL A   1      39.602  24.121  26.851  1.00  0.00     0.039 A 
ATOM     31  C   UNL A   1      39.394  24.404  28.206  1.00  0.00     0.014 A 
ATOM     32  C   UNL A   1      40.081  25.118  25.998  1.00  0.00     0.014 A 
ATOM     33  C   UNL A   1      39.720  25.666  28.713  1.00  0.00     0.010 A 
ATOM     34  C   UNL A   1      40.457  26.358  26.515  1.00  0.00     0.010 A 
ATOM     35  C   UNL A   1      40.276  26.646  27.877  1.00  0.00    -0.014 A 
BRANCH  35  36
ATOM     36  C   UNL A   1      40.693  27.970  28.405  1.00  0.00     0.031 A 
ATOM     37  C   UNL A   1      42.149  28.279  28.624  1.00  0.00     0.074 A 
ATOM     38  C   UNL A   1      39.754  28.861  28.778  1.00  0.00     0.049 A 
ATOM     39  N   UNL A   1      42.696  29.349  29.142  1.00  0.00    -0.248 NA
ATOM     40  C   UNL A   1      43.118  27.241  28.231  1.00  0.00     0.031 C 
ATOM     41  C   UNL A   1      38.308  28.651  28.688  1.00  0.00     0.029 A 
ATOM     42  N   UNL A   1      39.874  30.108  29.340  1.00  0.00    -0.354 N 
ATOM     43  C   UNL A   1      44.063  29.101  29.173  1.00  0.00     0.074 A 
ATOM     44  C   UNL A   1      44.262  27.770  28.640  1.00  0.00     0.031 C 
ATOM     45  C   UNL A   1      37.676  29.726  29.182  1.00  0.00     0.029 A 
ATOM     46  C   UNL A   1      38.667  30.695  29.642  1.00  0.00     0.049 A 
ATOM     47  H   UNL A   1      40.742  30.542  29.508  1.00  0.00     0.167 HD
ATOM     48  C   UNL A   1      45.065  29.917  29.580  1.00  0.00     0.034 A 
ATOM     49  C   UNL A   1      38.389  31.877  30.227  1.00  0.00     0.034 A 
ATOM     50  C   UNL A   1      44.872  31.261  30.053  1.00  0.00     0.049 A 
ATOM     51  C   UNL A   1      39.522  32.787  30.616  1.00  0.00     0.074 A 
ATOM     52  C   UNL A   1      45.829  32.200  30.396  1.00  0.00     0.029 A 
ATOM     53  N   UNL A   1      43.637  31.860  30.250  1.00  0.00    -0.354 N 
ATOM     54  N   UNL A   1      40.812  32.600  30.482  1.00  0.00    -0.248 NA
ATOM     55  C   UNL A   1      39.161  34.087  31.202  1.00  0.00     0.031 C 
ATOM     56  C   UNL A   1      45.173  33.367  30.802  1.00  0.00     0.029 A 
ATOM     57  C   UNL A   1      43.807  33.155  30.711  1.00  0.00     0.049 A 
ATOM     58  H   UNL A   1      42.768  31.429  30.085  1.00  0.00     0.167 HD
ATOM     59  C   UNL A   1      41.416  33.766  30.938  1.00  0.00     0.074 A 
ATOM     60  C   UNL A   1      40.350  34.663  31.332  1.00  0.00     0.031 C 
ATOM     61  C   UNL A   1      42.736  34.059  31.042  1.00  0.00     0.034 A 
BRANCH  48  62
ATOM     62  C   UNL A   1      46.475  29.404  29.461  1.00  0.00     0.023 A 
ATOM     63  C   UNL A   1      47.049  28.715  30.549  1.00  0.00     0.012 A 
ATOM     64  C   UNL A   1      47.209  29.545  28.268  1.00  0.00     0.148 A 
ATOM     65  C   UNL A   1      48.340  28.199  30.461  1.00  0.00     0.002 A 
ATOM     66  C   UNL A   1      48.484  28.997  28.176  1.00  0.00     0.091 A 
ATOM     67  F   UNL A   1      46.657  30.225  27.252  1.00  0.00    -0.205 F 
ATOM     68  C   UNL A   1      49.053  28.330  29.274  1.00  0.00     0.022 A 
BRANCH  66  69
ATOM     69  S   UNL A   1      49.451  29.060  26.663  1.00  0.00     0.127 S 
ATOM     70  O   UNL A   1      50.571  28.180  26.991  1.00  0.00    -0.237 OA
ATOM     71  O   UNL A   1      48.519  28.518  25.672  1.00  0.00    -0.237 OA
ATOM     72  O   UNL A   1      49.786  30.464  26.467  1.00  0.00    -0.744 OA
ENDBRANCH  66  69
ENDBRANCH  48  62
BRANCH  49  73
ATOM     73  C   UNL A   1      36.971  32.298  30.399  1.00  0.00     0.023 A 
ATOM     74  C   UNL A   1      36.325  32.041  31.624  1.00  0.00     0.012 A 
ATOM     75  C   UNL A   1      36.277  32.990  29.388  1.00  0.00     0.148 A 
ATOM     76  C   UNL A   1      35.007  32.446  31.831  1.00  0.00     0.002 A 
ATOM     77  C   UNL A   1      34.980  33.436  29.621  1.00  0.00     0.091 A 
ATOM     78  F   UNL A   1      36.900  33.210  28.222  1.00  0.00    -0.205 F 
ATOM     79  C   UNL A   1      34.338  33.153  30.836  1.00  0.00     0.022 A 
BRANCH  77  80
ATOM     80  S   UNL A   1      34.106  34.471  28.440  1.00  0.00     0.127 S 
ATOM     81  O   UNL A   1      34.999  35.621  28.331  1.00  0.00    -0.237 OA
ATOM     82  O   UNL A   1      34.055  33.614  27.254  1.00  0.00    -0.237 OA
ATOM     83  O   UNL A   1      32.804  34.724  29.044  1.00  0.00    -0.744 OA
ENDBRANCH  77  80
ENDBRANCH  49  73
BRANCH  61  84
ATOM     84  C   UNL A   1      43.110  35.411  31.588  1.00  0.00     0.023 A 
ATOM     85  C   UNL A   1      43.164  35.601  32.982  1.00  0.00     0.012 A 
ATOM     86  C   UNL A   1      43.484  36.462  30.729  1.00  0.00     0.148 A 
ATOM     87  C   UNL A   1      43.563  36.826  33.515  1.00  0.00     0.002 A 
ATOM     88  C   UNL A   1      43.917  37.668  31.268  1.00  0.00     0.091 A 
ATOM     89  F   UNL A   1      43.402  36.270  29.406  1.00  0.00    -0.205 F 
ATOM     90  C   UNL A   1      43.950  37.855  32.660  1.00  0.00     0.022 A 
BRANCH  88  91
ATOM     91  S   UNL A   1      44.514  39.013  30.235  1.00  0.00     0.127 S 
ATOM     92  O   UNL A   1      44.897  40.010  31.233  1.00  0.00    -0.237 OA
ATOM     93  O   UNL A   1      45.638  38.394  29.529  1.00  0.00    -0.237 OA
ATOM     94  O   UNL A   1      43.395  39.374  29.376  1.00  0.00    -0.744 OA
ENDBRANCH  88  91
ENDBRANCH  61  84
ENDBRANCH  35  36
ENDBRANCH  27  30
ENDBRANCH  25  26
ENDBRANCH  24  25
ENDBRANCH   1  24
TORSDOF 17
ENDMDL
