MODEL 1
REMARK VINA RESULT:     -13.1      0.000      0.000
REMARK SMILES NC(=O)[C@@H]1CCC[N@@H+]1[C@@H](C(=O)NCCCNC(=O)c1ccc(-c2c3nc(c(-c4cccc(S(=O)(=O)[O-])c4F)c4ccc([nH]4)c(-c4cccc(S(=O)(=O)[O-])c4F)c4nc(c(-c5cccc(S(=O)(=O)[O-])c5F)c5ccc2[nH]5)C=C4)C=C3)cc1)c1c[nH]c2cc(OCc3ccccc3)ccc12
REMARK SMILES IDX 13 1 12 2 10 3 11 4 9 6 8 7 4 8 5 9 6 10 7 11 2 13 1 14 3 17
REMARK SMILES IDX 82 18 83 19 98 20 84 21 85 22 97 23 86 25 96 26 87 27 88 28
REMARK SMILES IDX 89 29 90 30 91 31 95 32 92 33 94 34 93 35 14 36 15 37 16 38
REMARK SMILES IDX 17 39 18 41 19 42 20 43 81 44 21 45 80 46 22 47 23 48 24 49
REMARK SMILES IDX 74 50 25 51 79 52 73 53 75 54 26 55 78 56 72 57 71 58 27 60
REMARK SMILES IDX 59 61 39 62 58 63 40 64 43 65 57 66 76 67 41 68 42 69 56 71
REMARK SMILES IDX 77 72 44 73 28 74 29 75 37 76 30 77 32 78 38 79 31 80 33 81
REMARK SMILES IDX 34 82 35 83 36 84 60 85 61 86 69 87 62 88 64 89 70 90 63 91
REMARK SMILES IDX 65 92 66 93 67 94 68 95 45 96 46 97 54 98 47 99 49 100
REMARK SMILES IDX 55 101 48 102 50 103 51 104 52 105 53 106
REMARK H PARENT 12 5 8 12 1 15 1 16 84 24 16 40 75 59 43 70
REMARK Flexibility Score: inf
ROOT
ATOM      1  C   UNL A   1      31.249  30.994  26.251  1.00  0.00     0.118 C 
ENDROOT
BRANCH   1   2
ATOM      2  N   UNL A   1      31.043  30.611  24.860  1.00  0.00    -0.351 N 
ATOM      3  C   UNL A   1      31.013  29.484  24.091  1.00  0.00     0.283 C 
ATOM      4  O   UNL A   1      30.749  29.778  22.916  1.00  0.00    -0.268 OA
ATOM      5  H   UNL A   1      30.877  31.409  24.306  1.00  0.00     0.163 HD
BRANCH   3   6
ATOM      6  C   UNL A   1      31.214  28.000  24.574  1.00  0.00     0.308 C 
BRANCH   6   7
ATOM      7  N   UNL A   1      32.647  27.515  24.697  1.00  0.00    -0.311 N 
ATOM      8  C   UNL A   1      33.132  26.886  25.938  1.00  0.00     0.275 C 
ATOM      9  C   UNL A   1      33.587  28.054  26.812  1.00  0.00     0.081 C 
ATOM     10  C   UNL A   1      34.056  29.104  25.823  1.00  0.00     0.068 C 
ATOM     11  C   UNL A   1      33.720  28.503  24.479  1.00  0.00     0.264 C 
ATOM     12  H   UNL A   1      32.510  26.831  23.953  1.00  0.00     0.349 HD
BRANCH   8  13
ATOM     13  C   UNL A   1      32.322  25.720  26.503  1.00  0.00     0.275 C 
ATOM     14  N   UNL A   1      32.980  24.518  26.498  1.00  0.00    -0.365 N 
ATOM     15  H   UNL A   1      32.533  23.712  26.844  1.00  0.00     0.159 HD
ATOM     16  H   UNL A   1      33.899  24.460  26.150  1.00  0.00     0.159 HD
ATOM     17  O   UNL A   1      31.151  25.757  26.867  1.00  0.00    -0.268 OA
ENDBRANCH   8  13
ENDBRANCH   6   7
BRANCH   6  18
ATOM     18  C   UNL A   1      30.493  26.919  23.635  1.00  0.00     0.044 A 
ATOM     19  C   UNL A   1      29.230  26.359  23.841  1.00  0.00     0.094 A 
ATOM     20  C   UNL A   1      31.099  25.861  22.866  1.00  0.00     0.009 A 
ATOM     21  N   UNL A   1      29.547  25.064  24.213  1.00  0.00    -0.361 N 
ATOM     22  C   UNL A   1      30.701  24.714  23.555  1.00  0.00     0.050 A 
ATOM     23  C   UNL A   1      32.111  25.724  21.899  1.00  0.00     0.015 A 
ATOM     24  H   UNL A   1      29.038  24.497  24.837  1.00  0.00     0.166 HD
ATOM     25  C   UNL A   1      31.505  23.578  23.614  1.00  0.00     0.073 A 
ATOM     26  C   UNL A   1      32.850  24.534  21.832  1.00  0.00     0.047 A 
ATOM     27  C   UNL A   1      32.619  23.531  22.767  1.00  0.00     0.121 A 
BRANCH  27  28
ATOM     28  O   UNL A   1      33.506  22.531  23.060  1.00  0.00    -0.489 OA
BRANCH  28  29
ATOM     29  C   UNL A   1      33.279  21.768  24.243  1.00  0.00     0.265 C 
BRANCH  29  30
ATOM     30  C   UNL A   1      33.216  20.281  23.956  1.00  0.00    -0.011 A 
ATOM     31  C   UNL A   1      34.087  19.413  24.626  1.00  0.00     0.007 A 
ATOM     32  C   UNL A   1      32.324  19.731  23.025  1.00  0.00     0.007 A 
ATOM     33  C   UNL A   1      34.074  18.043  24.348  1.00  0.00     0.000 A 
ATOM     34  C   UNL A   1      32.316  18.371  22.736  1.00  0.00     0.000 A 
ATOM     35  C   UNL A   1      33.196  17.524  23.396  1.00  0.00     0.000 A 
ENDBRANCH  29  30
ENDBRANCH  28  29
ENDBRANCH  27  28
ENDBRANCH   6  18
ENDBRANCH   3   6
ENDBRANCH   1   2
BRANCH   1  36
ATOM     36  C   UNL A   1      31.412  32.511  26.503  1.00  0.00     0.042 C 
BRANCH  36  37
ATOM     37  C   UNL A   1      32.630  32.929  27.345  1.00  0.00     0.118 C 
BRANCH  37  38
ATOM     38  N   UNL A   1      32.514  34.315  27.766  1.00  0.00    -0.352 N 
ATOM     39  C   UNL A   1      33.082  34.936  28.852  1.00  0.00     0.251 C 
ATOM     40  H   UNL A   1      31.951  34.888  27.195  1.00  0.00     0.163 HD
ATOM     41  O   UNL A   1      32.607  35.994  29.257  1.00  0.00    -0.269 OA
BRANCH  39  42
ATOM     42  C   UNL A   1      34.264  34.353  29.532  1.00  0.00     0.039 A 
ATOM     43  C   UNL A   1      35.521  34.470  28.927  1.00  0.00     0.014 A 
ATOM     44  C   UNL A   1      34.128  33.610  30.709  1.00  0.00     0.014 A 
ATOM     45  C   UNL A   1      36.643  33.872  29.514  1.00  0.00     0.010 A 
ATOM     46  C   UNL A   1      35.255  33.040  31.310  1.00  0.00     0.010 A 
ATOM     47  C   UNL A   1      36.522  33.161  30.718  1.00  0.00    -0.014 A 
BRANCH  47  48
ATOM     48  C   UNL A   1      37.714  32.572  31.390  1.00  0.00     0.031 A 
ATOM     49  C   UNL A   1      38.452  31.411  30.777  1.00  0.00     0.074 A 
ATOM     50  C   UNL A   1      38.080  33.029  32.604  1.00  0.00     0.049 A 
ATOM     51  N   UNL A   1      39.463  30.731  31.256  1.00  0.00    -0.248 NA
ATOM     52  C   UNL A   1      37.984  30.944  29.463  1.00  0.00     0.031 C 
ATOM     53  C   UNL A   1      37.410  34.108  33.332  1.00  0.00     0.029 A 
ATOM     54  N   UNL A   1      39.077  32.623  33.456  1.00  0.00    -0.354 N 
ATOM     55  C   UNL A   1      39.732  29.736  30.323  1.00  0.00     0.074 A 
ATOM     56  C   UNL A   1      38.765  29.891  29.257  1.00  0.00     0.031 C 
ATOM     57  C   UNL A   1      38.003  34.267  34.525  1.00  0.00     0.029 A 
ATOM     58  C   UNL A   1      39.073  33.283  34.663  1.00  0.00     0.049 A 
ATOM     59  H   UNL A   1      39.732  31.925  33.225  1.00  0.00     0.167 HD
ATOM     60  C   UNL A   1      40.706  28.793  30.342  1.00  0.00     0.034 A 
ATOM     61  C   UNL A   1      39.828  33.106  35.766  1.00  0.00     0.034 A 
ATOM     62  C   UNL A   1      41.685  28.662  31.389  1.00  0.00     0.049 A 
ATOM     63  C   UNL A   1      40.907  32.057  35.757  1.00  0.00     0.074 A 
ATOM     64  C   UNL A   1      42.770  27.803  31.449  1.00  0.00     0.029 A 
ATOM     65  N   UNL A   1      41.692  29.394  32.566  1.00  0.00    -0.354 N 
ATOM     66  N   UNL A   1      41.254  31.240  34.793  1.00  0.00    -0.248 NA
ATOM     67  C   UNL A   1      41.718  31.926  36.977  1.00  0.00     0.031 C 
ATOM     68  C   UNL A   1      43.413  27.994  32.677  1.00  0.00     0.029 A 
ATOM     69  C   UNL A   1      42.745  28.989  33.371  1.00  0.00     0.049 A 
ATOM     70  H   UNL A   1      41.043  30.097  32.796  1.00  0.00     0.167 HD
ATOM     71  C   UNL A   1      42.336  30.514  35.279  1.00  0.00     0.074 A 
ATOM     72  C   UNL A   1      42.606  31.010  36.613  1.00  0.00     0.031 C 
ATOM     73  C   UNL A   1      43.031  29.515  34.681  1.00  0.00     0.034 A 
BRANCH  60  74
ATOM     74  C   UNL A   1      40.795  27.848  29.170  1.00  0.00     0.023 A 
ATOM     75  C   UNL A   1      39.960  26.713  29.127  1.00  0.00     0.012 A 
ATOM     76  C   UNL A   1      41.645  28.121  28.079  1.00  0.00     0.148 A 
ATOM     77  C   UNL A   1      39.992  25.847  28.034  1.00  0.00     0.002 A 
ATOM     78  C   UNL A   1      41.642  27.275  26.975  1.00  0.00     0.091 A 
ATOM     79  F   UNL A   1      42.444  29.196  28.144  1.00  0.00    -0.205 F 
ATOM     80  C   UNL A   1      40.825  26.133  26.956  1.00  0.00     0.022 A 
BRANCH  78  81
ATOM     81  S   UNL A   1      42.620  27.596  25.503  1.00  0.00     0.127 S 
ATOM     82  O   UNL A   1      42.331  26.414  24.692  1.00  0.00    -0.237 OA
ATOM     83  O   UNL A   1      42.027  28.837  25.003  1.00  0.00    -0.237 OA
ATOM     84  O   UNL A   1      43.999  27.722  25.954  1.00  0.00    -0.744 OA
ENDBRANCH  78  81
ENDBRANCH  60  74
BRANCH  61  85
ATOM     85  C   UNL A   1      39.613  33.975  36.958  1.00  0.00     0.023 A 
ATOM     86  C   UNL A   1      39.992  35.329  36.905  1.00  0.00     0.012 A 
ATOM     87  C   UNL A   1      38.998  33.479  38.125  1.00  0.00     0.148 A 
ATOM     88  C   UNL A   1      39.790  36.167  38.002  1.00  0.00     0.002 A 
ATOM     89  C   UNL A   1      38.744  34.333  39.192  1.00  0.00     0.091 A 
ATOM     90  F   UNL A   1      38.658  32.182  38.163  1.00  0.00    -0.205 F 
ATOM     91  C   UNL A   1      39.156  35.674  39.139  1.00  0.00     0.022 A 
BRANCH  89  92
ATOM     92  S   UNL A   1      37.800  33.822  40.631  1.00  0.00     0.127 S 
ATOM     93  O   UNL A   1      36.623  33.216  40.020  1.00  0.00    -0.237 OA
ATOM     94  O   UNL A   1      38.716  32.885  41.279  1.00  0.00    -0.237 OA
ATOM     95  O   UNL A   1      37.562  35.044  41.398  1.00  0.00    -0.744 OA
ENDBRANCH  89  92
ENDBRANCH  61  85
BRANCH  73  96
ATOM     96  C   UNL A   1      44.163  28.889  35.455  1.00  0.00     0.023 A 
ATOM     97  C   UNL A   1      45.452  29.451  35.380  1.00  0.00     0.012 A 
ATOM     98  C   UNL A   1      43.933  27.797  36.316  1.00  0.00     0.148 A 
ATOM     99  C   UNL A   1      46.502  28.920  36.128  1.00  0.00     0.002 A 
ATOM    100  C   UNL A   1      44.974  27.302  37.093  1.00  0.00     0.091 A 
ATOM    101  F   UNL A   1      42.703  27.266  36.361  1.00  0.00    -0.205 F 
ATOM    102  C   UNL A   1      46.262  27.855  36.992  1.00  0.00     0.022 A 
BRANCH 100 103
ATOM    103  S   UNL A   1      44.743  25.993  38.301  1.00  0.00     0.127 S 
ATOM    104  O   UNL A   1      43.671  26.539  39.132  1.00  0.00    -0.237 OA
ATOM    105  O   UNL A   1      44.346  24.863  37.461  1.00  0.00    -0.237 OA
ATOM    106  O   UNL A   1      46.026  25.830  38.970  1.00  0.00    -0.744 OA
ENDBRANCH 100 103
ENDBRANCH  73  96
ENDBRANCH  47  48
ENDBRANCH  39  42
ENDBRANCH  37  38
ENDBRANCH  36  37
ENDBRANCH   1  36
TORSDOF 19
ENDMDL
MODEL 2
REMARK VINA RESULT:     -12.6      1.918      2.934
REMARK SMILES NC(=O)[C@@H]1CCC[N@@H+]1[C@@H](C(=O)NCCCNC(=O)c1ccc(-c2c3nc(c(-c4cccc(S(=O)(=O)[O-])c4F)c4ccc([nH]4)c(-c4cccc(S(=O)(=O)[O-])c4F)c4nc(c(-c5cccc(S(=O)(=O)[O-])c5F)c5ccc2[nH]5)C=C4)C=C3)cc1)c1c[nH]c2cc(OCc3ccccc3)ccc12
REMARK SMILES IDX 13 1 12 2 10 3 11 4 9 6 8 7 4 8 5 9 6 10 7 11 2 13 1 14 3 17
REMARK SMILES IDX 82 18 83 19 98 20 84 21 85 22 97 23 86 25 96 26 87 27 88 28
REMARK SMILES IDX 89 29 90 30 91 31 95 32 92 33 94 34 93 35 14 36 15 37 16 38
REMARK SMILES IDX 17 39 18 41 19 42 20 43 81 44 21 45 80 46 22 47 23 48 24 49
REMARK SMILES IDX 74 50 25 51 79 52 73 53 75 54 26 55 78 56 72 57 71 58 27 60
REMARK SMILES IDX 59 61 39 62 58 63 40 64 43 65 57 66 76 67 41 68 42 69 56 71
REMARK SMILES IDX 77 72 44 73 28 74 29 75 37 76 30 77 32 78 38 79 31 80 33 81
REMARK SMILES IDX 34 82 35 83 36 84 60 85 61 86 69 87 62 88 64 89 70 90 63 91
REMARK SMILES IDX 65 92 66 93 67 94 68 95 45 96 46 97 54 98 47 99 49 100
REMARK SMILES IDX 55 101 48 102 50 103 51 104 52 105 53 106
REMARK H PARENT 12 5 8 12 1 15 1 16 84 24 16 40 75 59 43 70
REMARK Flexibility Score: inf
ROOT
ATOM      1  C   UNL A   1      31.989  29.831  25.381  1.00  0.00     0.118 C 
ENDROOT
BRANCH   1   2
ATOM      2  N   UNL A   1      31.660  28.699  26.239  1.00  0.00    -0.351 N 
ATOM      3  C   UNL A   1      31.803  27.343  26.260  1.00  0.00     0.283 C 
ATOM      4  O   UNL A   1      31.333  26.882  27.310  1.00  0.00    -0.268 OA
ATOM      5  H   UNL A   1      31.191  29.008  27.048  1.00  0.00     0.163 HD
BRANCH   3   6
ATOM      6  C   UNL A   1      32.503  26.444  25.173  1.00  0.00     0.308 C 
BRANCH   6   7
ATOM      7  N   UNL A   1      31.590  25.655  24.254  1.00  0.00    -0.311 N 
ATOM      8  C   UNL A   1      31.578  25.900  22.801  1.00  0.00     0.275 C 
ATOM      9  C   UNL A   1      30.576  27.038  22.609  1.00  0.00     0.081 C 
ATOM     10  C   UNL A   1      29.570  26.848  23.727  1.00  0.00     0.068 C 
ATOM     11  C   UNL A   1      30.141  25.703  24.530  1.00  0.00     0.264 C 
ATOM     12  H   UNL A   1      32.061  24.781  24.488  1.00  0.00     0.349 HD
BRANCH   8  13
ATOM     13  C   UNL A   1      32.918  25.867  22.068  1.00  0.00     0.275 C 
ATOM     14  N   UNL A   1      33.015  26.747  21.023  1.00  0.00    -0.365 N 
ATOM     15  H   UNL A   1      33.844  26.793  20.495  1.00  0.00     0.159 HD
ATOM     16  H   UNL A   1      32.256  27.334  20.801  1.00  0.00     0.159 HD
ATOM     17  O   UNL A   1      33.843  25.090  22.280  1.00  0.00    -0.268 OA
ENDBRANCH   8  13
ENDBRANCH   6   7
BRANCH   6  18
ATOM     18  C   UNL A   1      33.505  25.356  25.792  1.00  0.00     0.044 A 
ATOM     19  C   UNL A   1      34.866  25.229  25.505  1.00  0.00     0.094 A 
ATOM     20  C   UNL A   1      33.216  23.998  26.179  1.00  0.00     0.009 A 
ATOM     21  N   UNL A   1      34.893  24.069  24.749  1.00  0.00    -0.361 N 
ATOM     22  C   UNL A   1      33.887  23.253  25.206  1.00  0.00     0.050 A 
ATOM     23  C   UNL A   1      32.298  23.321  27.001  1.00  0.00     0.015 A 
ATOM     24  H   UNL A   1      35.519  23.867  24.017  1.00  0.00     0.166 HD
ATOM     25  C   UNL A   1      33.410  22.020  24.768  1.00  0.00     0.073 A 
ATOM     26  C   UNL A   1      31.901  22.017  26.671  1.00  0.00     0.047 A 
ATOM     27  C   UNL A   1      32.367  21.435  25.497  1.00  0.00     0.121 A 
BRANCH  27  28
ATOM     28  O   UNL A   1      31.768  20.376  24.871  1.00  0.00    -0.489 OA
BRANCH  28  29
ATOM     29  C   UNL A   1      32.499  19.716  23.840  1.00  0.00     0.265 C 
BRANCH  29  30
ATOM     30  C   UNL A   1      32.945  18.329  24.258  1.00  0.00    -0.011 A 
ATOM     31  C   UNL A   1      33.735  17.568  23.387  1.00  0.00     0.007 A 
ATOM     32  C   UNL A   1      32.581  17.760  25.487  1.00  0.00     0.007 A 
ATOM     33  C   UNL A   1      34.124  16.271  23.735  1.00  0.00     0.000 A 
ATOM     34  C   UNL A   1      32.956  16.466  25.831  1.00  0.00     0.000 A 
ATOM     35  C   UNL A   1      33.726  15.718  24.952  1.00  0.00     0.000 A 
ENDBRANCH  29  30
ENDBRANCH  28  29
ENDBRANCH  27  28
ENDBRANCH   6  18
ENDBRANCH   3   6
ENDBRANCH   1   2
BRANCH   1  36
ATOM     36  C   UNL A   1      32.868  30.923  26.035  1.00  0.00     0.042 C 
BRANCH  36  37
ATOM     37  C   UNL A   1      32.293  31.584  27.300  1.00  0.00     0.118 C 
BRANCH  37  38
ATOM     38  N   UNL A   1      32.470  33.026  27.252  1.00  0.00    -0.352 N 
ATOM     39  C   UNL A   1      33.326  33.813  27.985  1.00  0.00     0.251 C 
ATOM     40  H   UNL A   1      31.900  33.504  26.607  1.00  0.00     0.163 HD
ATOM     41  O   UNL A   1      33.103  35.018  28.079  1.00  0.00    -0.269 OA
BRANCH  39  42
ATOM     42  C   UNL A   1      34.516  33.231  28.651  1.00  0.00     0.039 A 
ATOM     43  C   UNL A   1      35.790  33.561  28.172  1.00  0.00     0.014 A 
ATOM     44  C   UNL A   1      34.383  32.292  29.678  1.00  0.00     0.014 A 
ATOM     45  C   UNL A   1      36.928  32.975  28.739  1.00  0.00     0.010 A 
ATOM     46  C   UNL A   1      35.522  31.731  30.264  1.00  0.00     0.010 A 
ATOM     47  C   UNL A   1      36.805  32.062  29.800  1.00  0.00    -0.014 A 
BRANCH  47  48
ATOM     48  C   UNL A   1      38.007  31.477  30.458  1.00  0.00     0.031 A 
ATOM     49  C   UNL A   1      38.808  30.396  29.782  1.00  0.00     0.074 A 
ATOM     50  C   UNL A   1      38.324  31.859  31.710  1.00  0.00     0.049 A 
ATOM     51  N   UNL A   1      39.838  29.726  30.236  1.00  0.00    -0.248 NA
ATOM     52  C   UNL A   1      38.391  30.006  28.426  1.00  0.00     0.031 C 
ATOM     53  C   UNL A   1      37.592  32.853  32.497  1.00  0.00     0.029 A 
ATOM     54  N   UNL A   1      39.320  31.435  32.556  1.00  0.00    -0.354 N 
ATOM     55  C   UNL A   1      40.171  28.814  29.241  1.00  0.00     0.074 A 
ATOM     56  C   UNL A   1      39.222  29.005  28.164  1.00  0.00     0.031 C 
ATOM     57  C   UNL A   1      38.150  32.949  33.713  1.00  0.00     0.029 A 
ATOM     58  C   UNL A   1      39.259  32.004  33.807  1.00  0.00     0.049 A 
ATOM     59  H   UNL A   1      40.010  30.784  32.293  1.00  0.00     0.167 HD
ATOM     60  C   UNL A   1      41.185  27.914  29.217  1.00  0.00     0.034 A 
ATOM     61  C   UNL A   1      39.996  31.779  34.913  1.00  0.00     0.034 A 
ATOM     62  C   UNL A   1      42.145  27.748  30.277  1.00  0.00     0.049 A 
ATOM     63  C   UNL A   1      41.121  30.780  34.856  1.00  0.00     0.074 A 
ATOM     64  C   UNL A   1      43.265  26.934  30.302  1.00  0.00     0.029 A 
ATOM     65  N   UNL A   1      42.093  28.392  31.503  1.00  0.00    -0.354 N 
ATOM     66  N   UNL A   1      41.525  30.051  33.845  1.00  0.00    -0.248 NA
ATOM     67  C   UNL A   1      41.909  30.594  36.084  1.00  0.00     0.031 C 
ATOM     68  C   UNL A   1      43.871  27.062  31.557  1.00  0.00     0.029 A 
ATOM     69  C   UNL A   1      43.145  27.975  32.303  1.00  0.00     0.049 A 
ATOM     70  H   UNL A   1      41.409  29.048  31.767  1.00  0.00     0.167 HD
ATOM     71  C   UNL A   1      42.627  29.338  34.305  1.00  0.00     0.074 A 
ATOM     72  C   UNL A   1      42.845  29.746  35.677  1.00  0.00     0.031 C 
ATOM     73  C   UNL A   1      43.378  28.415  33.654  1.00  0.00     0.034 A 
BRANCH  60  74
ATOM     74  C   UNL A   1      41.342  27.062  27.983  1.00  0.00     0.023 A 
ATOM     75  C   UNL A   1      41.967  27.602  26.840  1.00  0.00     0.012 A 
ATOM     76  C   UNL A   1      40.943  25.711  27.977  1.00  0.00     0.148 A 
ATOM     77  C   UNL A   1      42.164  26.822  25.701  1.00  0.00     0.002 A 
ATOM     78  C   UNL A   1      41.180  24.928  26.851  1.00  0.00     0.091 A 
ATOM     79  F   UNL A   1      40.336  25.217  29.066  1.00  0.00    -0.205 F 
ATOM     80  C   UNL A   1      41.779  25.485  25.710  1.00  0.00     0.022 A 
BRANCH  78  81
ATOM     81  S   UNL A   1      40.793  23.174  26.790  1.00  0.00     0.127 S 
ATOM     82  O   UNL A   1      41.302  22.714  28.081  1.00  0.00    -0.237 OA
ATOM     83  O   UNL A   1      39.333  23.185  26.680  1.00  0.00    -0.237 OA
ATOM     84  O   UNL A   1      41.485  22.649  25.622  1.00  0.00    -0.744 OA
ENDBRANCH  78  81
ENDBRANCH  60  74
BRANCH  61  85
ATOM     85  C   UNL A   1      39.717  32.548  36.158  1.00  0.00     0.023 A 
ATOM     86  C   UNL A   1      40.383  33.768  36.384  1.00  0.00     0.012 A 
ATOM     87  C   UNL A   1      38.767  32.102  37.098  1.00  0.00     0.148 A 
ATOM     88  C   UNL A   1      40.130  34.514  37.535  1.00  0.00     0.002 A 
ATOM     89  C   UNL A   1      38.474  32.880  38.213  1.00  0.00     0.091 A 
ATOM     90  F   UNL A   1      38.153  30.931  36.875  1.00  0.00    -0.205 F 
ATOM     91  C   UNL A   1      39.169  34.078  38.442  1.00  0.00     0.022 A 
BRANCH  89  92
ATOM     92  S   UNL A   1      37.147  32.471  39.351  1.00  0.00     0.127 S 
ATOM     93  O   UNL A   1      37.317  33.482  40.389  1.00  0.00    -0.237 OA
ATOM     94  O   UNL A   1      35.963  32.639  38.510  1.00  0.00    -0.237 OA
ATOM     95  O   UNL A   1      37.393  31.090  39.760  1.00  0.00    -0.744 OA
ENDBRANCH  89  92
ENDBRANCH  61  85
BRANCH  73  96
ATOM     96  C   UNL A   1      44.518  27.783  34.411  1.00  0.00     0.023 A 
ATOM     97  C   UNL A   1      45.786  28.398  34.400  1.00  0.00     0.012 A 
ATOM     98  C   UNL A   1      44.316  26.629  35.193  1.00  0.00     0.148 A 
ATOM     99  C   UNL A   1      46.842  27.858  35.134  1.00  0.00     0.002 A 
ATOM    100  C   UNL A   1      45.361  26.124  35.958  1.00  0.00     0.091 A 
ATOM    101  F   UNL A   1      43.107  26.049  35.177  1.00  0.00    -0.205 F 
ATOM    102  C   UNL A   1      46.627  26.730  35.921  1.00  0.00     0.022 A 
BRANCH 100 103
ATOM    103  S   UNL A   1      45.158  24.729  37.073  1.00  0.00     0.127 S 
ATOM    104  O   UNL A   1      44.106  25.212  37.966  1.00  0.00    -0.237 OA
ATOM    105  O   UNL A   1      44.742  23.663  36.162  1.00  0.00    -0.237 OA
ATOM    106  O   UNL A   1      46.457  24.520  37.697  1.00  0.00    -0.744 OA
ENDBRANCH 100 103
ENDBRANCH  73  96
ENDBRANCH  47  48
ENDBRANCH  39  42
ENDBRANCH  37  38
ENDBRANCH  36  37
ENDBRANCH   1  36
TORSDOF 19
ENDMDL
MODEL 3
REMARK VINA RESULT:     -12.6      5.089      8.008
REMARK SMILES NC(=O)[C@@H]1CCC[N@@H+]1[C@@H](C(=O)NCCCNC(=O)c1ccc(-c2c3nc(c(-c4cccc(S(=O)(=O)[O-])c4F)c4ccc([nH]4)c(-c4cccc(S(=O)(=O)[O-])c4F)c4nc(c(-c5cccc(S(=O)(=O)[O-])c5F)c5ccc2[nH]5)C=C4)C=C3)cc1)c1c[nH]c2cc(OCc3ccccc3)ccc12
REMARK SMILES IDX 13 1 12 2 10 3 11 4 9 6 8 7 4 8 5 9 6 10 7 11 2 13 1 14 3 17
REMARK SMILES IDX 82 18 83 19 98 20 84 21 85 22 97 23 86 25 96 26 87 27 88 28
REMARK SMILES IDX 89 29 90 30 91 31 95 32 92 33 94 34 93 35 14 36 15 37 16 38
REMARK SMILES IDX 17 39 18 41 19 42 20 43 81 44 21 45 80 46 22 47 23 48 24 49
REMARK SMILES IDX 74 50 25 51 79 52 73 53 75 54 26 55 78 56 72 57 71 58 27 60
REMARK SMILES IDX 59 61 39 62 58 63 40 64 43 65 57 66 76 67 41 68 42 69 56 71
REMARK SMILES IDX 77 72 44 73 28 74 29 75 37 76 30 77 32 78 38 79 31 80 33 81
REMARK SMILES IDX 34 82 35 83 36 84 60 85 61 86 69 87 62 88 64 89 70 90 63 91
REMARK SMILES IDX 65 92 66 93 67 94 68 95 45 96 46 97 54 98 47 99 49 100
REMARK SMILES IDX 55 101 48 102 50 103 51 104 52 105 53 106
REMARK H PARENT 12 5 8 12 1 15 1 16 84 24 16 40 75 59 43 70
REMARK Flexibility Score: inf
ROOT
ATOM      1  C   UNL A   1      34.476  24.465  24.411  1.00  0.00     0.118 C 
ENDROOT
BRANCH   1   2
ATOM      2  N   UNL A   1      34.235  24.824  23.020  1.00  0.00    -0.351 N 
ATOM      3  C   UNL A   1      33.291  25.458  22.264  1.00  0.00     0.283 C 
ATOM      4  O   UNL A   1      33.651  25.497  21.079  1.00  0.00    -0.268 OA
ATOM      5  H   UNL A   1      34.978  24.515  22.452  1.00  0.00     0.163 HD
BRANCH   3   6
ATOM      6  C   UNL A   1      31.953  26.115  22.771  1.00  0.00     0.308 C 
BRANCH   6   7
ATOM      7  N   UNL A   1      32.080  27.142  23.881  1.00  0.00    -0.311 N 
ATOM      8  C   UNL A   1      31.865  28.575  23.617  1.00  0.00     0.275 C 
ATOM      9  C   UNL A   1      33.227  29.093  23.158  1.00  0.00     0.081 C 
ATOM     10  C   UNL A   1      34.229  28.220  23.888  1.00  0.00     0.068 C 
ATOM     11  C   UNL A   1      33.365  27.208  24.603  1.00  0.00     0.264 C 
ATOM     12  H   UNL A   1      31.300  26.729  24.392  1.00  0.00     0.349 HD
BRANCH   8  13
ATOM     13  C   UNL A   1      30.567  28.978  22.920  1.00  0.00     0.275 C 
ATOM     14  N   UNL A   1      30.739  29.752  21.802  1.00  0.00    -0.365 N 
ATOM     15  H   UNL A   1      29.956  30.057  21.290  1.00  0.00     0.159 HD
ATOM     16  H   UNL A   1      31.646  30.002  21.511  1.00  0.00     0.159 HD
ATOM     17  O   UNL A   1      29.428  28.744  23.312  1.00  0.00    -0.268 OA
ENDBRANCH   8  13
ENDBRANCH   6   7
BRANCH   6  18
ATOM     18  C   UNL A   1      30.885  25.050  23.314  1.00  0.00     0.044 A 
ATOM     19  C   UNL A   1      29.846  25.309  24.212  1.00  0.00     0.094 A 
ATOM     20  C   UNL A   1      31.079  23.646  23.575  1.00  0.00     0.009 A 
ATOM     21  N   UNL A   1      30.292  24.675  25.359  1.00  0.00    -0.361 N 
ATOM     22  C   UNL A   1      31.028  23.583  24.969  1.00  0.00     0.050 A 
ATOM     23  C   UNL A   1      31.551  22.514  22.887  1.00  0.00     0.015 A 
ATOM     24  H   UNL A   1      30.114  24.956  26.285  1.00  0.00     0.166 HD
ATOM     25  C   UNL A   1      31.770  22.648  25.688  1.00  0.00     0.073 A 
ATOM     26  C   UNL A   1      32.178  21.481  23.598  1.00  0.00     0.047 A 
ATOM     27  C   UNL A   1      32.387  21.619  24.966  1.00  0.00     0.121 A 
BRANCH  27  28
ATOM     28  O   UNL A   1      33.308  20.904  25.682  1.00  0.00    -0.489 OA
BRANCH  28  29
ATOM     29  C   UNL A   1      34.257  20.128  24.954  1.00  0.00     0.265 C 
BRANCH  29  30
ATOM     30  C   UNL A   1      33.839  18.675  24.845  1.00  0.00    -0.011 A 
ATOM     31  C   UNL A   1      32.903  18.158  25.748  1.00  0.00     0.007 A 
ATOM     32  C   UNL A   1      34.370  17.811  23.878  1.00  0.00     0.007 A 
ATOM     33  C   UNL A   1      32.533  16.811  25.691  1.00  0.00     0.000 A 
ATOM     34  C   UNL A   1      34.014  16.467  23.826  1.00  0.00     0.000 A 
ATOM     35  C   UNL A   1      33.097  15.964  24.737  1.00  0.00     0.000 A 
ENDBRANCH  29  30
ENDBRANCH  28  29
ENDBRANCH  27  28
ENDBRANCH   6  18
ENDBRANCH   3   6
ENDBRANCH   1   2
BRANCH   1  36
ATOM     36  C   UNL A   1      35.698  23.548  24.655  1.00  0.00     0.042 C 
BRANCH  36  37
ATOM     37  C   UNL A   1      36.098  23.334  26.125  1.00  0.00     0.118 C 
BRANCH  37  38
ATOM     38  N   UNL A   1      37.220  22.415  26.224  1.00  0.00    -0.352 N 
ATOM     39  C   UNL A   1      38.561  22.700  26.316  1.00  0.00     0.251 C 
ATOM     40  H   UNL A   1      36.988  21.458  26.225  1.00  0.00     0.163 HD
ATOM     41  O   UNL A   1      39.382  21.830  26.037  1.00  0.00    -0.269 OA
BRANCH  39  42
ATOM     42  C   UNL A   1      39.029  24.036  26.760  1.00  0.00     0.039 A 
ATOM     43  C   UNL A   1      39.722  24.847  25.853  1.00  0.00     0.014 A 
ATOM     44  C   UNL A   1      38.873  24.453  28.085  1.00  0.00     0.014 A 
ATOM     45  C   UNL A   1      40.232  26.085  26.265  1.00  0.00     0.010 A 
ATOM     46  C   UNL A   1      39.355  25.703  28.486  1.00  0.00     0.010 A 
ATOM     47  C   UNL A   1      40.042  26.530  27.583  1.00  0.00    -0.014 A 
BRANCH  47  48
ATOM     48  C   UNL A   1      40.522  27.871  28.021  1.00  0.00     0.031 A 
ATOM     49  C   UNL A   1      41.993  28.188  28.067  1.00  0.00     0.074 A 
ATOM     50  C   UNL A   1      39.629  28.777  28.466  1.00  0.00     0.049 A 
ATOM     51  N   UNL A   1      42.590  29.275  28.488  1.00  0.00    -0.248 NA
ATOM     52  C   UNL A   1      42.915  27.144  27.593  1.00  0.00     0.031 C 
ATOM     53  C   UNL A   1      38.181  28.570  28.530  1.00  0.00     0.029 A 
ATOM     54  N   UNL A   1      39.807  30.037  28.983  1.00  0.00    -0.354 N 
ATOM     55  C   UNL A   1      43.954  29.037  28.362  1.00  0.00     0.074 A 
ATOM     56  C   UNL A   1      44.097  27.693  27.842  1.00  0.00     0.031 C 
ATOM     57  C   UNL A   1      37.605  29.654  29.069  1.00  0.00     0.029 A 
ATOM     58  C   UNL A   1      38.641  30.622  29.420  1.00  0.00     0.049 A 
ATOM     59  H   UNL A   1      40.685  30.479  29.036  1.00  0.00     0.167 HD
ATOM     60  C   UNL A   1      44.991  29.866  28.637  1.00  0.00     0.034 A 
ATOM     61  C   UNL A   1      38.428  31.793  30.052  1.00  0.00     0.034 A 
ATOM     62  C   UNL A   1      44.843  31.213  29.125  1.00  0.00     0.049 A 
ATOM     63  C   UNL A   1      39.596  32.699  30.337  1.00  0.00     0.074 A 
ATOM     64  C   UNL A   1      45.828  32.162  29.338  1.00  0.00     0.029 A 
ATOM     65  N   UNL A   1      43.641  31.796  29.493  1.00  0.00    -0.354 N 
ATOM     66  N   UNL A   1      40.863  32.523  30.053  1.00  0.00    -0.248 NA
ATOM     67  C   UNL A   1      39.302  33.976  31.004  1.00  0.00     0.031 C 
ATOM     68  C   UNL A   1      45.224  33.309  29.866  1.00  0.00     0.029 A 
ATOM     69  C   UNL A   1      43.861  33.084  29.957  1.00  0.00     0.049 A 
ATOM     70  H   UNL A   1      42.761  31.360  29.435  1.00  0.00     0.167 HD
ATOM     71  C   UNL A   1      41.514  33.674  30.484  1.00  0.00     0.074 A 
ATOM     72  C   UNL A   1      40.496  34.553  31.021  1.00  0.00     0.031 C 
ATOM     73  C   UNL A   1      42.838  33.967  30.453  1.00  0.00     0.034 A 
BRANCH  60  74
ATOM     74  C   UNL A   1      46.387  29.360  28.373  1.00  0.00     0.023 A 
ATOM     75  C   UNL A   1      47.004  29.637  27.136  1.00  0.00     0.012 A 
ATOM     76  C   UNL A   1      47.115  28.681  29.371  1.00  0.00     0.148 A 
ATOM     77  C   UNL A   1      48.310  29.219  26.883  1.00  0.00     0.002 A 
ATOM     78  C   UNL A   1      48.431  28.303  29.125  1.00  0.00     0.091 A 
ATOM     79  F   UNL A   1      46.508  28.413  30.535  1.00  0.00    -0.205 F 
ATOM     80  C   UNL A   1      49.025  28.560  27.879  1.00  0.00     0.022 A 
BRANCH  78  81
ATOM     81  S   UNL A   1      49.464  27.520  30.370  1.00  0.00     0.127 S 
ATOM     82  O   UNL A   1      48.760  26.256  30.584  1.00  0.00    -0.237 OA
ATOM     83  O   UNL A   1      50.744  27.393  29.672  1.00  0.00    -0.237 OA
ATOM     84  O   UNL A   1      49.480  28.426  31.509  1.00  0.00    -0.744 OA
ENDBRANCH  78  81
ENDBRANCH  60  74
BRANCH  61  85
ATOM     85  C   UNL A   1      37.040  32.194  30.420  1.00  0.00     0.023 A 
ATOM     86  C   UNL A   1      36.565  31.934  31.720  1.00  0.00     0.012 A 
ATOM     87  C   UNL A   1      36.205  32.866  29.507  1.00  0.00     0.148 A 
ATOM     88  C   UNL A   1      35.275  32.310  32.094  1.00  0.00     0.002 A 
ATOM     89  C   UNL A   1      34.942  33.293  29.904  1.00  0.00     0.091 A 
ATOM     90  F   UNL A   1      36.668  33.092  28.268  1.00  0.00    -0.205 F 
ATOM     91  C   UNL A   1      34.469  32.999  31.193  1.00  0.00     0.022 A 
BRANCH  89  92
ATOM     92  S   UNL A   1      33.899  34.317  28.861  1.00  0.00     0.127 S 
ATOM     93  O   UNL A   1      33.410  33.352  27.883  1.00  0.00    -0.237 OA
ATOM     94  O   UNL A   1      32.898  34.798  29.812  1.00  0.00    -0.237 OA
ATOM     95  O   UNL A   1      34.774  35.365  28.340  1.00  0.00    -0.744 OA
ENDBRANCH  89  92
ENDBRANCH  61  85
BRANCH  73  96
ATOM     96  C   UNL A   1      43.271  35.300  31.007  1.00  0.00     0.023 A 
ATOM     97  C   UNL A   1      43.625  35.407  32.366  1.00  0.00     0.012 A 
ATOM     98  C   UNL A   1      43.402  36.425  30.168  1.00  0.00     0.148 A 
ATOM     99  C   UNL A   1      44.077  36.618  32.889  1.00  0.00     0.002 A 
ATOM    100  C   UNL A   1      43.898  37.616  30.685  1.00  0.00     0.091 A 
ATOM    101  F   UNL A   1      43.044  36.308  28.882  1.00  0.00    -0.205 F 
ATOM    102  C   UNL A   1      44.225  37.718  32.048  1.00  0.00     0.022 A 
BRANCH 100 103
ATOM    103  S   UNL A   1      44.208  39.061  29.663  1.00  0.00     0.127 S 
ATOM    104  O   UNL A   1      44.611  40.051  30.661  1.00  0.00    -0.237 OA
ATOM    105  O   UNL A   1      45.290  38.598  28.794  1.00  0.00    -0.237 OA
ATOM    106  O   UNL A   1      42.956  39.344  28.975  1.00  0.00    -0.744 OA
ENDBRANCH 100 103
ENDBRANCH  73  96
ENDBRANCH  47  48
ENDBRANCH  39  42
ENDBRANCH  37  38
ENDBRANCH  36  37
ENDBRANCH   1  36
TORSDOF 19
ENDMDL
