MODEL 1
REMARK VINA RESULT:     -12.8      0.000      0.000
REMARK SMILES C[C@H](Oc1ccc(-c2ccccc2)cc1)C(=O)N[C@H](C)C(=O)NCCCNC(=O)c1ccc(-c2c3nc(c(-c4cccc(S(=O)(=O)[O-])c4F)c4ccc([nH]4)c(-c4cccc(S(=O)(=O)[O-])c4F)c4nc(c(-c5cccc(S(=O)(=O)[O-])c5F)c5ccc2[nH]5)C=C4)C=C3)cc1
REMARK SMILES IDX 24 1 23 2 21 3 22 4 19 6 20 7 18 8 16 9 17 10 2 12 1 13 3 14
REMARK SMILES IDX 4 15 5 16 15 17 6 18 14 19 7 20 8 21 9 22 13 23 10 24 12 25
REMARK SMILES IDX 11 26 25 27 26 28 27 29 28 30 29 32 30 33 31 34 92 35 32 36
REMARK SMILES IDX 91 37 33 38 34 39 35 40 85 41 36 42 90 43 84 44 86 45 37 46
REMARK SMILES IDX 89 47 83 48 82 49 38 51 70 52 50 53 69 54 51 55 54 56 68 57
REMARK SMILES IDX 87 58 52 59 53 60 67 62 88 63 55 64 39 65 40 66 48 67 41 68
REMARK SMILES IDX 43 69 49 70 42 71 44 72 45 73 46 74 47 75 71 76 72 77 80 78
REMARK SMILES IDX 73 79 75 80 81 81 74 82 76 83 77 84 78 85 79 86 56 87 57 88
REMARK SMILES IDX 65 89 58 90 60 91 66 92 59 93 61 94 62 95 63 96 64 97
REMARK H PARENT 23 5 18 11 27 31 86 50 54 61
REMARK Flexibility Score: inf
ROOT
ATOM      1  C   UNL A   1      35.625  20.002  24.687  1.00  0.00     0.117 C 
ENDROOT
BRANCH   1   2
ATOM      2  N   UNL A   1      34.392  19.379  25.129  1.00  0.00    -0.354 N 
ATOM      3  C   UNL A   1      33.092  19.773  25.126  1.00  0.00     0.242 C 
ATOM      4  O   UNL A   1      32.296  18.931  25.572  1.00  0.00    -0.273 OA
ATOM      5  H   UNL A   1      34.526  18.483  25.514  1.00  0.00     0.163 HD
BRANCH   3   6
ATOM      6  C   UNL A   1      32.559  21.202  24.797  1.00  0.00     0.168 C 
ATOM      7  C   UNL A   1      32.518  21.381  23.292  1.00  0.00     0.041 C 
BRANCH   6   8
ATOM      8  N   UNL A   1      31.481  21.818  25.589  1.00  0.00    -0.341 N 
ATOM      9  C   UNL A   1      31.346  23.037  26.206  1.00  0.00     0.261 C 
ATOM     10  O   UNL A   1      30.800  23.022  27.317  1.00  0.00    -0.271 OA
ATOM     11  H   UNL A   1      30.695  21.235  25.698  1.00  0.00     0.164 HD
BRANCH   9  12
ATOM     12  C   UNL A   1      31.617  24.391  25.493  1.00  0.00     0.258 C 
ATOM     13  C   UNL A   1      32.998  24.809  25.949  1.00  0.00     0.064 C 
BRANCH  12  14
ATOM     14  O   UNL A   1      30.528  25.301  25.584  1.00  0.00    -0.481 OA
BRANCH  14  15
ATOM     15  C   UNL A   1      30.330  26.390  24.787  1.00  0.00     0.120 A 
ATOM     16  C   UNL A   1      31.192  27.449  24.545  1.00  0.00     0.047 A 
ATOM     17  C   UNL A   1      29.060  26.445  24.207  1.00  0.00     0.047 A 
ATOM     18  C   UNL A   1      30.739  28.615  23.909  1.00  0.00     0.012 A 
ATOM     19  C   UNL A   1      28.620  27.589  23.527  1.00  0.00     0.012 A 
ATOM     20  C   UNL A   1      29.435  28.724  23.410  1.00  0.00    -0.018 A 
BRANCH  20  21
ATOM     21  C   UNL A   1      28.949  29.982  22.800  1.00  0.00    -0.018 A 
ATOM     22  C   UNL A   1      28.621  30.054  21.434  1.00  0.00     0.009 A 
ATOM     23  C   UNL A   1      28.814  31.162  23.556  1.00  0.00     0.009 A 
ATOM     24  C   UNL A   1      28.189  31.247  20.848  1.00  0.00     0.001 A 
ATOM     25  C   UNL A   1      28.369  32.356  22.975  1.00  0.00     0.001 A 
ATOM     26  C   UNL A   1      28.060  32.398  21.619  1.00  0.00     0.000 A 
ENDBRANCH  20  21
ENDBRANCH  14  15
ENDBRANCH  12  14
ENDBRANCH   9  12
ENDBRANCH   6   8
ENDBRANCH   3   6
ENDBRANCH   1   2
BRANCH   1  27
ATOM     27  C   UNL A   1      35.977  21.254  25.492  1.00  0.00     0.042 C 
BRANCH  27  28
ATOM     28  C   UNL A   1      37.388  21.798  25.305  1.00  0.00     0.118 C 
BRANCH  28  29
ATOM     29  N   UNL A   1      38.385  20.923  25.913  1.00  0.00    -0.352 N 
ATOM     30  C   UNL A   1      39.615  21.187  26.473  1.00  0.00     0.251 C 
ATOM     31  H   UNL A   1      38.133  19.972  25.925  1.00  0.00     0.163 HD
ATOM     32  O   UNL A   1      40.377  20.238  26.661  1.00  0.00    -0.269 OA
BRANCH  30  33
ATOM     33  C   UNL A   1      40.049  22.557  26.860  1.00  0.00     0.039 A 
ATOM     34  C   UNL A   1      39.612  23.646  26.092  1.00  0.00     0.014 A 
ATOM     35  C   UNL A   1      40.951  22.788  27.898  1.00  0.00     0.014 A 
ATOM     36  C   UNL A   1      40.052  24.945  26.380  1.00  0.00     0.010 A 
ATOM     37  C   UNL A   1      41.309  24.091  28.251  1.00  0.00     0.010 A 
ATOM     38  C   UNL A   1      40.893  25.185  27.477  1.00  0.00    -0.014 A 
BRANCH  38  39
ATOM     39  C   UNL A   1      41.385  26.550  27.813  1.00  0.00     0.031 A 
ATOM     40  C   UNL A   1      42.818  26.932  27.528  1.00  0.00     0.074 A 
ATOM     41  C   UNL A   1      40.577  27.421  28.451  1.00  0.00     0.049 A 
ATOM     42  N   UNL A   1      43.458  28.033  27.832  1.00  0.00    -0.248 NA
ATOM     43  C   UNL A   1      43.652  25.931  26.841  1.00  0.00     0.031 C 
ATOM     44  C   UNL A   1      39.194  27.155  28.852  1.00  0.00     0.029 A 
ATOM     45  N   UNL A   1      40.812  28.698  28.901  1.00  0.00    -0.354 N 
ATOM     46  C   UNL A   1      44.773  27.835  27.426  1.00  0.00     0.074 A 
ATOM     47  C   UNL A   1      44.850  26.497  26.884  1.00  0.00     0.031 C 
ATOM     48  C   UNL A   1      38.703  28.234  29.483  1.00  0.00     0.029 A 
ATOM     49  C   UNL A   1      39.743  29.255  29.563  1.00  0.00     0.049 A 
ATOM     50  H   UNL A   1      41.666  29.167  28.765  1.00  0.00     0.167 HD
ATOM     51  C   UNL A   1      45.820  28.696  27.468  1.00  0.00     0.034 A 
ATOM     52  C   UNL A   1      39.615  30.451  30.173  1.00  0.00     0.034 A 
ATOM     53  C   UNL A   1      45.727  30.049  27.947  1.00  0.00     0.049 A 
ATOM     54  C   UNL A   1      40.773  31.411  30.157  1.00  0.00     0.074 A 
ATOM     55  C   UNL A   1      46.700  31.033  27.938  1.00  0.00     0.029 A 
ATOM     56  N   UNL A   1      44.597  30.608  28.522  1.00  0.00    -0.354 N 
ATOM     57  N   UNL A   1      41.964  31.257  29.632  1.00  0.00    -0.248 NA
ATOM     58  C   UNL A   1      40.557  32.723  30.786  1.00  0.00     0.031 C 
ATOM     59  C   UNL A   1      46.164  32.182  28.528  1.00  0.00     0.029 A 
ATOM     60  C   UNL A   1      44.848  31.921  28.879  1.00  0.00     0.049 A 
ATOM     61  H   UNL A   1      43.741  30.141  28.655  1.00  0.00     0.167 HD
ATOM     62  C   UNL A   1      42.628  32.462  29.836  1.00  0.00     0.074 A 
ATOM     63  C   UNL A   1      41.698  33.342  30.513  1.00  0.00     0.031 C 
ATOM     64  C   UNL A   1      43.897  32.803  29.505  1.00  0.00     0.034 A 
BRANCH  51  65
ATOM     65  C   UNL A   1      47.146  28.218  26.932  1.00  0.00     0.023 A 
ATOM     66  C   UNL A   1      48.202  27.942  27.824  1.00  0.00     0.012 A 
ATOM     67  C   UNL A   1      47.334  27.988  25.553  1.00  0.00     0.148 A 
ATOM     68  C   UNL A   1      49.434  27.490  27.354  1.00  0.00     0.002 A 
ATOM     69  C   UNL A   1      48.550  27.492  25.097  1.00  0.00     0.091 A 
ATOM     70  F   UNL A   1      46.327  28.271  24.715  1.00  0.00    -0.205 F 
ATOM     71  C   UNL A   1      49.605  27.256  25.993  1.00  0.00     0.022 A 
BRANCH  69  72
ATOM     72  S   UNL A   1      48.844  27.079  23.372  1.00  0.00     0.127 S 
ATOM     73  O   UNL A   1      50.295  26.909  23.354  1.00  0.00    -0.237 OA
ATOM     74  O   UNL A   1      48.083  25.839  23.219  1.00  0.00    -0.237 OA
ATOM     75  O   UNL A   1      48.336  28.202  22.599  1.00  0.00    -0.744 OA
ENDBRANCH  69  72
ENDBRANCH  51  65
BRANCH  52  76
ATOM     76  C   UNL A   1      38.316  30.829  30.797  1.00  0.00     0.023 A 
ATOM     77  C   UNL A   1      38.070  30.495  32.143  1.00  0.00     0.012 A 
ATOM     78  C   UNL A   1      37.341  31.547  30.078  1.00  0.00     0.148 A 
ATOM     79  C   UNL A   1      36.864  30.845  32.754  1.00  0.00     0.002 A 
ATOM     80  C   UNL A   1      36.169  31.942  30.710  1.00  0.00     0.091 A 
ATOM     81  F   UNL A   1      37.588  31.841  28.793  1.00  0.00    -0.205 F 
ATOM     82  C   UNL A   1      35.919  31.578  32.042  1.00  0.00     0.022 A 
BRANCH  80  83
ATOM     83  S   UNL A   1      34.970  33.014  29.908  1.00  0.00     0.127 S 
ATOM     84  O   UNL A   1      34.403  32.120  28.900  1.00  0.00    -0.237 OA
ATOM     85  O   UNL A   1      34.071  33.342  31.016  1.00  0.00    -0.237 OA
ATOM     86  O   UNL A   1      35.737  34.140  29.405  1.00  0.00    -0.744 OA
ENDBRANCH  80  83
ENDBRANCH  52  76
BRANCH  64  87
ATOM     87  C   UNL A   1      44.354  34.200  29.835  1.00  0.00     0.023 A 
ATOM     88  C   UNL A   1      45.016  34.453  31.052  1.00  0.00     0.012 A 
ATOM     89  C   UNL A   1      44.193  35.245  28.904  1.00  0.00     0.148 A 
ATOM     90  C   UNL A   1      45.483  35.732  31.352  1.00  0.00     0.002 A 
ATOM     91  C   UNL A   1      44.705  36.505  29.187  1.00  0.00     0.091 A 
ATOM     92  F   UNL A   1      43.543  34.987  27.759  1.00  0.00    -0.205 F 
ATOM     93  C   UNL A   1      45.339  36.754  30.415  1.00  0.00     0.022 A 
BRANCH  91  94
ATOM     94  S   UNL A   1      44.653  37.853  28.001  1.00  0.00     0.127 S 
ATOM     95  O   UNL A   1      45.389  37.286  26.873  1.00  0.00    -0.237 OA
ATOM     96  O   UNL A   1      43.217  38.012  27.776  1.00  0.00    -0.237 OA
ATOM     97  O   UNL A   1      45.290  38.988  28.656  1.00  0.00    -0.744 OA
ENDBRANCH  91  94
ENDBRANCH  64  87
ENDBRANCH  38  39
ENDBRANCH  30  33
ENDBRANCH  28  29
ENDBRANCH  27  28
ENDBRANCH   1  27
TORSDOF 18
ENDMDL
MODEL 2
REMARK VINA RESULT:     -12.5      2.186      7.934
REMARK SMILES C[C@H](Oc1ccc(-c2ccccc2)cc1)C(=O)N[C@H](C)C(=O)NCCCNC(=O)c1ccc(-c2c3nc(c(-c4cccc(S(=O)(=O)[O-])c4F)c4ccc([nH]4)c(-c4cccc(S(=O)(=O)[O-])c4F)c4nc(c(-c5cccc(S(=O)(=O)[O-])c5F)c5ccc2[nH]5)C=C4)C=C3)cc1
REMARK SMILES IDX 24 1 23 2 21 3 22 4 19 6 20 7 18 8 16 9 17 10 2 12 1 13 3 14
REMARK SMILES IDX 4 15 5 16 15 17 6 18 14 19 7 20 8 21 9 22 13 23 10 24 12 25
REMARK SMILES IDX 11 26 25 27 26 28 27 29 28 30 29 32 30 33 31 34 92 35 32 36
REMARK SMILES IDX 91 37 33 38 34 39 35 40 85 41 36 42 90 43 84 44 86 45 37 46
REMARK SMILES IDX 89 47 83 48 82 49 38 51 70 52 50 53 69 54 51 55 54 56 68 57
REMARK SMILES IDX 87 58 52 59 53 60 67 62 88 63 55 64 39 65 40 66 48 67 41 68
REMARK SMILES IDX 43 69 49 70 42 71 44 72 45 73 46 74 47 75 71 76 72 77 80 78
REMARK SMILES IDX 73 79 75 80 81 81 74 82 76 83 77 84 78 85 79 86 56 87 57 88
REMARK SMILES IDX 65 89 58 90 60 91 66 92 59 93 61 94 62 95 63 96 64 97
REMARK H PARENT 23 5 18 11 27 31 86 50 54 61
REMARK Flexibility Score: inf
ROOT
ATOM      1  C   UNL A   1      36.535  20.650  24.849  1.00  0.00     0.117 C 
ENDROOT
BRANCH   1   2
ATOM      2  N   UNL A   1      35.298  19.936  25.101  1.00  0.00    -0.354 N 
ATOM      3  C   UNL A   1      33.988  20.296  25.071  1.00  0.00     0.242 C 
ATOM      4  O   UNL A   1      33.194  19.376  25.322  1.00  0.00    -0.273 OA
ATOM      5  H   UNL A   1      35.437  18.994  25.348  1.00  0.00     0.163 HD
BRANCH   3   6
ATOM      6  C   UNL A   1      33.431  21.747  24.936  1.00  0.00     0.168 C 
ATOM      7  C   UNL A   1      33.730  22.265  23.543  1.00  0.00     0.041 C 
BRANCH   6   8
ATOM      8  N   UNL A   1      32.148  22.134  25.548  1.00  0.00    -0.341 N 
ATOM      9  C   UNL A   1      31.663  23.318  26.046  1.00  0.00     0.261 C 
ATOM     10  O   UNL A   1      30.996  23.233  27.086  1.00  0.00    -0.271 OA
ATOM     11  H   UNL A   1      31.506  21.390  25.613  1.00  0.00     0.164 HD
BRANCH   9  12
ATOM     12  C   UNL A   1      31.712  24.660  25.263  1.00  0.00     0.258 C 
ATOM     13  C   UNL A   1      31.928  25.725  26.316  1.00  0.00     0.064 C 
BRANCH  12  14
ATOM     14  O   UNL A   1      30.661  24.795  24.314  1.00  0.00    -0.481 OA
BRANCH  14  15
ATOM     15  C   UNL A   1      30.298  25.948  23.685  1.00  0.00     0.120 A 
ATOM     16  C   UNL A   1      31.084  26.794  22.916  1.00  0.00     0.047 A 
ATOM     17  C   UNL A   1      28.975  26.331  23.919  1.00  0.00     0.047 A 
ATOM     18  C   UNL A   1      30.627  28.071  22.556  1.00  0.00     0.012 A 
ATOM     19  C   UNL A   1      28.498  27.586  23.517  1.00  0.00     0.012 A 
ATOM     20  C   UNL A   1      29.334  28.509  22.872  1.00  0.00    -0.018 A 
BRANCH  20  21
ATOM     21  C   UNL A   1      28.886  29.880  22.544  1.00  0.00    -0.018 A 
ATOM     22  C   UNL A   1      28.427  30.213  21.257  1.00  0.00     0.009 A 
ATOM     23  C   UNL A   1      28.921  30.913  23.501  1.00  0.00     0.009 A 
ATOM     24  C   UNL A   1      28.029  31.514  20.936  1.00  0.00     0.001 A 
ATOM     25  C   UNL A   1      28.510  32.215  23.187  1.00  0.00     0.001 A 
ATOM     26  C   UNL A   1      28.068  32.515  21.901  1.00  0.00     0.000 A 
ENDBRANCH  20  21
ENDBRANCH  14  15
ENDBRANCH  12  14
ENDBRANCH   9  12
ENDBRANCH   6   8
ENDBRANCH   3   6
ENDBRANCH   1   2
BRANCH   1  27
ATOM     27  C   UNL A   1      37.772  19.763  25.008  1.00  0.00     0.042 C 
BRANCH  27  28
ATOM     28  C   UNL A   1      38.904  20.335  25.853  1.00  0.00     0.118 C 
BRANCH  28  29
ATOM     29  N   UNL A   1      40.007  19.388  25.983  1.00  0.00    -0.352 N 
ATOM     30  C   UNL A   1      41.369  19.575  26.064  1.00  0.00     0.251 C 
ATOM     31  H   UNL A   1      39.726  18.445  26.019  1.00  0.00     0.163 HD
ATOM     32  O   UNL A   1      42.095  18.596  25.887  1.00  0.00    -0.269 OA
BRANCH  30  33
ATOM     33  C   UNL A   1      41.987  20.895  26.361  1.00  0.00     0.039 A 
ATOM     34  C   UNL A   1      42.274  21.222  27.694  1.00  0.00     0.014 A 
ATOM     35  C   UNL A   1      42.199  21.858  25.374  1.00  0.00     0.014 A 
ATOM     36  C   UNL A   1      42.792  22.482  28.024  1.00  0.00     0.010 A 
ATOM     37  C   UNL A   1      42.812  23.073  25.688  1.00  0.00     0.010 A 
ATOM     38  C   UNL A   1      43.085  23.416  27.020  1.00  0.00    -0.014 A 
BRANCH  38  39
ATOM     39  C   UNL A   1      43.633  24.767  27.332  1.00  0.00     0.031 A 
ATOM     40  C   UNL A   1      42.724  25.851  27.860  1.00  0.00     0.074 A 
ATOM     41  C   UNL A   1      44.923  25.051  27.063  1.00  0.00     0.049 A 
ATOM     42  N   UNL A   1      42.989  27.111  28.099  1.00  0.00    -0.248 NA
ATOM     43  C   UNL A   1      41.322  25.481  28.119  1.00  0.00     0.031 C 
ATOM     44  C   UNL A   1      45.892  24.118  26.484  1.00  0.00     0.029 A 
ATOM     45  N   UNL A   1      45.635  26.215  27.214  1.00  0.00    -0.354 N 
ATOM     46  C   UNL A   1      41.784  27.690  28.481  1.00  0.00     0.074 A 
ATOM     47  C   UNL A   1      40.778  26.653  28.410  1.00  0.00     0.031 C 
ATOM     48  C   UNL A   1      47.070  24.744  26.333  1.00  0.00     0.029 A 
ATOM     49  C   UNL A   1      46.935  26.129  26.771  1.00  0.00     0.049 A 
ATOM     50  H   UNL A   1      45.250  27.035  27.600  1.00  0.00     0.167 HD
ATOM     51  C   UNL A   1      41.536  28.959  28.887  1.00  0.00     0.034 A 
ATOM     52  C   UNL A   1      47.907  27.062  26.716  1.00  0.00     0.034 A 
ATOM     53  C   UNL A   1      42.549  29.971  29.019  1.00  0.00     0.049 A 
ATOM     54  C   UNL A   1      47.623  28.449  27.225  1.00  0.00     0.074 A 
ATOM     55  C   UNL A   1      42.420  31.256  29.518  1.00  0.00     0.029 A 
ATOM     56  N   UNL A   1      43.876  29.815  28.651  1.00  0.00    -0.354 N 
ATOM     57  N   UNL A   1      46.512  28.933  27.723  1.00  0.00    -0.248 NA
ATOM     58  C   UNL A   1      48.737  29.409  27.195  1.00  0.00     0.031 C 
ATOM     59  C   UNL A   1      43.667  31.885  29.430  1.00  0.00     0.029 A 
ATOM     60  C   UNL A   1      44.577  30.981  28.903  1.00  0.00     0.049 A 
ATOM     61  H   UNL A   1      44.262  28.995  28.269  1.00  0.00     0.167 HD
ATOM     62  C   UNL A   1      46.800  30.241  28.099  1.00  0.00     0.074 A 
ATOM     63  C   UNL A   1      48.197  30.465  27.790  1.00  0.00     0.031 C 
ATOM     64  C   UNL A   1      45.980  31.174  28.638  1.00  0.00     0.034 A 
BRANCH  51  65
ATOM     65  C   UNL A   1      40.120  29.312  29.269  1.00  0.00     0.023 A 
ATOM     66  C   UNL A   1      39.206  29.712  28.273  1.00  0.00     0.012 A 
ATOM     67  C   UNL A   1      39.676  29.195  30.602  1.00  0.00     0.148 A 
ATOM     68  C   UNL A   1      37.890  30.034  28.600  1.00  0.00     0.002 A 
ATOM     69  C   UNL A   1      38.349  29.472  30.913  1.00  0.00     0.091 A 
ATOM     70  F   UNL A   1      40.560  28.831  31.541  1.00  0.00    -0.205 F 
ATOM     71  C   UNL A   1      37.459  29.904  29.917  1.00  0.00     0.022 A 
BRANCH  69  72
ATOM     72  S   UNL A   1      37.674  29.257  32.565  1.00  0.00     0.127 S 
ATOM     73  O   UNL A   1      38.517  30.159  33.347  1.00  0.00    -0.237 OA
ATOM     74  O   UNL A   1      36.293  29.709  32.394  1.00  0.00    -0.237 OA
ATOM     75  O   UNL A   1      37.816  27.842  32.875  1.00  0.00    -0.744 OA
ENDBRANCH  69  72
ENDBRANCH  51  65
BRANCH  52  76
ATOM     76  C   UNL A   1      49.261  26.694  26.214  1.00  0.00     0.023 A 
ATOM     77  C   UNL A   1      50.078  25.845  26.985  1.00  0.00     0.012 A 
ATOM     78  C   UNL A   1      49.726  27.149  24.966  1.00  0.00     0.148 A 
ATOM     79  C   UNL A   1      51.348  25.477  26.535  1.00  0.00     0.002 A 
ATOM     80  C   UNL A   1      50.967  26.732  24.499  1.00  0.00     0.091 A 
ATOM     81  F   UNL A   1      48.940  27.969  24.255  1.00  0.00    -0.205 F 
ATOM     82  C   UNL A   1      51.787  25.911  25.287  1.00  0.00     0.022 A 
BRANCH  80  83
ATOM     83  S   UNL A   1      51.540  27.125  22.843  1.00  0.00     0.127 S 
ATOM     84  O   UNL A   1      51.760  28.567  22.940  1.00  0.00    -0.237 OA
ATOM     85  O   UNL A   1      52.761  26.321  22.747  1.00  0.00    -0.237 OA
ATOM     86  O   UNL A   1      50.472  26.701  21.954  1.00  0.00    -0.744 OA
ENDBRANCH  80  83
ENDBRANCH  52  76
BRANCH  64  87
ATOM     87  C   UNL A   1      46.572  32.520  28.965  1.00  0.00     0.023 A 
ATOM     88  C   UNL A   1      47.182  32.732  30.217  1.00  0.00     0.012 A 
ATOM     89  C   UNL A   1      46.591  33.549  28.002  1.00  0.00     0.148 A 
ATOM     90  C   UNL A   1      47.773  33.959  30.517  1.00  0.00     0.002 A 
ATOM     91  C   UNL A   1      47.226  34.750  28.289  1.00  0.00     0.091 A 
ATOM     92  F   UNL A   1      45.987  33.332  26.824  1.00  0.00    -0.205 F 
ATOM     93  C   UNL A   1      47.806  34.962  29.551  1.00  0.00     0.022 A 
BRANCH  91  94
ATOM     94  S   UNL A   1      47.402  36.060  27.073  1.00  0.00     0.127 S 
ATOM     95  O   UNL A   1      46.325  36.970  27.458  1.00  0.00    -0.237 OA
ATOM     96  O   UNL A   1      48.750  36.558  27.348  1.00  0.00    -0.237 OA
ATOM     97  O   UNL A   1      47.248  35.423  25.772  1.00  0.00    -0.744 OA
ENDBRANCH  91  94
ENDBRANCH  64  87
ENDBRANCH  38  39
ENDBRANCH  30  33
ENDBRANCH  28  29
ENDBRANCH  27  28
ENDBRANCH   1  27
TORSDOF 18
ENDMDL
MODEL 3
REMARK VINA RESULT:     -12.5      2.370      4.547
REMARK SMILES C[C@H](Oc1ccc(-c2ccccc2)cc1)C(=O)N[C@H](C)C(=O)NCCCNC(=O)c1ccc(-c2c3nc(c(-c4cccc(S(=O)(=O)[O-])c4F)c4ccc([nH]4)c(-c4cccc(S(=O)(=O)[O-])c4F)c4nc(c(-c5cccc(S(=O)(=O)[O-])c5F)c5ccc2[nH]5)C=C4)C=C3)cc1
REMARK SMILES IDX 24 1 23 2 21 3 22 4 19 6 20 7 18 8 16 9 17 10 2 12 1 13 3 14
REMARK SMILES IDX 4 15 5 16 15 17 6 18 14 19 7 20 8 21 9 22 13 23 10 24 12 25
REMARK SMILES IDX 11 26 25 27 26 28 27 29 28 30 29 32 30 33 31 34 92 35 32 36
REMARK SMILES IDX 91 37 33 38 34 39 35 40 85 41 36 42 90 43 84 44 86 45 37 46
REMARK SMILES IDX 89 47 83 48 82 49 38 51 70 52 50 53 69 54 51 55 54 56 68 57
REMARK SMILES IDX 87 58 52 59 53 60 67 62 88 63 55 64 39 65 40 66 48 67 41 68
REMARK SMILES IDX 43 69 49 70 42 71 44 72 45 73 46 74 47 75 71 76 72 77 80 78
REMARK SMILES IDX 73 79 75 80 81 81 74 82 76 83 77 84 78 85 79 86 56 87 57 88
REMARK SMILES IDX 65 89 58 90 60 91 66 92 59 93 61 94 62 95 63 96 64 97
REMARK H PARENT 23 5 18 11 27 31 86 50 54 61
REMARK Flexibility Score: inf
ROOT
ATOM      1  C   UNL A   1      34.600  24.657  25.460  1.00  0.00     0.117 C 
ENDROOT
BRANCH   1   2
ATOM      2  N   UNL A   1      33.380  24.349  26.183  1.00  0.00    -0.354 N 
ATOM      3  C   UNL A   1      32.284  25.076  26.521  1.00  0.00     0.242 C 
ATOM      4  O   UNL A   1      31.410  24.440  27.130  1.00  0.00    -0.273 OA
ATOM      5  H   UNL A   1      33.340  23.416  26.496  1.00  0.00     0.163 HD
BRANCH   3   6
ATOM      6  C   UNL A   1      32.119  26.621  26.378  1.00  0.00     0.168 C 
ATOM      7  C   UNL A   1      33.484  27.275  26.463  1.00  0.00     0.041 C 
BRANCH   6   8
ATOM      8  N   UNL A   1      31.140  27.203  25.445  1.00  0.00    -0.341 N 
ATOM      9  C   UNL A   1      31.260  27.950  24.299  1.00  0.00     0.261 C 
ATOM     10  O   UNL A   1      30.445  28.872  24.168  1.00  0.00    -0.271 OA
ATOM     11  H   UNL A   1      30.205  27.019  25.695  1.00  0.00     0.164 HD
BRANCH   9  12
ATOM     12  C   UNL A   1      32.177  27.550  23.110  1.00  0.00     0.258 C 
ATOM     13  C   UNL A   1      32.611  28.859  22.487  1.00  0.00     0.064 C 
BRANCH  12  14
ATOM     14  O   UNL A   1      31.627  26.519  22.299  1.00  0.00    -0.481 OA
BRANCH  14  15
ATOM     15  C   UNL A   1      31.752  25.179  22.518  1.00  0.00     0.120 A 
ATOM     16  C   UNL A   1      30.877  24.329  23.178  1.00  0.00     0.047 A 
ATOM     17  C   UNL A   1      32.958  24.639  22.062  1.00  0.00     0.047 A 
ATOM     18  C   UNL A   1      31.272  23.034  23.545  1.00  0.00     0.012 A 
ATOM     19  C   UNL A   1      33.335  23.328  22.383  1.00  0.00     0.012 A 
ATOM     20  C   UNL A   1      32.521  22.512  23.182  1.00  0.00    -0.018 A 
BRANCH  20  21
ATOM     21  C   UNL A   1      32.952  21.169  23.629  1.00  0.00    -0.018 A 
ATOM     22  C   UNL A   1      32.243  20.011  23.261  1.00  0.00     0.009 A 
ATOM     23  C   UNL A   1      34.077  20.997  24.458  1.00  0.00     0.009 A 
ATOM     24  C   UNL A   1      32.631  18.744  23.705  1.00  0.00     0.001 A 
ATOM     25  C   UNL A   1      34.476  19.727  24.894  1.00  0.00     0.001 A 
ATOM     26  C   UNL A   1      33.749  18.601  24.519  1.00  0.00     0.000 A 
ENDBRANCH  20  21
ENDBRANCH  14  15
ENDBRANCH  12  14
ENDBRANCH   9  12
ENDBRANCH   6   8
ENDBRANCH   3   6
ENDBRANCH   1   2
BRANCH   1  27
ATOM     27  C   UNL A   1      35.816  23.907  26.006  1.00  0.00     0.042 C 
BRANCH  27  28
ATOM     28  C   UNL A   1      36.899  23.556  24.993  1.00  0.00     0.118 C 
BRANCH  28  29
ATOM     29  N   UNL A   1      37.886  22.640  25.558  1.00  0.00    -0.352 N 
ATOM     30  C   UNL A   1      39.067  22.867  26.227  1.00  0.00     0.251 C 
ATOM     31  H   UNL A   1      37.666  21.688  25.438  1.00  0.00     0.163 HD
ATOM     32  O   UNL A   1      39.848  21.923  26.351  1.00  0.00    -0.269 OA
BRANCH  30  33
ATOM     33  C   UNL A   1      39.427  24.190  26.804  1.00  0.00     0.039 A 
ATOM     34  C   UNL A   1      40.040  25.143  25.976  1.00  0.00     0.014 A 
ATOM     35  C   UNL A   1      39.269  24.483  28.158  1.00  0.00     0.014 A 
ATOM     36  C   UNL A   1      40.459  26.376  26.496  1.00  0.00     0.010 A 
ATOM     37  C   UNL A   1      39.590  25.748  28.654  1.00  0.00     0.010 A 
ATOM     38  C   UNL A   1      40.220  26.700  27.840  1.00  0.00    -0.014 A 
BRANCH  38  39
ATOM     39  C   UNL A   1      40.653  27.998  28.429  1.00  0.00     0.031 A 
ATOM     40  C   UNL A   1      42.121  28.291  28.625  1.00  0.00     0.074 A 
ATOM     41  C   UNL A   1      39.733  28.880  28.869  1.00  0.00     0.049 A 
ATOM     42  N   UNL A   1      42.691  29.317  29.205  1.00  0.00    -0.248 NA
ATOM     43  C   UNL A   1      43.075  27.281  28.135  1.00  0.00     0.031 C 
ATOM     44  C   UNL A   1      38.282  28.691  28.809  1.00  0.00     0.029 A 
ATOM     45  N   UNL A   1      39.882  30.101  29.482  1.00  0.00    -0.354 N 
ATOM     46  C   UNL A   1      44.056  29.049  29.199  1.00  0.00     0.074 A 
ATOM     47  C   UNL A   1      44.228  27.750  28.588  1.00  0.00     0.031 C 
ATOM     48  C   UNL A   1      37.676  29.756  29.356  1.00  0.00     0.029 A 
ATOM     49  C   UNL A   1      38.690  30.689  29.837  1.00  0.00     0.049 A 
ATOM     50  H   UNL A   1      40.759  30.513  29.652  1.00  0.00     0.167 HD
ATOM     51  C   UNL A   1      45.081  29.824  29.632  1.00  0.00     0.034 A 
ATOM     52  C   UNL A   1      38.441  31.845  30.485  1.00  0.00     0.034 A 
ATOM     53  C   UNL A   1      44.914  31.143  30.180  1.00  0.00     0.049 A 
ATOM     54  C   UNL A   1      39.595  32.715  30.905  1.00  0.00     0.074 A 
ATOM     55  C   UNL A   1      45.891  32.050  30.553  1.00  0.00     0.029 A 
ATOM     56  N   UNL A   1      43.691  31.744  30.435  1.00  0.00    -0.354 N 
ATOM     57  N   UNL A   1      40.880  32.509  30.753  1.00  0.00    -0.248 NA
ATOM     58  C   UNL A   1      39.262  33.991  31.555  1.00  0.00     0.031 C 
ATOM     59  C   UNL A   1      45.257  33.192  31.055  1.00  0.00     0.029 A 
ATOM     60  C   UNL A   1      43.886  33.007  30.967  1.00  0.00     0.049 A 
ATOM     61  H   UNL A   1      42.814  31.334  30.261  1.00  0.00     0.167 HD
ATOM     62  C   UNL A   1      41.509  33.644  31.254  1.00  0.00     0.074 A 
ATOM     63  C   UNL A   1      40.461  34.541  31.695  1.00  0.00     0.031 C 
ATOM     64  C   UNL A   1      42.834  33.911  31.354  1.00  0.00     0.034 A 
BRANCH  51  65
ATOM     65  C   UNL A   1      46.482  29.287  29.480  1.00  0.00     0.023 A 
ATOM     66  C   UNL A   1      47.082  28.588  30.548  1.00  0.00     0.012 A 
ATOM     67  C   UNL A   1      47.187  29.424  28.267  1.00  0.00     0.148 A 
ATOM     68  C   UNL A   1      48.372  28.074  30.429  1.00  0.00     0.002 A 
ATOM     69  C   UNL A   1      48.454  28.867  28.139  1.00  0.00     0.091 A 
ATOM     70  F   UNL A   1      46.611  30.106  27.266  1.00  0.00    -0.205 F 
ATOM     71  C   UNL A   1      49.054  28.204  29.222  1.00  0.00     0.022 A 
BRANCH  69  72
ATOM     72  S   UNL A   1      49.383  28.909  26.600  1.00  0.00     0.127 S 
ATOM     73  O   UNL A   1      49.702  30.330  26.488  1.00  0.00    -0.237 OA
ATOM     74  O   UNL A   1      50.526  28.050  26.908  1.00  0.00    -0.237 OA
ATOM     75  O   UNL A   1      48.489  28.386  25.578  1.00  0.00    -0.744 OA
ENDBRANCH  69  72
ENDBRANCH  51  65
BRANCH  52  76
ATOM     76  C   UNL A   1      37.034  32.275  30.719  1.00  0.00     0.023 A 
ATOM     77  C   UNL A   1      36.465  32.119  31.998  1.00  0.00     0.012 A 
ATOM     78  C   UNL A   1      36.271  32.869  29.696  1.00  0.00     0.148 A 
ATOM     79  C   UNL A   1      35.151  32.520  32.247  1.00  0.00     0.002 A 
ATOM     80  C   UNL A   1      34.985  33.319  29.967  1.00  0.00     0.091 A 
ATOM     81  F   UNL A   1      36.826  32.994  28.482  1.00  0.00    -0.205 F 
ATOM     82  C   UNL A   1      34.415  33.131  31.235  1.00  0.00     0.022 A 
BRANCH  80  83
ATOM     83  S   UNL A   1      34.029  34.248  28.762  1.00  0.00     0.127 S 
ATOM     84  O   UNL A   1      33.801  33.241  27.726  1.00  0.00    -0.237 OA
ATOM     85  O   UNL A   1      32.841  34.614  29.537  1.00  0.00    -0.237 OA
ATOM     86  O   UNL A   1      34.870  35.371  28.386  1.00  0.00    -0.744 OA
ENDBRANCH  80  83
ENDBRANCH  52  76
BRANCH  64  87
ATOM     87  C   UNL A   1      43.236  35.243  31.930  1.00  0.00     0.023 A 
ATOM     88  C   UNL A   1      43.391  35.388  33.322  1.00  0.00     0.012 A 
ATOM     89  C   UNL A   1      43.535  36.329  31.083  1.00  0.00     0.148 A 
ATOM     90  C   UNL A   1      43.805  36.603  33.866  1.00  0.00     0.002 A 
ATOM     91  C   UNL A   1      43.996  37.521  31.628  1.00  0.00     0.091 A 
ATOM     92  F   UNL A   1      43.363  36.176  29.762  1.00  0.00    -0.205 F 
ATOM     93  C   UNL A   1      44.119  37.665  33.020  1.00  0.00     0.022 A 
BRANCH  91  94
ATOM     94  S   UNL A   1      44.517  38.906  30.610  1.00  0.00     0.127 S 
ATOM     95  O   UNL A   1      45.647  38.331  29.882  1.00  0.00    -0.237 OA
ATOM     96  O   UNL A   1      43.329  39.156  29.795  1.00  0.00    -0.237 OA
ATOM     97  O   UNL A   1      44.851  39.980  31.536  1.00  0.00    -0.744 OA
ENDBRANCH  91  94
ENDBRANCH  64  87
ENDBRANCH  38  39
ENDBRANCH  30  33
ENDBRANCH  28  29
ENDBRANCH  27  28
ENDBRANCH   1  27
TORSDOF 18
ENDMDL
