MODEL 1
REMARK VINA RESULT:     -11.5      0.000      0.000
REMARK SMILES C[C@@H](CNc1cccc(F)c1C(=O)NCCCNC(=O)c1ccc(-c2c3nc(c(-c4cccc(S(=O)(=O)[O-])c4F)c4ccc([nH]4)c(-c4cccc(S(=O)(=O)[O-])c4F)c4nc(c(-c5cccc(S(=O)(=O)[O-])c5F)c5ccc2[nH]5)C=C4)C=C3)cc1)[NH+]1CCCCC1
REMARK SMILES IDX 15 1 14 2 12 3 13 4 11 6 5 7 6 8 7 9 9 10 8 11 10 12 4 13
REMARK SMILES IDX 3 15 2 16 1 17 84 18 85 19 89 20 86 22 88 23 87 24 16 25
REMARK SMILES IDX 17 26 18 27 19 28 20 30 21 31 22 32 83 33 23 34 82 35 24 36
REMARK SMILES IDX 25 37 26 38 76 39 27 40 81 41 75 42 77 43 28 44 80 45 74 46
REMARK SMILES IDX 73 47 29 49 61 50 41 51 60 52 42 53 45 54 59 55 78 56 43 57
REMARK SMILES IDX 44 58 58 60 79 61 46 62 30 63 31 64 39 65 32 66 34 67 40 68
REMARK SMILES IDX 33 69 35 70 36 71 37 72 38 73 62 74 63 75 71 76 64 77 66 78
REMARK SMILES IDX 72 79 65 80 67 81 68 82 69 83 70 84 47 85 48 86 56 87 49 88
REMARK SMILES IDX 51 89 57 90 50 91 52 92 53 93 54 94 55 95
REMARK H PARENT 14 5 4 14 84 21 18 29 77 48 45 59
REMARK Flexibility Score: inf
ROOT
ATOM      1  C   UNL A   1      32.570  28.591  24.464  1.00  0.00     0.118 C 
ENDROOT
BRANCH   1   2
ATOM      2  N   UNL A   1      32.400  27.788  23.266  1.00  0.00    -0.352 N 
ATOM      3  C   UNL A   1      31.291  27.351  22.585  1.00  0.00     0.256 C 
ATOM      4  O   UNL A   1      31.500  26.538  21.679  1.00  0.00    -0.269 OA
ATOM      5  H   UNL A   1      33.250  27.498  22.862  1.00  0.00     0.163 HD
BRANCH   3   6
ATOM      6  C   UNL A   1      29.919  27.910  22.762  1.00  0.00     0.098 A 
ATOM      7  C   UNL A   1      28.965  27.143  23.494  1.00  0.00     0.050 A 
ATOM      8  C   UNL A   1      27.666  27.656  23.641  1.00  0.00     0.027 A 
ATOM      9  C   UNL A   1      27.294  28.880  23.086  1.00  0.00     0.005 A 
ATOM     10  C   UNL A   1      29.537  29.154  22.255  1.00  0.00     0.138 A 
ATOM     11  C   UNL A   1      28.233  29.626  22.389  1.00  0.00     0.040 A 
ATOM     12  F   UNL A   1      30.408  29.965  21.643  1.00  0.00    -0.206 F 
BRANCH   7  13
ATOM     13  N   UNL A   1      29.285  25.888  24.004  1.00  0.00    -0.378 N 
ATOM     14  H   UNL A   1      29.065  25.101  23.455  1.00  0.00     0.160 HD
BRANCH  13  15
ATOM     15  C   UNL A   1      29.920  25.654  25.293  1.00  0.00     0.177 C 
BRANCH  15  16
ATOM     16  C   UNL A   1      30.843  24.389  25.341  1.00  0.00     0.200 C 
ATOM     17  C   UNL A   1      30.661  23.613  26.654  1.00  0.00     0.077 C 
BRANCH  16  18
ATOM     18  N   UNL A   1      32.256  24.653  24.944  1.00  0.00    -0.331 N 
ATOM     19  C   UNL A   1      33.226  24.448  26.027  1.00  0.00     0.262 C 
ATOM     20  C   UNL A   1      32.657  23.894  23.752  1.00  0.00     0.262 C 
ATOM     21  H   UNL A   1      32.271  25.647  24.714  1.00  0.00     0.348 HD
ATOM     22  C   UNL A   1      34.633  24.888  25.630  1.00  0.00     0.062 C 
ATOM     23  C   UNL A   1      34.055  24.307  23.276  1.00  0.00     0.062 C 
ATOM     24  C   UNL A   1      35.094  24.157  24.382  1.00  0.00     0.012 C 
ENDBRANCH  16  18
ENDBRANCH  15  16
ENDBRANCH  13  15
ENDBRANCH   7  13
ENDBRANCH   3   6
ENDBRANCH   1   2
BRANCH   1  25
ATOM     25  C   UNL A   1      33.951  28.325  25.063  1.00  0.00     0.042 C 
BRANCH  25  26
ATOM     26  C   UNL A   1      34.014  28.636  26.555  1.00  0.00     0.118 C 
BRANCH  26  27
ATOM     27  N   UNL A   1      33.857  30.061  26.817  1.00  0.00    -0.352 N 
ATOM     28  C   UNL A   1      34.605  30.874  27.637  1.00  0.00     0.251 C 
ATOM     29  H   UNL A   1      33.116  30.503  26.341  1.00  0.00     0.163 HD
ATOM     30  O   UNL A   1      34.201  31.995  27.923  1.00  0.00    -0.269 OA
BRANCH  28  31
ATOM     31  C   UNL A   1      35.891  30.382  28.177  1.00  0.00     0.039 A 
ATOM     32  C   UNL A   1      35.905  29.688  29.389  1.00  0.00     0.014 A 
ATOM     33  C   UNL A   1      37.083  30.615  27.484  1.00  0.00     0.014 A 
ATOM     34  C   UNL A   1      37.111  29.183  29.882  1.00  0.00     0.010 A 
ATOM     35  C   UNL A   1      38.266  30.043  27.935  1.00  0.00     0.010 A 
ATOM     36  C   UNL A   1      38.296  29.334  29.146  1.00  0.00    -0.014 A 
BRANCH  36  37
ATOM     37  C   UNL A   1      39.590  28.778  29.617  1.00  0.00     0.031 A 
ATOM     38  C   UNL A   1      40.346  29.474  30.717  1.00  0.00     0.074 A 
ATOM     39  C   UNL A   1      40.134  27.719  28.989  1.00  0.00     0.049 A 
ATOM     40  N   UNL A   1      41.543  29.227  31.180  1.00  0.00    -0.248 NA
ATOM     41  C   UNL A   1      39.679  30.621  31.357  1.00  0.00     0.031 C 
ATOM     42  C   UNL A   1      39.529  26.997  27.870  1.00  0.00     0.029 A 
ATOM     43  N   UNL A   1      41.338  27.086  29.182  1.00  0.00    -0.354 N 
ATOM     44  C   UNL A   1      41.791  30.211  32.130  1.00  0.00     0.074 A 
ATOM     45  C   UNL A   1      40.636  31.080  32.149  1.00  0.00     0.031 C 
ATOM     46  C   UNL A   1      40.359  26.017  27.478  1.00  0.00     0.029 A 
ATOM     47  C   UNL A   1      41.573  26.068  28.287  1.00  0.00     0.049 A 
ATOM     48  H   UNL A   1      41.971  27.337  29.892  1.00  0.00     0.167 HD
ATOM     49  C   UNL A   1      42.870  30.361  32.934  1.00  0.00     0.034 A 
ATOM     50  C   UNL A   1      42.650  25.274  28.126  1.00  0.00     0.034 A 
ATOM     51  C   UNL A   1      43.997  29.468  32.939  1.00  0.00     0.049 A 
ATOM     52  C   UNL A   1      43.827  25.441  29.047  1.00  0.00     0.074 A 
ATOM     53  C   UNL A   1      45.100  29.483  33.773  1.00  0.00     0.029 A 
ATOM     54  N   UNL A   1      44.169  28.403  32.066  1.00  0.00    -0.354 N 
ATOM     55  N   UNL A   1      43.991  26.295  30.029  1.00  0.00    -0.248 NA
ATOM     56  C   UNL A   1      44.955  24.518  28.859  1.00  0.00     0.031 C 
ATOM     57  C   UNL A   1      45.956  28.448  33.381  1.00  0.00     0.029 A 
ATOM     58  C   UNL A   1      45.368  27.763  32.329  1.00  0.00     0.049 A 
ATOM     59  H   UNL A   1      43.533  28.143  31.362  1.00  0.00     0.167 HD
ATOM     60  C   UNL A   1      45.229  25.999  30.591  1.00  0.00     0.074 A 
ATOM     61  C   UNL A   1      45.759  24.869  29.855  1.00  0.00     0.031 C 
ATOM     62  C   UNL A   1      45.873  26.619  31.611  1.00  0.00     0.034 A 
BRANCH  49  63
ATOM     63  C   UNL A   1      42.861  31.510  33.911  1.00  0.00     0.023 A 
ATOM     64  C   UNL A   1      43.422  32.749  33.538  1.00  0.00     0.012 A 
ATOM     65  C   UNL A   1      42.250  31.385  35.174  1.00  0.00     0.148 A 
ATOM     66  C   UNL A   1      43.414  33.830  34.418  1.00  0.00     0.002 A 
ATOM     67  C   UNL A   1      42.196  32.483  36.026  1.00  0.00     0.091 A 
ATOM     68  F   UNL A   1      41.739  30.195  35.524  1.00  0.00    -0.205 F 
ATOM     69  C   UNL A   1      42.791  33.700  35.655  1.00  0.00     0.022 A 
BRANCH  67  70
ATOM     70  S   UNL A   1      41.339  32.449  37.604  1.00  0.00     0.127 S 
ATOM     71  O   UNL A   1      41.313  33.868  37.956  1.00  0.00    -0.237 OA
ATOM     72  O   UNL A   1      40.038  31.890  37.233  1.00  0.00    -0.237 OA
ATOM     73  O   UNL A   1      42.137  31.603  38.478  1.00  0.00    -0.744 OA
ENDBRANCH  67  70
ENDBRANCH  49  63
BRANCH  50  74
ATOM     74  C   UNL A   1      42.618  24.203  27.090  1.00  0.00     0.023 A 
ATOM     75  C   UNL A   1      43.300  24.404  25.876  1.00  0.00     0.012 A 
ATOM     76  C   UNL A   1      41.993  22.964  27.333  1.00  0.00     0.148 A 
ATOM     77  C   UNL A   1      43.352  23.393  24.914  1.00  0.00     0.002 A 
ATOM     78  C   UNL A   1      42.097  21.943  26.396  1.00  0.00     0.091 A 
ATOM     79  F   UNL A   1      41.347  22.798  28.496  1.00  0.00    -0.205 F 
ATOM     80  C   UNL A   1      42.763  22.160  25.180  1.00  0.00     0.022 A 
BRANCH  78  81
ATOM     81  S   UNL A   1      41.494  20.278  26.703  1.00  0.00     0.127 S 
ATOM     82  O   UNL A   1      41.802  19.611  25.440  1.00  0.00    -0.237 OA
ATOM     83  O   UNL A   1      42.324  19.867  27.836  1.00  0.00    -0.237 OA
ATOM     84  O   UNL A   1      40.078  20.418  27.008  1.00  0.00    -0.744 OA
ENDBRANCH  78  81
ENDBRANCH  50  74
BRANCH  62  85
ATOM     85  C   UNL A   1      47.228  26.091  32.011  1.00  0.00     0.023 A 
ATOM     86  C   UNL A   1      48.385  26.574  31.366  1.00  0.00     0.012 A 
ATOM     87  C   UNL A   1      47.364  25.189  33.087  1.00  0.00     0.148 A 
ATOM     88  C   UNL A   1      49.650  26.145  31.764  1.00  0.00     0.002 A 
ATOM     89  C   UNL A   1      48.631  24.809  33.512  1.00  0.00     0.091 A 
ATOM     90  F   UNL A   1      46.253  24.728  33.678  1.00  0.00    -0.205 F 
ATOM     91  C   UNL A   1      49.774  25.275  32.844  1.00  0.00     0.022 A 
BRANCH  89  92
ATOM     92  S   UNL A   1      48.894  23.778  34.960  1.00  0.00     0.127 S 
ATOM     93  O   UNL A   1      48.318  24.604  36.022  1.00  0.00    -0.237 OA
ATOM     94  O   UNL A   1      48.118  22.580  34.633  1.00  0.00    -0.237 OA
ATOM     95  O   UNL A   1      50.331  23.563  35.047  1.00  0.00    -0.744 OA
ENDBRANCH  89  92
ENDBRANCH  62  85
ENDBRANCH  36  37
ENDBRANCH  28  31
ENDBRANCH  26  27
ENDBRANCH  25  26
ENDBRANCH   1  25
TORSDOF 17
ENDMDL
MODEL 2
REMARK VINA RESULT:     -11.2      5.627      8.587
REMARK SMILES C[C@@H](CNc1cccc(F)c1C(=O)NCCCNC(=O)c1ccc(-c2c3nc(c(-c4cccc(S(=O)(=O)[O-])c4F)c4ccc([nH]4)c(-c4cccc(S(=O)(=O)[O-])c4F)c4nc(c(-c5cccc(S(=O)(=O)[O-])c5F)c5ccc2[nH]5)C=C4)C=C3)cc1)[NH+]1CCCCC1
REMARK SMILES IDX 15 1 14 2 12 3 13 4 11 6 5 7 6 8 7 9 9 10 8 11 10 12 4 13
REMARK SMILES IDX 3 15 2 16 1 17 84 18 85 19 89 20 86 22 88 23 87 24 16 25
REMARK SMILES IDX 17 26 18 27 19 28 20 30 21 31 22 32 83 33 23 34 82 35 24 36
REMARK SMILES IDX 25 37 26 38 76 39 27 40 81 41 75 42 77 43 28 44 80 45 74 46
REMARK SMILES IDX 73 47 29 49 61 50 41 51 60 52 42 53 45 54 59 55 78 56 43 57
REMARK SMILES IDX 44 58 58 60 79 61 46 62 30 63 31 64 39 65 32 66 34 67 40 68
REMARK SMILES IDX 33 69 35 70 36 71 37 72 38 73 62 74 63 75 71 76 64 77 66 78
REMARK SMILES IDX 72 79 65 80 67 81 68 82 69 83 70 84 47 85 48 86 56 87 49 88
REMARK SMILES IDX 51 89 57 90 50 91 52 92 53 93 54 94 55 95
REMARK H PARENT 14 5 4 14 84 21 18 29 77 48 45 59
REMARK Flexibility Score: inf
ROOT
ATOM      1  C   UNL A   1      37.259  21.188  24.557  1.00  0.00     0.118 C 
ENDROOT
BRANCH   1   2
ATOM      2  N   UNL A   1      36.418  21.654  25.645  1.00  0.00    -0.352 N 
ATOM      3  C   UNL A   1      35.092  22.005  25.716  1.00  0.00     0.256 C 
ATOM      4  O   UNL A   1      34.726  22.519  26.777  1.00  0.00    -0.269 OA
ATOM      5  H   UNL A   1      36.893  21.735  26.505  1.00  0.00     0.163 HD
BRANCH   3   6
ATOM      6  C   UNL A   1      34.074  21.660  24.681  1.00  0.00     0.098 A 
ATOM      7  C   UNL A   1      33.585  22.702  23.839  1.00  0.00     0.050 A 
ATOM      8  C   UNL A   1      32.608  22.385  22.881  1.00  0.00     0.027 A 
ATOM      9  C   UNL A   1      32.108  21.091  22.747  1.00  0.00     0.005 A 
ATOM     10  C   UNL A   1      33.592  20.362  24.496  1.00  0.00     0.138 A 
ATOM     11  C   UNL A   1      32.599  20.080  23.560  1.00  0.00     0.040 A 
ATOM     12  F   UNL A   1      34.077  19.324  25.187  1.00  0.00    -0.206 F 
BRANCH   7  13
ATOM     13  N   UNL A   1      34.015  24.018  23.992  1.00  0.00    -0.378 N 
ATOM     14  H   UNL A   1      34.985  24.180  24.033  1.00  0.00     0.160 HD
BRANCH  13  15
ATOM     15  C   UNL A   1      33.134  25.171  24.096  1.00  0.00     0.177 C 
BRANCH  15  16
ATOM     16  C   UNL A   1      32.252  25.198  25.391  1.00  0.00     0.200 C 
ATOM     17  C   UNL A   1      30.770  24.958  25.064  1.00  0.00     0.077 C 
BRANCH  16  18
ATOM     18  N   UNL A   1      32.531  26.355  26.290  1.00  0.00    -0.331 N 
ATOM     19  C   UNL A   1      33.660  27.187  25.855  1.00  0.00     0.262 C 
ATOM     20  C   UNL A   1      31.344  27.189  26.519  1.00  0.00     0.262 C 
ATOM     21  H   UNL A   1      32.800  25.926  27.175  1.00  0.00     0.348 HD
ATOM     22  C   UNL A   1      34.017  28.256  26.885  1.00  0.00     0.062 C 
ATOM     23  C   UNL A   1      31.621  28.271  27.570  1.00  0.00     0.062 C 
ATOM     24  C   UNL A   1      32.817  29.135  27.187  1.00  0.00     0.012 C 
ENDBRANCH  16  18
ENDBRANCH  15  16
ENDBRANCH  13  15
ENDBRANCH   7  13
ENDBRANCH   3   6
ENDBRANCH   1   2
BRANCH   1  25
ATOM     25  C   UNL A   1      38.075  19.984  25.025  1.00  0.00     0.042 C 
BRANCH  25  26
ATOM     26  C   UNL A   1      39.225  20.375  25.947  1.00  0.00     0.118 C 
BRANCH  26  27
ATOM     27  N   UNL A   1      40.232  19.325  26.031  1.00  0.00    -0.352 N 
ATOM     28  C   UNL A   1      41.598  19.446  26.125  1.00  0.00     0.251 C 
ATOM     29  H   UNL A   1      39.886  18.402  26.020  1.00  0.00     0.163 HD
ATOM     30  O   UNL A   1      42.315  18.466  25.956  1.00  0.00    -0.269 OA
BRANCH  28  31
ATOM     31  C   UNL A   1      42.196  20.766  26.424  1.00  0.00     0.039 A 
ATOM     32  C   UNL A   1      42.596  21.590  25.370  1.00  0.00     0.014 A 
ATOM     33  C   UNL A   1      42.364  21.181  27.748  1.00  0.00     0.014 A 
ATOM     34  C   UNL A   1      43.120  22.857  25.644  1.00  0.00     0.010 A 
ATOM     35  C   UNL A   1      42.809  22.470  28.015  1.00  0.00     0.010 A 
ATOM     36  C   UNL A   1      43.206  23.316  26.968  1.00  0.00    -0.014 A 
BRANCH  36  37
ATOM     37  C   UNL A   1      43.721  24.670  27.298  1.00  0.00     0.031 A 
ATOM     38  C   UNL A   1      42.774  25.730  27.792  1.00  0.00     0.074 A 
ATOM     39  C   UNL A   1      45.009  24.976  27.052  1.00  0.00     0.049 A 
ATOM     40  N   UNL A   1      42.997  26.999  28.009  1.00  0.00    -0.248 NA
ATOM     41  C   UNL A   1      41.384  25.313  28.040  1.00  0.00     0.031 C 
ATOM     42  C   UNL A   1      46.010  24.054  26.516  1.00  0.00     0.029 A 
ATOM     43  N   UNL A   1      45.689  26.161  27.191  1.00  0.00    -0.354 N 
ATOM     44  C   UNL A   1      41.770  27.540  28.376  1.00  0.00     0.074 A 
ATOM     45  C   UNL A   1      40.800  26.470  28.314  1.00  0.00     0.031 C 
ATOM     46  C   UNL A   1      47.176  24.703  26.376  1.00  0.00     0.029 A 
ATOM     47  C   UNL A   1      46.997  26.097  26.770  1.00  0.00     0.049 A 
ATOM     48  H   UNL A   1      45.279  26.978  27.558  1.00  0.00     0.167 HD
ATOM     49  C   UNL A   1      41.482  28.807  28.758  1.00  0.00     0.034 A 
ATOM     50  C   UNL A   1      47.941  27.056  26.696  1.00  0.00     0.034 A 
ATOM     51  C   UNL A   1      42.460  29.856  28.859  1.00  0.00     0.049 A 
ATOM     52  C   UNL A   1      47.607  28.450  27.150  1.00  0.00     0.074 A 
ATOM     53  C   UNL A   1      42.287  31.150  29.316  1.00  0.00     0.029 A 
ATOM     54  N   UNL A   1      43.792  29.736  28.491  1.00  0.00    -0.354 N 
ATOM     55  N   UNL A   1      46.474  28.915  27.619  1.00  0.00    -0.248 NA
ATOM     56  C   UNL A   1      48.687  29.445  27.093  1.00  0.00     0.031 C 
ATOM     57  C   UNL A   1      43.507  31.823  29.193  1.00  0.00     0.029 A 
ATOM     58  C   UNL A   1      44.450  30.937  28.696  1.00  0.00     0.049 A 
ATOM     59  H   UNL A   1      44.208  28.918  28.135  1.00  0.00     0.167 HD
ATOM     60  C   UNL A   1      46.709  30.249  27.933  1.00  0.00     0.074 A 
ATOM     61  C   UNL A   1      48.101  30.509  27.627  1.00  0.00     0.031 C 
ATOM     62  C   UNL A   1      45.845  31.178  28.416  1.00  0.00     0.034 A 
BRANCH  49  63
ATOM     63  C   UNL A   1      40.057  29.116  29.143  1.00  0.00     0.023 A 
ATOM     64  C   UNL A   1      39.103  29.376  28.136  1.00  0.00     0.012 A 
ATOM     65  C   UNL A   1      39.646  29.093  30.490  1.00  0.00     0.148 A 
ATOM     66  C   UNL A   1      37.776  29.651  28.465  1.00  0.00     0.002 A 
ATOM     67  C   UNL A   1      38.310  29.313  30.807  1.00  0.00     0.091 A 
ATOM     68  F   UNL A   1      40.568  28.865  31.436  1.00  0.00    -0.205 F 
ATOM     69  C   UNL A   1      37.379  29.607  29.798  1.00  0.00     0.022 A 
BRANCH  67  70
ATOM     70  S   UNL A   1      37.676  29.190  32.483  1.00  0.00     0.127 S 
ATOM     71  O   UNL A   1      38.549  30.120  33.199  1.00  0.00    -0.237 OA
ATOM     72  O   UNL A   1      36.297  29.651  32.323  1.00  0.00    -0.237 OA
ATOM     73  O   UNL A   1      37.810  27.790  32.862  1.00  0.00    -0.744 OA
ENDBRANCH  67  70
ENDBRANCH  49  63
BRANCH  50  74
ATOM     74  C   UNL A   1      49.313  26.694  26.238  1.00  0.00     0.023 A 
ATOM     75  C   UNL A   1      50.101  25.846  27.039  1.00  0.00     0.012 A 
ATOM     76  C   UNL A   1      49.804  27.111  24.985  1.00  0.00     0.148 A 
ATOM     77  C   UNL A   1      51.360  25.428  26.606  1.00  0.00     0.002 A 
ATOM     78  C   UNL A   1      51.033  26.645  24.536  1.00  0.00     0.091 A 
ATOM     79  F   UNL A   1      49.036  27.921  24.242  1.00  0.00    -0.205 F 
ATOM     80  C   UNL A   1      51.820  25.815  25.351  1.00  0.00     0.022 A 
BRANCH  78  81
ATOM     81  S   UNL A   1      51.650  26.973  22.881  1.00  0.00     0.127 S 
ATOM     82  O   UNL A   1      50.487  26.653  22.058  1.00  0.00    -0.237 OA
ATOM     83  O   UNL A   1      51.974  28.398  22.963  1.00  0.00    -0.237 OA
ATOM     84  O   UNL A   1      52.801  26.099  22.705  1.00  0.00    -0.744 OA
ENDBRANCH  78  81
ENDBRANCH  50  74
BRANCH  62  85
ATOM     85  C   UNL A   1      46.371  32.570  28.656  1.00  0.00     0.023 A 
ATOM     86  C   UNL A   1      46.875  32.918  29.925  1.00  0.00     0.012 A 
ATOM     87  C   UNL A   1      46.454  33.504  27.601  1.00  0.00     0.148 A 
ATOM     88  C   UNL A   1      47.424  34.180  30.150  1.00  0.00     0.002 A 
ATOM     89  C   UNL A   1      47.052  34.739  27.819  1.00  0.00     0.091 A 
ATOM     90  F   UNL A   1      45.956  33.162  26.405  1.00  0.00    -0.205 F 
ATOM     91  C   UNL A   1      47.525  35.084  29.096  1.00  0.00     0.022 A 
BRANCH  89  92
ATOM     92  S   UNL A   1      47.324  35.926  26.498  1.00  0.00     0.127 S 
ATOM     93  O   UNL A   1      47.899  35.081  25.452  1.00  0.00    -0.237 OA
ATOM     94  O   UNL A   1      45.966  36.398  26.222  1.00  0.00    -0.237 OA
ATOM     95  O   UNL A   1      48.217  36.939  27.044  1.00  0.00    -0.744 OA
ENDBRANCH  89  92
ENDBRANCH  62  85
ENDBRANCH  36  37
ENDBRANCH  28  31
ENDBRANCH  26  27
ENDBRANCH  25  26
ENDBRANCH   1  25
TORSDOF 17
ENDMDL
MODEL 3
REMARK VINA RESULT:     -11.1      2.368      8.182
REMARK SMILES C[C@@H](CNc1cccc(F)c1C(=O)NCCCNC(=O)c1ccc(-c2c3nc(c(-c4cccc(S(=O)(=O)[O-])c4F)c4ccc([nH]4)c(-c4cccc(S(=O)(=O)[O-])c4F)c4nc(c(-c5cccc(S(=O)(=O)[O-])c5F)c5ccc2[nH]5)C=C4)C=C3)cc1)[NH+]1CCCCC1
REMARK SMILES IDX 15 1 14 2 12 3 13 4 11 6 5 7 6 8 7 9 9 10 8 11 10 12 4 13
REMARK SMILES IDX 3 15 2 16 1 17 84 18 85 19 89 20 86 22 88 23 87 24 16 25
REMARK SMILES IDX 17 26 18 27 19 28 20 30 21 31 22 32 83 33 23 34 82 35 24 36
REMARK SMILES IDX 25 37 26 38 76 39 27 40 81 41 75 42 77 43 28 44 80 45 74 46
REMARK SMILES IDX 73 47 29 49 61 50 41 51 60 52 42 53 45 54 59 55 78 56 43 57
REMARK SMILES IDX 44 58 58 60 79 61 46 62 30 63 31 64 39 65 32 66 34 67 40 68
REMARK SMILES IDX 33 69 35 70 36 71 37 72 38 73 62 74 63 75 71 76 64 77 66 78
REMARK SMILES IDX 72 79 65 80 67 81 68 82 69 83 70 84 47 85 48 86 56 87 49 88
REMARK SMILES IDX 51 89 57 90 50 91 52 92 53 93 54 94 55 95
REMARK H PARENT 14 5 4 14 84 21 18 29 77 48 45 59
REMARK Flexibility Score: inf
ROOT
ATOM      1  C   UNL A   1      32.990  26.533  26.257  1.00  0.00     0.118 C 
ENDROOT
BRANCH   1   2
ATOM      2  N   UNL A   1      32.096  25.584  26.894  1.00  0.00    -0.352 N 
ATOM      3  C   UNL A   1      31.773  24.277  26.621  1.00  0.00     0.256 C 
ATOM      4  O   UNL A   1      30.839  23.804  27.276  1.00  0.00    -0.269 OA
ATOM      5  H   UNL A   1      31.626  25.949  27.679  1.00  0.00     0.163 HD
BRANCH   3   6
ATOM      6  C   UNL A   1      32.566  23.382  25.729  1.00  0.00     0.098 A 
ATOM      7  C   UNL A   1      31.976  22.951  24.505  1.00  0.00     0.050 A 
ATOM      8  C   UNL A   1      32.711  22.088  23.675  1.00  0.00     0.027 A 
ATOM      9  C   UNL A   1      33.985  21.646  24.025  1.00  0.00     0.005 A 
ATOM     10  C   UNL A   1      33.863  22.963  26.036  1.00  0.00     0.138 A 
ATOM     11  C   UNL A   1      34.558  22.083  25.210  1.00  0.00     0.040 A 
ATOM     12  F   UNL A   1      34.511  23.407  27.120  1.00  0.00    -0.206 F 
BRANCH   7  13
ATOM     13  N   UNL A   1      30.679  23.321  24.158  1.00  0.00    -0.378 N 
ATOM     14  H   UNL A   1      29.935  22.871  24.620  1.00  0.00     0.160 HD
BRANCH  13  15
ATOM     15  C   UNL A   1      30.343  24.325  23.159  1.00  0.00     0.177 C 
BRANCH  15  16
ATOM     16  C   UNL A   1      30.355  25.798  23.691  1.00  0.00     0.200 C 
ATOM     17  C   UNL A   1      28.928  26.326  23.909  1.00  0.00     0.077 C 
BRANCH  16  18
ATOM     18  N   UNL A   1      31.266  26.708  22.940  1.00  0.00    -0.331 N 
ATOM     19  C   UNL A   1      31.190  28.111  23.366  1.00  0.00     0.262 C 
ATOM     20  C   UNL A   1      32.661  26.248  22.956  1.00  0.00     0.262 C 
ATOM     21  H   UNL A   1      30.924  26.669  21.980  1.00  0.00     0.348 HD
ATOM     22  C   UNL A   1      32.008  29.032  22.465  1.00  0.00     0.062 C 
ATOM     23  C   UNL A   1      33.541  27.112  22.044  1.00  0.00     0.062 C 
ATOM     24  C   UNL A   1      33.460  28.588  22.417  1.00  0.00     0.012 C 
ENDBRANCH  16  18
ENDBRANCH  15  16
ENDBRANCH  13  15
ENDBRANCH   7  13
ENDBRANCH   3   6
ENDBRANCH   1   2
BRANCH   1  25
ATOM     25  C   UNL A   1      32.567  27.955  26.623  1.00  0.00     0.042 C 
BRANCH  25  26
ATOM     26  C   UNL A   1      33.421  29.017  25.937  1.00  0.00     0.118 C 
BRANCH  26  27
ATOM     27  N   UNL A   1      32.992  30.365  26.288  1.00  0.00    -0.352 N 
ATOM     28  C   UNL A   1      33.528  31.226  27.217  1.00  0.00     0.251 C 
ATOM     29  H   UNL A   1      32.213  30.706  25.792  1.00  0.00     0.163 HD
ATOM     30  O   UNL A   1      32.911  32.230  27.552  1.00  0.00    -0.269 OA
BRANCH  28  31
ATOM     31  C   UNL A   1      34.848  30.926  27.814  1.00  0.00     0.039 A 
ATOM     32  C   UNL A   1      35.862  31.885  27.749  1.00  0.00     0.014 A 
ATOM     33  C   UNL A   1      35.082  29.694  28.430  1.00  0.00     0.014 A 
ATOM     34  C   UNL A   1      37.098  31.626  28.349  1.00  0.00     0.010 A 
ATOM     35  C   UNL A   1      36.281  29.471  29.095  1.00  0.00     0.010 A 
ATOM     36  C   UNL A   1      37.308  30.427  29.049  1.00  0.00    -0.014 A 
BRANCH  36  37
ATOM     37  C   UNL A   1      38.593  30.131  29.733  1.00  0.00     0.031 A 
ATOM     38  C   UNL A   1      39.560  29.158  29.116  1.00  0.00     0.074 A 
ATOM     39  C   UNL A   1      38.839  30.650  30.951  1.00  0.00     0.049 A 
ATOM     40  N   UNL A   1      40.666  28.669  29.610  1.00  0.00    -0.248 NA
ATOM     41  C   UNL A   1      39.220  28.641  27.780  1.00  0.00     0.031 C 
ATOM     42  C   UNL A   1      37.952  31.555  31.681  1.00  0.00     0.029 A 
ATOM     43  N   UNL A   1      39.898  30.461  31.805  1.00  0.00    -0.354 N 
ATOM     44  C   UNL A   1      41.129  27.756  28.669  1.00  0.00     0.074 A 
ATOM     45  C   UNL A   1      40.164  27.732  27.593  1.00  0.00     0.031 C 
ATOM     46  C   UNL A   1      38.503  31.848  32.869  1.00  0.00     0.029 A 
ATOM     47  C   UNL A   1      39.760  31.119  33.005  1.00  0.00     0.049 A 
ATOM     48  H   UNL A   1      40.681  29.908  31.580  1.00  0.00     0.167 HD
ATOM     49  C   UNL A   1      42.270  27.025  28.685  1.00  0.00     0.034 A 
ATOM     50  C   UNL A   1      40.549  31.124  34.098  1.00  0.00     0.034 A 
ATOM     51  C   UNL A   1      43.246  27.087  29.739  1.00  0.00     0.049 A 
ATOM     52  C   UNL A   1      41.824  30.325  34.084  1.00  0.00     0.074 A 
ATOM     53  C   UNL A   1      44.473  26.452  29.811  1.00  0.00     0.029 A 
ATOM     54  N   UNL A   1      43.106  27.820  30.909  1.00  0.00    -0.354 N 
ATOM     55  N   UNL A   1      42.312  29.568  33.131  1.00  0.00    -0.248 NA
ATOM     56  C   UNL A   1      42.671  30.404  35.283  1.00  0.00     0.031 C 
ATOM     57  C   UNL A   1      45.060  26.774  31.038  1.00  0.00     0.029 A 
ATOM     58  C   UNL A   1      44.217  27.642  31.716  1.00  0.00     0.049 A 
ATOM     59  H   UNL A   1      42.331  28.383  31.132  1.00  0.00     0.167 HD
ATOM     60  C   UNL A   1      43.533  29.098  33.604  1.00  0.00     0.074 A 
ATOM     61  C   UNL A   1      43.720  29.679  34.919  1.00  0.00     0.031 C 
ATOM     62  C   UNL A   1      44.409  28.249  33.010  1.00  0.00     0.034 A 
BRANCH  49  63
ATOM     63  C   UNL A   1      42.545  26.131  27.503  1.00  0.00     0.023 A 
ATOM     64  C   UNL A   1      43.290  26.627  26.412  1.00  0.00     0.012 A 
ATOM     65  C   UNL A   1      42.120  24.789  27.492  1.00  0.00     0.148 A 
ATOM     66  C   UNL A   1      43.569  25.816  25.313  1.00  0.00     0.002 A 
ATOM     67  C   UNL A   1      42.450  23.969  26.418  1.00  0.00     0.091 A 
ATOM     68  F   UNL A   1      41.396  24.338  28.527  1.00  0.00    -0.205 F 
ATOM     69  C   UNL A   1      43.161  24.486  25.322  1.00  0.00     0.022 A 
BRANCH  67  70
ATOM     70  S   UNL A   1      42.051  22.219  26.372  1.00  0.00     0.127 S 
ATOM     71  O   UNL A   1      42.531  21.772  27.679  1.00  0.00    -0.237 OA
ATOM     72  O   UNL A   1      40.595  22.240  26.233  1.00  0.00    -0.237 OA
ATOM     73  O   UNL A   1      42.764  21.674  25.226  1.00  0.00    -0.744 OA
ENDBRANCH  67  70
ENDBRANCH  49  63
BRANCH  50  74
ATOM     74  C   UNL A   1      40.178  31.978  35.261  1.00  0.00     0.023 A 
ATOM     75  C   UNL A   1      40.685  33.289  35.338  1.00  0.00     0.012 A 
ATOM     76  C   UNL A   1      39.265  31.533  36.238  1.00  0.00     0.148 A 
ATOM     77  C   UNL A   1      40.299  34.140  36.375  1.00  0.00     0.002 A 
ATOM     78  C   UNL A   1      38.842  32.404  37.234  1.00  0.00     0.091 A 
ATOM     79  F   UNL A   1      38.798  30.280  36.144  1.00  0.00    -0.205 F 
ATOM     80  C   UNL A   1      39.368  33.703  37.313  1.00  0.00     0.022 A 
BRANCH  78  81
ATOM     81  S   UNL A   1      37.545  31.985  38.405  1.00  0.00     0.127 S 
ATOM     82  O   UNL A   1      38.212  32.209  39.684  1.00  0.00    -0.237 OA
ATOM     83  O   UNL A   1      36.513  32.966  38.067  1.00  0.00    -0.237 OA
ATOM     84  O   UNL A   1      37.184  30.603  38.120  1.00  0.00    -0.744 OA
ENDBRANCH  78  81
ENDBRANCH  50  74
BRANCH  62  85
ATOM     85  C   UNL A   1      45.664  27.892  33.765  1.00  0.00     0.023 A 
ATOM     86  C   UNL A   1      46.803  28.715  33.657  1.00  0.00     0.012 A 
ATOM     87  C   UNL A   1      45.687  26.797  34.654  1.00  0.00     0.148 A 
ATOM     88  C   UNL A   1      47.952  28.438  34.396  1.00  0.00     0.002 A 
ATOM     89  C   UNL A   1      46.816  26.560  35.427  1.00  0.00     0.091 A 
ATOM     90  F   UNL A   1      44.601  26.015  34.733  1.00  0.00    -0.205 F 
ATOM     91  C   UNL A   1      47.955  27.371  35.290  1.00  0.00     0.022 A 
BRANCH  89  92
ATOM     92  S   UNL A   1      46.875  25.275  36.682  1.00  0.00     0.127 S 
ATOM     93  O   UNL A   1      48.222  25.450  37.225  1.00  0.00    -0.237 OA
ATOM     94  O   UNL A   1      45.797  25.677  37.587  1.00  0.00    -0.237 OA
ATOM     95  O   UNL A   1      46.642  24.018  35.984  1.00  0.00    -0.744 OA
ENDBRANCH  89  92
ENDBRANCH  62  85
ENDBRANCH  36  37
ENDBRANCH  28  31
ENDBRANCH  26  27
ENDBRANCH  25  26
ENDBRANCH   1  25
TORSDOF 17
ENDMDL
