MODEL 1
REMARK VINA RESULT:     -13.3      0.000      0.000
REMARK SMILES O=C(NCCCNC(=O)[C@@H]1CN(c2nccc(N3CCC(O)CC3)n2)CC[NH2+]1)c1ccc(-c2c3nc(c(-c4cccc(S(=O)(=O)[O-])c4F)c4ccc([nH]4)c(-c4cccc(S(=O)(=O)[O-])c4F)c4nc(c(-c5cccc(S(=O)(=O)[O-])c5F)c5ccc2[nH]5)C=C4)C=C3)cc1
REMARK SMILES IDX 5 1 4 2 3 3 1 4 2 5 29 7 30 8 91 9 31 10 90 11 32 12 33 13
REMARK SMILES IDX 34 14 84 15 35 16 89 17 83 18 85 19 36 20 88 21 82 22 81 23
REMARK SMILES IDX 37 25 69 26 49 27 68 28 50 29 53 30 67 31 86 32 51 33 52 34
REMARK SMILES IDX 66 36 87 37 54 38 38 39 39 40 47 41 40 42 42 43 48 44 41 45
REMARK SMILES IDX 43 46 44 47 45 48 46 49 70 50 71 51 79 52 72 53 74 54 80 55
REMARK SMILES IDX 73 56 75 57 76 58 77 59 78 60 55 61 56 62 64 63 57 64 59 65
REMARK SMILES IDX 65 66 58 67 60 68 61 69 62 70 63 71 6 72 7 73 8 74 9 76
REMARK SMILES IDX 10 77 11 78 28 79 12 80 27 81 26 84 13 85 14 86 25 87 15 88
REMARK SMILES IDX 17 89 16 90 18 91 19 92 24 93 20 94 23 95 21 96 22 97
REMARK H PARENT 3 6 85 24 53 35 7 75 28 82 28 83 22 98
REMARK Flexibility Score: inf
ROOT
ATOM      1  C   UNL A   1      34.800  22.190  26.669  1.00  0.00     0.042 C 
ENDROOT
BRANCH   1   2
ATOM      2  C   UNL A   1      35.894  22.437  25.638  1.00  0.00     0.118 C 
BRANCH   2   3
ATOM      3  N   UNL A   1      36.870  21.356  25.572  1.00  0.00    -0.352 N 
ATOM      4  O   UNL A   1      38.886  20.366  25.505  1.00  0.00    -0.269 OA
ATOM      5  C   UNL A   1      38.228  21.366  25.787  1.00  0.00     0.251 C 
ATOM      6  H   UNL A   1      36.497  20.478  25.334  1.00  0.00     0.163 HD
BRANCH   5   7
ATOM      7  C   UNL A   1      38.898  22.572  26.320  1.00  0.00     0.039 A 
ATOM      8  C   UNL A   1      38.450  23.850  25.983  1.00  0.00     0.014 A 
ATOM      9  C   UNL A   1      39.985  22.423  27.186  1.00  0.00     0.014 A 
ATOM     10  C   UNL A   1      39.192  24.964  26.357  1.00  0.00     0.010 A 
ATOM     11  C   UNL A   1      40.671  23.553  27.646  1.00  0.00     0.010 A 
ATOM     12  C   UNL A   1      40.310  24.832  27.197  1.00  0.00    -0.014 A 
BRANCH  12  13
ATOM     13  C   UNL A   1      41.044  26.052  27.624  1.00  0.00     0.031 A 
ATOM     14  C   UNL A   1      42.451  26.323  27.161  1.00  0.00     0.074 A 
ATOM     15  C   UNL A   1      40.415  26.940  28.421  1.00  0.00     0.049 A 
ATOM     16  N   UNL A   1      43.197  27.377  27.380  1.00  0.00    -0.248 NA
ATOM     17  C   UNL A   1      43.113  25.280  26.361  1.00  0.00     0.031 C 
ATOM     18  C   UNL A   1      39.071  26.765  28.975  1.00  0.00     0.029 A 
ATOM     19  N   UNL A   1      40.810  28.166  28.889  1.00  0.00    -0.354 N 
ATOM     20  C   UNL A   1      44.425  27.107  26.788  1.00  0.00     0.074 A 
ATOM     21  C   UNL A   1      44.329  25.787  26.206  1.00  0.00     0.031 C 
ATOM     22  C   UNL A   1      38.733  27.863  29.667  1.00  0.00     0.029 A 
ATOM     23  C   UNL A   1      39.851  28.798  29.647  1.00  0.00     0.049 A 
ATOM     24  H   UNL A   1      41.694  28.557  28.703  1.00  0.00     0.167 HD
ATOM     25  C   UNL A   1      45.526  27.894  26.720  1.00  0.00     0.034 A 
ATOM     26  C   UNL A   1      39.866  29.998  30.256  1.00  0.00     0.034 A 
ATOM     27  C   UNL A   1      45.600  29.230  27.252  1.00  0.00     0.049 A 
ATOM     28  C   UNL A   1      41.082  30.868  30.121  1.00  0.00     0.074 A 
ATOM     29  C   UNL A   1      46.641  30.137  27.160  1.00  0.00     0.029 A 
ATOM     30  N   UNL A   1      44.594  29.851  27.977  1.00  0.00    -0.354 N 
ATOM     31  N   UNL A   1      42.178  30.652  29.436  1.00  0.00    -0.248 NA
ATOM     32  C   UNL A   1      41.053  32.159  30.822  1.00  0.00     0.031 C 
ATOM     33  C   UNL A   1      46.270  31.301  27.843  1.00  0.00     0.029 A 
ATOM     34  C   UNL A   1      44.994  31.124  28.349  1.00  0.00     0.049 A 
ATOM     35  H   UNL A   1      43.724  29.445  28.197  1.00  0.00     0.167 HD
ATOM     36  C   UNL A   1      42.960  31.788  29.603  1.00  0.00     0.074 A 
ATOM     37  C   UNL A   1      42.198  32.702  30.430  1.00  0.00     0.031 C 
ATOM     38  C   UNL A   1      44.204  32.042  29.130  1.00  0.00     0.034 A 
BRANCH  25  39
ATOM     39  C   UNL A   1      46.735  27.352  26.002  1.00  0.00     0.023 A 
ATOM     40  C   UNL A   1      47.562  26.410  26.647  1.00  0.00     0.012 A 
ATOM     41  C   UNL A   1      47.016  27.721  24.671  1.00  0.00     0.148 A 
ATOM     42  C   UNL A   1      48.665  25.865  25.989  1.00  0.00     0.002 A 
ATOM     43  C   UNL A   1      48.095  27.144  24.009  1.00  0.00     0.091 A 
ATOM     44  F   UNL A   1      46.234  28.636  24.080  1.00  0.00    -0.205 F 
ATOM     45  C   UNL A   1      48.924  26.223  24.669  1.00  0.00     0.022 A 
BRANCH  43  46
ATOM     46  S   UNL A   1      48.462  27.491  22.285  1.00  0.00     0.127 S 
ATOM     47  O   UNL A   1      49.635  28.355  22.400  1.00  0.00    -0.237 OA
ATOM     48  O   UNL A   1      48.737  26.158  21.748  1.00  0.00    -0.237 OA
ATOM     49  O   UNL A   1      47.264  28.120  21.745  1.00  0.00    -0.744 OA
ENDBRANCH  43  46
ENDBRANCH  25  39
BRANCH  26  50
ATOM     50  C   UNL A   1      38.653  30.470  30.984  1.00  0.00     0.023 A 
ATOM     51  C   UNL A   1      38.580  30.301  32.380  1.00  0.00     0.012 A 
ATOM     52  C   UNL A   1      37.607  31.133  30.315  1.00  0.00     0.148 A 
ATOM     53  C   UNL A   1      37.477  30.767  33.094  1.00  0.00     0.002 A 
ATOM     54  C   UNL A   1      36.539  31.646  31.040  1.00  0.00     0.091 A 
ATOM     55  F   UNL A   1      37.686  31.266  28.984  1.00  0.00    -0.205 F 
ATOM     56  C   UNL A   1      36.464  31.452  32.428  1.00  0.00     0.022 A 
BRANCH  54  57
ATOM     57  S   UNL A   1      35.270  32.665  30.277  1.00  0.00     0.127 S 
ATOM     58  O   UNL A   1      34.408  32.972  31.414  1.00  0.00    -0.237 OA
ATOM     59  O   UNL A   1      36.048  33.795  29.770  1.00  0.00    -0.237 OA
ATOM     60  O   UNL A   1      34.682  31.833  29.236  1.00  0.00    -0.744 OA
ENDBRANCH  54  57
ENDBRANCH  26  50
BRANCH  38  61
ATOM     61  C   UNL A   1      44.818  33.371  29.482  1.00  0.00     0.023 A 
ATOM     62  C   UNL A   1      45.696  33.461  30.580  1.00  0.00     0.012 A 
ATOM     63  C   UNL A   1      44.573  34.513  28.696  1.00  0.00     0.148 A 
ATOM     64  C   UNL A   1      46.294  34.675  30.911  1.00  0.00     0.002 A 
ATOM     65  C   UNL A   1      45.208  35.710  29.006  1.00  0.00     0.091 A 
ATOM     66  F   UNL A   1      43.715  34.414  27.670  1.00  0.00    -0.205 F 
ATOM     67  C   UNL A   1      46.060  35.796  30.118  1.00  0.00     0.022 A 
BRANCH  65  68
ATOM     68  S   UNL A   1      45.028  37.175  27.981  1.00  0.00     0.127 S 
ATOM     69  O   UNL A   1      45.566  36.715  26.702  1.00  0.00    -0.237 OA
ATOM     70  O   UNL A   1      43.580  37.392  27.990  1.00  0.00    -0.237 OA
ATOM     71  O   UNL A   1      45.793  38.219  28.650  1.00  0.00    -0.744 OA
ENDBRANCH  65  68
ENDBRANCH  38  61
ENDBRANCH  12  13
ENDBRANCH   5   7
ENDBRANCH   2   3
ENDBRANCH   1   2
BRANCH   1  72
ATOM     72  C   UNL A   1      33.510  21.640  26.080  1.00  0.00     0.118 C 
BRANCH  72  73
ATOM     73  N   UNL A   1      32.366  21.900  26.937  1.00  0.00    -0.351 N 
ATOM     74  C   UNL A   1      31.412  22.871  26.814  1.00  0.00     0.280 C 
ATOM     75  H   UNL A   1      32.263  21.297  27.708  1.00  0.00     0.163 HD
ATOM     76  O   UNL A   1      30.515  22.913  27.657  1.00  0.00    -0.268 OA
BRANCH  74  77
ATOM     77  C   UNL A   1      31.483  23.843  25.625  1.00  0.00     0.292 C 
ATOM     78  C   UNL A   1      30.888  25.209  26.039  1.00  0.00     0.195 C 
ATOM     79  N   UNL A   1      30.758  23.232  24.457  1.00  0.00    -0.333 N 
ATOM     80  N   UNL A   1      30.774  26.075  24.871  1.00  0.00    -0.329 N 
ATOM     81  C   UNL A   1      30.765  24.197  23.337  1.00  0.00     0.283 C 
ATOM     82  H   UNL A   1      29.796  23.021  24.723  1.00  0.00     0.347 HD
ATOM     83  H   UNL A   1      31.221  22.368  24.174  1.00  0.00     0.347 HD
ATOM     84  C   UNL A   1      30.115  25.556  23.691  1.00  0.00     0.181 C 
BRANCH  80  85
ATOM     85  C   UNL A   1      31.006  27.409  25.020  1.00  0.00     0.227 A 
ATOM     86  N   UNL A   1      31.727  27.839  26.064  1.00  0.00    -0.221 NA
ATOM     87  N   UNL A   1      30.449  28.225  24.115  1.00  0.00    -0.196 NA
ATOM     88  C   UNL A   1      31.947  29.162  26.130  1.00  0.00     0.119 A 
ATOM     89  C   UNL A   1      30.634  29.547  24.235  1.00  0.00     0.134 A 
ATOM     90  C   UNL A   1      31.434  30.063  25.230  1.00  0.00     0.067 A 
BRANCH  89  91
ATOM     91  N   UNL A   1      29.950  30.381  23.380  1.00  0.00    -0.356 N 
ATOM     92  C   UNL A   1      29.737  30.015  21.991  1.00  0.00     0.121 C 
ATOM     93  C   UNL A   1      29.267  31.538  23.943  1.00  0.00     0.121 C 
ATOM     94  C   UNL A   1      28.240  29.944  21.697  1.00  0.00     0.053 C 
ATOM     95  C   UNL A   1      27.778  31.513  23.620  1.00  0.00     0.053 C 
ATOM     96  C   UNL A   1      27.510  31.208  22.149  1.00  0.00     0.118 C 
BRANCH  96  97
ATOM     97  O   UNL A   1      27.874  32.309  21.315  1.00  0.00    -0.393 OA
ATOM     98  H   UNL A   1      27.330  32.300  20.512  1.00  0.00     0.210 HD
ENDBRANCH  96  97
ENDBRANCH  89  91
ENDBRANCH  80  85
ENDBRANCH  74  77
ENDBRANCH  72  73
ENDBRANCH   1  72
TORSDOF 16
ENDMDL
MODEL 2
REMARK VINA RESULT:     -12.9      2.361      3.189
REMARK SMILES O=C(NCCCNC(=O)[C@@H]1CN(c2nccc(N3CCC(O)CC3)n2)CC[NH2+]1)c1ccc(-c2c3nc(c(-c4cccc(S(=O)(=O)[O-])c4F)c4ccc([nH]4)c(-c4cccc(S(=O)(=O)[O-])c4F)c4nc(c(-c5cccc(S(=O)(=O)[O-])c5F)c5ccc2[nH]5)C=C4)C=C3)cc1
REMARK SMILES IDX 5 1 4 2 3 3 1 4 2 5 29 7 30 8 91 9 31 10 90 11 32 12 33 13
REMARK SMILES IDX 34 14 84 15 35 16 89 17 83 18 85 19 36 20 88 21 82 22 81 23
REMARK SMILES IDX 37 25 69 26 49 27 68 28 50 29 53 30 67 31 86 32 51 33 52 34
REMARK SMILES IDX 66 36 87 37 54 38 38 39 39 40 47 41 40 42 42 43 48 44 41 45
REMARK SMILES IDX 43 46 44 47 45 48 46 49 70 50 71 51 79 52 72 53 74 54 80 55
REMARK SMILES IDX 73 56 75 57 76 58 77 59 78 60 55 61 56 62 64 63 57 64 59 65
REMARK SMILES IDX 65 66 58 67 60 68 61 69 62 70 63 71 6 72 7 73 8 74 9 76
REMARK SMILES IDX 10 77 11 78 28 79 12 80 27 81 26 84 13 85 14 86 25 87 15 88
REMARK SMILES IDX 17 89 16 90 18 91 19 92 24 93 20 94 23 95 21 96 22 97
REMARK H PARENT 3 6 85 24 53 35 7 75 28 82 28 83 22 98
REMARK Flexibility Score: inf
ROOT
ATOM      1  C   UNL A   1      37.868  19.836  24.941  1.00  0.00     0.042 C 
ENDROOT
BRANCH   1   2
ATOM      2  C   UNL A   1      38.996  20.289  25.859  1.00  0.00     0.118 C 
BRANCH   2   3
ATOM      3  N   UNL A   1      40.106  19.346  25.908  1.00  0.00    -0.352 N 
ATOM      4  O   UNL A   1      42.235  18.628  25.932  1.00  0.00    -0.269 OA
ATOM      5  C   UNL A   1      41.450  19.558  26.104  1.00  0.00     0.251 C 
ATOM      6  H   UNL A   1      39.853  18.404  25.777  1.00  0.00     0.163 HD
BRANCH   5   7
ATOM      7  C   UNL A   1      41.953  20.896  26.486  1.00  0.00     0.039 A 
ATOM      8  C   UNL A   1      42.208  21.212  27.821  1.00  0.00     0.014 A 
ATOM      9  C   UNL A   1      42.189  21.847  25.490  1.00  0.00     0.014 A 
ATOM     10  C   UNL A   1      42.518  22.520  28.175  1.00  0.00     0.010 A 
ATOM     11  C   UNL A   1      42.602  23.138  25.841  1.00  0.00     0.010 A 
ATOM     12  C   UNL A   1      42.724  23.499  27.190  1.00  0.00    -0.014 A 
BRANCH  12  13
ATOM     13  C   UNL A   1      43.113  24.874  27.605  1.00  0.00     0.031 A 
ATOM     14  C   UNL A   1      44.516  25.382  27.413  1.00  0.00     0.074 A 
ATOM     15  C   UNL A   1      42.172  25.679  28.137  1.00  0.00     0.049 A 
ATOM     16  N   UNL A   1      44.994  26.579  27.649  1.00  0.00    -0.248 NA
ATOM     17  C   UNL A   1      45.518  24.432  26.904  1.00  0.00     0.031 C 
ATOM     18  C   UNL A   1      40.790  25.284  28.419  1.00  0.00     0.029 A 
ATOM     19  N   UNL A   1      42.225  26.994  28.521  1.00  0.00    -0.354 N 
ATOM     20  C   UNL A   1      46.352  26.514  27.363  1.00  0.00     0.074 A 
ATOM     21  C   UNL A   1      46.627  25.158  26.942  1.00  0.00     0.031 C 
ATOM     22  C   UNL A   1      40.113  26.344  28.884  1.00  0.00     0.029 A 
ATOM     23  C   UNL A   1      41.022  27.480  28.980  1.00  0.00     0.049 A 
ATOM     24  H   UNL A   1      43.044  27.538  28.475  1.00  0.00     0.167 HD
ATOM     25  C   UNL A   1      47.281  27.498  27.426  1.00  0.00     0.034 A 
ATOM     26  C   UNL A   1      40.684  28.705  29.424  1.00  0.00     0.034 A 
ATOM     27  C   UNL A   1      46.993  28.860  27.792  1.00  0.00     0.049 A 
ATOM     28  C   UNL A   1      41.724  29.788  29.437  1.00  0.00     0.074 A 
ATOM     29  C   UNL A   1      47.850  29.947  27.805  1.00  0.00     0.029 A 
ATOM     30  N   UNL A   1      45.756  29.324  28.210  1.00  0.00    -0.354 N 
ATOM     31  N   UNL A   1      42.968  29.740  29.026  1.00  0.00    -0.248 NA
ATOM     32  C   UNL A   1      41.308  31.099  29.951  1.00  0.00     0.031 C 
ATOM     33  C   UNL A   1      47.133  31.066  28.247  1.00  0.00     0.029 A 
ATOM     34  C   UNL A   1      45.827  30.678  28.496  1.00  0.00     0.049 A 
ATOM     35  H   UNL A   1      44.944  28.771  28.294  1.00  0.00     0.167 HD
ATOM     36  C   UNL A   1      43.477  31.020  29.208  1.00  0.00     0.074 A 
ATOM     37  C   UNL A   1      42.397  31.827  29.740  1.00  0.00     0.031 C 
ATOM     38  C   UNL A   1      44.730  31.479  28.976  1.00  0.00     0.034 A 
BRANCH  25  39
ATOM     39  C   UNL A   1      48.698  27.153  27.047  1.00  0.00     0.023 A 
ATOM     40  C   UNL A   1      49.509  26.443  27.958  1.00  0.00     0.012 A 
ATOM     41  C   UNL A   1      49.207  27.469  25.772  1.00  0.00     0.148 A 
ATOM     42  C   UNL A   1      50.811  26.079  27.615  1.00  0.00     0.002 A 
ATOM     43  C   UNL A   1      50.494  27.068  25.424  1.00  0.00     0.091 A 
ATOM     44  F   UNL A   1      48.433  28.165  24.927  1.00  0.00    -0.205 F 
ATOM     45  C   UNL A   1      51.298  26.381  26.347  1.00  0.00     0.022 A 
BRANCH  43  46
ATOM     46  S   UNL A   1      51.178  27.350  23.787  1.00  0.00     0.127 S 
ATOM     47  O   UNL A   1      52.449  26.632  23.870  1.00  0.00    -0.237 OA
ATOM     48  O   UNL A   1      50.181  26.723  22.918  1.00  0.00    -0.237 OA
ATOM     49  O   UNL A   1      51.277  28.796  23.643  1.00  0.00    -0.744 OA
ENDBRANCH  43  46
ENDBRANCH  25  39
BRANCH  26  50
ATOM     50  C   UNL A   1      39.274  28.982  29.821  1.00  0.00     0.023 A 
ATOM     51  C   UNL A   1      38.839  28.622  31.111  1.00  0.00     0.012 A 
ATOM     52  C   UNL A   1      38.385  29.647  28.955  1.00  0.00     0.148 A 
ATOM     53  C   UNL A   1      37.537  28.903  31.525  1.00  0.00     0.002 A 
ATOM     54  C   UNL A   1      37.109  29.976  29.395  1.00  0.00     0.091 A 
ATOM     55  F   UNL A   1      38.811  29.963  27.725  1.00  0.00    -0.205 F 
ATOM     56  C   UNL A   1      36.677  29.592  30.674  1.00  0.00     0.022 A 
BRANCH  54  57
ATOM     57  S   UNL A   1      35.994  30.988  28.415  1.00  0.00     0.127 S 
ATOM     58  O   UNL A   1      35.638  30.078  27.331  1.00  0.00    -0.237 OA
ATOM     59  O   UNL A   1      34.917  31.267  29.365  1.00  0.00    -0.237 OA
ATOM     60  O   UNL A   1      36.770  32.161  28.036  1.00  0.00    -0.744 OA
ENDBRANCH  54  57
ENDBRANCH  26  50
BRANCH  38  61
ATOM     61  C   UNL A   1      45.001  32.929  29.279  1.00  0.00     0.023 A 
ATOM     62  C   UNL A   1      45.508  33.291  30.543  1.00  0.00     0.012 A 
ATOM     63  C   UNL A   1      44.810  33.922  28.299  1.00  0.00     0.148 A 
ATOM     64  C   UNL A   1      45.789  34.623  30.839  1.00  0.00     0.002 A 
ATOM     65  C   UNL A   1      45.134  35.243  28.587  1.00  0.00     0.091 A 
ATOM     66  F   UNL A   1      44.304  33.562  27.111  1.00  0.00    -0.205 F 
ATOM     67  C   UNL A   1      45.613  35.597  29.858  1.00  0.00     0.022 A 
BRANCH  65  68
ATOM     68  S   UNL A   1      45.020  36.541  27.350  1.00  0.00     0.127 S 
ATOM     69  O   UNL A   1      45.475  37.711  28.100  1.00  0.00    -0.237 OA
ATOM     70  O   UNL A   1      45.951  36.079  26.319  1.00  0.00    -0.237 OA
ATOM     71  O   UNL A   1      43.625  36.563  26.930  1.00  0.00    -0.744 OA
ENDBRANCH  65  68
ENDBRANCH  38  61
ENDBRANCH  12  13
ENDBRANCH   5   7
ENDBRANCH   2   3
ENDBRANCH   1   2
BRANCH   1  72
ATOM     72  C   UNL A   1      36.753  20.859  24.782  1.00  0.00     0.118 C 
BRANCH  72  73
ATOM     73  N   UNL A   1      35.698  20.670  25.762  1.00  0.00    -0.351 N 
ATOM     74  C   UNL A   1      34.376  21.004  25.667  1.00  0.00     0.280 C 
ATOM     75  H   UNL A   1      35.970  20.246  26.608  1.00  0.00     0.163 HD
ATOM     76  O   UNL A   1      33.642  20.750  26.624  1.00  0.00    -0.268 OA
BRANCH  74  77
ATOM     77  C   UNL A   1      33.859  21.652  24.371  1.00  0.00     0.292 C 
ATOM     78  C   UNL A   1      33.438  23.112  24.658  1.00  0.00     0.195 C 
ATOM     79  N   UNL A   1      32.726  20.822  23.835  1.00  0.00    -0.333 N 
ATOM     80  N   UNL A   1      32.771  23.674  23.488  1.00  0.00    -0.329 N 
ATOM     81  C   UNL A   1      32.182  21.483  22.630  1.00  0.00     0.283 C 
ATOM     82  H   UNL A   1      31.994  20.742  24.542  1.00  0.00     0.347 HD
ATOM     83  H   UNL A   1      33.060  19.888  23.598  1.00  0.00     0.347 HD
ATOM     84  C   UNL A   1      31.685  22.925  22.890  1.00  0.00     0.181 C 
BRANCH  80  85
ATOM     85  C   UNL A   1      32.973  24.987  23.187  1.00  0.00     0.227 A 
ATOM     86  N   UNL A   1      33.284  25.333  21.931  1.00  0.00    -0.221 NA
ATOM     87  N   UNL A   1      32.886  25.860  24.200  1.00  0.00    -0.196 NA
ATOM     88  C   UNL A   1      33.434  26.647  21.697  1.00  0.00     0.119 A 
ATOM     89  C   UNL A   1      33.098  27.160  23.952  1.00  0.00     0.134 A 
ATOM     90  C   UNL A   1      33.337  27.608  22.672  1.00  0.00     0.067 A 
BRANCH  89  91
ATOM     91  N   UNL A   1      33.136  28.028  25.019  1.00  0.00    -0.356 N 
ATOM     92  C   UNL A   1      32.984  29.458  24.826  1.00  0.00     0.121 C 
ATOM     93  C   UNL A   1      33.126  27.468  26.365  1.00  0.00     0.121 C 
ATOM     94  C   UNL A   1      31.768  29.961  25.601  1.00  0.00     0.053 C 
ATOM     95  C   UNL A   1      31.946  27.994  27.174  1.00  0.00     0.053 C 
ATOM     96  C   UNL A   1      31.796  29.509  27.060  1.00  0.00     0.118 C 
BRANCH  96  97
ATOM     97  O   UNL A   1      32.836  30.188  27.764  1.00  0.00    -0.393 OA
ATOM     98  H   UNL A   1      33.583  30.345  27.166  1.00  0.00     0.210 HD
ENDBRANCH  96  97
ENDBRANCH  89  91
ENDBRANCH  80  85
ENDBRANCH  74  77
ENDBRANCH  72  73
ENDBRANCH   1  72
TORSDOF 16
ENDMDL
MODEL 3
REMARK VINA RESULT:     -12.7      5.237     10.889
REMARK SMILES O=C(NCCCNC(=O)[C@@H]1CN(c2nccc(N3CCC(O)CC3)n2)CC[NH2+]1)c1ccc(-c2c3nc(c(-c4cccc(S(=O)(=O)[O-])c4F)c4ccc([nH]4)c(-c4cccc(S(=O)(=O)[O-])c4F)c4nc(c(-c5cccc(S(=O)(=O)[O-])c5F)c5ccc2[nH]5)C=C4)C=C3)cc1
REMARK SMILES IDX 5 1 4 2 3 3 1 4 2 5 29 7 30 8 91 9 31 10 90 11 32 12 33 13
REMARK SMILES IDX 34 14 84 15 35 16 89 17 83 18 85 19 36 20 88 21 82 22 81 23
REMARK SMILES IDX 37 25 69 26 49 27 68 28 50 29 53 30 67 31 86 32 51 33 52 34
REMARK SMILES IDX 66 36 87 37 54 38 38 39 39 40 47 41 40 42 42 43 48 44 41 45
REMARK SMILES IDX 43 46 44 47 45 48 46 49 70 50 71 51 79 52 72 53 74 54 80 55
REMARK SMILES IDX 73 56 75 57 76 58 77 59 78 60 55 61 56 62 64 63 57 64 59 65
REMARK SMILES IDX 65 66 58 67 60 68 61 69 62 70 63 71 6 72 7 73 8 74 9 76
REMARK SMILES IDX 10 77 11 78 28 79 12 80 27 81 26 84 13 85 14 86 25 87 15 88
REMARK SMILES IDX 17 89 16 90 18 91 19 92 24 93 20 94 23 95 21 96 22 97
REMARK H PARENT 3 6 85 24 53 35 7 75 28 82 28 83 22 98
REMARK Flexibility Score: inf
ROOT
ATOM      1  C   UNL A   1      32.816  29.460  24.913  1.00  0.00     0.042 C 
ENDROOT
BRANCH   1   2
ATOM      2  C   UNL A   1      32.501  29.826  26.358  1.00  0.00     0.118 C 
BRANCH   2   3
ATOM      3  N   UNL A   1      32.391  31.264  26.571  1.00  0.00    -0.352 N 
ATOM      4  O   UNL A   1      32.804  33.276  27.481  1.00  0.00    -0.269 OA
ATOM      5  C   UNL A   1      33.184  32.122  27.295  1.00  0.00     0.251 C 
ATOM      6  H   UNL A   1      31.624  31.689  26.125  1.00  0.00     0.163 HD
BRANCH   5   7
ATOM      7  C   UNL A   1      34.465  31.658  27.871  1.00  0.00     0.039 A 
ATOM      8  C   UNL A   1      34.624  30.339  28.298  1.00  0.00     0.014 A 
ATOM      9  C   UNL A   1      35.532  32.555  27.974  1.00  0.00     0.014 A 
ATOM     10  C   UNL A   1      35.773  29.969  28.987  1.00  0.00     0.010 A 
ATOM     11  C   UNL A   1      36.729  32.150  28.577  1.00  0.00     0.010 A 
ATOM     12  C   UNL A   1      36.843  30.868  29.133  1.00  0.00    -0.014 A 
BRANCH  12  13
ATOM     13  C   UNL A   1      38.079  30.417  29.825  1.00  0.00     0.031 A 
ATOM     14  C   UNL A   1      38.373  30.819  31.245  1.00  0.00     0.074 A 
ATOM     15  C   UNL A   1      38.932  29.609  29.164  1.00  0.00     0.049 A 
ATOM     16  N   UNL A   1      39.365  30.447  32.014  1.00  0.00    -0.248 NA
ATOM     17  C   UNL A   1      37.447  31.768  31.887  1.00  0.00     0.031 C 
ATOM     18  C   UNL A   1      38.782  29.190  27.769  1.00  0.00     0.029 A 
ATOM     19  N   UNL A   1      40.081  28.984  29.576  1.00  0.00    -0.354 N 
ATOM     20  C   UNL A   1      39.211  31.145  33.206  1.00  0.00     0.074 A 
ATOM     21  C   UNL A   1      38.033  31.971  33.059  1.00  0.00     0.031 C 
ATOM     22  C   UNL A   1      39.770  28.341  27.454  1.00  0.00     0.029 A 
ATOM     23  C   UNL A   1      40.651  28.191  28.606  1.00  0.00     0.049 A 
ATOM     24  H   UNL A   1      40.463  29.093  30.476  1.00  0.00     0.167 HD
ATOM     25  C   UNL A   1      39.970  31.089  34.327  1.00  0.00     0.034 A 
ATOM     26  C   UNL A   1      41.757  27.425  28.639  1.00  0.00     0.034 A 
ATOM     27  C   UNL A   1      41.109  30.225  34.491  1.00  0.00     0.049 A 
ATOM     28  C   UNL A   1      42.551  27.346  29.912  1.00  0.00     0.074 A 
ATOM     29  C   UNL A   1      41.892  30.035  35.617  1.00  0.00     0.029 A 
ATOM     30  N   UNL A   1      41.632  29.406  33.501  1.00  0.00    -0.354 N 
ATOM     31  N   UNL A   1      42.304  27.904  31.072  1.00  0.00    -0.248 NA
ATOM     32  C   UNL A   1      43.759  26.512  29.887  1.00  0.00     0.031 C 
ATOM     33  C   UNL A   1      42.897  29.113  35.302  1.00  0.00     0.029 A 
ATOM     34  C   UNL A   1      42.733  28.718  33.985  1.00  0.00     0.049 A 
ATOM     35  H   UNL A   1      41.273  29.326  32.587  1.00  0.00     0.167 HD
ATOM     36  C   UNL A   1      43.313  27.470  31.923  1.00  0.00     0.074 A 
ATOM     37  C   UNL A   1      44.157  26.579  31.151  1.00  0.00     0.031 C 
ATOM     38  C   UNL A   1      43.532  27.796  33.220  1.00  0.00     0.034 A 
BRANCH  25  39
ATOM     39  C   UNL A   1      39.569  31.956  35.493  1.00  0.00     0.023 A 
ATOM     40  C   UNL A   1      39.988  33.302  35.535  1.00  0.00     0.012 A 
ATOM     41  C   UNL A   1      38.725  31.464  36.508  1.00  0.00     0.148 A 
ATOM     42  C   UNL A   1      39.598  34.135  36.584  1.00  0.00     0.002 A 
ATOM     43  C   UNL A   1      38.308  32.311  37.530  1.00  0.00     0.091 A 
ATOM     44  F   UNL A   1      38.354  30.176  36.466  1.00  0.00    -0.205 F 
ATOM     45  C   UNL A   1      38.750  33.643  37.573  1.00  0.00     0.022 A 
BRANCH  43  46
ATOM     46  S   UNL A   1      37.159  31.785  38.806  1.00  0.00     0.127 S 
ATOM     47  O   UNL A   1      37.946  31.998  40.019  1.00  0.00    -0.237 OA
ATOM     48  O   UNL A   1      36.046  32.719  38.631  1.00  0.00    -0.237 OA
ATOM     49  O   UNL A   1      36.834  30.399  38.499  1.00  0.00    -0.744 OA
ENDBRANCH  43  46
ENDBRANCH  25  39
BRANCH  26  50
ATOM     50  C   UNL A   1      42.128  26.614  27.444  1.00  0.00     0.023 A 
ATOM     51  C   UNL A   1      42.850  27.222  26.399  1.00  0.00     0.012 A 
ATOM     52  C   UNL A   1      41.824  25.242  27.364  1.00  0.00     0.148 A 
ATOM     53  C   UNL A   1      43.246  26.481  25.286  1.00  0.00     0.002 A 
ATOM     54  C   UNL A   1      42.272  24.497  26.281  1.00  0.00     0.091 A 
ATOM     55  F   UNL A   1      41.119  24.687  28.360  1.00  0.00    -0.205 F 
ATOM     56  C   UNL A   1      42.970  25.117  25.233  1.00  0.00     0.022 A 
BRANCH  54  57
ATOM     57  S   UNL A   1      42.085  22.712  26.209  1.00  0.00     0.127 S 
ATOM     58  O   UNL A   1      42.737  22.393  24.942  1.00  0.00    -0.237 OA
ATOM     59  O   UNL A   1      42.811  22.279  27.403  1.00  0.00    -0.237 OA
ATOM     60  O   UNL A   1      40.649  22.472  26.267  1.00  0.00    -0.744 OA
ENDBRANCH  54  57
ENDBRANCH  26  50
BRANCH  38  61
ATOM     61  C   UNL A   1      44.725  27.173  33.896  1.00  0.00     0.023 A 
ATOM     62  C   UNL A   1      45.977  27.813  33.822  1.00  0.00     0.012 A 
ATOM     63  C   UNL A   1      44.594  25.990  34.649  1.00  0.00     0.148 A 
ATOM     64  C   UNL A   1      47.090  27.267  34.459  1.00  0.00     0.002 A 
ATOM     65  C   UNL A   1      45.698  25.476  35.319  1.00  0.00     0.091 A 
ATOM     66  F   UNL A   1      43.399  25.383  34.688  1.00  0.00    -0.205 F 
ATOM     67  C   UNL A   1      46.948  26.106  35.216  1.00  0.00     0.022 A 
BRANCH  65  68
ATOM     68  S   UNL A   1      45.578  24.036  36.386  1.00  0.00     0.127 S 
ATOM     69  O   UNL A   1      46.984  23.761  36.678  1.00  0.00    -0.237 OA
ATOM     70  O   UNL A   1      44.809  24.547  37.522  1.00  0.00    -0.237 OA
ATOM     71  O   UNL A   1      44.885  23.022  35.602  1.00  0.00    -0.744 OA
ENDBRANCH  65  68
ENDBRANCH  38  61
ENDBRANCH  12  13
ENDBRANCH   5   7
ENDBRANCH   2   3
ENDBRANCH   1   2
BRANCH   1  72
ATOM     72  C   UNL A   1      32.151  28.175  24.443  1.00  0.00     0.118 C 
BRANCH  72  73
ATOM     73  N   UNL A   1      31.449  27.499  25.521  1.00  0.00    -0.351 N 
ATOM     74  C   UNL A   1      31.587  26.209  25.951  1.00  0.00     0.280 C 
ATOM     75  H   UNL A   1      30.787  28.042  26.006  1.00  0.00     0.163 HD
ATOM     76  O   UNL A   1      30.889  25.835  26.895  1.00  0.00    -0.268 OA
BRANCH  74  77
ATOM     77  C   UNL A   1      32.616  25.297  25.263  1.00  0.00     0.292 C 
ATOM     78  C   UNL A   1      32.020  23.879  25.102  1.00  0.00     0.195 C 
ATOM     79  N   UNL A   1      33.882  25.299  26.075  1.00  0.00    -0.333 N 
ATOM     80  N   UNL A   1      33.050  22.960  24.628  1.00  0.00    -0.329 N 
ATOM     81  C   UNL A   1      34.846  24.365  25.453  1.00  0.00     0.283 C 
ATOM     82  H   UNL A   1      33.679  24.997  27.028  1.00  0.00     0.347 HD
ATOM     83  H   UNL A   1      34.276  26.239  26.102  1.00  0.00     0.347 HD
ATOM     84  C   UNL A   1      34.312  22.918  25.335  1.00  0.00     0.181 C 
BRANCH  80  85
ATOM     85  C   UNL A   1      32.697  21.976  23.754  1.00  0.00     0.227 A 
ATOM     86  N   UNL A   1      32.147  22.308  22.578  1.00  0.00    -0.221 NA
ATOM     87  N   UNL A   1      32.889  20.712  24.156  1.00  0.00    -0.196 NA
ATOM     88  C   UNL A   1      31.857  21.290  21.751  1.00  0.00     0.119 A 
ATOM     89  C   UNL A   1      32.538  19.713  23.335  1.00  0.00     0.134 A 
ATOM     90  C   UNL A   1      32.047  19.969  22.075  1.00  0.00     0.067 A 
BRANCH  89  91
ATOM     91  N   UNL A   1      32.617  18.423  23.810  1.00  0.00    -0.356 N 
ATOM     92  C   UNL A   1      32.872  17.311  22.913  1.00  0.00     0.121 C 
ATOM     93  C   UNL A   1      32.646  18.219  25.253  1.00  0.00     0.121 C 
ATOM     94  C   UNL A   1      34.158  16.598  23.323  1.00  0.00     0.053 C 
ATOM     95  C   UNL A   1      33.900  17.465  25.680  1.00  0.00     0.053 C 
ATOM     96  C   UNL A   1      34.162  16.240  24.809  1.00  0.00     0.118 C 
BRANCH  96  97
ATOM     97  O   UNL A   1      33.213  15.205  25.067  1.00  0.00    -0.393 OA
ATOM     98  H   UNL A   1      32.948  15.235  25.999  1.00  0.00     0.210 HD
ENDBRANCH  96  97
ENDBRANCH  89  91
ENDBRANCH  80  85
ENDBRANCH  74  77
ENDBRANCH  72  73
ENDBRANCH   1  72
TORSDOF 16
ENDMDL
