MODEL 1
REMARK VINA RESULT:     -12.8      0.000      0.000
REMARK SMILES O=C(NCCCNC(=O)[C@@]1(Cc2ccnc3ccccc23)CCC[NH2+]C1)c1ccc(-c2c3nc(c(-c4cccc(S(=O)(=O)[O-])c4F)c4ccc([nH]4)c(-c4cccc(S(=O)(=O)[O-])c4F)c4nc(c(-c5cccc(S(=O)(=O)[O-])c5F)c5ccc2[nH]5)C=C4)C=C3)cc1
REMARK SMILES IDX 4 1 3 2 1 3 2 4 27 6 28 7 89 8 29 9 88 10 30 11 31 12 32 13
REMARK SMILES IDX 82 14 33 15 87 16 81 17 83 18 34 19 86 20 80 21 79 22 35 24
REMARK SMILES IDX 67 25 47 26 66 27 48 28 51 29 65 30 84 31 49 32 50 33 64 35
REMARK SMILES IDX 85 36 52 37 36 38 37 39 45 40 38 41 40 42 46 43 39 44 41 45
REMARK SMILES IDX 42 46 43 47 44 48 68 49 69 50 77 51 70 52 72 53 78 54 71 55
REMARK SMILES IDX 73 56 74 57 75 58 76 59 53 60 54 61 62 62 55 63 57 64 63 65
REMARK SMILES IDX 56 66 58 67 59 68 60 69 61 70 5 71 6 72 7 73 8 74 9 76 10 77
REMARK SMILES IDX 22 78 26 79 23 80 25 81 24 82 11 85 12 86 13 87 21 88 14 89
REMARK SMILES IDX 16 90 20 91 15 92 17 93 19 94 18 95
REMARK H PARENT 3 5 83 23 51 34 7 75 25 83 25 84
REMARK Flexibility Score: inf
ROOT
ATOM      1  C   UNL A   1      33.114  29.006  25.300  1.00  0.00     0.118 C 
ENDROOT
BRANCH   1   2
ATOM      2  N   UNL A   1      32.610  30.281  25.794  1.00  0.00    -0.352 N 
ATOM      3  O   UNL A   1      32.344  32.018  27.192  1.00  0.00    -0.269 OA
ATOM      4  C   UNL A   1      33.049  31.088  26.820  1.00  0.00     0.251 C 
ATOM      5  H   UNL A   1      31.821  30.622  25.314  1.00  0.00     0.163 HD
BRANCH   4   6
ATOM      6  C   UNL A   1      34.340  30.809  27.490  1.00  0.00     0.039 A 
ATOM      7  C   UNL A   1      34.631  29.534  27.970  1.00  0.00     0.014 A 
ATOM      8  C   UNL A   1      35.283  31.832  27.626  1.00  0.00     0.014 A 
ATOM      9  C   UNL A   1      35.742  29.328  28.770  1.00  0.00     0.010 A 
ATOM     10  C   UNL A   1      36.477  31.584  28.308  1.00  0.00     0.010 A 
ATOM     11  C   UNL A   1      36.699  30.341  28.921  1.00  0.00    -0.014 A 
BRANCH  11  12
ATOM     12  C   UNL A   1      37.966  30.038  29.632  1.00  0.00     0.031 A 
ATOM     13  C   UNL A   1      38.985  29.105  29.047  1.00  0.00     0.074 A 
ATOM     14  C   UNL A   1      38.173  30.604  30.838  1.00  0.00     0.049 A 
ATOM     15  N   UNL A   1      40.112  28.694  29.566  1.00  0.00    -0.248 NA
ATOM     16  C   UNL A   1      38.700  28.549  27.715  1.00  0.00     0.031 C 
ATOM     17  C   UNL A   1      37.231  31.498  31.520  1.00  0.00     0.029 A 
ATOM     18  N   UNL A   1      39.222  30.500  31.714  1.00  0.00    -0.354 N 
ATOM     19  C   UNL A   1      40.645  27.790  28.655  1.00  0.00     0.074 A 
ATOM     20  C   UNL A   1      39.716  27.714  27.548  1.00  0.00     0.031 C 
ATOM     21  C   UNL A   1      37.744  31.863  32.701  1.00  0.00     0.029 A 
ATOM     22  C   UNL A   1      39.010  31.169  32.896  1.00  0.00     0.049 A 
ATOM     23  H   UNL A   1      40.045  29.996  31.516  1.00  0.00     0.167 HD
ATOM     24  C   UNL A   1      41.803  27.092  28.736  1.00  0.00     0.034 A 
ATOM     25  C   UNL A   1      39.722  31.187  34.037  1.00  0.00     0.034 A 
ATOM     26  C   UNL A   1      42.727  27.197  29.835  1.00  0.00     0.049 A 
ATOM     27  C   UNL A   1      41.002  30.412  34.101  1.00  0.00     0.074 A 
ATOM     28  C   UNL A   1      43.965  26.596  29.977  1.00  0.00     0.029 A 
ATOM     29  N   UNL A   1      42.505  27.932  30.991  1.00  0.00    -0.354 N 
ATOM     30  N   UNL A   1      41.554  29.664  33.177  1.00  0.00    -0.248 NA
ATOM     31  C   UNL A   1      41.775  30.504  35.346  1.00  0.00     0.031 C 
ATOM     32  C   UNL A   1      44.473  26.935  31.236  1.00  0.00     0.029 A 
ATOM     33  C   UNL A   1      43.571  27.782  31.861  1.00  0.00     0.049 A 
ATOM     34  H   UNL A   1      41.706  28.479  31.167  1.00  0.00     0.167 HD
ATOM     35  C   UNL A   1      42.750  29.213  33.717  1.00  0.00     0.074 A 
ATOM     36  C   UNL A   1      42.851  29.788  35.045  1.00  0.00     0.031 C 
ATOM     37  C   UNL A   1      43.677  28.393  33.164  1.00  0.00     0.034 A 
BRANCH  24  38
ATOM     38  C   UNL A   1      42.139  26.155  27.604  1.00  0.00     0.023 A 
ATOM     39  C   UNL A   1      42.918  26.607  26.520  1.00  0.00     0.012 A 
ATOM     40  C   UNL A   1      41.713  24.812  27.633  1.00  0.00     0.148 A 
ATOM     41  C   UNL A   1      43.227  25.753  25.461  1.00  0.00     0.002 A 
ATOM     42  C   UNL A   1      42.066  23.954  26.597  1.00  0.00     0.091 A 
ATOM     43  F   UNL A   1      40.957  24.401  28.661  1.00  0.00    -0.205 F 
ATOM     44  C   UNL A   1      42.810  24.427  25.504  1.00  0.00     0.022 A 
BRANCH  42  45
ATOM     45  S   UNL A   1      41.642  22.208  26.605  1.00  0.00     0.127 S 
ATOM     46  O   UNL A   1      42.282  21.744  25.376  1.00  0.00    -0.237 OA
ATOM     47  O   UNL A   1      42.278  21.741  27.838  1.00  0.00    -0.237 OA
ATOM     48  O   UNL A   1      40.186  22.152  26.617  1.00  0.00    -0.744 OA
ENDBRANCH  42  45
ENDBRANCH  24  38
BRANCH  25  49
ATOM     49  C   UNL A   1      39.213  31.974  35.193  1.00  0.00     0.023 A 
ATOM     50  C   UNL A   1      38.367  31.363  36.136  1.00  0.00     0.012 A 
ATOM     51  C   UNL A   1      39.652  33.296  35.411  1.00  0.00     0.148 A 
ATOM     52  C   UNL A   1      37.957  32.060  37.273  1.00  0.00     0.002 A 
ATOM     53  C   UNL A   1      39.289  33.962  36.573  1.00  0.00     0.091 A 
ATOM     54  F   UNL A   1      40.456  33.855  34.496  1.00  0.00    -0.205 F 
ATOM     55  C   UNL A   1      38.428  33.352  37.499  1.00  0.00     0.022 A 
BRANCH  53  56
ATOM     56  S   UNL A   1      39.972  35.561  37.021  1.00  0.00     0.127 S 
ATOM     57  O   UNL A   1      39.278  35.839  38.277  1.00  0.00    -0.237 OA
ATOM     58  O   UNL A   1      41.395  35.251  37.158  1.00  0.00    -0.237 OA
ATOM     59  O   UNL A   1      39.653  36.453  35.915  1.00  0.00    -0.744 OA
ENDBRANCH  53  56
ENDBRANCH  25  49
BRANCH  37  60
ATOM     60  C   UNL A   1      44.911  28.091  33.969  1.00  0.00     0.023 A 
ATOM     61  C   UNL A   1      46.020  28.958  33.912  1.00  0.00     0.012 A 
ATOM     62  C   UNL A   1      44.927  27.000  34.860  1.00  0.00     0.148 A 
ATOM     63  C   UNL A   1      47.135  28.730  34.718  1.00  0.00     0.002 A 
ATOM     64  C   UNL A   1      46.019  26.810  35.696  1.00  0.00     0.091 A 
ATOM     65  F   UNL A   1      43.867  26.179  34.881  1.00  0.00    -0.205 F 
ATOM     66  C   UNL A   1      47.129  27.668  35.619  1.00  0.00     0.022 A 
BRANCH  64  67
ATOM     67  S   UNL A   1      46.057  25.532  36.957  1.00  0.00     0.127 S 
ATOM     68  O   UNL A   1      44.915  25.903  37.791  1.00  0.00    -0.237 OA
ATOM     69  O   UNL A   1      45.869  24.315  36.168  1.00  0.00    -0.237 OA
ATOM     70  O   UNL A   1      47.358  25.641  37.605  1.00  0.00    -0.744 OA
ENDBRANCH  64  67
ENDBRANCH  37  60
ENDBRANCH  11  12
ENDBRANCH   4   6
ENDBRANCH   1   2
BRANCH   1  71
ATOM     71  C   UNL A   1      33.277  28.980  23.794  1.00  0.00     0.042 C 
BRANCH  71  72
ATOM     72  C   UNL A   1      32.273  28.093  23.095  1.00  0.00     0.117 C 
BRANCH  72  73
ATOM     73  N   UNL A   1      32.831  27.260  22.036  1.00  0.00    -0.355 N 
ATOM     74  C   UNL A   1      32.854  25.903  21.873  1.00  0.00     0.232 C 
ATOM     75  H   UNL A   1      33.269  27.764  21.312  1.00  0.00     0.163 HD
ATOM     76  O   UNL A   1      33.278  25.498  20.786  1.00  0.00    -0.274 OA
BRANCH  74  77
ATOM     77  C   UNL A   1      32.443  24.928  23.003  1.00  0.00     0.102 C 
ATOM     78  C   UNL A   1      33.154  25.428  24.293  1.00  0.00     0.029 C 
ATOM     79  C   UNL A   1      30.898  24.932  23.128  1.00  0.00     0.277 C 
ATOM     80  C   UNL A   1      32.469  25.031  25.596  1.00  0.00     0.063 C 
ATOM     81  N   UNL A   1      30.378  24.501  24.421  1.00  0.00    -0.345 N 
ATOM     82  C   UNL A   1      30.960  25.217  25.545  1.00  0.00     0.260 C 
ATOM     83  H   UNL A   1      29.370  24.649  24.431  1.00  0.00     0.346 HD
ATOM     84  H   UNL A   1      30.625  23.517  24.532  1.00  0.00     0.346 HD
BRANCH  77  85
ATOM     85  C   UNL A   1      32.973  23.485  22.582  1.00  0.00     0.059 C 
BRANCH  85  86
ATOM     86  C   UNL A   1      33.272  22.479  23.687  1.00  0.00    -0.036 A 
ATOM     87  C   UNL A   1      32.228  21.668  24.145  1.00  0.00     0.024 A 
ATOM     88  C   UNL A   1      34.587  22.216  24.156  1.00  0.00     0.003 A 
ATOM     89  C   UNL A   1      32.539  20.563  24.913  1.00  0.00     0.112 A 
ATOM     90  C   UNL A   1      34.804  20.984  24.806  1.00  0.00     0.070 A 
ATOM     91  C   UNL A   1      35.697  23.071  23.952  1.00  0.00     0.010 A 
ATOM     92  N   UNL A   1      33.800  20.184  25.205  1.00  0.00    -0.256 NA
ATOM     93  C   UNL A   1      36.115  20.561  25.001  1.00  0.00     0.029 A 
ATOM     94  C   UNL A   1      37.002  22.629  24.159  1.00  0.00     0.001 A 
ATOM     95  C   UNL A   1      37.212  21.348  24.642  1.00  0.00     0.002 A 
ENDBRANCH  85  86
ENDBRANCH  77  85
ENDBRANCH  74  77
ENDBRANCH  72  73
ENDBRANCH  71  72
ENDBRANCH   1  71
TORSDOF 15
ENDMDL
MODEL 2
REMARK VINA RESULT:     -12.7      1.320      7.648
REMARK SMILES O=C(NCCCNC(=O)[C@@]1(Cc2ccnc3ccccc23)CCC[NH2+]C1)c1ccc(-c2c3nc(c(-c4cccc(S(=O)(=O)[O-])c4F)c4ccc([nH]4)c(-c4cccc(S(=O)(=O)[O-])c4F)c4nc(c(-c5cccc(S(=O)(=O)[O-])c5F)c5ccc2[nH]5)C=C4)C=C3)cc1
REMARK SMILES IDX 4 1 3 2 1 3 2 4 27 6 28 7 89 8 29 9 88 10 30 11 31 12 32 13
REMARK SMILES IDX 82 14 33 15 87 16 81 17 83 18 34 19 86 20 80 21 79 22 35 24
REMARK SMILES IDX 67 25 47 26 66 27 48 28 51 29 65 30 84 31 49 32 50 33 64 35
REMARK SMILES IDX 85 36 52 37 36 38 37 39 45 40 38 41 40 42 46 43 39 44 41 45
REMARK SMILES IDX 42 46 43 47 44 48 68 49 69 50 77 51 70 52 72 53 78 54 71 55
REMARK SMILES IDX 73 56 74 57 75 58 76 59 53 60 54 61 62 62 55 63 57 64 63 65
REMARK SMILES IDX 56 66 58 67 59 68 60 69 61 70 5 71 6 72 7 73 8 74 9 76 10 77
REMARK SMILES IDX 22 78 26 79 23 80 25 81 24 82 11 85 12 86 13 87 21 88 14 89
REMARK SMILES IDX 16 90 20 91 15 92 17 93 19 94 18 95
REMARK H PARENT 3 5 83 23 51 34 7 75 25 83 25 84
REMARK Flexibility Score: inf
ROOT
ATOM      1  C   UNL A   1      33.078  29.265  24.917  1.00  0.00     0.118 C 
ENDROOT
BRANCH   1   2
ATOM      2  N   UNL A   1      32.524  30.462  25.535  1.00  0.00    -0.352 N 
ATOM      3  O   UNL A   1      32.128  31.993  27.130  1.00  0.00    -0.269 OA
ATOM      4  C   UNL A   1      32.869  31.121  26.695  1.00  0.00     0.251 C 
ATOM      5  H   UNL A   1      31.776  30.869  25.041  1.00  0.00     0.163 HD
BRANCH   4   6
ATOM      6  C   UNL A   1      34.101  30.747  27.427  1.00  0.00     0.039 A 
ATOM      7  C   UNL A   1      34.282  29.450  27.900  1.00  0.00     0.014 A 
ATOM      8  C   UNL A   1      35.100  31.704  27.630  1.00  0.00     0.014 A 
ATOM      9  C   UNL A   1      35.333  29.160  28.755  1.00  0.00     0.010 A 
ATOM     10  C   UNL A   1      36.238  31.368  28.370  1.00  0.00     0.010 A 
ATOM     11  C   UNL A   1      36.345  30.104  28.972  1.00  0.00    -0.014 A 
BRANCH  11  12
ATOM     12  C   UNL A   1      37.549  29.709  29.744  1.00  0.00     0.031 A 
ATOM     13  C   UNL A   1      37.806  30.252  31.119  1.00  0.00     0.074 A 
ATOM     14  C   UNL A   1      38.429  28.865  29.169  1.00  0.00     0.049 A 
ATOM     15  N   UNL A   1      38.836  30.051  31.899  1.00  0.00    -0.248 NA
ATOM     16  C   UNL A   1      36.786  31.145  31.690  1.00  0.00     0.031 C 
ATOM     17  C   UNL A   1      38.298  28.307  27.819  1.00  0.00     0.029 A 
ATOM     18  N   UNL A   1      39.612  28.347  29.628  1.00  0.00    -0.354 N 
ATOM     19  C   UNL A   1      38.619  30.833  33.027  1.00  0.00     0.074 A 
ATOM     20  C   UNL A   1      37.356  31.512  32.829  1.00  0.00     0.031 C 
ATOM     21  C   UNL A   1      39.352  27.523  27.562  1.00  0.00     0.029 A 
ATOM     22  C   UNL A   1      40.270  27.586  28.690  1.00  0.00     0.049 A 
ATOM     23  H   UNL A   1      39.956  28.505  30.536  1.00  0.00     0.167 HD
ATOM     24  C   UNL A   1      39.401  30.968  34.125  1.00  0.00     0.034 A 
ATOM     25  C   UNL A   1      41.499  27.039  28.707  1.00  0.00     0.034 A 
ATOM     26  C   UNL A   1      40.643  30.267  34.315  1.00  0.00     0.049 A 
ATOM     27  C   UNL A   1      42.343  27.196  29.934  1.00  0.00     0.074 A 
ATOM     28  C   UNL A   1      41.471  30.270  35.424  1.00  0.00     0.029 A 
ATOM     29  N   UNL A   1      41.251  29.457  33.366  1.00  0.00    -0.354 N 
ATOM     30  N   UNL A   1      42.063  27.836  31.043  1.00  0.00    -0.248 NA
ATOM     31  C   UNL A   1      43.655  26.537  29.929  1.00  0.00     0.031 C 
ATOM     32  C   UNL A   1      42.598  29.495  35.130  1.00  0.00     0.029 A 
ATOM     33  C   UNL A   1      42.453  28.973  33.853  1.00  0.00     0.049 A 
ATOM     34  H   UNL A   1      40.881  29.256  32.476  1.00  0.00     0.167 HD
ATOM     35  C   UNL A   1      43.152  27.637  31.881  1.00  0.00     0.074 A 
ATOM     36  C   UNL A   1      44.090  26.803  31.154  1.00  0.00     0.031 C 
ATOM     37  C   UNL A   1      43.357  28.109  33.135  1.00  0.00     0.034 A 
BRANCH  24  38
ATOM     38  C   UNL A   1      38.934  31.907  35.208  1.00  0.00     0.023 A 
ATOM     39  C   UNL A   1      39.064  33.300  35.040  1.00  0.00     0.012 A 
ATOM     40  C   UNL A   1      38.331  31.408  36.380  1.00  0.00     0.148 A 
ATOM     41  C   UNL A   1      38.645  34.179  36.039  1.00  0.00     0.002 A 
ATOM     42  C   UNL A   1      37.873  32.293  37.350  1.00  0.00     0.091 A 
ATOM     43  F   UNL A   1      38.232  30.080  36.535  1.00  0.00    -0.205 F 
ATOM     44  C   UNL A   1      38.043  33.677  37.188  1.00  0.00     0.022 A 
BRANCH  42  45
ATOM     45  S   UNL A   1      37.011  31.741  38.827  1.00  0.00     0.127 S 
ATOM     46  O   UNL A   1      38.024  31.960  39.858  1.00  0.00    -0.237 OA
ATOM     47  O   UNL A   1      35.874  32.661  38.885  1.00  0.00    -0.237 OA
ATOM     48  O   UNL A   1      36.652  30.350  38.582  1.00  0.00    -0.744 OA
ENDBRANCH  42  45
ENDBRANCH  24  38
BRANCH  25  49
ATOM     49  C   UNL A   1      41.975  26.299  27.506  1.00  0.00     0.023 A 
ATOM     50  C   UNL A   1      42.752  26.961  26.540  1.00  0.00     0.012 A 
ATOM     51  C   UNL A   1      41.743  24.914  27.378  1.00  0.00     0.148 A 
ATOM     52  C   UNL A   1      43.282  26.259  25.457  1.00  0.00     0.002 A 
ATOM     53  C   UNL A   1      42.324  24.210  26.332  1.00  0.00     0.091 A 
ATOM     54  F   UNL A   1      40.997  24.308  28.312  1.00  0.00    -0.205 F 
ATOM     55  C   UNL A   1      43.081  24.883  25.361  1.00  0.00     0.022 A 
BRANCH  53  56
ATOM     56  S   UNL A   1      42.249  22.420  26.216  1.00  0.00     0.127 S 
ATOM     57  O   UNL A   1      40.809  22.188  26.123  1.00  0.00    -0.237 OA
ATOM     58  O   UNL A   1      42.995  22.169  24.982  1.00  0.00    -0.237 OA
ATOM     59  O   UNL A   1      42.892  21.916  27.421  1.00  0.00    -0.744 OA
ENDBRANCH  53  56
ENDBRANCH  25  49
BRANCH  37  60
ATOM     60  C   UNL A   1      44.628  27.707  33.832  1.00  0.00     0.023 A 
ATOM     61  C   UNL A   1      45.768  28.530  33.753  1.00  0.00     0.012 A 
ATOM     62  C   UNL A   1      44.655  26.560  34.650  1.00  0.00     0.148 A 
ATOM     63  C   UNL A   1      46.923  28.206  34.463  1.00  0.00     0.002 A 
ATOM     64  C   UNL A   1      45.790  26.272  35.394  1.00  0.00     0.091 A 
ATOM     65  F   UNL A   1      43.564  25.782  34.692  1.00  0.00    -0.205 F 
ATOM     66  C   UNL A   1      46.929  27.088  35.295  1.00  0.00     0.022 A 
BRANCH  64  67
ATOM     67  S   UNL A   1      45.856  24.914  36.567  1.00  0.00     0.127 S 
ATOM     68  O   UNL A   1      44.752  25.244  37.467  1.00  0.00    -0.237 OA
ATOM     69  O   UNL A   1      45.619  23.753  35.708  1.00  0.00    -0.237 OA
ATOM     70  O   UNL A   1      47.182  24.963  37.170  1.00  0.00    -0.744 OA
ENDBRANCH  64  67
ENDBRANCH  37  60
ENDBRANCH  11  12
ENDBRANCH   4   6
ENDBRANCH   1   2
BRANCH   1  71
ATOM     71  C   UNL A   1      32.701  29.128  23.455  1.00  0.00     0.042 C 
BRANCH  71  72
ATOM     72  C   UNL A   1      32.017  27.820  23.130  1.00  0.00     0.117 C 
BRANCH  72  73
ATOM     73  N   UNL A   1      32.666  27.039  22.083  1.00  0.00    -0.355 N 
ATOM     74  C   UNL A   1      32.794  25.689  21.913  1.00  0.00     0.232 C 
ATOM     75  H   UNL A   1      33.084  27.579  21.375  1.00  0.00     0.163 HD
ATOM     76  O   UNL A   1      33.278  25.325  20.836  1.00  0.00    -0.274 OA
BRANCH  74  77
ATOM     77  C   UNL A   1      32.426  24.677  23.025  1.00  0.00     0.102 C 
ATOM     78  C   UNL A   1      33.112  25.188  24.325  1.00  0.00     0.029 C 
ATOM     79  C   UNL A   1      30.882  24.610  23.147  1.00  0.00     0.277 C 
ATOM     80  C   UNL A   1      32.443  24.738  25.620  1.00  0.00     0.063 C 
ATOM     81  N   UNL A   1      30.380  24.135  24.432  1.00  0.00    -0.345 N 
ATOM     82  C   UNL A   1      30.927  24.857  25.569  1.00  0.00     0.260 C 
ATOM     83  H   UNL A   1      29.366  24.237  24.441  1.00  0.00     0.346 HD
ATOM     84  H   UNL A   1      30.671  23.161  24.526  1.00  0.00     0.346 HD
BRANCH  77  85
ATOM     85  C   UNL A   1      33.022  23.267  22.582  1.00  0.00     0.059 C 
BRANCH  85  86
ATOM     86  C   UNL A   1      33.335  22.246  23.668  1.00  0.00    -0.036 A 
ATOM     87  C   UNL A   1      32.315  21.383  24.082  1.00  0.00     0.024 A 
ATOM     88  C   UNL A   1      34.650  22.023  24.161  1.00  0.00     0.003 A 
ATOM     89  C   UNL A   1      32.653  20.273  24.830  1.00  0.00     0.112 A 
ATOM     90  C   UNL A   1      34.901  20.784  24.786  1.00  0.00     0.070 A 
ATOM     91  C   UNL A   1      35.729  22.926  24.005  1.00  0.00     0.010 A 
ATOM     92  N   UNL A   1      33.920  19.935  25.141  1.00  0.00    -0.256 NA
ATOM     93  C   UNL A   1      36.222  20.409  25.001  1.00  0.00     0.029 A 
ATOM     94  C   UNL A   1      37.045  22.531  24.231  1.00  0.00     0.001 A 
ATOM     95  C   UNL A   1      37.295  21.247  24.687  1.00  0.00     0.002 A 
ENDBRANCH  85  86
ENDBRANCH  77  85
ENDBRANCH  74  77
ENDBRANCH  72  73
ENDBRANCH  71  72
ENDBRANCH   1  71
TORSDOF 15
ENDMDL
MODEL 3
REMARK VINA RESULT:     -12.7      1.952      7.949
REMARK SMILES O=C(NCCCNC(=O)[C@@]1(Cc2ccnc3ccccc23)CCC[NH2+]C1)c1ccc(-c2c3nc(c(-c4cccc(S(=O)(=O)[O-])c4F)c4ccc([nH]4)c(-c4cccc(S(=O)(=O)[O-])c4F)c4nc(c(-c5cccc(S(=O)(=O)[O-])c5F)c5ccc2[nH]5)C=C4)C=C3)cc1
REMARK SMILES IDX 4 1 3 2 1 3 2 4 27 6 28 7 89 8 29 9 88 10 30 11 31 12 32 13
REMARK SMILES IDX 82 14 33 15 87 16 81 17 83 18 34 19 86 20 80 21 79 22 35 24
REMARK SMILES IDX 67 25 47 26 66 27 48 28 51 29 65 30 84 31 49 32 50 33 64 35
REMARK SMILES IDX 85 36 52 37 36 38 37 39 45 40 38 41 40 42 46 43 39 44 41 45
REMARK SMILES IDX 42 46 43 47 44 48 68 49 69 50 77 51 70 52 72 53 78 54 71 55
REMARK SMILES IDX 73 56 74 57 75 58 76 59 53 60 54 61 62 62 55 63 57 64 63 65
REMARK SMILES IDX 56 66 58 67 59 68 60 69 61 70 5 71 6 72 7 73 8 74 9 76 10 77
REMARK SMILES IDX 22 78 26 79 23 80 25 81 24 82 11 85 12 86 13 87 21 88 14 89
REMARK SMILES IDX 16 90 20 91 15 92 17 93 19 94 18 95
REMARK H PARENT 3 5 83 23 51 34 7 75 25 83 25 84
REMARK Flexibility Score: inf
ROOT
ATOM      1  C   UNL A   1      34.025  28.685  26.014  1.00  0.00     0.118 C 
ENDROOT
BRANCH   1   2
ATOM      2  N   UNL A   1      33.771  30.033  26.506  1.00  0.00    -0.352 N 
ATOM      3  O   UNL A   1      33.900  31.815  27.866  1.00  0.00    -0.269 OA
ATOM      4  C   UNL A   1      34.416  30.778  27.469  1.00  0.00     0.251 C 
ATOM      5  H   UNL A   1      33.009  30.487  26.079  1.00  0.00     0.163 HD
BRANCH   4   6
ATOM      6  C   UNL A   1      35.697  30.308  28.043  1.00  0.00     0.039 A 
ATOM      7  C   UNL A   1      36.897  30.505  27.363  1.00  0.00     0.014 A 
ATOM      8  C   UNL A   1      35.703  29.674  29.289  1.00  0.00     0.014 A 
ATOM      9  C   UNL A   1      38.056  29.887  27.803  1.00  0.00     0.010 A 
ATOM     10  C   UNL A   1      36.904  29.179  29.806  1.00  0.00     0.010 A 
ATOM     11  C   UNL A   1      38.084  29.247  29.049  1.00  0.00    -0.014 A 
BRANCH  11  12
ATOM     12  C   UNL A   1      39.378  28.751  29.578  1.00  0.00     0.031 A 
ATOM     13  C   UNL A   1      40.085  29.459  30.697  1.00  0.00     0.074 A 
ATOM     14  C   UNL A   1      39.926  27.658  29.011  1.00  0.00     0.049 A 
ATOM     15  N   UNL A   1      41.246  29.188  31.233  1.00  0.00    -0.248 NA
ATOM     16  C   UNL A   1      39.411  30.628  31.283  1.00  0.00     0.031 C 
ATOM     17  C   UNL A   1      39.344  26.913  27.890  1.00  0.00     0.029 A 
ATOM     18  N   UNL A   1      41.095  26.995  29.277  1.00  0.00    -0.354 N 
ATOM     19  C   UNL A   1      41.471  30.181  32.179  1.00  0.00     0.074 A 
ATOM     20  C   UNL A   1      40.323  31.061  32.143  1.00  0.00     0.031 C 
ATOM     21  C   UNL A   1      40.152  25.896  27.567  1.00  0.00     0.029 A 
ATOM     22  C   UNL A   1      41.344  25.964  28.401  1.00  0.00     0.049 A 
ATOM     23  H   UNL A   1      41.696  27.232  30.019  1.00  0.00     0.167 HD
ATOM     24  C   UNL A   1      42.536  30.340  33.000  1.00  0.00     0.034 A 
ATOM     25  C   UNL A   1      42.431  25.186  28.244  1.00  0.00     0.034 A 
ATOM     26  C   UNL A   1      43.660  29.442  33.038  1.00  0.00     0.049 A 
ATOM     27  C   UNL A   1      43.594  25.376  29.168  1.00  0.00     0.074 A 
ATOM     28  C   UNL A   1      44.752  29.466  33.888  1.00  0.00     0.029 A 
ATOM     29  N   UNL A   1      43.851  28.372  32.175  1.00  0.00    -0.354 N 
ATOM     30  N   UNL A   1      43.733  26.242  30.143  1.00  0.00    -0.248 NA
ATOM     31  C   UNL A   1      44.736  24.470  28.996  1.00  0.00     0.031 C 
ATOM     32  C   UNL A   1      45.621  28.436  33.512  1.00  0.00     0.029 A 
ATOM     33  C   UNL A   1      45.052  27.743  32.456  1.00  0.00     0.049 A 
ATOM     34  H   UNL A   1      43.223  28.101  31.466  1.00  0.00     0.167 HD
ATOM     35  C   UNL A   1      44.966  25.971  30.718  1.00  0.00     0.074 A 
ATOM     36  C   UNL A   1      45.528  24.848  29.992  1.00  0.00     0.031 C 
ATOM     37  C   UNL A   1      45.579  26.600  31.751  1.00  0.00     0.034 A 
BRANCH  24  38
ATOM     38  C   UNL A   1      42.536  31.528  33.929  1.00  0.00     0.023 A 
ATOM     39  C   UNL A   1      43.059  32.763  33.496  1.00  0.00     0.012 A 
ATOM     40  C   UNL A   1      41.983  31.429  35.221  1.00  0.00     0.148 A 
ATOM     41  C   UNL A   1      43.073  33.868  34.348  1.00  0.00     0.002 A 
ATOM     42  C   UNL A   1      41.959  32.547  36.048  1.00  0.00     0.091 A 
ATOM     43  F   UNL A   1      41.507  30.243  35.627  1.00  0.00    -0.205 F 
ATOM     44  C   UNL A   1      42.516  33.762  35.619  1.00  0.00     0.022 A 
BRANCH  42  45
ATOM     45  S   UNL A   1      41.188  32.527  37.671  1.00  0.00     0.127 S 
ATOM     46  O   UNL A   1      41.231  33.943  38.034  1.00  0.00    -0.237 OA
ATOM     47  O   UNL A   1      39.850  32.015  37.373  1.00  0.00    -0.237 OA
ATOM     48  O   UNL A   1      42.007  31.643  38.489  1.00  0.00    -0.744 OA
ENDBRANCH  42  45
ENDBRANCH  24  38
BRANCH  25  49
ATOM     49  C   UNL A   1      42.438  24.168  27.159  1.00  0.00     0.023 A 
ATOM     50  C   UNL A   1      43.107  24.438  25.952  1.00  0.00     0.012 A 
ATOM     51  C   UNL A   1      41.871  22.893  27.366  1.00  0.00     0.148 A 
ATOM     52  C   UNL A   1      43.200  23.458  24.962  1.00  0.00     0.002 A 
ATOM     53  C   UNL A   1      42.021  21.905  26.403  1.00  0.00     0.091 A 
ATOM     54  F   UNL A   1      41.238  22.663  28.525  1.00  0.00    -0.205 F 
ATOM     55  C   UNL A   1      42.672  22.190  25.193  1.00  0.00     0.022 A 
BRANCH  53  56
ATOM     56  S   UNL A   1      41.512  20.205  26.678  1.00  0.00     0.127 S 
ATOM     57  O   UNL A   1      40.068  20.352  26.848  1.00  0.00    -0.237 OA
ATOM     58  O   UNL A   1      41.924  19.564  25.429  1.00  0.00    -0.237 OA
ATOM     59  O   UNL A   1      42.243  19.757  27.856  1.00  0.00    -0.744 OA
ENDBRANCH  53  56
ENDBRANCH  25  49
BRANCH  37  60
ATOM     60  C   UNL A   1      46.915  26.071  32.196  1.00  0.00     0.023 A 
ATOM     61  C   UNL A   1      48.100  26.574  31.623  1.00  0.00     0.012 A 
ATOM     62  C   UNL A   1      46.994  25.147  33.256  1.00  0.00     0.148 A 
ATOM     63  C   UNL A   1      49.344  26.149  32.088  1.00  0.00     0.002 A 
ATOM     64  C   UNL A   1      48.236  24.769  33.748  1.00  0.00     0.091 A 
ATOM     65  F   UNL A   1      45.852  24.668  33.770  1.00  0.00    -0.205 F 
ATOM     66  C   UNL A   1      49.412  25.260  33.158  1.00  0.00     0.022 A 
BRANCH  64  67
ATOM     67  S   UNL A   1      48.422  23.709  35.185  1.00  0.00     0.127 S 
ATOM     68  O   UNL A   1      49.875  23.659  35.332  1.00  0.00    -0.237 OA
ATOM     69  O   UNL A   1      47.729  24.473  36.223  1.00  0.00    -0.237 OA
ATOM     70  O   UNL A   1      47.790  22.442  34.840  1.00  0.00    -0.744 OA
ENDBRANCH  64  67
ENDBRANCH  37  60
ENDBRANCH  11  12
ENDBRANCH   4   6
ENDBRANCH   1   2
BRANCH   1  71
ATOM     71  C   UNL A   1      34.075  28.610  24.501  1.00  0.00     0.042 C 
BRANCH  71  72
ATOM     72  C   UNL A   1      32.976  27.761  23.904  1.00  0.00     0.117 C 
BRANCH  72  73
ATOM     73  N   UNL A   1      33.349  27.053  22.685  1.00  0.00    -0.355 N 
ATOM     74  C   UNL A   1      33.119  25.767  22.284  1.00  0.00     0.232 C 
ATOM     75  H   UNL A   1      33.855  27.596  22.040  1.00  0.00     0.163 HD
ATOM     76  O   UNL A   1      33.438  25.500  21.120  1.00  0.00    -0.274 OA
BRANCH  74  77
ATOM     77  C   UNL A   1      32.562  24.687  23.244  1.00  0.00     0.102 C 
ATOM     78  C   UNL A   1      33.147  25.009  24.649  1.00  0.00     0.029 C 
ATOM     79  C   UNL A   1      31.013  24.742  23.211  1.00  0.00     0.277 C 
ATOM     80  C   UNL A   1      32.316  24.495  25.820  1.00  0.00     0.063 C 
ATOM     81  N   UNL A   1      30.347  24.191  24.385  1.00  0.00    -0.345 N 
ATOM     82  C   UNL A   1      30.827  24.750  25.638  1.00  0.00     0.260 C 
ATOM     83  H   UNL A   1      29.348  24.379  24.309  1.00  0.00     0.346 HD
ATOM     84  H   UNL A   1      30.551  23.191  24.404  1.00  0.00     0.346 HD
BRANCH  77  85
ATOM     85  C   UNL A   1      33.090  23.281  22.713  1.00  0.00     0.059 C 
BRANCH  85  86
ATOM     86  C   UNL A   1      33.384  22.192  23.737  1.00  0.00    -0.036 A 
ATOM     87  C   UNL A   1      32.352  21.314  24.087  1.00  0.00     0.024 A 
ATOM     88  C   UNL A   1      34.692  21.926  24.227  1.00  0.00     0.003 A 
ATOM     89  C   UNL A   1      32.673  20.156  24.768  1.00  0.00     0.112 A 
ATOM     90  C   UNL A   1      34.926  20.649  24.776  1.00  0.00     0.070 A 
ATOM     91  C   UNL A   1      35.780  22.827  24.137  1.00  0.00     0.010 A 
ATOM     92  N   UNL A   1      33.935  19.789  25.070  1.00  0.00    -0.256 NA
ATOM     93  C   UNL A   1      36.242  20.248  24.980  1.00  0.00     0.029 A 
ATOM     94  C   UNL A   1      37.091  22.406  24.350  1.00  0.00     0.001 A 
ATOM     95  C   UNL A   1      37.325  21.094  24.728  1.00  0.00     0.002 A 
ENDBRANCH  85  86
ENDBRANCH  77  85
ENDBRANCH  74  77
ENDBRANCH  72  73
ENDBRANCH  71  72
ENDBRANCH   1  71
TORSDOF 15
ENDMDL
