MODEL 1
REMARK VINA RESULT:     -11.8      0.000      0.000
REMARK SMILES C[C@@H](C(=O)NCCCNC(=O)c1ccc(-c2c3nc(c(-c4cccc(S(=O)(=O)[O-])c4F)c4ccc([nH]4)c(-c4cccc(S(=O)(=O)[O-])c4F)c4nc(c(-c5cccc(S(=O)(=O)[O-])c5F)c5ccc2[nH]5)C=C4)C=C3)cc1)c1ccc(Cc2ccco2)cc1F
REMARK SMILES IDX 7 1 6 2 5 3 3 4 4 5 2 7 1 8 75 9 76 10 86 11 77 12 85 13
REMARK SMILES IDX 87 14 78 15 79 16 80 17 81 18 84 19 82 20 83 21 8 22 9 23
REMARK SMILES IDX 10 24 11 26 12 27 13 28 74 29 14 30 73 31 15 32 16 33 17 34
REMARK SMILES IDX 67 35 18 36 72 37 66 38 68 39 19 40 71 41 65 42 64 43 20 45
REMARK SMILES IDX 52 46 32 47 51 48 33 49 36 50 50 51 69 52 34 53 35 54 49 56
REMARK SMILES IDX 70 57 37 58 21 59 22 60 30 61 23 62 25 63 31 64 24 65 26 66
REMARK SMILES IDX 27 67 28 68 29 69 53 70 54 71 62 72 55 73 57 74 63 75 56 76
REMARK SMILES IDX 58 77 59 78 60 79 61 80 38 81 39 82 47 83 40 84 42 85 48 86
REMARK SMILES IDX 41 87 43 88 44 89 45 90 46 91
REMARK H PARENT 5 6 9 25 68 44 36 55
REMARK Flexibility Score: inf
ROOT
ATOM      1  C   UNL A   1      32.664  27.845  26.399  1.00  0.00     0.042 C 
ENDROOT
BRANCH   1   2
ATOM      2  C   UNL A   1      31.276  27.432  25.915  1.00  0.00     0.117 C 
BRANCH   2   3
ATOM      3  N   UNL A   1      30.844  26.188  26.521  1.00  0.00    -0.356 N 
ATOM      4  C   UNL A   1      30.825  24.918  26.028  1.00  0.00     0.227 C 
ATOM      5  O   UNL A   1      30.339  24.054  26.763  1.00  0.00    -0.274 OA
ATOM      6  H   UNL A   1      30.511  26.275  27.444  1.00  0.00     0.163 HD
BRANCH   4   7
ATOM      7  C   UNL A   1      31.416  24.609  24.641  1.00  0.00     0.108 C 
ATOM      8  C   UNL A   1      30.338  24.456  23.564  1.00  0.00     0.023 C 
BRANCH   7   9
ATOM      9  C   UNL A   1      32.292  23.364  24.668  1.00  0.00    -0.000 A 
ATOM     10  C   UNL A   1      31.916  22.197  23.983  1.00  0.00     0.008 A 
ATOM     11  C   UNL A   1      33.489  23.345  25.385  1.00  0.00     0.127 A 
ATOM     12  C   UNL A   1      32.720  21.057  24.018  1.00  0.00     0.005 A 
ATOM     13  C   UNL A   1      34.292  22.204  25.437  1.00  0.00     0.043 A 
ATOM     14  F   UNL A   1      33.897  24.443  26.040  1.00  0.00    -0.207 F 
ATOM     15  C   UNL A   1      33.911  21.040  24.756  1.00  0.00    -0.038 A 
BRANCH  15  16
ATOM     16  C   UNL A   1      34.762  19.792  24.808  1.00  0.00     0.111 C 
BRANCH  16  17
ATOM     17  C   UNL A   1      33.998  18.524  24.624  1.00  0.00     0.108 A 
ATOM     18  C   UNL A   1      34.014  17.524  23.670  1.00  0.00     0.046 A 
ATOM     19  O   UNL A   1      33.097  18.209  25.601  1.00  0.00    -0.469 OA
ATOM     20  C   UNL A   1      33.067  16.557  24.081  1.00  0.00     0.042 A 
ATOM     21  C   UNL A   1      32.537  17.021  25.261  1.00  0.00     0.195 A 
ENDBRANCH  16  17
ENDBRANCH  15  16
ENDBRANCH   7   9
ENDBRANCH   4   7
ENDBRANCH   2   3
ENDBRANCH   1   2
BRANCH   1  22
ATOM     22  C   UNL A   1      33.285  28.995  25.612  1.00  0.00     0.118 C 
BRANCH  22  23
ATOM     23  N   UNL A   1      32.763  30.296  26.007  1.00  0.00    -0.352 N 
ATOM     24  C   UNL A   1      33.248  31.178  26.944  1.00  0.00     0.251 C 
ATOM     25  H   UNL A   1      31.948  30.586  25.537  1.00  0.00     0.163 HD
ATOM     26  O   UNL A   1      32.582  32.158  27.266  1.00  0.00    -0.269 OA
BRANCH  24  27
ATOM     27  C   UNL A   1      34.561  30.932  27.576  1.00  0.00     0.039 A 
ATOM     28  C   UNL A   1      35.502  31.965  27.623  1.00  0.00     0.014 A 
ATOM     29  C   UNL A   1      34.859  29.684  28.128  1.00  0.00     0.014 A 
ATOM     30  C   UNL A   1      36.716  31.768  28.287  1.00  0.00     0.010 A 
ATOM     31  C   UNL A   1      36.034  29.513  28.849  1.00  0.00     0.010 A 
ATOM     32  C   UNL A   1      36.976  30.550  28.934  1.00  0.00    -0.014 A 
BRANCH  32  33
ATOM     33  C   UNL A   1      38.220  30.314  29.711  1.00  0.00     0.031 A 
ATOM     34  C   UNL A   1      39.242  29.341  29.193  1.00  0.00     0.074 A 
ATOM     35  C   UNL A   1      38.357  30.849  30.939  1.00  0.00     0.049 A 
ATOM     36  N   UNL A   1      40.287  28.839  29.796  1.00  0.00    -0.248 NA
ATOM     37  C   UNL A   1      39.035  28.835  27.826  1.00  0.00     0.031 C 
ATOM     38  C   UNL A   1      37.401  31.753  31.579  1.00  0.00     0.029 A 
ATOM     39  N   UNL A   1      39.332  30.667  31.889  1.00  0.00    -0.354 N 
ATOM     40  C   UNL A   1      40.828  27.917  28.908  1.00  0.00     0.074 A 
ATOM     41  C   UNL A   1      39.982  27.914  27.734  1.00  0.00     0.031 C 
ATOM     42  C   UNL A   1      37.821  32.026  32.824  1.00  0.00     0.029 A 
ATOM     43  C   UNL A   1      39.054  31.288  33.084  1.00  0.00     0.049 A 
ATOM     44  H   UNL A   1      40.149  30.142  31.730  1.00  0.00     0.167 HD
ATOM     45  C   UNL A   1      41.939  27.156  29.048  1.00  0.00     0.034 A 
ATOM     46  C   UNL A   1      39.702  31.249  34.266  1.00  0.00     0.034 A 
ATOM     47  C   UNL A   1      42.805  27.206  30.194  1.00  0.00     0.049 A 
ATOM     48  C   UNL A   1      40.969  30.445  34.380  1.00  0.00     0.074 A 
ATOM     49  C   UNL A   1      44.007  26.552  30.394  1.00  0.00     0.029 A 
ATOM     50  N   UNL A   1      42.560  27.952  31.337  1.00  0.00    -0.354 N 
ATOM     51  N   UNL A   1      41.547  29.689  33.479  1.00  0.00    -0.248 NA
ATOM     52  C   UNL A   1      41.693  30.514  35.659  1.00  0.00     0.031 C 
ATOM     53  C   UNL A   1      44.482  26.891  31.665  1.00  0.00     0.029 A 
ATOM     54  C   UNL A   1      43.586  27.774  32.247  1.00  0.00     0.049 A 
ATOM     55  H   UNL A   1      41.772  28.525  31.479  1.00  0.00     0.167 HD
ATOM     56  C   UNL A   1      42.719  29.224  34.063  1.00  0.00     0.074 A 
ATOM     57  C   UNL A   1      42.774  29.790  35.396  1.00  0.00     0.031 C 
ATOM     58  C   UNL A   1      43.659  28.396  33.545  1.00  0.00     0.034 A 
BRANCH  45  59
ATOM     59  C   UNL A   1      42.303  26.243  27.907  1.00  0.00     0.023 A 
ATOM     60  C   UNL A   1      43.151  26.711  26.882  1.00  0.00     0.012 A 
ATOM     61  C   UNL A   1      41.832  24.917  27.858  1.00  0.00     0.148 A 
ATOM     62  C   UNL A   1      43.482  25.893  25.803  1.00  0.00     0.002 A 
ATOM     63  C   UNL A   1      42.205  24.092  26.803  1.00  0.00     0.091 A 
ATOM     64  F   UNL A   1      41.007  24.491  28.827  1.00  0.00    -0.205 F 
ATOM     65  C   UNL A   1      43.017  24.582  25.767  1.00  0.00     0.022 A 
BRANCH  63  66
ATOM     66  S   UNL A   1      41.718  22.365  26.720  1.00  0.00     0.127 S 
ATOM     67  O   UNL A   1      42.482  21.788  27.825  1.00  0.00    -0.237 OA
ATOM     68  O   UNL A   1      40.274  22.434  26.951  1.00  0.00    -0.237 OA
ATOM     69  O   UNL A   1      42.092  21.914  25.387  1.00  0.00    -0.744 OA
ENDBRANCH  63  66
ENDBRANCH  45  59
BRANCH  46  70
ATOM     70  C   UNL A   1      39.184  32.049  35.411  1.00  0.00     0.023 A 
ATOM     71  C   UNL A   1      38.246  31.472  36.286  1.00  0.00     0.012 A 
ATOM     72  C   UNL A   1      39.671  33.344  35.680  1.00  0.00     0.148 A 
ATOM     73  C   UNL A   1      37.787  32.174  37.401  1.00  0.00     0.002 A 
ATOM     74  C   UNL A   1      39.251  34.017  36.820  1.00  0.00     0.091 A 
ATOM     75  F   UNL A   1      40.560  33.875  34.829  1.00  0.00    -0.205 F 
ATOM     76  C   UNL A   1      38.298  33.441  37.675  1.00  0.00     0.022 A 
BRANCH  74  77
ATOM     77  S   UNL A   1      39.954  35.591  37.330  1.00  0.00     0.127 S 
ATOM     78  O   UNL A   1      41.370  35.259  37.456  1.00  0.00    -0.237 OA
ATOM     79  O   UNL A   1      39.621  36.449  36.192  1.00  0.00    -0.237 OA
ATOM     80  O   UNL A   1      39.277  35.945  38.569  1.00  0.00    -0.744 OA
ENDBRANCH  74  77
ENDBRANCH  46  70
BRANCH  58  81
ATOM     81  C   UNL A   1      44.866  28.079  34.387  1.00  0.00     0.023 A 
ATOM     82  C   UNL A   1      45.982  28.937  34.365  1.00  0.00     0.012 A 
ATOM     83  C   UNL A   1      44.841  26.996  35.288  1.00  0.00     0.148 A 
ATOM     84  C   UNL A   1      47.062  28.714  35.220  1.00  0.00     0.002 A 
ATOM     85  C   UNL A   1      45.899  26.807  36.169  1.00  0.00     0.091 A 
ATOM     86  F   UNL A   1      43.775  26.181  35.278  1.00  0.00    -0.205 F 
ATOM     87  C   UNL A   1      47.014  27.659  36.130  1.00  0.00     0.022 A 
BRANCH  85  88
ATOM     88  S   UNL A   1      45.882  25.537  37.440  1.00  0.00     0.127 S 
ATOM     89  O   UNL A   1      47.164  25.763  38.104  1.00  0.00    -0.237 OA
ATOM     90  O   UNL A   1      44.709  25.909  38.233  1.00  0.00    -0.237 OA
ATOM     91  O   UNL A   1      45.760  24.266  36.739  1.00  0.00    -0.744 OA
ENDBRANCH  85  88
ENDBRANCH  58  81
ENDBRANCH  32  33
ENDBRANCH  24  27
ENDBRANCH  22  23
ENDBRANCH   1  22
TORSDOF 16
ENDMDL
MODEL 2
REMARK VINA RESULT:     -11.8      2.465      3.397
REMARK SMILES C[C@@H](C(=O)NCCCNC(=O)c1ccc(-c2c3nc(c(-c4cccc(S(=O)(=O)[O-])c4F)c4ccc([nH]4)c(-c4cccc(S(=O)(=O)[O-])c4F)c4nc(c(-c5cccc(S(=O)(=O)[O-])c5F)c5ccc2[nH]5)C=C4)C=C3)cc1)c1ccc(Cc2ccco2)cc1F
REMARK SMILES IDX 7 1 6 2 5 3 3 4 4 5 2 7 1 8 75 9 76 10 86 11 77 12 85 13
REMARK SMILES IDX 87 14 78 15 79 16 80 17 81 18 84 19 82 20 83 21 8 22 9 23
REMARK SMILES IDX 10 24 11 26 12 27 13 28 74 29 14 30 73 31 15 32 16 33 17 34
REMARK SMILES IDX 67 35 18 36 72 37 66 38 68 39 19 40 71 41 65 42 64 43 20 45
REMARK SMILES IDX 52 46 32 47 51 48 33 49 36 50 50 51 69 52 34 53 35 54 49 56
REMARK SMILES IDX 70 57 37 58 21 59 22 60 30 61 23 62 25 63 31 64 24 65 26 66
REMARK SMILES IDX 27 67 28 68 29 69 53 70 54 71 62 72 55 73 57 74 63 75 56 76
REMARK SMILES IDX 58 77 59 78 60 79 61 80 38 81 39 82 47 83 40 84 42 85 48 86
REMARK SMILES IDX 41 87 43 88 44 89 45 90 46 91
REMARK H PARENT 5 6 9 25 68 44 36 55
REMARK Flexibility Score: inf
ROOT
ATOM      1  C   UNL A   1      31.347  32.305  26.576  1.00  0.00     0.042 C 
ENDROOT
BRANCH   1   2
ATOM      2  C   UNL A   1      31.496  30.924  25.941  1.00  0.00     0.117 C 
BRANCH   2   3
ATOM      3  N   UNL A   1      32.821  30.375  26.154  1.00  0.00    -0.356 N 
ATOM      4  C   UNL A   1      33.250  29.083  26.199  1.00  0.00     0.227 C 
ATOM      5  O   UNL A   1      34.444  28.914  26.461  1.00  0.00    -0.274 OA
ATOM      6  H   UNL A   1      33.527  31.047  26.287  1.00  0.00     0.163 HD
BRANCH   4   7
ATOM      7  C   UNL A   1      32.281  27.926  25.900  1.00  0.00     0.108 C 
ATOM      8  C   UNL A   1      31.491  27.488  27.136  1.00  0.00     0.023 C 
BRANCH   7   9
ATOM      9  C   UNL A   1      33.005  26.725  25.305  1.00  0.00    -0.000 A 
ATOM     10  C   UNL A   1      33.400  25.645  26.109  1.00  0.00     0.008 A 
ATOM     11  C   UNL A   1      33.307  26.673  23.943  1.00  0.00     0.127 A 
ATOM     12  C   UNL A   1      34.069  24.551  25.558  1.00  0.00     0.005 A 
ATOM     13  C   UNL A   1      33.989  25.590  23.387  1.00  0.00     0.043 A 
ATOM     14  F   UNL A   1      32.933  27.676  23.133  1.00  0.00    -0.207 F 
ATOM     15  C   UNL A   1      34.386  24.515  24.194  1.00  0.00    -0.038 A 
BRANCH  15  16
ATOM     16  C   UNL A   1      35.134  23.337  23.611  1.00  0.00     0.111 C 
BRANCH  16  17
ATOM     17  C   UNL A   1      34.638  22.009  24.075  1.00  0.00     0.108 A 
ATOM     18  C   UNL A   1      35.172  21.006  24.861  1.00  0.00     0.046 A 
ATOM     19  O   UNL A   1      33.367  21.672  23.705  1.00  0.00    -0.469 OA
ATOM     20  C   UNL A   1      34.182  20.002  24.966  1.00  0.00     0.042 A 
ATOM     21  C   UNL A   1      33.103  20.455  24.246  1.00  0.00     0.195 A 
ENDBRANCH  16  17
ENDBRANCH  15  16
ENDBRANCH   7   9
ENDBRANCH   4   7
ENDBRANCH   2   3
ENDBRANCH   1   2
BRANCH   1  22
ATOM     22  C   UNL A   1      32.613  32.822  27.254  1.00  0.00     0.118 C 
BRANCH  22  23
ATOM     23  N   UNL A   1      32.446  34.153  27.822  1.00  0.00    -0.352 N 
ATOM     24  C   UNL A   1      33.155  34.762  28.830  1.00  0.00     0.251 C 
ATOM     25  H   UNL A   1      31.723  34.693  27.429  1.00  0.00     0.163 HD
ATOM     26  O   UNL A   1      32.767  35.830  29.296  1.00  0.00    -0.269 OA
BRANCH  24  27
ATOM     27  C   UNL A   1      34.374  34.118  29.365  1.00  0.00     0.039 A 
ATOM     28  C   UNL A   1      35.617  34.440  28.810  1.00  0.00     0.014 A 
ATOM     29  C   UNL A   1      34.289  33.204  30.418  1.00  0.00     0.014 A 
ATOM     30  C   UNL A   1      36.783  33.898  29.360  1.00  0.00     0.010 A 
ATOM     31  C   UNL A   1      35.451  32.723  31.007  1.00  0.00     0.010 A 
ATOM     32  C   UNL A   1      36.709  33.062  30.484  1.00  0.00    -0.014 A 
BRANCH  32  33
ATOM     33  C   UNL A   1      37.921  32.515  31.147  1.00  0.00     0.031 A 
ATOM     34  C   UNL A   1      38.637  31.345  30.532  1.00  0.00     0.074 A 
ATOM     35  C   UNL A   1      38.282  32.965  32.364  1.00  0.00     0.049 A 
ATOM     36  N   UNL A   1      39.578  30.593  31.036  1.00  0.00    -0.248 NA
ATOM     37  C   UNL A   1      38.204  30.944  29.183  1.00  0.00     0.031 C 
ATOM     38  C   UNL A   1      37.623  34.049  33.094  1.00  0.00     0.029 A 
ATOM     39  N   UNL A   1      39.260  32.529  33.224  1.00  0.00    -0.354 N 
ATOM     40  C   UNL A   1      39.810  29.597  30.095  1.00  0.00     0.074 A 
ATOM     41  C   UNL A   1      38.894  29.829  29.000  1.00  0.00     0.031 C 
ATOM     42  C   UNL A   1      38.197  34.176  34.301  1.00  0.00     0.029 A 
ATOM     43  C   UNL A   1      39.237  33.161  34.445  1.00  0.00     0.049 A 
ATOM     44  H   UNL A   1      39.913  31.831  32.989  1.00  0.00     0.167 HD
ATOM     45  C   UNL A   1      40.716  28.592  30.129  1.00  0.00     0.034 A 
ATOM     46  C   UNL A   1      39.952  32.933  35.565  1.00  0.00     0.034 A 
ATOM     47  C   UNL A   1      41.660  28.400  31.197  1.00  0.00     0.049 A 
ATOM     48  C   UNL A   1      40.996  31.851  35.560  1.00  0.00     0.074 A 
ATOM     49  C   UNL A   1      42.685  27.476  31.284  1.00  0.00     0.029 A 
ATOM     50  N   UNL A   1      41.694  29.148  32.364  1.00  0.00    -0.354 N 
ATOM     51  N   UNL A   1      41.303  31.008  34.604  1.00  0.00    -0.248 NA
ATOM     52  C   UNL A   1      41.818  31.708  36.772  1.00  0.00     0.031 C 
ATOM     53  C   UNL A   1      43.330  27.654  32.512  1.00  0.00     0.029 A 
ATOM     54  C   UNL A   1      42.720  28.705  33.179  1.00  0.00     0.049 A 
ATOM     55  H   UNL A   1      41.079  29.886  32.581  1.00  0.00     0.167 HD
ATOM     56  C   UNL A   1      42.375  30.262  35.079  1.00  0.00     0.074 A 
ATOM     57  C   UNL A   1      42.671  30.758  36.408  1.00  0.00     0.031 C 
ATOM     58  C   UNL A   1      43.045  29.252  34.473  1.00  0.00     0.034 A 
BRANCH  45  59
ATOM     59  C   UNL A   1      40.758  27.654  28.952  1.00  0.00     0.023 A 
ATOM     60  C   UNL A   1      39.838  26.587  28.877  1.00  0.00     0.012 A 
ATOM     61  C   UNL A   1      41.687  27.836  27.910  1.00  0.00     0.148 A 
ATOM     62  C   UNL A   1      39.873  25.691  27.811  1.00  0.00     0.002 A 
ATOM     63  C   UNL A   1      41.685  26.965  26.826  1.00  0.00     0.091 A 
ATOM     64  F   UNL A   1      42.573  28.839  28.005  1.00  0.00    -0.205 F 
ATOM     65  C   UNL A   1      40.790  25.884  26.782  1.00  0.00     0.022 A 
BRANCH  63  66
ATOM     66  S   UNL A   1      42.777  27.189  25.417  1.00  0.00     0.127 S 
ATOM     67  O   UNL A   1      42.204  28.374  24.783  1.00  0.00    -0.237 OA
ATOM     68  O   UNL A   1      44.075  27.409  26.057  1.00  0.00    -0.237 OA
ATOM     69  O   UNL A   1      42.688  25.953  24.650  1.00  0.00    -0.744 OA
ENDBRANCH  63  66
ENDBRANCH  45  59
BRANCH  46  70
ATOM     70  C   UNL A   1      39.735  33.798  36.759  1.00  0.00     0.023 A 
ATOM     71  C   UNL A   1      40.075  35.162  36.692  1.00  0.00     0.012 A 
ATOM     72  C   UNL A   1      39.125  33.296  37.926  1.00  0.00     0.148 A 
ATOM     73  C   UNL A   1      39.828  36.010  37.773  1.00  0.00     0.002 A 
ATOM     74  C   UNL A   1      38.834  34.156  38.979  1.00  0.00     0.091 A 
ATOM     75  F   UNL A   1      38.815  31.993  37.969  1.00  0.00    -0.205 F 
ATOM     76  C   UNL A   1      39.198  35.510  38.910  1.00  0.00     0.022 A 
BRANCH  74  77
ATOM     77  S   UNL A   1      37.902  33.636  40.424  1.00  0.00     0.127 S 
ATOM     78  O   UNL A   1      37.868  34.863  41.215  1.00  0.00    -0.237 OA
ATOM     79  O   UNL A   1      36.621  33.250  39.830  1.00  0.00    -0.237 OA
ATOM     80  O   UNL A   1      38.653  32.533  41.004  1.00  0.00    -0.744 OA
ENDBRANCH  74  77
ENDBRANCH  46  70
BRANCH  58  81
ATOM     81  C   UNL A   1      44.208  28.634  35.203  1.00  0.00     0.023 A 
ATOM     82  C   UNL A   1      45.500  29.169  35.046  1.00  0.00     0.012 A 
ATOM     83  C   UNL A   1      43.993  27.600  36.136  1.00  0.00     0.148 A 
ATOM     84  C   UNL A   1      46.566  28.675  35.799  1.00  0.00     0.002 A 
ATOM     85  C   UNL A   1      45.050  27.144  36.915  1.00  0.00     0.091 A 
ATOM     86  F   UNL A   1      42.756  27.093  36.254  1.00  0.00    -0.205 F 
ATOM     87  C   UNL A   1      46.338  27.674  36.741  1.00  0.00     0.022 A 
BRANCH  85  88
ATOM     88  S   UNL A   1      44.832  25.929  38.221  1.00  0.00     0.127 S 
ATOM     89  O   UNL A   1      46.197  25.786  38.725  1.00  0.00    -0.237 OA
ATOM     90  O   UNL A   1      43.913  26.614  39.131  1.00  0.00    -0.237 OA
ATOM     91  O   UNL A   1      44.278  24.744  37.581  1.00  0.00    -0.744 OA
ENDBRANCH  85  88
ENDBRANCH  58  81
ENDBRANCH  32  33
ENDBRANCH  24  27
ENDBRANCH  22  23
ENDBRANCH   1  22
TORSDOF 16
ENDMDL
MODEL 3
REMARK VINA RESULT:     -11.8      4.371     11.024
REMARK SMILES C[C@@H](C(=O)NCCCNC(=O)c1ccc(-c2c3nc(c(-c4cccc(S(=O)(=O)[O-])c4F)c4ccc([nH]4)c(-c4cccc(S(=O)(=O)[O-])c4F)c4nc(c(-c5cccc(S(=O)(=O)[O-])c5F)c5ccc2[nH]5)C=C4)C=C3)cc1)c1ccc(Cc2ccco2)cc1F
REMARK SMILES IDX 7 1 6 2 5 3 3 4 4 5 2 7 1 8 75 9 76 10 86 11 77 12 85 13
REMARK SMILES IDX 87 14 78 15 79 16 80 17 81 18 84 19 82 20 83 21 8 22 9 23
REMARK SMILES IDX 10 24 11 26 12 27 13 28 74 29 14 30 73 31 15 32 16 33 17 34
REMARK SMILES IDX 67 35 18 36 72 37 66 38 68 39 19 40 71 41 65 42 64 43 20 45
REMARK SMILES IDX 52 46 32 47 51 48 33 49 36 50 50 51 69 52 34 53 35 54 49 56
REMARK SMILES IDX 70 57 37 58 21 59 22 60 30 61 23 62 25 63 31 64 24 65 26 66
REMARK SMILES IDX 27 67 28 68 29 69 53 70 54 71 62 72 55 73 57 74 63 75 56 76
REMARK SMILES IDX 58 77 59 78 60 79 61 80 38 81 39 82 47 83 40 84 42 85 48 86
REMARK SMILES IDX 41 87 43 88 44 89 45 90 46 91
REMARK H PARENT 5 6 9 25 68 44 36 55
REMARK Flexibility Score: inf
ROOT
ATOM      1  C   UNL A   1      35.194  34.422  29.015  1.00  0.00     0.042 C 
ENDROOT
BRANCH   1   2
ATOM      2  C   UNL A   1      33.792  34.978  28.783  1.00  0.00     0.117 C 
BRANCH   2   3
ATOM      3  N   UNL A   1      33.603  36.252  29.449  1.00  0.00    -0.356 N 
ATOM      4  C   UNL A   1      33.072  36.548  30.668  1.00  0.00     0.227 C 
ATOM      5  O   UNL A   1      32.984  37.747  30.948  1.00  0.00    -0.274 OA
ATOM      6  H   UNL A   1      33.911  37.033  28.934  1.00  0.00     0.163 HD
BRANCH   4   7
ATOM      7  C   UNL A   1      32.648  35.425  31.630  1.00  0.00     0.108 C 
ATOM      8  C   UNL A   1      31.708  35.920  32.733  1.00  0.00     0.023 C 
BRANCH   7   9
ATOM      9  C   UNL A   1      33.854  34.736  32.256  1.00  0.00    -0.000 A 
ATOM     10  C   UNL A   1      34.075  33.361  32.082  1.00  0.00     0.008 A 
ATOM     11  C   UNL A   1      34.766  35.453  33.032  1.00  0.00     0.127 A 
ATOM     12  C   UNL A   1      35.178  32.735  32.664  1.00  0.00     0.005 A 
ATOM     13  C   UNL A   1      35.864  34.832  33.630  1.00  0.00     0.043 A 
ATOM     14  F   UNL A   1      34.603  36.774  33.211  1.00  0.00    -0.207 F 
ATOM     15  C   UNL A   1      36.079  33.458  33.457  1.00  0.00    -0.038 A 
BRANCH  15  16
ATOM     16  C   UNL A   1      37.256  32.766  34.105  1.00  0.00     0.111 C 
BRANCH  16  17
ATOM     17  C   UNL A   1      37.622  33.310  35.445  1.00  0.00     0.108 A 
ATOM     18  C   UNL A   1      38.564  34.220  35.887  1.00  0.00     0.046 A 
ATOM     19  O   UNL A   1      36.869  32.882  36.502  1.00  0.00    -0.469 OA
ATOM     20  C   UNL A   1      38.384  34.343  37.285  1.00  0.00     0.042 A 
ATOM     21  C   UNL A   1      37.341  33.509  37.609  1.00  0.00     0.195 A 
ENDBRANCH  16  17
ENDBRANCH  15  16
ENDBRANCH   7   9
ENDBRANCH   4   7
ENDBRANCH   2   3
ENDBRANCH   1   2
BRANCH   1  22
ATOM     22  C   UNL A   1      35.590  33.301  28.058  1.00  0.00     0.118 C 
BRANCH  22  23
ATOM     23  N   UNL A   1      34.511  32.350  27.825  1.00  0.00    -0.352 N 
ATOM     24  C   UNL A   1      34.550  30.976  27.828  1.00  0.00     0.251 C 
ATOM     25  H   UNL A   1      33.629  32.747  27.640  1.00  0.00     0.163 HD
ATOM     26  O   UNL A   1      33.575  30.333  27.445  1.00  0.00    -0.269 OA
BRANCH  24  27
ATOM     27  C   UNL A   1      35.773  30.275  28.272  1.00  0.00     0.039 A 
ATOM     28  C   UNL A   1      36.831  30.108  27.373  1.00  0.00     0.014 A 
ATOM     29  C   UNL A   1      35.876  29.790  29.578  1.00  0.00     0.014 A 
ATOM     30  C   UNL A   1      38.022  29.517  27.806  1.00  0.00     0.010 A 
ATOM     31  C   UNL A   1      37.084  29.269  30.025  1.00  0.00     0.010 A 
ATOM     32  C   UNL A   1      38.168  29.124  29.145  1.00  0.00    -0.014 A 
BRANCH  32  33
ATOM     33  C   UNL A   1      39.435  28.555  29.671  1.00  0.00     0.031 A 
ATOM     34  C   UNL A   1      40.176  29.279  30.760  1.00  0.00     0.074 A 
ATOM     35  C   UNL A   1      39.991  27.485  29.071  1.00  0.00     0.049 A 
ATOM     36  N   UNL A   1      41.382  29.073  31.219  1.00  0.00    -0.248 NA
ATOM     37  C   UNL A   1      39.478  30.414  31.388  1.00  0.00     0.031 C 
ATOM     38  C   UNL A   1      39.402  26.738  27.959  1.00  0.00     0.029 A 
ATOM     39  N   UNL A   1      41.203  26.873  29.280  1.00  0.00    -0.354 N 
ATOM     40  C   UNL A   1      41.610  30.084  32.145  1.00  0.00     0.074 A 
ATOM     41  C   UNL A   1      40.426  30.915  32.165  1.00  0.00     0.031 C 
ATOM     42  C   UNL A   1      40.263  25.786  27.565  1.00  0.00     0.029 A 
ATOM     43  C   UNL A   1      41.478  25.878  28.370  1.00  0.00     0.049 A 
ATOM     44  H   UNL A   1      41.815  27.123  30.009  1.00  0.00     0.167 HD
ATOM     45  C   UNL A   1      42.699  30.292  32.922  1.00  0.00     0.034 A 
ATOM     46  C   UNL A   1      42.591  25.142  28.185  1.00  0.00     0.034 A 
ATOM     47  C   UNL A   1      43.850  29.430  32.936  1.00  0.00     0.049 A 
ATOM     48  C   UNL A   1      43.767  25.347  29.100  1.00  0.00     0.074 A 
ATOM     49  C   UNL A   1      44.962  29.493  33.755  1.00  0.00     0.029 A 
ATOM     50  N   UNL A   1      44.036  28.348  32.089  1.00  0.00    -0.354 N 
ATOM     51  N   UNL A   1      43.911  26.217  30.071  1.00  0.00    -0.248 NA
ATOM     52  C   UNL A   1      44.920  24.451  28.922  1.00  0.00     0.031 C 
ATOM     53  C   UNL A   1      45.829  28.457  33.393  1.00  0.00     0.029 A 
ATOM     54  C   UNL A   1      45.245  27.735  32.363  1.00  0.00     0.049 A 
ATOM     55  H   UNL A   1      43.401  28.058  31.395  1.00  0.00     0.167 HD
ATOM     56  C   UNL A   1      45.148  25.950  30.645  1.00  0.00     0.074 A 
ATOM     57  C   UNL A   1      45.712  24.831  29.917  1.00  0.00     0.031 C 
ATOM     58  C   UNL A   1      45.764  26.581  31.674  1.00  0.00     0.034 A 
BRANCH  45  59
ATOM     59  C   UNL A   1      42.670  31.472  33.857  1.00  0.00     0.023 A 
ATOM     60  C   UNL A   1      43.010  32.753  33.374  1.00  0.00     0.012 A 
ATOM     61  C   UNL A   1      42.286  31.324  35.203  1.00  0.00     0.148 A 
ATOM     62  C   UNL A   1      43.016  33.856  34.225  1.00  0.00     0.002 A 
ATOM     63  C   UNL A   1      42.249  32.438  36.035  1.00  0.00     0.091 A 
ATOM     64  F   UNL A   1      41.989  30.097  35.657  1.00  0.00    -0.205 F 
ATOM     65  C   UNL A   1      42.627  33.701  35.552  1.00  0.00     0.022 A 
BRANCH  63  66
ATOM     66  S   UNL A   1      41.681  32.343  37.737  1.00  0.00     0.127 S 
ATOM     67  O   UNL A   1      41.788  33.737  38.164  1.00  0.00    -0.237 OA
ATOM     68  O   UNL A   1      40.308  31.858  37.583  1.00  0.00    -0.237 OA
ATOM     69  O   UNL A   1      42.578  31.406  38.399  1.00  0.00    -0.744 OA
ENDBRANCH  63  66
ENDBRANCH  45  59
BRANCH  46  70
ATOM     70  C   UNL A   1      42.609  24.100  27.119  1.00  0.00     0.023 A 
ATOM     71  C   UNL A   1      43.293  24.357  25.916  1.00  0.00     0.012 A 
ATOM     72  C   UNL A   1      42.023  22.835  27.321  1.00  0.00     0.148 A 
ATOM     73  C   UNL A   1      43.379  23.380  24.924  1.00  0.00     0.002 A 
ATOM     74  C   UNL A   1      42.157  21.848  26.351  1.00  0.00     0.091 A 
ATOM     75  F   UNL A   1      41.372  22.615  28.472  1.00  0.00    -0.205 F 
ATOM     76  C   UNL A   1      42.822  22.123  25.146  1.00  0.00     0.022 A 
BRANCH  74  77
ATOM     77  S   UNL A   1      41.595  20.160  26.604  1.00  0.00     0.127 S 
ATOM     78  O   UNL A   1      42.033  19.511  25.372  1.00  0.00    -0.237 OA
ATOM     79  O   UNL A   1      42.341  19.774  27.803  1.00  0.00    -0.237 OA
ATOM     80  O   UNL A   1      40.154  20.246  26.794  1.00  0.00    -0.744 OA
ENDBRANCH  74  77
ENDBRANCH  46  70
BRANCH  58  81
ATOM     81  C   UNL A   1      47.101  26.059  32.128  1.00  0.00     0.023 A 
ATOM     82  C   UNL A   1      48.285  26.604  31.596  1.00  0.00     0.012 A 
ATOM     83  C   UNL A   1      47.180  25.113  33.170  1.00  0.00     0.148 A 
ATOM     84  C   UNL A   1      49.529  26.206  32.086  1.00  0.00     0.002 A 
ATOM     85  C   UNL A   1      48.420  24.755  33.684  1.00  0.00     0.091 A 
ATOM     86  F   UNL A   1      46.039  24.593  33.648  1.00  0.00    -0.205 F 
ATOM     87  C   UNL A   1      49.596  25.294  33.137  1.00  0.00     0.022 A 
BRANCH  85  88
ATOM     88  S   UNL A   1      48.600  23.665  35.100  1.00  0.00     0.127 S 
ATOM     89  O   UNL A   1      47.832  24.376  36.122  1.00  0.00    -0.237 OA
ATOM     90  O   UNL A   1      47.981  22.429  34.620  1.00  0.00    -0.237 OA
ATOM     91  O   UNL A   1      50.030  23.566  35.354  1.00  0.00    -0.744 OA
ENDBRANCH  85  88
ENDBRANCH  58  81
ENDBRANCH  32  33
ENDBRANCH  24  27
ENDBRANCH  22  23
ENDBRANCH   1  22
TORSDOF 16
ENDMDL
