MODEL 1
REMARK VINA RESULT:     -10.9      0.000      0.000
REMARK SMILES O=C(CNc1cc(N2CCCC2)c2noc3c2c1C(=O)c1ccccc1-3)NCCCNC(=O)c1ccc(-c2c3nc(c(-c4cccc(S(=O)(=O)[O-])c4F)c4ccc([nH]4)c(-c4cccc(S(=O)(=O)[O-])c4F)c4nc(c(-c5cccc(S(=O)(=O)[O-])c5F)c5ccc2[nH]5)C=C4)C=C3)cc1
REMARK SMILES IDX 29 1 28 2 27 3 1 4 2 5 3 7 4 8 5 10 6 11 18 12 7 13 17 14
REMARK SMILES IDX 19 15 13 16 16 17 20 18 21 19 14 20 15 21 26 22 22 23 25 24
REMARK SMILES IDX 23 25 24 26 8 27 9 28 12 29 10 30 11 31 30 32 31 33 32 34
REMARK SMILES IDX 33 36 34 37 35 38 96 39 36 40 95 41 37 42 38 43 39 44 89 45
REMARK SMILES IDX 40 46 94 47 88 48 90 49 41 50 93 51 87 52 86 53 42 55 74 56
REMARK SMILES IDX 54 57 73 58 55 59 58 60 72 61 91 62 56 63 57 64 71 66 92 67
REMARK SMILES IDX 59 68 43 69 44 70 52 71 45 72 47 73 53 74 46 75 48 76 49 77
REMARK SMILES IDX 50 78 51 79 75 80 76 81 84 82 77 83 79 84 85 85 78 86 80 87
REMARK SMILES IDX 81 88 82 89 83 90 60 91 61 92 69 93 62 94 64 95 70 96 63 97
REMARK SMILES IDX 65 98 66 99 67 100 68 101
REMARK H PARENT 27 6 4 9 31 35 90 54 58 65
REMARK Flexibility Score: inf
ROOT
ATOM      1  C   UNL A   1      44.813  33.197  25.786  1.00  0.00     0.042 C 
ENDROOT
BRANCH   1   2
ATOM      2  C   UNL A   1      44.217  31.857  26.213  1.00  0.00     0.117 C 
BRANCH   2   3
ATOM      3  N   UNL A   1      45.125  31.125  27.077  1.00  0.00    -0.355 N 
ATOM      4  O   UNL A   1      46.437  30.146  25.452  1.00  0.00    -0.273 OA
ATOM      5  C   UNL A   1      46.130  30.290  26.630  1.00  0.00     0.239 C 
ATOM      6  H   UNL A   1      45.016  31.232  28.050  1.00  0.00     0.163 HD
BRANCH   5   7
ATOM      7  C   UNL A   1      46.773  29.477  27.768  1.00  0.00     0.213 C 
BRANCH   7   8
ATOM      8  N   UNL A   1      46.699  28.042  27.462  1.00  0.00    -0.375 N 
ATOM      9  H   UNL A   1      47.132  27.744  26.629  1.00  0.00     0.161 HD
BRANCH   8  10
ATOM     10  C   UNL A   1      46.080  27.064  28.227  1.00  0.00     0.049 A 
ATOM     11  C   UNL A   1      45.376  26.059  27.434  1.00  0.00     0.054 A 
ATOM     12  C   UNL A   1      46.159  26.924  29.630  1.00  0.00     0.059 A 
ATOM     13  C   UNL A   1      44.687  24.893  27.902  1.00  0.00     0.069 A 
ATOM     14  C   UNL A   1      45.497  25.779  30.042  1.00  0.00     0.065 A 
ATOM     15  C   UNL A   1      46.727  27.806  30.699  1.00  0.00     0.196 C 
ATOM     16  C   UNL A   1      44.780  24.793  29.311  1.00  0.00     0.138 A 
ATOM     17  C   UNL A   1      45.481  25.408  31.344  1.00  0.00     0.176 A 
ATOM     18  O   UNL A   1      47.122  28.942  30.473  1.00  0.00    -0.288 OA
ATOM     19  C   UNL A   1      46.757  27.296  32.119  1.00  0.00     0.034 A 
ATOM     20  N   UNL A   1      44.313  23.880  30.198  1.00  0.00    -0.077 NA
ATOM     21  O   UNL A   1      44.771  24.265  31.466  1.00  0.00    -0.355 OA
ATOM     22  C   UNL A   1      46.118  26.079  32.444  1.00  0.00     0.032 A 
ATOM     23  C   UNL A   1      47.408  28.030  33.113  1.00  0.00     0.013 A 
ATOM     24  C   UNL A   1      46.148  25.599  33.753  1.00  0.00     0.013 A 
ATOM     25  C   UNL A   1      47.435  27.547  34.422  1.00  0.00     0.001 A 
ATOM     26  C   UNL A   1      46.811  26.336  34.740  1.00  0.00     0.001 A 
BRANCH  13  27
ATOM     27  N   UNL A   1      44.030  24.044  27.055  1.00  0.00    -0.370 N 
ATOM     28  C   UNL A   1      44.495  23.666  25.730  1.00  0.00     0.116 C 
ATOM     29  C   UNL A   1      42.694  23.543  27.342  1.00  0.00     0.116 C 
ATOM     30  C   UNL A   1      43.195  23.401  24.984  1.00  0.00     0.023 C 
ATOM     31  C   UNL A   1      42.290  22.810  26.059  1.00  0.00     0.023 C 
ENDBRANCH  13  27
ENDBRANCH   8  10
ENDBRANCH   7   8
ENDBRANCH   5   7
ENDBRANCH   2   3
ENDBRANCH   1   2
BRANCH   1  32
ATOM     32  C   UNL A   1      43.757  34.218  25.363  1.00  0.00     0.118 C 
BRANCH  32  33
ATOM     33  N   UNL A   1      44.054  35.584  25.766  1.00  0.00    -0.352 N 
ATOM     34  C   UNL A   1      43.996  36.158  27.018  1.00  0.00     0.251 C 
ATOM     35  H   UNL A   1      44.337  36.185  25.040  1.00  0.00     0.163 HD
ATOM     36  O   UNL A   1      44.257  37.342  27.162  1.00  0.00    -0.269 OA
BRANCH  34  37
ATOM     37  C   UNL A   1      43.589  35.325  28.166  1.00  0.00     0.039 A 
ATOM     38  C   UNL A   1      44.553  34.662  28.931  1.00  0.00     0.014 A 
ATOM     39  C   UNL A   1      42.229  35.181  28.447  1.00  0.00     0.014 A 
ATOM     40  C   UNL A   1      44.154  33.748  29.893  1.00  0.00     0.010 A 
ATOM     41  C   UNL A   1      41.828  34.296  29.448  1.00  0.00     0.010 A 
ATOM     42  C   UNL A   1      42.791  33.559  30.149  1.00  0.00    -0.014 A 
BRANCH  42  43
ATOM     43  C   UNL A   1      42.451  32.651  31.249  1.00  0.00     0.031 A 
ATOM     44  C   UNL A   1      41.073  32.835  31.786  1.00  0.00     0.074 A 
ATOM     45  C   UNL A   1      43.039  31.446  31.382  1.00  0.00     0.049 A 
ATOM     46  N   UNL A   1      40.031  32.313  31.212  1.00  0.00    -0.248 NA
ATOM     47  C   UNL A   1      40.755  33.829  32.810  1.00  0.00     0.031 C 
ATOM     48  C   UNL A   1      43.495  30.621  30.255  1.00  0.00     0.029 A 
ATOM     49  N   UNL A   1      43.117  30.613  32.471  1.00  0.00    -0.354 N 
ATOM     50  C   UNL A   1      38.921  32.957  31.721  1.00  0.00     0.074 A 
ATOM     51  C   UNL A   1      39.416  33.869  32.730  1.00  0.00     0.031 C 
ATOM     52  C   UNL A   1      43.612  29.346  30.680  1.00  0.00     0.029 A 
ATOM     53  C   UNL A   1      43.405  29.297  32.122  1.00  0.00     0.049 A 
ATOM     54  H   UNL A   1      42.983  30.915  33.399  1.00  0.00     0.167 HD
ATOM     55  C   UNL A   1      37.662  32.722  31.268  1.00  0.00     0.034 A 
ATOM     56  C   UNL A   1      43.012  28.214  32.848  1.00  0.00     0.034 A 
ATOM     57  C   UNL A   1      37.556  31.737  30.231  1.00  0.00     0.049 A 
ATOM     58  C   UNL A   1      41.544  28.169  32.476  1.00  0.00     0.074 A 
ATOM     59  C   UNL A   1      37.516  31.737  28.853  1.00  0.00     0.029 A 
ATOM     60  N   UNL A   1      37.642  30.409  30.581  1.00  0.00    -0.354 N 
ATOM     61  N   UNL A   1      41.052  27.751  31.336  1.00  0.00    -0.248 NA
ATOM     62  C   UNL A   1      40.625  28.994  33.264  1.00  0.00     0.031 C 
ATOM     63  C   UNL A   1      38.033  30.463  28.453  1.00  0.00     0.029 A 
ATOM     64  C   UNL A   1      38.383  29.775  29.613  1.00  0.00     0.049 A 
ATOM     65  H   UNL A   1      37.246  29.990  31.379  1.00  0.00     0.167 HD
ATOM     66  C   UNL A   1      39.912  28.532  31.121  1.00  0.00     0.074 A 
ATOM     67  C   UNL A   1      39.687  29.245  32.362  1.00  0.00     0.031 C 
ATOM     68  C   UNL A   1      39.318  28.706  29.904  1.00  0.00     0.034 A 
BRANCH  55  69
ATOM     69  C   UNL A   1      36.451  33.300  31.888  1.00  0.00     0.023 A 
ATOM     70  C   UNL A   1      36.147  32.880  33.196  1.00  0.00     0.012 A 
ATOM     71  C   UNL A   1      35.540  34.104  31.183  1.00  0.00     0.148 A 
ATOM     72  C   UNL A   1      34.937  33.223  33.790  1.00  0.00     0.002 A 
ATOM     73  C   UNL A   1      34.331  34.447  31.784  1.00  0.00     0.091 A 
ATOM     74  F   UNL A   1      35.853  34.492  29.938  1.00  0.00    -0.205 F 
ATOM     75  C   UNL A   1      34.026  34.000  33.081  1.00  0.00     0.022 A 
BRANCH  73  76
ATOM     76  S   UNL A   1      33.069  35.437  30.971  1.00  0.00     0.127 S 
ATOM     77  O   UNL A   1      32.788  34.647  29.774  1.00  0.00    -0.237 OA
ATOM     78  O   UNL A   1      31.998  35.436  31.969  1.00  0.00    -0.237 OA
ATOM     79  O   UNL A   1      33.672  36.741  30.730  1.00  0.00    -0.744 OA
ENDBRANCH  73  76
ENDBRANCH  55  69
BRANCH  56  80
ATOM     80  C   UNL A   1      43.534  28.225  34.263  1.00  0.00     0.023 A 
ATOM     81  C   UNL A   1      44.217  29.397  34.680  1.00  0.00     0.012 A 
ATOM     82  C   UNL A   1      43.372  27.204  35.214  1.00  0.00     0.148 A 
ATOM     83  C   UNL A   1      44.595  29.605  36.008  1.00  0.00     0.002 A 
ATOM     84  C   UNL A   1      43.703  27.433  36.552  1.00  0.00     0.091 A 
ATOM     85  F   UNL A   1      42.874  26.023  34.825  1.00  0.00    -0.205 F 
ATOM     86  C   UNL A   1      44.305  28.634  36.952  1.00  0.00     0.022 A 
BRANCH  84  87
ATOM     87  S   UNL A   1      43.297  26.262  37.855  1.00  0.00     0.127 S 
ATOM     88  O   UNL A   1      43.931  26.870  39.026  1.00  0.00    -0.237 OA
ATOM     89  O   UNL A   1      41.838  26.318  37.846  1.00  0.00    -0.237 OA
ATOM     90  O   UNL A   1      43.881  24.995  37.438  1.00  0.00    -0.744 OA
ENDBRANCH  84  87
ENDBRANCH  56  80
BRANCH  68  91
ATOM     91  C   UNL A   1      39.820  27.850  28.781  1.00  0.00     0.023 A 
ATOM     92  C   UNL A   1      39.174  26.624  28.544  1.00  0.00     0.012 A 
ATOM     93  C   UNL A   1      40.840  28.274  27.905  1.00  0.00     0.148 A 
ATOM     94  C   UNL A   1      39.512  25.843  27.440  1.00  0.00     0.002 A 
ATOM     95  C   UNL A   1      41.155  27.504  26.789  1.00  0.00     0.091 A 
ATOM     96  F   UNL A   1      41.462  29.437  28.150  1.00  0.00    -0.205 F 
ATOM     97  C   UNL A   1      40.492  26.288  26.557  1.00  0.00     0.022 A 
BRANCH  95  98
ATOM     98  S   UNL A   1      42.364  28.009  25.559  1.00  0.00     0.127 S 
ATOM     99  O   UNL A   1      43.540  28.295  26.383  1.00  0.00    -0.237 OA
ATOM    100  O   UNL A   1      42.480  26.804  24.738  1.00  0.00    -0.237 OA
ATOM    101  O   UNL A   1      41.802  29.169  24.880  1.00  0.00    -0.744 OA
ENDBRANCH  95  98
ENDBRANCH  68  91
ENDBRANCH  42  43
ENDBRANCH  34  37
ENDBRANCH  32  33
ENDBRANCH   1  32
TORSDOF 16
ENDMDL
MODEL 2
REMARK VINA RESULT:     -10.8      0.982      3.213
REMARK SMILES O=C(CNc1cc(N2CCCC2)c2noc3c2c1C(=O)c1ccccc1-3)NCCCNC(=O)c1ccc(-c2c3nc(c(-c4cccc(S(=O)(=O)[O-])c4F)c4ccc([nH]4)c(-c4cccc(S(=O)(=O)[O-])c4F)c4nc(c(-c5cccc(S(=O)(=O)[O-])c5F)c5ccc2[nH]5)C=C4)C=C3)cc1
REMARK SMILES IDX 29 1 28 2 27 3 1 4 2 5 3 7 4 8 5 10 6 11 18 12 7 13 17 14
REMARK SMILES IDX 19 15 13 16 16 17 20 18 21 19 14 20 15 21 26 22 22 23 25 24
REMARK SMILES IDX 23 25 24 26 8 27 9 28 12 29 10 30 11 31 30 32 31 33 32 34
REMARK SMILES IDX 33 36 34 37 35 38 96 39 36 40 95 41 37 42 38 43 39 44 89 45
REMARK SMILES IDX 40 46 94 47 88 48 90 49 41 50 93 51 87 52 86 53 42 55 74 56
REMARK SMILES IDX 54 57 73 58 55 59 58 60 72 61 91 62 56 63 57 64 71 66 92 67
REMARK SMILES IDX 59 68 43 69 44 70 52 71 45 72 47 73 53 74 46 75 48 76 49 77
REMARK SMILES IDX 50 78 51 79 75 80 76 81 84 82 77 83 79 84 85 85 78 86 80 87
REMARK SMILES IDX 81 88 82 89 83 90 60 91 61 92 69 93 62 94 64 95 70 96 63 97
REMARK SMILES IDX 65 98 66 99 67 100 68 101
REMARK H PARENT 27 6 4 9 31 35 90 54 58 65
REMARK Flexibility Score: inf
ROOT
ATOM      1  C   UNL A   1      45.154  33.136  25.831  1.00  0.00     0.042 C 
ENDROOT
BRANCH   1   2
ATOM      2  C   UNL A   1      44.686  31.815  26.435  1.00  0.00     0.117 C 
BRANCH   2   3
ATOM      3  N   UNL A   1      45.774  31.122  27.101  1.00  0.00    -0.355 N 
ATOM      4  O   UNL A   1      46.450  29.780  25.351  1.00  0.00    -0.273 OA
ATOM      5  C   UNL A   1      46.536  30.126  26.524  1.00  0.00     0.239 C 
ATOM      6  H   UNL A   1      45.981  31.379  28.028  1.00  0.00     0.163 HD
BRANCH   5   7
ATOM      7  C   UNL A   1      47.455  29.421  27.539  1.00  0.00     0.213 C 
BRANCH   7   8
ATOM      8  N   UNL A   1      47.153  27.984  27.574  1.00  0.00    -0.375 N 
ATOM      9  H   UNL A   1      47.343  27.473  26.754  1.00  0.00     0.161 HD
BRANCH   8  10
ATOM     10  C   UNL A   1      46.628  27.274  28.643  1.00  0.00     0.049 A 
ATOM     11  C   UNL A   1      47.042  27.788  29.947  1.00  0.00     0.054 A 
ATOM     12  C   UNL A   1      45.700  26.213  28.568  1.00  0.00     0.059 A 
ATOM     13  C   UNL A   1      46.640  27.327  31.243  1.00  0.00     0.069 A 
ATOM     14  C   UNL A   1      45.323  25.806  29.837  1.00  0.00     0.065 A 
ATOM     15  C   UNL A   1      45.155  25.433  27.412  1.00  0.00     0.196 C 
ATOM     16  C   UNL A   1      45.719  26.258  31.125  1.00  0.00     0.138 A 
ATOM     17  C   UNL A   1      44.399  24.833  30.017  1.00  0.00     0.176 A 
ATOM     18  O   UNL A   1      45.593  25.549  26.275  1.00  0.00    -0.288 OA
ATOM     19  C   UNL A   1      44.064  24.422  27.670  1.00  0.00     0.034 A 
ATOM     20  N   UNL A   1      45.057  25.514  32.046  1.00  0.00    -0.077 NA
ATOM     21  O   UNL A   1      44.221  24.636  31.342  1.00  0.00    -0.355 OA
ATOM     22  C   UNL A   1      43.686  24.116  28.996  1.00  0.00     0.032 A 
ATOM     23  C   UNL A   1      43.434  23.783  26.599  1.00  0.00     0.013 A 
ATOM     24  C   UNL A   1      42.674  23.188  29.240  1.00  0.00     0.013 A 
ATOM     25  C   UNL A   1      42.422  22.855  26.848  1.00  0.00     0.001 A 
ATOM     26  C   UNL A   1      42.042  22.561  28.161  1.00  0.00     0.001 A 
BRANCH  13  27
ATOM     27  N   UNL A   1      47.132  27.871  32.396  1.00  0.00    -0.370 N 
ATOM     28  C   UNL A   1      47.764  27.119  33.468  1.00  0.00     0.116 C 
ATOM     29  C   UNL A   1      46.931  29.271  32.740  1.00  0.00     0.116 C 
ATOM     30  C   UNL A   1      47.434  27.951  34.699  1.00  0.00     0.023 C 
ATOM     31  C   UNL A   1      47.467  29.381  34.172  1.00  0.00     0.023 C 
ENDBRANCH  13  27
ENDBRANCH   8  10
ENDBRANCH   7   8
ENDBRANCH   5   7
ENDBRANCH   2   3
ENDBRANCH   1   2
BRANCH   1  32
ATOM     32  C   UNL A   1      44.003  34.021  25.353  1.00  0.00     0.118 C 
BRANCH  32  33
ATOM     33  N   UNL A   1      44.161  35.431  25.676  1.00  0.00    -0.352 N 
ATOM     34  C   UNL A   1      43.984  36.076  26.882  1.00  0.00     0.251 C 
ATOM     35  H   UNL A   1      44.434  36.008  24.927  1.00  0.00     0.163 HD
ATOM     36  O   UNL A   1      44.136  37.286  26.958  1.00  0.00    -0.269 OA
BRANCH  34  37
ATOM     37  C   UNL A   1      43.582  35.286  28.061  1.00  0.00     0.039 A 
ATOM     38  C   UNL A   1      44.552  34.678  28.864  1.00  0.00     0.014 A 
ATOM     39  C   UNL A   1      42.223  35.125  28.335  1.00  0.00     0.014 A 
ATOM     40  C   UNL A   1      44.162  33.798  29.861  1.00  0.00     0.010 A 
ATOM     41  C   UNL A   1      41.830  34.276  29.370  1.00  0.00     0.010 A 
ATOM     42  C   UNL A   1      42.800  33.592  30.112  1.00  0.00    -0.014 A 
BRANCH  42  43
ATOM     43  C   UNL A   1      42.468  32.725  31.247  1.00  0.00     0.031 A 
ATOM     44  C   UNL A   1      41.086  32.911  31.771  1.00  0.00     0.074 A 
ATOM     45  C   UNL A   1      43.073  31.536  31.433  1.00  0.00     0.049 A 
ATOM     46  N   UNL A   1      40.054  32.352  31.215  1.00  0.00    -0.248 NA
ATOM     47  C   UNL A   1      40.748  33.942  32.750  1.00  0.00     0.031 C 
ATOM     48  C   UNL A   1      43.547  30.671  30.344  1.00  0.00     0.029 A 
ATOM     49  N   UNL A   1      43.157  30.750  32.557  1.00  0.00    -0.354 N 
ATOM     50  C   UNL A   1      38.932  33.000  31.692  1.00  0.00     0.074 A 
ATOM     51  C   UNL A   1      39.409  33.960  32.664  1.00  0.00     0.031 C 
ATOM     52  C   UNL A   1      43.680  29.417  30.822  1.00  0.00     0.029 A 
ATOM     53  C   UNL A   1      43.466  29.425  32.264  1.00  0.00     0.049 A 
ATOM     54  H   UNL A   1      43.014  31.088  33.470  1.00  0.00     0.167 HD
ATOM     55  C   UNL A   1      37.679  32.727  31.243  1.00  0.00     0.034 A 
ATOM     56  C   UNL A   1      43.085  28.368  33.032  1.00  0.00     0.034 A 
ATOM     57  C   UNL A   1      37.592  31.699  30.248  1.00  0.00     0.049 A 
ATOM     58  C   UNL A   1      41.620  28.286  32.657  1.00  0.00     0.074 A 
ATOM     59  C   UNL A   1      37.559  31.641  28.872  1.00  0.00     0.029 A 
ATOM     60  N   UNL A   1      37.695  30.388  30.654  1.00  0.00    -0.354 N 
ATOM     61  N   UNL A   1      41.139  27.813  31.533  1.00  0.00    -0.248 NA
ATOM     62  C   UNL A   1      40.686  29.129  33.406  1.00  0.00     0.031 C 
ATOM     63  C   UNL A   1      38.095  30.359  28.527  1.00  0.00     0.029 A 
ATOM     64  C   UNL A   1      38.450  29.725  29.716  1.00  0.00     0.049 A 
ATOM     65  H   UNL A   1      37.301  29.997  31.466  1.00  0.00     0.167 HD
ATOM     66  C   UNL A   1      39.989  28.569  31.281  1.00  0.00     0.074 A 
ATOM     67  C   UNL A   1      39.748  29.329  32.491  1.00  0.00     0.031 C 
ATOM     68  C   UNL A   1      39.399  28.683  30.055  1.00  0.00     0.034 A 
BRANCH  55  69
ATOM     69  C   UNL A   1      36.456  33.313  31.833  1.00  0.00     0.023 A 
ATOM     70  C   UNL A   1      36.139  32.925  33.148  1.00  0.00     0.012 A 
ATOM     71  C   UNL A   1      35.549  34.093  31.097  1.00  0.00     0.148 A 
ATOM     72  C   UNL A   1      34.920  33.276  33.719  1.00  0.00     0.002 A 
ATOM     73  C   UNL A   1      34.331  34.444  31.674  1.00  0.00     0.091 A 
ATOM     74  F   UNL A   1      35.876  34.451  29.847  1.00  0.00    -0.205 F 
ATOM     75  C   UNL A   1      34.013  34.028  32.979  1.00  0.00     0.022 A 
BRANCH  73  76
ATOM     76  S   UNL A   1      33.074  35.404  30.821  1.00  0.00     0.127 S 
ATOM     77  O   UNL A   1      32.819  34.587  29.636  1.00  0.00    -0.237 OA
ATOM     78  O   UNL A   1      31.986  35.413  31.801  1.00  0.00    -0.237 OA
ATOM     79  O   UNL A   1      33.668  36.709  30.562  1.00  0.00    -0.744 OA
ENDBRANCH  73  76
ENDBRANCH  55  69
BRANCH  56  80
ATOM     80  C   UNL A   1      43.600  28.445  34.448  1.00  0.00     0.023 A 
ATOM     81  C   UNL A   1      43.868  29.742  34.958  1.00  0.00     0.012 A 
ATOM     82  C   UNL A   1      43.799  27.360  35.318  1.00  0.00     0.148 A 
ATOM     83  C   UNL A   1      44.180  29.964  36.300  1.00  0.00     0.002 A 
ATOM     84  C   UNL A   1      44.060  27.586  36.672  1.00  0.00     0.091 A 
ATOM     85  F   UNL A   1      43.710  26.114  34.837  1.00  0.00    -0.205 F 
ATOM     86  C   UNL A   1      44.242  28.885  37.166  1.00  0.00     0.022 A 
BRANCH  84  87
ATOM     87  S   UNL A   1      44.085  26.254  37.880  1.00  0.00     0.127 S 
ATOM     88  O   UNL A   1      42.786  25.617  37.666  1.00  0.00    -0.237 OA
ATOM     89  O   UNL A   1      45.234  25.477  37.424  1.00  0.00    -0.237 OA
ATOM     90  O   UNL A   1      44.238  26.903  39.175  1.00  0.00    -0.744 OA
ENDBRANCH  84  87
ENDBRANCH  56  80
BRANCH  68  91
ATOM     91  C   UNL A   1      39.918  27.788  28.972  1.00  0.00     0.023 A 
ATOM     92  C   UNL A   1      39.333  26.518  28.824  1.00  0.00     0.012 A 
ATOM     93  C   UNL A   1      40.893  28.211  28.044  1.00  0.00     0.148 A 
ATOM     94  C   UNL A   1      39.686  25.691  27.759  1.00  0.00     0.002 A 
ATOM     95  C   UNL A   1      41.221  27.392  26.967  1.00  0.00     0.091 A 
ATOM     96  F   UNL A   1      41.458  29.417  28.203  1.00  0.00    -0.205 F 
ATOM     97  C   UNL A   1      40.618  26.132  26.825  1.00  0.00     0.022 A 
BRANCH  95  98
ATOM     98  S   UNL A   1      42.371  27.885  25.677  1.00  0.00     0.127 S 
ATOM     99  O   UNL A   1      42.410  26.693  24.828  1.00  0.00    -0.237 OA
ATOM    100  O   UNL A   1      41.682  29.030  25.081  1.00  0.00    -0.237 OA
ATOM    101  O   UNL A   1      43.628  28.198  26.343  1.00  0.00    -0.744 OA
ENDBRANCH  95  98
ENDBRANCH  68  91
ENDBRANCH  42  43
ENDBRANCH  34  37
ENDBRANCH  32  33
ENDBRANCH   1  32
TORSDOF 16
ENDMDL
MODEL 3
REMARK VINA RESULT:     -10.7      4.789     10.831
REMARK SMILES O=C(CNc1cc(N2CCCC2)c2noc3c2c1C(=O)c1ccccc1-3)NCCCNC(=O)c1ccc(-c2c3nc(c(-c4cccc(S(=O)(=O)[O-])c4F)c4ccc([nH]4)c(-c4cccc(S(=O)(=O)[O-])c4F)c4nc(c(-c5cccc(S(=O)(=O)[O-])c5F)c5ccc2[nH]5)C=C4)C=C3)cc1
REMARK SMILES IDX 29 1 28 2 27 3 1 4 2 5 3 7 4 8 5 10 6 11 18 12 7 13 17 14
REMARK SMILES IDX 19 15 13 16 16 17 20 18 21 19 14 20 15 21 26 22 22 23 25 24
REMARK SMILES IDX 23 25 24 26 8 27 9 28 12 29 10 30 11 31 30 32 31 33 32 34
REMARK SMILES IDX 33 36 34 37 35 38 96 39 36 40 95 41 37 42 38 43 39 44 89 45
REMARK SMILES IDX 40 46 94 47 88 48 90 49 41 50 93 51 87 52 86 53 42 55 74 56
REMARK SMILES IDX 54 57 73 58 55 59 58 60 72 61 91 62 56 63 57 64 71 66 92 67
REMARK SMILES IDX 59 68 43 69 44 70 52 71 45 72 47 73 53 74 46 75 48 76 49 77
REMARK SMILES IDX 50 78 51 79 75 80 76 81 84 82 77 83 79 84 85 85 78 86 80 87
REMARK SMILES IDX 81 88 82 89 83 90 60 91 61 92 69 93 62 94 64 95 70 96 63 97
REMARK SMILES IDX 65 98 66 99 67 100 68 101
REMARK H PARENT 27 6 4 9 31 35 90 54 58 65
REMARK Flexibility Score: inf
ROOT
ATOM      1  C   UNL A   1      40.207  25.170  26.324  1.00  0.00     0.042 C 
ENDROOT
BRANCH   1   2
ATOM      2  C   UNL A   1      39.886  24.027  27.284  1.00  0.00     0.117 C 
BRANCH   2   3
ATOM      3  N   UNL A   1      38.935  23.096  26.701  1.00  0.00    -0.355 N 
ATOM      4  O   UNL A   1      40.404  21.413  26.128  1.00  0.00    -0.273 OA
ATOM      5  C   UNL A   1      39.274  21.888  26.126  1.00  0.00     0.239 C 
ATOM      6  H   UNL A   1      37.983  23.346  26.718  1.00  0.00     0.163 HD
BRANCH   5   7
ATOM      7  C   UNL A   1      38.091  21.230  25.391  1.00  0.00     0.213 C 
BRANCH   7   8
ATOM      8  N   UNL A   1      37.004  22.203  25.223  1.00  0.00    -0.375 N 
ATOM      9  H   UNL A   1      37.266  23.148  25.131  1.00  0.00     0.161 HD
BRANCH   8  10
ATOM     10  C   UNL A   1      35.646  21.926  25.180  1.00  0.00     0.049 A 
ATOM     11  C   UNL A   1      35.341  20.505  25.024  1.00  0.00     0.054 A 
ATOM     12  C   UNL A   1      34.596  22.854  25.361  1.00  0.00     0.059 A 
ATOM     13  C   UNL A   1      34.054  19.878  25.001  1.00  0.00     0.069 A 
ATOM     14  C   UNL A   1      33.370  22.209  25.350  1.00  0.00     0.065 A 
ATOM     15  C   UNL A   1      34.581  24.347  25.466  1.00  0.00     0.196 C 
ATOM     16  C   UNL A   1      33.030  20.840  25.176  1.00  0.00     0.138 A 
ATOM     17  C   UNL A   1      32.219  22.889  25.557  1.00  0.00     0.176 A 
ATOM     18  O   UNL A   1      35.574  25.032  25.255  1.00  0.00    -0.288 OA
ATOM     19  C   UNL A   1      33.277  25.038  25.784  1.00  0.00     0.034 A 
ATOM     20  N   UNL A   1      31.679  20.740  25.238  1.00  0.00    -0.077 NA
ATOM     21  O   UNL A   1      31.181  22.025  25.493  1.00  0.00    -0.355 OA
ATOM     22  C   UNL A   1      32.077  24.294  25.825  1.00  0.00     0.032 A 
ATOM     23  C   UNL A   1      33.255  26.413  26.031  1.00  0.00     0.013 A 
ATOM     24  C   UNL A   1      30.871  24.925  26.126  1.00  0.00     0.013 A 
ATOM     25  C   UNL A   1      32.046  27.041  26.330  1.00  0.00     0.001 A 
ATOM     26  C   UNL A   1      30.860  26.301  26.380  1.00  0.00     0.001 A 
BRANCH  13  27
ATOM     27  N   UNL A   1      33.900  18.533  24.810  1.00  0.00    -0.370 N 
ATOM     28  C   UNL A   1      34.891  17.660  24.201  1.00  0.00     0.116 C 
ATOM     29  C   UNL A   1      32.639  17.853  25.064  1.00  0.00     0.116 C 
ATOM     30  C   UNL A   1      34.034  16.577  23.561  1.00  0.00     0.023 C 
ATOM     31  C   UNL A   1      32.871  16.434  24.535  1.00  0.00     0.023 C 
ENDBRANCH  13  27
ENDBRANCH   8  10
ENDBRANCH   7   8
ENDBRANCH   5   7
ENDBRANCH   2   3
ENDBRANCH   1   2
BRANCH   1  32
ATOM     32  C   UNL A   1      41.695  25.511  26.271  1.00  0.00     0.118 C 
BRANCH  32  33
ATOM     33  N   UNL A   1      42.025  26.604  25.368  1.00  0.00    -0.352 N 
ATOM     34  C   UNL A   1      41.879  27.963  25.550  1.00  0.00     0.251 C 
ATOM     35  H   UNL A   1      42.407  26.334  24.502  1.00  0.00     0.163 HD
ATOM     36  O   UNL A   1      42.187  28.737  24.658  1.00  0.00    -0.269 OA
BRANCH  34  37
ATOM     37  C   UNL A   1      41.322  28.456  26.824  1.00  0.00     0.039 A 
ATOM     38  C   UNL A   1      39.950  28.694  26.946  1.00  0.00     0.014 A 
ATOM     39  C   UNL A   1      42.190  28.716  27.886  1.00  0.00     0.014 A 
ATOM     40  C   UNL A   1      39.461  29.319  28.082  1.00  0.00     0.010 A 
ATOM     41  C   UNL A   1      41.691  29.303  29.048  1.00  0.00     0.010 A 
ATOM     42  C   UNL A   1      40.332  29.630  29.133  1.00  0.00    -0.014 A 
BRANCH  42  43
ATOM     43  C   UNL A   1      39.725  30.198  30.340  1.00  0.00     0.031 A 
ATOM     44  C   UNL A   1      40.042  29.453  31.591  1.00  0.00     0.074 A 
ATOM     45  C   UNL A   1      39.416  31.507  30.431  1.00  0.00     0.049 A 
ATOM     46  N   UNL A   1      41.158  29.624  32.234  1.00  0.00    -0.248 NA
ATOM     47  C   UNL A   1      39.276  28.287  32.027  1.00  0.00     0.031 C 
ATOM     48  C   UNL A   1      40.171  32.580  29.771  1.00  0.00     0.029 A 
ATOM     49  N   UNL A   1      38.573  32.160  31.296  1.00  0.00    -0.354 N 
ATOM     50  C   UNL A   1      41.298  28.557  33.099  1.00  0.00     0.074 A 
ATOM     51  C   UNL A   1      40.093  27.768  32.957  1.00  0.00     0.031 C 
ATOM     52  C   UNL A   1      39.897  33.743  30.400  1.00  0.00     0.029 A 
ATOM     53  C   UNL A   1      38.840  33.524  31.379  1.00  0.00     0.049 A 
ATOM     54  H   UNL A   1      37.856  31.713  31.802  1.00  0.00     0.167 HD
ATOM     55  C   UNL A   1      42.405  28.370  33.863  1.00  0.00     0.034 A 
ATOM     56  C   UNL A   1      38.588  34.282  32.482  1.00  0.00     0.034 A 
ATOM     57  C   UNL A   1      43.422  29.373  33.729  1.00  0.00     0.049 A 
ATOM     58  C   UNL A   1      39.725  33.832  33.375  1.00  0.00     0.074 A 
ATOM     59  C   UNL A   1      44.571  29.537  32.986  1.00  0.00     0.029 A 
ATOM     60  N   UNL A   1      43.233  30.582  34.358  1.00  0.00    -0.354 N 
ATOM     61  N   UNL A   1      40.982  34.185  33.256  1.00  0.00    -0.248 NA
ATOM     62  C   UNL A   1      39.509  32.633  34.187  1.00  0.00     0.031 C 
ATOM     63  C   UNL A   1      44.747  30.952  32.856  1.00  0.00     0.029 A 
ATOM     64  C   UNL A   1      43.675  31.564  33.505  1.00  0.00     0.049 A 
ATOM     65  H   UNL A   1      42.850  30.718  35.254  1.00  0.00     0.167 HD
ATOM     66  C   UNL A   1      41.716  33.074  33.686  1.00  0.00     0.074 A 
ATOM     67  C   UNL A   1      40.749  32.174  34.280  1.00  0.00     0.031 C 
ATOM     68  C   UNL A   1      43.028  32.854  33.377  1.00  0.00     0.034 A 
BRANCH  55  69
ATOM     69  C   UNL A   1      42.519  27.312  34.889  1.00  0.00     0.023 A 
ATOM     70  C   UNL A   1      41.866  27.545  36.114  1.00  0.00     0.012 A 
ATOM     71  C   UNL A   1      43.357  26.194  34.745  1.00  0.00     0.148 A 
ATOM     72  C   UNL A   1      42.066  26.697  37.199  1.00  0.00     0.002 A 
ATOM     73  C   UNL A   1      43.552  25.347  35.835  1.00  0.00     0.091 A 
ATOM     74  F   UNL A   1      43.966  25.993  33.568  1.00  0.00    -0.205 F 
ATOM     75  C   UNL A   1      42.915  25.604  37.061  1.00  0.00     0.022 A 
BRANCH  73  76
ATOM     76  S   UNL A   1      44.628  23.908  35.787  1.00  0.00     0.127 S 
ATOM     77  O   UNL A   1      44.901  23.687  37.206  1.00  0.00    -0.237 OA
ATOM     78  O   UNL A   1      43.759  22.903  35.170  1.00  0.00    -0.237 OA
ATOM     79  O   UNL A   1      45.780  24.291  34.983  1.00  0.00    -0.744 OA
ENDBRANCH  73  76
ENDBRANCH  55  69
BRANCH  56  80
ATOM     80  C   UNL A   1      37.134  34.280  32.885  1.00  0.00     0.023 A 
ATOM     81  C   UNL A   1      36.856  34.057  34.259  1.00  0.00     0.012 A 
ATOM     82  C   UNL A   1      36.038  34.518  32.039  1.00  0.00     0.148 A 
ATOM     83  C   UNL A   1      35.573  34.202  34.791  1.00  0.00     0.002 A 
ATOM     84  C   UNL A   1      34.766  34.715  32.580  1.00  0.00     0.091 A 
ATOM     85  F   UNL A   1      36.237  34.579  30.717  1.00  0.00    -0.205 F 
ATOM     86  C   UNL A   1      34.532  34.566  33.954  1.00  0.00     0.022 A 
BRANCH  84  87
ATOM     87  S   UNL A   1      33.373  35.260  31.581  1.00  0.00     0.127 S 
ATOM     88  O   UNL A   1      33.442  34.357  30.433  1.00  0.00    -0.237 OA
ATOM     89  O   UNL A   1      32.256  35.017  32.491  1.00  0.00    -0.237 OA
ATOM     90  O   UNL A   1      33.638  36.658  31.270  1.00  0.00    -0.744 OA
ENDBRANCH  84  87
ENDBRANCH  56  80
BRANCH  68  91
ATOM     91  C   UNL A   1      43.756  33.972  32.697  1.00  0.00     0.023 A 
ATOM     92  C   UNL A   1      44.432  34.908  33.501  1.00  0.00     0.012 A 
ATOM     93  C   UNL A   1      43.868  34.060  31.294  1.00  0.00     0.148 A 
ATOM     94  C   UNL A   1      45.229  35.896  32.927  1.00  0.00     0.002 A 
ATOM     95  C   UNL A   1      44.688  35.032  30.727  1.00  0.00     0.091 A 
ATOM     96  F   UNL A   1      43.205  33.174  30.536  1.00  0.00    -0.205 F 
ATOM     97  C   UNL A   1      45.368  35.950  31.543  1.00  0.00     0.022 A 
BRANCH  95  98
ATOM     98  S   UNL A   1      44.977  35.158  28.958  1.00  0.00     0.127 S 
ATOM     99  O   UNL A   1      43.692  35.662  28.471  1.00  0.00    -0.237 OA
ATOM    100  O   UNL A   1      46.070  36.130  28.900  1.00  0.00    -0.237 OA
ATOM    101  O   UNL A   1      45.317  33.818  28.499  1.00  0.00    -0.744 OA
ENDBRANCH  95  98
ENDBRANCH  68  91
ENDBRANCH  42  43
ENDBRANCH  34  37
ENDBRANCH  32  33
ENDBRANCH   1  32
TORSDOF 16
ENDMDL
