MODEL 1
REMARK VINA RESULT:     -12.3      0.000      0.000
REMARK SMILES O=C(NCCCNC(=O)c1cn(C2CN(C(=O)Nc3ccsc3)C2)nn1)c1ccc(-c2c3nc(c(-c4cccc(S(=O)(=O)[O-])c4F)c4ccc([nH]4)c(-c4cccc(S(=O)(=O)[O-])c4F)c4nc(c(-c5cccc(S(=O)(=O)[O-])c5F)c5ccc2[nH]5)C=C4)C=C3)cc1
REMARK SMILES IDX 4 1 3 2 1 3 2 4 27 6 28 7 89 8 29 9 88 10 30 11 31 12 32 13
REMARK SMILES IDX 82 14 33 15 87 16 81 17 83 18 34 19 86 20 80 21 79 22 35 24
REMARK SMILES IDX 67 25 47 26 66 27 48 28 51 29 65 30 84 31 49 32 50 33 64 35
REMARK SMILES IDX 85 36 52 37 36 38 37 39 45 40 38 41 40 42 46 43 39 44 41 45
REMARK SMILES IDX 42 46 43 47 44 48 68 49 69 50 77 51 70 52 72 53 78 54 71 55
REMARK SMILES IDX 73 56 74 57 75 58 76 59 53 60 54 61 62 62 55 63 57 64 63 65
REMARK SMILES IDX 56 66 58 67 59 68 60 69 61 70 5 71 6 72 7 73 8 74 9 76 10 77
REMARK SMILES IDX 11 78 26 79 12 80 25 81 13 82 14 83 24 84 15 85 16 86 17 87
REMARK SMILES IDX 18 88 19 90 20 91 23 92 21 93 22 94
REMARK H PARENT 3 5 83 23 51 34 7 75 18 89
REMARK Flexibility Score: inf
ROOT
ATOM      1  C   UNL A   1      41.718  21.240  27.552  1.00  0.00     0.118 C 
ENDROOT
BRANCH   1   2
ATOM      2  N   UNL A   1      40.428  21.623  27.017  1.00  0.00    -0.352 N 
ATOM      3  O   UNL A   1      38.738  22.734  26.160  1.00  0.00    -0.269 OA
ATOM      4  C   UNL A   1      39.775  22.807  26.826  1.00  0.00     0.251 C 
ATOM      5  H   UNL A   1      39.898  20.848  26.719  1.00  0.00     0.163 HD
BRANCH   4   6
ATOM      6  C   UNL A   1      40.168  24.114  27.418  1.00  0.00     0.039 A 
ATOM      7  C   UNL A   1      41.340  24.371  28.133  1.00  0.00     0.014 A 
ATOM      8  C   UNL A   1      39.222  25.147  27.282  1.00  0.00     0.014 A 
ATOM      9  C   UNL A   1      41.511  25.585  28.792  1.00  0.00     0.010 A 
ATOM     10  C   UNL A   1      39.393  26.365  27.924  1.00  0.00     0.010 A 
ATOM     11  C   UNL A   1      40.518  26.563  28.717  1.00  0.00    -0.014 A 
BRANCH  11  12
ATOM     12  C   UNL A   1      40.764  27.860  29.342  1.00  0.00     0.031 A 
ATOM     13  C   UNL A   1      41.771  28.696  28.622  1.00  0.00     0.074 A 
ATOM     14  C   UNL A   1      40.016  28.319  30.368  1.00  0.00     0.049 A 
ATOM     15  N   UNL A   1      42.869  29.208  29.078  1.00  0.00    -0.248 NA
ATOM     16  C   UNL A   1      41.599  28.867  27.169  1.00  0.00     0.031 C 
ATOM     17  C   UNL A   1      38.821  27.690  30.942  1.00  0.00     0.029 A 
ATOM     18  N   UNL A   1      40.066  29.521  31.012  1.00  0.00    -0.354 N 
ATOM     19  C   UNL A   1      43.403  29.956  28.024  1.00  0.00     0.074 A 
ATOM     20  C   UNL A   1      42.693  29.551  26.844  1.00  0.00     0.031 C 
ATOM     21  C   UNL A   1      38.123  28.614  31.637  1.00  0.00     0.029 A 
ATOM     22  C   UNL A   1      38.876  29.855  31.659  1.00  0.00     0.049 A 
ATOM     23  H   UNL A   1      40.864  30.097  31.020  1.00  0.00     0.167 HD
ATOM     24  C   UNL A   1      44.204  31.035  28.249  1.00  0.00     0.034 A 
ATOM     25  C   UNL A   1      38.494  31.086  32.090  1.00  0.00     0.034 A 
ATOM     26  C   UNL A   1      44.776  30.991  29.571  1.00  0.00     0.049 A 
ATOM     27  C   UNL A   1      39.709  31.924  32.177  1.00  0.00     0.074 A 
ATOM     28  C   UNL A   1      45.590  30.118  30.262  1.00  0.00     0.029 A 
ATOM     29  N   UNL A   1      44.219  31.814  30.516  1.00  0.00    -0.354 N 
ATOM     30  N   UNL A   1      40.669  31.713  33.032  1.00  0.00    -0.248 NA
ATOM     31  C   UNL A   1      40.056  32.733  31.022  1.00  0.00     0.031 C 
ATOM     32  C   UNL A   1      45.104  30.148  31.602  1.00  0.00     0.029 A 
ATOM     33  C   UNL A   1      44.069  31.083  31.660  1.00  0.00     0.049 A 
ATOM     34  H   UNL A   1      43.973  32.760  30.393  1.00  0.00     0.167 HD
ATOM     35  C   UNL A   1      41.827  31.949  32.304  1.00  0.00     0.074 A 
ATOM     36  C   UNL A   1      41.387  32.674  31.112  1.00  0.00     0.031 C 
ATOM     37  C   UNL A   1      42.982  31.281  32.590  1.00  0.00     0.034 A 
BRANCH  24  38
ATOM     38  C   UNL A   1      44.142  32.340  27.467  1.00  0.00     0.023 A 
ATOM     39  C   UNL A   1      45.070  32.490  26.408  1.00  0.00     0.012 A 
ATOM     40  C   UNL A   1      43.479  33.513  27.896  1.00  0.00     0.148 A 
ATOM     41  C   UNL A   1      45.407  33.748  25.892  1.00  0.00     0.002 A 
ATOM     42  C   UNL A   1      43.772  34.754  27.339  1.00  0.00     0.091 A 
ATOM     43  F   UNL A   1      42.634  33.476  28.926  1.00  0.00    -0.205 F 
ATOM     44  C   UNL A   1      44.764  34.882  26.367  1.00  0.00     0.022 A 
BRANCH  42  45
ATOM     45  S   UNL A   1      42.949  36.255  27.892  1.00  0.00     0.127 S 
ATOM     46  O   UNL A   1      41.566  35.800  28.004  1.00  0.00    -0.237 OA
ATOM     47  O   UNL A   1      43.625  36.513  29.164  1.00  0.00    -0.237 OA
ATOM     48  O   UNL A   1      43.213  37.252  26.862  1.00  0.00    -0.744 OA
ENDBRANCH  42  45
ENDBRANCH  24  38
BRANCH  25  49
ATOM     49  C   UNL A   1      37.138  31.688  32.137  1.00  0.00     0.023 A 
ATOM     50  C   UNL A   1      36.601  32.125  33.365  1.00  0.00     0.012 A 
ATOM     51  C   UNL A   1      36.491  32.094  30.949  1.00  0.00     0.148 A 
ATOM     52  C   UNL A   1      35.472  32.955  33.406  1.00  0.00     0.002 A 
ATOM     53  C   UNL A   1      35.363  32.909  30.995  1.00  0.00     0.091 A 
ATOM     54  F   UNL A   1      37.036  31.759  29.772  1.00  0.00    -0.205 F 
ATOM     55  C   UNL A   1      34.857  33.352  32.223  1.00  0.00     0.022 A 
BRANCH  53  56
ATOM     56  S   UNL A   1      34.533  33.477  29.504  1.00  0.00     0.127 S 
ATOM     57  O   UNL A   1      35.591  34.246  28.847  1.00  0.00    -0.237 OA
ATOM     58  O   UNL A   1      34.195  32.218  28.847  1.00  0.00    -0.237 OA
ATOM     59  O   UNL A   1      33.404  34.279  29.957  1.00  0.00    -0.744 OA
ENDBRANCH  53  56
ENDBRANCH  25  49
BRANCH  37  60
ATOM     60  C   UNL A   1      43.041  30.476  33.861  1.00  0.00     0.023 A 
ATOM     61  C   UNL A   1      43.369  31.048  35.109  1.00  0.00     0.012 A 
ATOM     62  C   UNL A   1      42.577  29.152  33.820  1.00  0.00     0.148 A 
ATOM     63  C   UNL A   1      43.255  30.306  36.288  1.00  0.00     0.002 A 
ATOM     64  C   UNL A   1      42.418  28.433  34.997  1.00  0.00     0.091 A 
ATOM     65  F   UNL A   1      42.266  28.628  32.626  1.00  0.00    -0.205 F 
ATOM     66  C   UNL A   1      42.765  29.002  36.233  1.00  0.00     0.022 A 
BRANCH  64  67
ATOM     67  S   UNL A   1      41.669  26.805  35.002  1.00  0.00     0.127 S 
ATOM     68  O   UNL A   1      41.305  26.640  36.409  1.00  0.00    -0.237 OA
ATOM     69  O   UNL A   1      40.535  26.979  34.092  1.00  0.00    -0.237 OA
ATOM     70  O   UNL A   1      42.691  25.890  34.508  1.00  0.00    -0.744 OA
ENDBRANCH  64  67
ENDBRANCH  37  60
ENDBRANCH  11  12
ENDBRANCH   4   6
ENDBRANCH   1   2
BRANCH   1  71
ATOM     71  C   UNL A   1      41.973  19.736  27.562  1.00  0.00     0.042 C 
BRANCH  71  72
ATOM     72  C   UNL A   1      42.200  19.134  26.178  1.00  0.00     0.118 C 
BRANCH  72  73
ATOM     73  N   UNL A   1      43.486  18.464  26.059  1.00  0.00    -0.351 N 
ATOM     74  C   UNL A   1      44.625  18.849  25.383  1.00  0.00     0.273 C 
ATOM     75  H   UNL A   1      43.555  17.605  26.534  1.00  0.00     0.163 HD
ATOM     76  O   UNL A   1      45.546  18.053  25.273  1.00  0.00    -0.267 OA
BRANCH  74  77
ATOM     77  C   UNL A   1      44.674  20.192  24.833  1.00  0.00     0.170 A 
ATOM     78  C   UNL A   1      44.861  21.384  25.504  1.00  0.00     0.145 A 
ATOM     79  N   UNL A   1      44.563  20.453  23.491  1.00  0.00    -0.125 NA
ATOM     80  N   UNL A   1      44.702  22.331  24.539  1.00  0.00    -0.245 N 
ATOM     81  N   UNL A   1      44.571  21.769  23.325  1.00  0.00    -0.066 NA
BRANCH  80  82
ATOM     82  C   UNL A   1      44.749  23.748  24.689  1.00  0.00     0.148 C 
ATOM     83  C   UNL A   1      44.227  24.334  26.015  1.00  0.00     0.150 C 
ATOM     84  C   UNL A   1      46.137  24.217  25.183  1.00  0.00     0.150 C 
ATOM     85  N   UNL A   1      45.393  25.215  25.918  1.00  0.00    -0.320 N 
ATOM     86  C   UNL A   1      45.650  26.340  26.628  1.00  0.00     0.322 C 
ATOM     87  O   UNL A   1      44.810  26.809  27.399  1.00  0.00    -0.248 OA
ATOM     88  N   UNL A   1      46.886  26.906  26.611  1.00  0.00    -0.307 N 
ATOM     89  H   UNL A   1      47.078  27.497  27.375  1.00  0.00     0.171 HD
BRANCH  88  90
ATOM     90  C   UNL A   1      47.919  26.789  25.701  1.00  0.00     0.053 A 
ATOM     91  C   UNL A   1      49.162  26.113  25.874  1.00  0.00     0.038 A 
ATOM     92  C   UNL A   1      47.806  27.292  24.422  1.00  0.00     0.091 A 
ATOM     93  C   UNL A   1      50.027  26.326  24.822  1.00  0.00     0.067 A 
ATOM     94  S   UNL A   1      49.277  27.187  23.550  1.00  0.00    -0.150 S 
ENDBRANCH  88  90
ENDBRANCH  80  82
ENDBRANCH  74  77
ENDBRANCH  72  73
ENDBRANCH  71  72
ENDBRANCH   1  71
TORSDOF 15
ENDMDL
MODEL 2
REMARK VINA RESULT:     -12.2      5.017     10.967
REMARK SMILES O=C(NCCCNC(=O)c1cn(C2CN(C(=O)Nc3ccsc3)C2)nn1)c1ccc(-c2c3nc(c(-c4cccc(S(=O)(=O)[O-])c4F)c4ccc([nH]4)c(-c4cccc(S(=O)(=O)[O-])c4F)c4nc(c(-c5cccc(S(=O)(=O)[O-])c5F)c5ccc2[nH]5)C=C4)C=C3)cc1
REMARK SMILES IDX 4 1 3 2 1 3 2 4 27 6 28 7 89 8 29 9 88 10 30 11 31 12 32 13
REMARK SMILES IDX 82 14 33 15 87 16 81 17 83 18 34 19 86 20 80 21 79 22 35 24
REMARK SMILES IDX 67 25 47 26 66 27 48 28 51 29 65 30 84 31 49 32 50 33 64 35
REMARK SMILES IDX 85 36 52 37 36 38 37 39 45 40 38 41 40 42 46 43 39 44 41 45
REMARK SMILES IDX 42 46 43 47 44 48 68 49 69 50 77 51 70 52 72 53 78 54 71 55
REMARK SMILES IDX 73 56 74 57 75 58 76 59 53 60 54 61 62 62 55 63 57 64 63 65
REMARK SMILES IDX 56 66 58 67 59 68 60 69 61 70 5 71 6 72 7 73 8 74 9 76 10 77
REMARK SMILES IDX 11 78 26 79 12 80 25 81 13 82 14 83 24 84 15 85 16 86 17 87
REMARK SMILES IDX 18 88 19 90 20 91 23 92 21 93 22 94
REMARK H PARENT 3 5 83 23 51 34 7 75 18 89
REMARK Flexibility Score: inf
ROOT
ATOM      1  C   UNL A   1      34.305  29.673  26.403  1.00  0.00     0.118 C 
ENDROOT
BRANCH   1   2
ATOM      2  N   UNL A   1      34.323  30.897  27.176  1.00  0.00    -0.352 N 
ATOM      3  O   UNL A   1      34.938  32.692  28.282  1.00  0.00    -0.269 OA
ATOM      4  C   UNL A   1      35.262  31.560  27.914  1.00  0.00     0.251 C 
ATOM      5  H   UNL A   1      33.454  31.362  27.165  1.00  0.00     0.163 HD
BRANCH   4   6
ATOM      6  C   UNL A   1      36.563  30.995  28.361  1.00  0.00     0.039 A 
ATOM      7  C   UNL A   1      37.604  31.706  28.961  1.00  0.00     0.014 A 
ATOM      8  C   UNL A   1      36.756  29.629  28.080  1.00  0.00     0.014 A 
ATOM      9  C   UNL A   1      38.842  31.104  29.169  1.00  0.00     0.010 A 
ATOM     10  C   UNL A   1      37.982  29.018  28.299  1.00  0.00     0.010 A 
ATOM     11  C   UNL A   1      39.037  29.772  28.800  1.00  0.00    -0.014 A 
BRANCH  11  12
ATOM     12  C   UNL A   1      40.316  29.140  29.113  1.00  0.00     0.031 A 
ATOM     13  C   UNL A   1      40.513  28.863  30.568  1.00  0.00     0.074 A 
ATOM     14  C   UNL A   1      41.152  28.691  28.152  1.00  0.00     0.049 A 
ATOM     15  N   UNL A   1      41.473  29.258  31.341  1.00  0.00    -0.248 NA
ATOM     16  C   UNL A   1      39.426  28.171  31.281  1.00  0.00     0.031 C 
ATOM     17  C   UNL A   1      40.902  28.657  26.707  1.00  0.00     0.029 A 
ATOM     18  N   UNL A   1      42.335  28.022  28.272  1.00  0.00    -0.354 N 
ATOM     19  C   UNL A   1      41.223  28.667  32.584  1.00  0.00     0.074 A 
ATOM     20  C   UNL A   1      39.872  28.184  32.535  1.00  0.00     0.031 C 
ATOM     21  C   UNL A   1      41.752  27.781  26.129  1.00  0.00     0.029 A 
ATOM     22  C   UNL A   1      42.679  27.291  27.134  1.00  0.00     0.049 A 
ATOM     23  H   UNL A   1      42.894  28.053  29.081  1.00  0.00     0.167 HD
ATOM     24  C   UNL A   1      42.231  28.392  33.458  1.00  0.00     0.034 A 
ATOM     25  C   UNL A   1      43.587  26.284  27.049  1.00  0.00     0.034 A 
ATOM     26  C   UNL A   1      43.402  29.178  33.165  1.00  0.00     0.049 A 
ATOM     27  C   UNL A   1      44.474  26.383  28.227  1.00  0.00     0.074 A 
ATOM     28  C   UNL A   1      43.692  30.525  33.102  1.00  0.00     0.029 A 
ATOM     29  N   UNL A   1      44.434  28.540  32.524  1.00  0.00    -0.354 N 
ATOM     30  N   UNL A   1      45.302  27.369  28.423  1.00  0.00    -0.248 NA
ATOM     31  C   UNL A   1      44.125  25.607  29.404  1.00  0.00     0.031 C 
ATOM     32  C   UNL A   1      44.612  30.649  32.018  1.00  0.00     0.029 A 
ATOM     33  C   UNL A   1      44.875  29.368  31.531  1.00  0.00     0.049 A 
ATOM     34  H   UNL A   1      44.792  27.648  32.740  1.00  0.00     0.167 HD
ATOM     35  C   UNL A   1      45.204  27.628  29.783  1.00  0.00     0.074 A 
ATOM     36  C   UNL A   1      44.550  26.449  30.350  1.00  0.00     0.031 C 
ATOM     37  C   UNL A   1      45.392  28.888  30.271  1.00  0.00     0.034 A 
BRANCH  24  38
ATOM     38  C   UNL A   1      42.328  27.126  34.299  1.00  0.00     0.023 A 
ATOM     39  C   UNL A   1      41.910  27.225  35.648  1.00  0.00     0.012 A 
ATOM     40  C   UNL A   1      43.080  25.979  33.954  1.00  0.00     0.148 A 
ATOM     41  C   UNL A   1      42.319  26.303  36.619  1.00  0.00     0.002 A 
ATOM     42  C   UNL A   1      43.433  25.032  34.910  1.00  0.00     0.091 A 
ATOM     43  F   UNL A   1      43.566  25.832  32.722  1.00  0.00    -0.205 F 
ATOM     44  C   UNL A   1      43.091  25.210  36.251  1.00  0.00     0.022 A 
BRANCH  42  45
ATOM     45  S   UNL A   1      44.406  23.579  34.486  1.00  0.00     0.127 S 
ATOM     46  O   UNL A   1      45.636  24.191  33.992  1.00  0.00    -0.237 OA
ATOM     47  O   UNL A   1      44.521  22.910  35.782  1.00  0.00    -0.237 OA
ATOM     48  O   UNL A   1      43.616  22.848  33.505  1.00  0.00    -0.744 OA
ENDBRANCH  42  45
ENDBRANCH  24  38
BRANCH  25  49
ATOM     49  C   UNL A   1      43.562  25.063  26.205  1.00  0.00     0.023 A 
ATOM     50  C   UNL A   1      44.565  24.854  25.235  1.00  0.00     0.012 A 
ATOM     51  C   UNL A   1      42.727  23.974  26.540  1.00  0.00     0.148 A 
ATOM     52  C   UNL A   1      44.743  23.599  24.638  1.00  0.00     0.002 A 
ATOM     53  C   UNL A   1      42.900  22.732  25.936  1.00  0.00     0.091 A 
ATOM     54  F   UNL A   1      41.826  24.131  27.518  1.00  0.00    -0.205 F 
ATOM     55  C   UNL A   1      43.916  22.537  24.992  1.00  0.00     0.022 A 
BRANCH  53  56
ATOM     56  S   UNL A   1      41.882  21.312  26.363  1.00  0.00     0.127 S 
ATOM     57  O   UNL A   1      42.435  20.274  25.491  1.00  0.00    -0.237 OA
ATOM     58  O   UNL A   1      42.181  21.141  27.782  1.00  0.00    -0.237 OA
ATOM     59  O   UNL A   1      40.513  21.693  26.044  1.00  0.00    -0.744 OA
ENDBRANCH  53  56
ENDBRANCH  25  49
BRANCH  37  60
ATOM     60  C   UNL A   1      45.952  29.934  29.343  1.00  0.00     0.023 A 
ATOM     61  C   UNL A   1      47.338  30.101  29.134  1.00  0.00     0.012 A 
ATOM     62  C   UNL A   1      45.051  30.638  28.529  1.00  0.00     0.148 A 
ATOM     63  C   UNL A   1      47.812  30.969  28.146  1.00  0.00     0.002 A 
ATOM     64  C   UNL A   1      45.524  31.461  27.517  1.00  0.00     0.091 A 
ATOM     65  F   UNL A   1      43.738  30.462  28.740  1.00  0.00    -0.205 F 
ATOM     66  C   UNL A   1      46.904  31.638  27.327  1.00  0.00     0.022 A 
BRANCH  64  67
ATOM     67  S   UNL A   1      44.409  32.241  26.350  1.00  0.00     0.127 S 
ATOM     68  O   UNL A   1      43.509  31.141  26.006  1.00  0.00    -0.237 OA
ATOM     69  O   UNL A   1      43.801  33.300  27.158  1.00  0.00    -0.237 OA
ATOM     70  O   UNL A   1      45.245  32.732  25.261  1.00  0.00    -0.744 OA
ENDBRANCH  64  67
ENDBRANCH  37  60
ENDBRANCH  11  12
ENDBRANCH   4   6
ENDBRANCH   1   2
BRANCH   1  71
ATOM     71  C   UNL A   1      33.081  29.512  25.508  1.00  0.00     0.042 C 
BRANCH  71  72
ATOM     72  C   UNL A   1      33.374  28.847  24.166  1.00  0.00     0.118 C 
BRANCH  72  73
ATOM     73  N   UNL A   1      32.169  28.583  23.392  1.00  0.00    -0.351 N 
ATOM     74  C   UNL A   1      31.814  27.471  22.660  1.00  0.00     0.273 C 
ATOM     75  H   UNL A   1      31.506  29.311  23.392  1.00  0.00     0.163 HD
ATOM     76  O   UNL A   1      30.824  27.524  21.944  1.00  0.00    -0.267 OA
BRANCH  74  77
ATOM     77  C   UNL A   1      32.638  26.281  22.777  1.00  0.00     0.170 A 
ATOM     78  C   UNL A   1      32.749  25.420  23.850  1.00  0.00     0.145 A 
ATOM     79  N   UNL A   1      33.438  25.824  21.760  1.00  0.00    -0.125 NA
ATOM     80  N   UNL A   1      33.734  24.557  23.478  1.00  0.00    -0.245 N 
ATOM     81  N   UNL A   1      34.112  24.773  22.206  1.00  0.00    -0.066 NA
BRANCH  80  82
ATOM     82  C   UNL A   1      34.285  23.481  24.234  1.00  0.00     0.148 C 
ATOM     83  C   UNL A   1      34.032  23.486  25.754  1.00  0.00     0.150 C 
ATOM     84  C   UNL A   1      33.355  22.247  24.218  1.00  0.00     0.150 C 
ATOM     85  N   UNL A   1      33.810  22.049  25.576  1.00  0.00    -0.320 N 
ATOM     86  C   UNL A   1      33.737  21.092  26.532  1.00  0.00     0.322 C 
ATOM     87  O   UNL A   1      33.976  21.355  27.713  1.00  0.00    -0.248 OA
ATOM     88  N   UNL A   1      33.272  19.849  26.237  1.00  0.00    -0.307 N 
ATOM     89  H   UNL A   1      32.950  19.336  27.014  1.00  0.00     0.171 HD
BRANCH  88  90
ATOM     90  C   UNL A   1      33.174  19.185  25.029  1.00  0.00     0.053 A 
ATOM     91  C   UNL A   1      32.193  19.366  24.011  1.00  0.00     0.038 A 
ATOM     92  C   UNL A   1      34.128  18.271  24.635  1.00  0.00     0.091 A 
ATOM     93  C   UNL A   1      32.301  18.430  23.005  1.00  0.00     0.067 A 
ATOM     94  S   UNL A   1      33.690  17.454  23.195  1.00  0.00    -0.150 S 
ENDBRANCH  88  90
ENDBRANCH  80  82
ENDBRANCH  74  77
ENDBRANCH  72  73
ENDBRANCH  71  72
ENDBRANCH   1  71
TORSDOF 15
ENDMDL
MODEL 3
REMARK VINA RESULT:     -12.1      1.322      1.716
REMARK SMILES O=C(NCCCNC(=O)c1cn(C2CN(C(=O)Nc3ccsc3)C2)nn1)c1ccc(-c2c3nc(c(-c4cccc(S(=O)(=O)[O-])c4F)c4ccc([nH]4)c(-c4cccc(S(=O)(=O)[O-])c4F)c4nc(c(-c5cccc(S(=O)(=O)[O-])c5F)c5ccc2[nH]5)C=C4)C=C3)cc1
REMARK SMILES IDX 4 1 3 2 1 3 2 4 27 6 28 7 89 8 29 9 88 10 30 11 31 12 32 13
REMARK SMILES IDX 82 14 33 15 87 16 81 17 83 18 34 19 86 20 80 21 79 22 35 24
REMARK SMILES IDX 67 25 47 26 66 27 48 28 51 29 65 30 84 31 49 32 50 33 64 35
REMARK SMILES IDX 85 36 52 37 36 38 37 39 45 40 38 41 40 42 46 43 39 44 41 45
REMARK SMILES IDX 42 46 43 47 44 48 68 49 69 50 77 51 70 52 72 53 78 54 71 55
REMARK SMILES IDX 73 56 74 57 75 58 76 59 53 60 54 61 62 62 55 63 57 64 63 65
REMARK SMILES IDX 56 66 58 67 59 68 60 69 61 70 5 71 6 72 7 73 8 74 9 76 10 77
REMARK SMILES IDX 11 78 26 79 12 80 25 81 13 82 14 83 24 84 15 85 16 86 17 87
REMARK SMILES IDX 18 88 19 90 20 91 23 92 21 93 22 94
REMARK H PARENT 3 5 83 23 51 34 7 75 18 89
REMARK Flexibility Score: inf
ROOT
ATOM      1  C   UNL A   1      41.715  21.308  27.684  1.00  0.00     0.118 C 
ENDROOT
BRANCH   1   2
ATOM      2  N   UNL A   1      40.441  21.671  27.100  1.00  0.00    -0.352 N 
ATOM      3  O   UNL A   1      38.775  22.754  26.162  1.00  0.00    -0.269 OA
ATOM      4  C   UNL A   1      39.792  22.848  26.855  1.00  0.00     0.251 C 
ATOM      5  H   UNL A   1      39.921  20.887  26.810  1.00  0.00     0.163 HD
BRANCH   4   6
ATOM      6  C   UNL A   1      40.166  24.172  27.420  1.00  0.00     0.039 A 
ATOM      7  C   UNL A   1      41.397  24.502  27.993  1.00  0.00     0.014 A 
ATOM      8  C   UNL A   1      39.143  25.140  27.419  1.00  0.00     0.014 A 
ATOM      9  C   UNL A   1      41.565  25.718  28.649  1.00  0.00     0.010 A 
ATOM     10  C   UNL A   1      39.309  26.360  28.058  1.00  0.00     0.010 A 
ATOM     11  C   UNL A   1      40.507  26.627  28.713  1.00  0.00    -0.014 A 
BRANCH  11  12
ATOM     12  C   UNL A   1      40.740  27.930  29.328  1.00  0.00     0.031 A 
ATOM     13  C   UNL A   1      41.741  28.770  28.603  1.00  0.00     0.074 A 
ATOM     14  C   UNL A   1      39.985  28.391  30.348  1.00  0.00     0.049 A 
ATOM     15  N   UNL A   1      42.833  29.296  29.058  1.00  0.00    -0.248 NA
ATOM     16  C   UNL A   1      41.570  28.927  27.148  1.00  0.00     0.031 C 
ATOM     17  C   UNL A   1      38.795  27.756  30.925  1.00  0.00     0.029 A 
ATOM     18  N   UNL A   1      40.022  29.599  30.982  1.00  0.00    -0.354 N 
ATOM     19  C   UNL A   1      43.362  30.040  27.999  1.00  0.00     0.074 A 
ATOM     20  C   UNL A   1      42.659  29.619  26.820  1.00  0.00     0.031 C 
ATOM     21  C   UNL A   1      38.086  28.679  31.610  1.00  0.00     0.029 A 
ATOM     22  C   UNL A   1      38.828  29.928  31.624  1.00  0.00     0.049 A 
ATOM     23  H   UNL A   1      40.815  30.182  30.987  1.00  0.00     0.167 HD
ATOM     24  C   UNL A   1      44.153  31.128  28.217  1.00  0.00     0.034 A 
ATOM     25  C   UNL A   1      38.434  31.158  32.044  1.00  0.00     0.034 A 
ATOM     26  C   UNL A   1      44.722  31.099  29.540  1.00  0.00     0.049 A 
ATOM     27  C   UNL A   1      39.641  32.008  32.127  1.00  0.00     0.074 A 
ATOM     28  C   UNL A   1      45.542  30.239  30.239  1.00  0.00     0.029 A 
ATOM     29  N   UNL A   1      44.156  31.925  30.477  1.00  0.00    -0.354 N 
ATOM     30  N   UNL A   1      40.601  31.813  32.985  1.00  0.00    -0.248 NA
ATOM     31  C   UNL A   1      39.984  32.811  30.966  1.00  0.00     0.031 C 
ATOM     32  C   UNL A   1      45.053  30.276  31.579  1.00  0.00     0.029 A 
ATOM     33  C   UNL A   1      44.010  31.202  31.627  1.00  0.00     0.049 A 
ATOM     34  H   UNL A   1      43.902  32.868  30.346  1.00  0.00     0.167 HD
ATOM     35  C   UNL A   1      41.758  32.053  32.258  1.00  0.00     0.074 A 
ATOM     36  C   UNL A   1      41.315  32.765  31.059  1.00  0.00     0.031 C 
ATOM     37  C   UNL A   1      42.919  31.398  32.552  1.00  0.00     0.034 A 
BRANCH  24  38
ATOM     38  C   UNL A   1      44.081  32.425  27.423  1.00  0.00     0.023 A 
ATOM     39  C   UNL A   1      44.982  32.557  26.339  1.00  0.00     0.012 A 
ATOM     40  C   UNL A   1      43.440  33.608  27.859  1.00  0.00     0.148 A 
ATOM     41  C   UNL A   1      45.316  33.807  25.802  1.00  0.00     0.002 A 
ATOM     42  C   UNL A   1      43.728  34.841  27.282  1.00  0.00     0.091 A 
ATOM     43  F   UNL A   1      42.622  33.588  28.911  1.00  0.00    -0.205 F 
ATOM     44  C   UNL A   1      44.695  34.952  26.282  1.00  0.00     0.022 A 
BRANCH  42  45
ATOM     45  S   UNL A   1      42.933  36.354  27.841  1.00  0.00     0.127 S 
ATOM     46  O   UNL A   1      41.522  36.012  27.686  1.00  0.00    -0.237 OA
ATOM     47  O   UNL A   1      43.403  36.443  29.224  1.00  0.00    -0.237 OA
ATOM     48  O   UNL A   1      43.436  37.409  26.971  1.00  0.00    -0.744 OA
ENDBRANCH  42  45
ENDBRANCH  24  38
BRANCH  25  49
ATOM     49  C   UNL A   1      37.073  31.749  32.082  1.00  0.00     0.023 A 
ATOM     50  C   UNL A   1      36.507  32.141  33.313  1.00  0.00     0.012 A 
ATOM     51  C   UNL A   1      36.446  32.188  30.895  1.00  0.00     0.148 A 
ATOM     52  C   UNL A   1      35.371  32.961  33.358  1.00  0.00     0.002 A 
ATOM     53  C   UNL A   1      35.311  32.993  30.945  1.00  0.00     0.091 A 
ATOM     54  F   UNL A   1      37.017  31.896  29.719  1.00  0.00    -0.205 F 
ATOM     55  C   UNL A   1      34.777  33.392  32.176  1.00  0.00     0.022 A 
BRANCH  53  56
ATOM     56  S   UNL A   1      34.507  33.603  29.456  1.00  0.00     0.127 S 
ATOM     57  O   UNL A   1      35.573  34.395  28.843  1.00  0.00    -0.237 OA
ATOM     58  O   UNL A   1      34.186  32.362  28.756  1.00  0.00    -0.237 OA
ATOM     59  O   UNL A   1      33.366  34.386  29.913  1.00  0.00    -0.744 OA
ENDBRANCH  53  56
ENDBRANCH  25  49
BRANCH  37  60
ATOM     60  C   UNL A   1      42.982  30.604  33.830  1.00  0.00     0.023 A 
ATOM     61  C   UNL A   1      43.296  31.190  35.075  1.00  0.00     0.012 A 
ATOM     62  C   UNL A   1      42.537  29.273  33.798  1.00  0.00     0.148 A 
ATOM     63  C   UNL A   1      43.185  30.456  36.259  1.00  0.00     0.002 A 
ATOM     64  C   UNL A   1      42.381  28.562  34.979  1.00  0.00     0.091 A 
ATOM     65  F   UNL A   1      42.239  28.735  32.605  1.00  0.00    -0.205 F 
ATOM     66  C   UNL A   1      42.714  29.145  36.212  1.00  0.00     0.022 A 
BRANCH  64  67
ATOM     67  S   UNL A   1      41.655  26.923  34.993  1.00  0.00     0.127 S 
ATOM     68  O   UNL A   1      40.498  27.094  34.116  1.00  0.00    -0.237 OA
ATOM     69  O   UNL A   1      42.730  26.099  34.437  1.00  0.00    -0.237 OA
ATOM     70  O   UNL A   1      41.346  26.632  36.388  1.00  0.00    -0.744 OA
ENDBRANCH  64  67
ENDBRANCH  37  60
ENDBRANCH  11  12
ENDBRANCH   4   6
ENDBRANCH   1   2
BRANCH   1  71
ATOM     71  C   UNL A   1      42.109  19.849  27.472  1.00  0.00     0.042 C 
BRANCH  71  72
ATOM     72  C   UNL A   1      42.214  19.438  26.007  1.00  0.00     0.118 C 
BRANCH  72  73
ATOM     73  N   UNL A   1      43.426  18.686  25.717  1.00  0.00    -0.351 N 
ATOM     74  C   UNL A   1      44.630  19.113  25.199  1.00  0.00     0.273 C 
ATOM     75  H   UNL A   1      43.379  17.724  25.924  1.00  0.00     0.163 HD
ATOM     76  O   UNL A   1      45.464  18.280  24.876  1.00  0.00    -0.267 OA
BRANCH  74  77
ATOM     77  C   UNL A   1      44.849  20.541  25.061  1.00  0.00     0.170 A 
ATOM     78  C   UNL A   1      45.729  21.342  25.762  1.00  0.00     0.145 A 
ATOM     79  N   UNL A   1      44.186  21.314  24.142  1.00  0.00    -0.125 NA
ATOM     80  N   UNL A   1      45.444  22.601  25.327  1.00  0.00    -0.245 N 
ATOM     81  N   UNL A   1      44.552  22.576  24.322  1.00  0.00    -0.066 NA
BRANCH  80  82
ATOM     82  C   UNL A   1      46.032  23.827  25.756  1.00  0.00     0.148 C 
ATOM     83  C   UNL A   1      45.542  25.119  25.075  1.00  0.00     0.150 C 
ATOM     84  C   UNL A   1      45.327  24.381  27.014  1.00  0.00     0.150 C 
ATOM     85  N   UNL A   1      45.585  25.677  26.429  1.00  0.00    -0.320 N 
ATOM     86  C   UNL A   1      45.515  26.979  26.798  1.00  0.00     0.322 C 
ATOM     87  O   UNL A   1      45.516  27.878  25.954  1.00  0.00    -0.248 OA
ATOM     88  N   UNL A   1      45.308  27.323  28.096  1.00  0.00    -0.307 N 
ATOM     89  H   UNL A   1      44.953  28.233  28.228  1.00  0.00     0.171 HD
BRANCH  88  90
ATOM     90  C   UNL A   1      45.513  26.611  29.262  1.00  0.00     0.053 A 
ATOM     91  C   UNL A   1      46.758  26.263  29.864  1.00  0.00     0.038 A 
ATOM     92  C   UNL A   1      44.456  26.202  30.047  1.00  0.00     0.091 A 
ATOM     93  C   UNL A   1      46.603  25.415  30.939  1.00  0.00     0.067 A 
ATOM     94  S   UNL A   1      44.956  25.185  31.332  1.00  0.00    -0.150 S 
ENDBRANCH  88  90
ENDBRANCH  80  82
ENDBRANCH  74  77
ENDBRANCH  72  73
ENDBRANCH  71  72
ENDBRANCH   1  71
TORSDOF 15
ENDMDL
