MODEL 1
REMARK VINA RESULT:     -13.3      0.000      0.000
REMARK SMILES Cc1cccc(-c2ccc(Cl)c(C(=O)NCCCNC(=O)c3ccc(-c4c5nc(c(-c6cccc(S(=O)(=O)[O-])c6F)c6ccc([nH]6)c(-c6cccc(S(=O)(=O)[O-])c6F)c6nc(c(-c7cccc(S(=O)(=O)[O-])c7F)c7ccc4[nH]7)C=C6)C=C5)cc3)c2)c1
REMARK SMILES IDX 18 1 17 2 16 3 15 4 13 5 14 6 12 8 7 9 8 10 85 11 9 12 10 13
REMARK SMILES IDX 11 14 6 15 1 16 2 17 3 18 86 19 4 20 5 21 19 22 20 23 21 25
REMARK SMILES IDX 22 26 23 27 84 28 24 29 83 30 25 31 26 32 27 33 77 34 28 35
REMARK SMILES IDX 82 36 76 37 78 38 29 39 81 40 75 41 74 42 30 44 62 45 42 46
REMARK SMILES IDX 61 47 43 48 46 49 60 50 79 51 44 52 45 53 59 55 80 56 47 57
REMARK SMILES IDX 31 58 32 59 40 60 33 61 35 62 41 63 34 64 36 65 37 66 38 67
REMARK SMILES IDX 39 68 63 69 64 70 72 71 65 72 67 73 73 74 66 75 68 76 69 77
REMARK SMILES IDX 70 78 71 79 48 80 49 81 57 82 50 83 52 84 58 85 51 86 53 87
REMARK SMILES IDX 54 88 55 89 56 90
REMARK H PARENT 15 7 19 24 78 43 46 54
REMARK Flexibility Score: inf
ROOT
ATOM      1  C   UNL A   1      37.970  22.379  25.699  1.00  0.00     0.118 C 
ENDROOT
BRANCH   1   2
ATOM      2  C   UNL A   1      37.551  21.287  24.744  1.00  0.00     0.042 C 
BRANCH   2   3
ATOM      3  C   UNL A   1      36.246  20.639  25.144  1.00  0.00     0.118 C 
BRANCH   3   4
ATOM      4  N   UNL A   1      35.586  21.245  26.291  1.00  0.00    -0.352 N 
ATOM      5  C   UNL A   1      34.641  22.241  26.383  1.00  0.00     0.252 C 
ATOM      6  O   UNL A   1      34.187  22.530  27.489  1.00  0.00    -0.269 OA
ATOM      7  H   UNL A   1      35.867  20.874  27.159  1.00  0.00     0.163 HD
BRANCH   5   8
ATOM      8  C   UNL A   1      34.242  23.064  25.215  1.00  0.00     0.059 A 
ATOM      9  C   UNL A   1      34.093  25.309  24.268  1.00  0.00    -0.017 A 
ATOM     10  C   UNL A   1      33.858  24.734  23.011  1.00  0.00     0.010 A 
ATOM     11  C   UNL A   1      34.403  24.459  25.338  1.00  0.00     0.024 A 
ATOM     12  C   UNL A   1      33.601  23.373  22.906  1.00  0.00     0.022 A 
ATOM     13  C   UNL A   1      33.647  22.577  24.050  1.00  0.00     0.053 A 
ATOM     14  Cl  UNL A   1      32.677  21.136  24.011  1.00  0.00    -0.083 Cl
BRANCH   9  15
ATOM     15  C   UNL A   1      33.731  26.718  24.478  1.00  0.00    -0.018 A 
ATOM     16  C   UNL A   1      34.123  29.158  27.398  1.00  0.00     0.044 C 
ATOM     17  C   UNL A   1      33.776  28.616  26.043  1.00  0.00    -0.051 A 
ATOM     18  C   UNL A   1      33.172  29.412  25.071  1.00  0.00     0.003 A 
ATOM     19  C   UNL A   1      34.047  27.282  25.733  1.00  0.00     0.012 A 
ATOM     20  C   UNL A   1      32.867  28.880  23.813  1.00  0.00     0.001 A 
ATOM     21  C   UNL A   1      33.149  27.540  23.513  1.00  0.00     0.009 A 
ENDBRANCH   9  15
ENDBRANCH   5   8
ENDBRANCH   3   4
ENDBRANCH   2   3
ENDBRANCH   1   2
BRANCH   1  22
ATOM     22  N   UNL A   1      39.159  22.066  26.481  1.00  0.00    -0.352 N 
ATOM     23  C   UNL A   1      40.088  22.911  27.058  1.00  0.00     0.251 C 
ATOM     24  H   UNL A   1      39.326  21.106  26.620  1.00  0.00     0.163 HD
ATOM     25  O   UNL A   1      41.088  22.399  27.569  1.00  0.00    -0.269 OA
BRANCH  23  26
ATOM     26  C   UNL A   1      39.825  24.368  27.189  1.00  0.00     0.039 A 
ATOM     27  C   UNL A   1      40.592  25.256  26.419  1.00  0.00     0.014 A 
ATOM     28  C   UNL A   1      39.018  24.873  28.201  1.00  0.00     0.014 A 
ATOM     29  C   UNL A   1      40.768  26.571  26.847  1.00  0.00     0.010 A 
ATOM     30  C   UNL A   1      39.275  26.121  28.695  1.00  0.00     0.010 A 
ATOM     31  C   UNL A   1      40.214  26.933  28.063  1.00  0.00    -0.014 A 
BRANCH  31  32
ATOM     32  C   UNL A   1      40.526  28.114  28.840  1.00  0.00     0.031 A 
ATOM     33  C   UNL A   1      39.640  29.289  28.730  1.00  0.00     0.074 A 
ATOM     34  C   UNL A   1      41.306  27.896  29.925  1.00  0.00     0.049 A 
ATOM     35  N   UNL A   1      39.814  30.399  29.356  1.00  0.00    -0.248 NA
ATOM     36  C   UNL A   1      38.445  29.279  27.894  1.00  0.00     0.031 C 
ATOM     37  C   UNL A   1      41.318  28.651  31.171  1.00  0.00     0.029 A 
ATOM     38  N   UNL A   1      42.321  26.955  30.129  1.00  0.00    -0.354 N 
ATOM     39  C   UNL A   1      38.625  31.099  29.283  1.00  0.00     0.074 A 
ATOM     40  C   UNL A   1      37.866  30.425  28.260  1.00  0.00     0.031 C 
ATOM     41  C   UNL A   1      42.453  28.367  31.833  1.00  0.00     0.029 A 
ATOM     42  C   UNL A   1      43.282  27.611  30.913  1.00  0.00     0.049 A 
ATOM     43  H   UNL A   1      42.354  26.030  29.794  1.00  0.00     0.167 HD
ATOM     44  C   UNL A   1      38.381  32.057  30.225  1.00  0.00     0.034 A 
ATOM     45  C   UNL A   1      44.480  28.055  30.410  1.00  0.00     0.034 A 
ATOM     46  C   UNL A   1      39.582  32.263  31.063  1.00  0.00     0.049 A 
ATOM     47  C   UNL A   1      44.645  29.573  30.500  1.00  0.00     0.074 A 
ATOM     48  C   UNL A   1      39.934  31.845  32.336  1.00  0.00     0.029 A 
ATOM     49  N   UNL A   1      40.757  32.723  30.470  1.00  0.00    -0.354 N 
ATOM     50  N   UNL A   1      43.689  30.392  30.853  1.00  0.00    -0.248 NA
ATOM     51  C   UNL A   1      45.882  30.294  30.198  1.00  0.00     0.031 C 
ATOM     52  C   UNL A   1      41.354  31.928  32.448  1.00  0.00     0.029 A 
ATOM     53  C   UNL A   1      41.860  32.435  31.263  1.00  0.00     0.049 A 
ATOM     54  H   UNL A   1      40.799  33.188  29.604  1.00  0.00     0.167 HD
ATOM     55  C   UNL A   1      44.087  31.690  30.697  1.00  0.00     0.074 A 
ATOM     56  C   UNL A   1      45.500  31.574  30.371  1.00  0.00     0.031 C 
ATOM     57  C   UNL A   1      43.210  32.740  30.783  1.00  0.00     0.034 A 
BRANCH  44  58
ATOM     58  C   UNL A   1      37.012  32.630  30.598  1.00  0.00     0.023 A 
ATOM     59  C   UNL A   1      36.511  32.318  31.884  1.00  0.00     0.012 A 
ATOM     60  C   UNL A   1      36.135  33.385  29.779  1.00  0.00     0.148 A 
ATOM     61  C   UNL A   1      35.218  32.663  32.302  1.00  0.00     0.002 A 
ATOM     62  C   UNL A   1      34.833  33.708  30.181  1.00  0.00     0.091 A 
ATOM     63  F   UNL A   1      36.546  33.853  28.605  1.00  0.00    -0.205 F 
ATOM     64  C   UNL A   1      34.368  33.341  31.443  1.00  0.00     0.022 A 
BRANCH  62  65
ATOM     65  S   UNL A   1      33.670  34.571  29.101  1.00  0.00     0.127 S 
ATOM     66  O   UNL A   1      33.335  33.536  28.122  1.00  0.00    -0.237 OA
ATOM     67  O   UNL A   1      32.586  34.912  30.020  1.00  0.00    -0.237 OA
ATOM     68  O   UNL A   1      34.388  35.710  28.543  1.00  0.00    -0.744 OA
ENDBRANCH  62  65
ENDBRANCH  44  58
BRANCH  45  69
ATOM     69  C   UNL A   1      45.019  27.172  29.328  1.00  0.00     0.023 A 
ATOM     70  C   UNL A   1      45.299  25.834  29.701  1.00  0.00     0.012 A 
ATOM     71  C   UNL A   1      44.834  27.468  27.965  1.00  0.00     0.148 A 
ATOM     72  C   UNL A   1      45.192  24.795  28.776  1.00  0.00     0.002 A 
ATOM     73  C   UNL A   1      44.755  26.424  27.041  1.00  0.00     0.091 A 
ATOM     74  F   UNL A   1      44.668  28.746  27.601  1.00  0.00    -0.205 F 
ATOM     75  C   UNL A   1      44.873  25.087  27.455  1.00  0.00     0.022 A 
BRANCH  73  76
ATOM     76  S   UNL A   1      44.384  26.720  25.303  1.00  0.00     0.127 S 
ATOM     77  O   UNL A   1      45.721  26.871  24.739  1.00  0.00    -0.237 OA
ATOM     78  O   UNL A   1      43.689  25.494  24.911  1.00  0.00    -0.237 OA
ATOM     79  O   UNL A   1      43.543  27.908  25.296  1.00  0.00    -0.744 OA
ENDBRANCH  73  76
ENDBRANCH  45  69
BRANCH  57  80
ATOM     80  C   UNL A   1      43.535  34.167  30.386  1.00  0.00     0.023 A 
ATOM     81  C   UNL A   1      43.969  35.126  31.322  1.00  0.00     0.012 A 
ATOM     82  C   UNL A   1      43.572  34.547  29.019  1.00  0.00     0.148 A 
ATOM     83  C   UNL A   1      44.353  36.415  30.936  1.00  0.00     0.002 A 
ATOM     84  C   UNL A   1      44.065  35.789  28.631  1.00  0.00     0.091 A 
ATOM     85  F   UNL A   1      43.109  33.706  28.081  1.00  0.00    -0.205 F 
ATOM     86  C   UNL A   1      44.424  36.740  29.588  1.00  0.00     0.022 A 
BRANCH  84  87
ATOM     87  S   UNL A   1      44.412  36.146  26.903  1.00  0.00     0.127 S 
ATOM     88  O   UNL A   1      45.311  35.054  26.539  1.00  0.00    -0.237 OA
ATOM     89  O   UNL A   1      43.083  36.069  26.291  1.00  0.00    -0.237 OA
ATOM     90  O   UNL A   1      44.989  37.484  26.902  1.00  0.00    -0.744 OA
ENDBRANCH  84  87
ENDBRANCH  57  80
ENDBRANCH  31  32
ENDBRANCH  23  26
ENDBRANCH   1  22
TORSDOF 14
ENDMDL
MODEL 2
REMARK VINA RESULT:     -13.0      4.012      9.343
REMARK SMILES Cc1cccc(-c2ccc(Cl)c(C(=O)NCCCNC(=O)c3ccc(-c4c5nc(c(-c6cccc(S(=O)(=O)[O-])c6F)c6ccc([nH]6)c(-c6cccc(S(=O)(=O)[O-])c6F)c6nc(c(-c7cccc(S(=O)(=O)[O-])c7F)c7ccc4[nH]7)C=C6)C=C5)cc3)c2)c1
REMARK SMILES IDX 18 1 17 2 16 3 15 4 13 5 14 6 12 8 7 9 8 10 85 11 9 12 10 13
REMARK SMILES IDX 11 14 6 15 1 16 2 17 3 18 86 19 4 20 5 21 19 22 20 23 21 25
REMARK SMILES IDX 22 26 23 27 84 28 24 29 83 30 25 31 26 32 27 33 77 34 28 35
REMARK SMILES IDX 82 36 76 37 78 38 29 39 81 40 75 41 74 42 30 44 62 45 42 46
REMARK SMILES IDX 61 47 43 48 46 49 60 50 79 51 44 52 45 53 59 55 80 56 47 57
REMARK SMILES IDX 31 58 32 59 40 60 33 61 35 62 41 63 34 64 36 65 37 66 38 67
REMARK SMILES IDX 39 68 63 69 64 70 72 71 65 72 67 73 73 74 66 75 68 76 69 77
REMARK SMILES IDX 70 78 71 79 48 80 49 81 57 82 50 83 52 84 58 85 51 86 53 87
REMARK SMILES IDX 54 88 55 89 56 90
REMARK H PARENT 15 7 19 24 78 43 46 54
REMARK Flexibility Score: inf
ROOT
ATOM      1  C   UNL A   1      33.760  30.474  27.084  1.00  0.00     0.118 C 
ENDROOT
BRANCH   1   2
ATOM      2  C   UNL A   1      32.281  30.750  26.954  1.00  0.00     0.042 C 
BRANCH   2   3
ATOM      3  C   UNL A   1      31.622  29.883  25.906  1.00  0.00     0.118 C 
BRANCH   3   4
ATOM      4  N   UNL A   1      32.349  29.780  24.649  1.00  0.00    -0.352 N 
ATOM      5  C   UNL A   1      32.779  28.690  23.928  1.00  0.00     0.252 C 
ATOM      6  O   UNL A   1      33.325  28.873  22.841  1.00  0.00    -0.269 OA
ATOM      7  H   UNL A   1      32.572  30.647  24.241  1.00  0.00     0.163 HD
BRANCH   5   8
ATOM      8  C   UNL A   1      32.725  27.309  24.470  1.00  0.00     0.059 A 
ATOM      9  C   UNL A   1      33.985  25.297  25.036  1.00  0.00    -0.017 A 
ATOM     10  C   UNL A   1      32.874  24.835  25.755  1.00  0.00     0.010 A 
ATOM     11  C   UNL A   1      33.937  26.591  24.500  1.00  0.00     0.024 A 
ATOM     12  C   UNL A   1      31.654  25.489  25.645  1.00  0.00     0.022 A 
ATOM     13  C   UNL A   1      31.564  26.645  24.870  1.00  0.00     0.053 A 
ATOM     14  Cl  UNL A   1      29.996  26.994  24.208  1.00  0.00    -0.083 Cl
BRANCH   9  15
ATOM     15  C   UNL A   1      35.016  24.331  24.634  1.00  0.00    -0.018 A 
ATOM     16  C   UNL A   1      38.222  23.025  26.263  1.00  0.00     0.044 C 
ATOM     17  C   UNL A   1      37.108  23.204  25.275  1.00  0.00    -0.051 A 
ATOM     18  C   UNL A   1      37.068  22.485  24.081  1.00  0.00     0.003 A 
ATOM     19  C   UNL A   1      36.083  24.115  25.534  1.00  0.00     0.012 A 
ATOM     20  C   UNL A   1      36.011  22.668  23.182  1.00  0.00     0.001 A 
ATOM     21  C   UNL A   1      34.986  23.582  23.457  1.00  0.00     0.009 A 
ENDBRANCH   9  15
ENDBRANCH   5   8
ENDBRANCH   3   4
ENDBRANCH   2   3
ENDBRANCH   1   2
BRANCH   1  22
ATOM     22  N   UNL A   1      34.558  31.642  27.434  1.00  0.00    -0.352 N 
ATOM     23  C   UNL A   1      35.770  31.722  28.093  1.00  0.00     0.251 C 
ATOM     24  H   UNL A   1      34.174  32.506  27.160  1.00  0.00     0.163 HD
ATOM     25  O   UNL A   1      36.188  32.845  28.387  1.00  0.00    -0.269 OA
BRANCH  23  26
ATOM     26  C   UNL A   1      36.608  30.514  28.309  1.00  0.00     0.039 A 
ATOM     27  C   UNL A   1      36.720  30.005  29.612  1.00  0.00     0.014 A 
ATOM     28  C   UNL A   1      37.449  30.025  27.318  1.00  0.00     0.014 A 
ATOM     29  C   UNL A   1      37.836  29.250  29.968  1.00  0.00     0.010 A 
ATOM     30  C   UNL A   1      38.603  29.388  27.679  1.00  0.00     0.010 A 
ATOM     31  C   UNL A   1      38.829  29.079  29.018  1.00  0.00    -0.014 A 
BRANCH  31  32
ATOM     32  C   UNL A   1      40.182  28.619  29.251  1.00  0.00     0.031 A 
ATOM     33  C   UNL A   1      40.486  27.188  29.059  1.00  0.00     0.074 A 
ATOM     34  C   UNL A   1      41.134  29.578  29.172  1.00  0.00     0.049 A 
ATOM     35  N   UNL A   1      41.641  26.653  29.245  1.00  0.00    -0.248 NA
ATOM     36  C   UNL A   1      39.476  26.238  28.606  1.00  0.00     0.031 C 
ATOM     37  C   UNL A   1      42.525  29.411  28.770  1.00  0.00     0.029 A 
ATOM     38  N   UNL A   1      41.071  30.938  29.494  1.00  0.00    -0.354 N 
ATOM     39  C   UNL A   1      41.621  25.414  28.634  1.00  0.00     0.074 A 
ATOM     40  C   UNL A   1      40.226  25.157  28.377  1.00  0.00     0.031 C 
ATOM     41  C   UNL A   1      43.218  30.492  29.167  1.00  0.00     0.029 A 
ATOM     42  C   UNL A   1      42.330  31.251  30.029  1.00  0.00     0.049 A 
ATOM     43  H   UNL A   1      40.306  31.545  29.373  1.00  0.00     0.167 HD
ATOM     44  C   UNL A   1      42.812  24.851  28.276  1.00  0.00     0.034 A 
ATOM     45  C   UNL A   1      42.544  31.454  31.370  1.00  0.00     0.034 A 
ATOM     46  C   UNL A   1      43.934  25.658  28.802  1.00  0.00     0.049 A 
ATOM     47  C   UNL A   1      43.507  30.439  31.987  1.00  0.00     0.074 A 
ATOM     48  C   UNL A   1      44.794  26.578  28.224  1.00  0.00     0.029 A 
ATOM     49  N   UNL A   1      44.079  25.808  30.180  1.00  0.00    -0.354 N 
ATOM     50  N   UNL A   1      43.951  29.381  31.362  1.00  0.00    -0.248 NA
ATOM     51  C   UNL A   1      44.041  30.521  33.346  1.00  0.00     0.031 C 
ATOM     52  C   UNL A   1      45.349  27.375  29.269  1.00  0.00     0.029 A 
ATOM     53  C   UNL A   1      44.862  26.915  30.481  1.00  0.00     0.049 A 
ATOM     54  H   UNL A   1      43.678  25.210  30.851  1.00  0.00     0.167 HD
ATOM     55  C   UNL A   1      44.671  28.589  32.212  1.00  0.00     0.074 A 
ATOM     56  C   UNL A   1      44.774  29.393  33.420  1.00  0.00     0.031 C 
ATOM     57  C   UNL A   1      45.061  27.318  31.875  1.00  0.00     0.034 A 
BRANCH  44  58
ATOM     58  C   UNL A   1      43.012  23.744  27.239  1.00  0.00     0.023 A 
ATOM     59  C   UNL A   1      43.679  24.095  26.042  1.00  0.00     0.012 A 
ATOM     60  C   UNL A   1      42.544  22.407  27.295  1.00  0.00     0.148 A 
ATOM     61  C   UNL A   1      43.809  23.217  24.956  1.00  0.00     0.002 A 
ATOM     62  C   UNL A   1      42.647  21.534  26.204  1.00  0.00     0.091 A 
ATOM     63  F   UNL A   1      42.025  21.922  28.419  1.00  0.00    -0.205 F 
ATOM     64  C   UNL A   1      43.274  21.941  25.028  1.00  0.00     0.022 A 
BRANCH  62  65
ATOM     65  S   UNL A   1      41.953  19.867  26.226  1.00  0.00     0.127 S 
ATOM     66  O   UNL A   1      40.518  20.131  26.105  1.00  0.00    -0.237 OA
ATOM     67  O   UNL A   1      42.561  19.260  25.044  1.00  0.00    -0.237 OA
ATOM     68  O   UNL A   1      42.344  19.271  27.498  1.00  0.00    -0.744 OA
ENDBRANCH  62  65
ENDBRANCH  44  58
BRANCH  45  69
ATOM     69  C   UNL A   1      41.373  32.089  32.055  1.00  0.00     0.023 A 
ATOM     70  C   UNL A   1      40.935  33.325  31.518  1.00  0.00     0.012 A 
ATOM     71  C   UNL A   1      40.479  31.342  32.845  1.00  0.00     0.148 A 
ATOM     72  C   UNL A   1      39.594  33.704  31.592  1.00  0.00     0.002 A 
ATOM     73  C   UNL A   1      39.145  31.743  32.937  1.00  0.00     0.091 A 
ATOM     74  F   UNL A   1      40.922  30.224  33.435  1.00  0.00    -0.205 F 
ATOM     75  C   UNL A   1      38.691  32.888  32.263  1.00  0.00     0.022 A 
BRANCH  73  76
ATOM     76  S   UNL A   1      37.918  30.764  33.819  1.00  0.00     0.127 S 
ATOM     77  O   UNL A   1      38.229  31.084  35.208  1.00  0.00    -0.237 OA
ATOM     78  O   UNL A   1      36.655  31.318  33.331  1.00  0.00    -0.237 OA
ATOM     79  O   UNL A   1      38.164  29.391  33.403  1.00  0.00    -0.744 OA
ENDBRANCH  73  76
ENDBRANCH  45  69
BRANCH  57  80
ATOM     80  C   UNL A   1      45.644  26.311  32.847  1.00  0.00     0.023 A 
ATOM     81  C   UNL A   1      47.031  26.188  33.060  1.00  0.00     0.012 A 
ATOM     82  C   UNL A   1      44.797  25.562  33.706  1.00  0.00     0.148 A 
ATOM     83  C   UNL A   1      47.557  25.320  34.022  1.00  0.00     0.002 A 
ATOM     84  C   UNL A   1      45.322  24.790  34.738  1.00  0.00     0.091 A 
ATOM     85  F   UNL A   1      43.469  25.580  33.515  1.00  0.00    -0.205 F 
ATOM     86  C   UNL A   1      46.703  24.638  34.878  1.00  0.00     0.022 A 
BRANCH  84  87
ATOM     87  S   UNL A   1      44.256  24.107  36.015  1.00  0.00     0.127 S 
ATOM     88  O   UNL A   1      43.533  25.290  36.475  1.00  0.00    -0.237 OA
ATOM     89  O   UNL A   1      43.440  23.148  35.266  1.00  0.00    -0.237 OA
ATOM     90  O   UNL A   1      45.162  23.491  36.975  1.00  0.00    -0.744 OA
ENDBRANCH  84  87
ENDBRANCH  57  80
ENDBRANCH  31  32
ENDBRANCH  23  26
ENDBRANCH   1  22
TORSDOF 14
ENDMDL
MODEL 3
REMARK VINA RESULT:     -12.4      3.986      9.160
REMARK SMILES Cc1cccc(-c2ccc(Cl)c(C(=O)NCCCNC(=O)c3ccc(-c4c5nc(c(-c6cccc(S(=O)(=O)[O-])c6F)c6ccc([nH]6)c(-c6cccc(S(=O)(=O)[O-])c6F)c6nc(c(-c7cccc(S(=O)(=O)[O-])c7F)c7ccc4[nH]7)C=C6)C=C5)cc3)c2)c1
REMARK SMILES IDX 18 1 17 2 16 3 15 4 13 5 14 6 12 8 7 9 8 10 85 11 9 12 10 13
REMARK SMILES IDX 11 14 6 15 1 16 2 17 3 18 86 19 4 20 5 21 19 22 20 23 21 25
REMARK SMILES IDX 22 26 23 27 84 28 24 29 83 30 25 31 26 32 27 33 77 34 28 35
REMARK SMILES IDX 82 36 76 37 78 38 29 39 81 40 75 41 74 42 30 44 62 45 42 46
REMARK SMILES IDX 61 47 43 48 46 49 60 50 79 51 44 52 45 53 59 55 80 56 47 57
REMARK SMILES IDX 31 58 32 59 40 60 33 61 35 62 41 63 34 64 36 65 37 66 38 67
REMARK SMILES IDX 39 68 63 69 64 70 72 71 65 72 67 73 73 74 66 75 68 76 69 77
REMARK SMILES IDX 70 78 71 79 48 80 49 81 57 82 50 83 52 84 58 85 51 86 53 87
REMARK SMILES IDX 54 88 55 89 56 90
REMARK H PARENT 15 7 19 24 78 43 46 54
REMARK Flexibility Score: inf
ROOT
ATOM      1  C   UNL A   1      33.963  30.256  26.807  1.00  0.00     0.118 C 
ENDROOT
BRANCH   1   2
ATOM      2  C   UNL A   1      32.558  29.826  27.154  1.00  0.00     0.042 C 
BRANCH   2   3
ATOM      3  C   UNL A   1      31.595  30.018  26.006  1.00  0.00     0.118 C 
BRANCH   3   4
ATOM      4  N   UNL A   1      32.184  29.883  24.682  1.00  0.00    -0.352 N 
ATOM      5  C   UNL A   1      32.537  28.775  23.946  1.00  0.00     0.252 C 
ATOM      6  O   UNL A   1      32.963  28.931  22.803  1.00  0.00    -0.269 OA
ATOM      7  H   UNL A   1      32.361  30.740  24.231  1.00  0.00     0.163 HD
BRANCH   5   8
ATOM      8  C   UNL A   1      32.542  27.408  24.525  1.00  0.00     0.059 A 
ATOM      9  C   UNL A   1      33.880  25.444  25.085  1.00  0.00    -0.017 A 
ATOM     10  C   UNL A   1      32.813  24.974  25.864  1.00  0.00     0.010 A 
ATOM     11  C   UNL A   1      33.773  26.723  24.519  1.00  0.00     0.024 A 
ATOM     12  C   UNL A   1      31.573  25.593  25.791  1.00  0.00     0.022 A 
ATOM     13  C   UNL A   1      31.418  26.725  24.992  1.00  0.00     0.053 A 
ATOM     14  Cl  UNL A   1      29.814  27.016  24.391  1.00  0.00    -0.083 Cl
BRANCH   9  15
ATOM     15  C   UNL A   1      34.918  24.495  24.662  1.00  0.00    -0.018 A 
ATOM     16  C   UNL A   1      38.168  23.229  26.233  1.00  0.00     0.044 C 
ATOM     17  C   UNL A   1      37.035  23.396  25.264  1.00  0.00    -0.051 A 
ATOM     18  C   UNL A   1      36.986  22.680  24.069  1.00  0.00     0.003 A 
ATOM     19  C   UNL A   1      36.002  24.291  25.544  1.00  0.00     0.012 A 
ATOM     20  C   UNL A   1      35.912  22.851  23.188  1.00  0.00     0.001 A 
ATOM     21  C   UNL A   1      34.878  23.749  23.483  1.00  0.00     0.009 A 
ENDBRANCH   9  15
ENDBRANCH   5   8
ENDBRANCH   3   4
ENDBRANCH   2   3
ENDBRANCH   1   2
BRANCH   1  22
ATOM     22  N   UNL A   1      34.486  31.327  27.645  1.00  0.00    -0.352 N 
ATOM     23  C   UNL A   1      35.504  31.306  28.580  1.00  0.00     0.251 C 
ATOM     24  H   UNL A   1      34.047  32.200  27.526  1.00  0.00     0.163 HD
ATOM     25  O   UNL A   1      35.678  32.320  29.259  1.00  0.00    -0.269 OA
BRANCH  23  26
ATOM     26  C   UNL A   1      36.445  30.159  28.664  1.00  0.00     0.039 A 
ATOM     27  C   UNL A   1      36.671  29.573  29.919  1.00  0.00     0.014 A 
ATOM     28  C   UNL A   1      37.263  29.810  27.598  1.00  0.00     0.014 A 
ATOM     29  C   UNL A   1      37.862  28.889  30.161  1.00  0.00     0.010 A 
ATOM     30  C   UNL A   1      38.483  29.246  27.851  1.00  0.00     0.010 A 
ATOM     31  C   UNL A   1      38.809  28.866  29.151  1.00  0.00    -0.014 A 
BRANCH  31  32
ATOM     32  C   UNL A   1      40.205  28.504  29.280  1.00  0.00     0.031 A 
ATOM     33  C   UNL A   1      40.590  27.092  29.094  1.00  0.00     0.074 A 
ATOM     34  C   UNL A   1      41.079  29.523  29.101  1.00  0.00     0.049 A 
ATOM     35  N   UNL A   1      41.791  26.642  29.194  1.00  0.00    -0.248 NA
ATOM     36  C   UNL A   1      39.614  26.065  28.748  1.00  0.00     0.031 C 
ATOM     37  C   UNL A   1      42.440  29.438  28.587  1.00  0.00     0.029 A 
ATOM     38  N   UNL A   1      40.948  30.883  29.398  1.00  0.00    -0.354 N 
ATOM     39  C   UNL A   1      41.806  25.388  28.614  1.00  0.00     0.074 A 
ATOM     40  C   UNL A   1      40.415  25.031  28.480  1.00  0.00     0.031 C 
ATOM     41  C   UNL A   1      43.087  30.574  28.901  1.00  0.00     0.029 A 
ATOM     42  C   UNL A   1      42.222  31.295  29.818  1.00  0.00     0.049 A 
ATOM     43  H   UNL A   1      40.136  31.435  29.327  1.00  0.00     0.167 HD
ATOM     44  C   UNL A   1      42.999  24.896  28.170  1.00  0.00     0.034 A 
ATOM     45  C   UNL A   1      42.531  31.548  31.131  1.00  0.00     0.034 A 
ATOM     46  C   UNL A   1      44.102  25.790  28.582  1.00  0.00     0.049 A 
ATOM     47  C   UNL A   1      43.609  30.618  31.688  1.00  0.00     0.074 A 
ATOM     48  C   UNL A   1      44.847  26.750  27.914  1.00  0.00     0.029 A 
ATOM     49  N   UNL A   1      44.349  25.988  29.940  1.00  0.00    -0.354 N 
ATOM     50  N   UNL A   1      44.073  29.575  31.051  1.00  0.00    -0.248 NA
ATOM     51  C   UNL A   1      44.246  30.772  32.995  1.00  0.00     0.031 C 
ATOM     52  C   UNL A   1      45.429  27.611  28.891  1.00  0.00     0.029 A 
ATOM     53  C   UNL A   1      45.076  27.152  30.150  1.00  0.00     0.049 A 
ATOM     54  H   UNL A   1      44.047  25.382  30.655  1.00  0.00     0.167 HD
ATOM     55  C   UNL A   1      44.913  28.856  31.854  1.00  0.00     0.074 A 
ATOM     56  C   UNL A   1      45.058  29.698  33.031  1.00  0.00     0.031 C 
ATOM     57  C   UNL A   1      45.360  27.606  31.513  1.00  0.00     0.034 A 
BRANCH  44  58
ATOM     58  C   UNL A   1      43.190  23.777  27.144  1.00  0.00     0.023 A 
ATOM     59  C   UNL A   1      43.886  24.103  25.956  1.00  0.00     0.012 A 
ATOM     60  C   UNL A   1      42.687  22.452  27.200  1.00  0.00     0.148 A 
ATOM     61  C   UNL A   1      44.013  23.214  24.879  1.00  0.00     0.002 A 
ATOM     62  C   UNL A   1      42.787  21.570  26.118  1.00  0.00     0.091 A 
ATOM     63  F   UNL A   1      42.137  21.988  28.318  1.00  0.00    -0.205 F 
ATOM     64  C   UNL A   1      43.445  21.952  24.950  1.00  0.00     0.022 A 
BRANCH  62  65
ATOM     65  S   UNL A   1      42.051  19.920  26.139  1.00  0.00     0.127 S 
ATOM     66  O   UNL A   1      42.471  19.414  27.447  1.00  0.00    -0.237 OA
ATOM     67  O   UNL A   1      40.624  20.215  26.030  1.00  0.00    -0.237 OA
ATOM     68  O   UNL A   1      42.621  19.198  25.008  1.00  0.00    -0.744 OA
ENDBRANCH  62  65
ENDBRANCH  44  58
BRANCH  45  69
ATOM     69  C   UNL A   1      41.379  32.121  31.898  1.00  0.00     0.023 A 
ATOM     70  C   UNL A   1      40.883  33.366  31.435  1.00  0.00     0.012 A 
ATOM     71  C   UNL A   1      40.546  31.319  32.700  1.00  0.00     0.148 A 
ATOM     72  C   UNL A   1      39.538  33.703  31.590  1.00  0.00     0.002 A 
ATOM     73  C   UNL A   1      39.208  31.678  32.873  1.00  0.00     0.091 A 
ATOM     74  F   UNL A   1      41.047  30.191  33.220  1.00  0.00    -0.205 F 
ATOM     75  C   UNL A   1      38.690  32.835  32.269  1.00  0.00     0.022 A 
BRANCH  73  76
ATOM     76  S   UNL A   1      38.053  30.629  33.773  1.00  0.00     0.127 S 
ATOM     77  O   UNL A   1      36.772  31.069  33.229  1.00  0.00    -0.237 OA
ATOM     78  O   UNL A   1      38.460  29.284  33.368  1.00  0.00    -0.237 OA
ATOM     79  O   UNL A   1      38.292  30.925  35.177  1.00  0.00    -0.744 OA
ENDBRANCH  73  76
ENDBRANCH  45  69
BRANCH  57  80
ATOM     80  C   UNL A   1      46.089  26.667  32.455  1.00  0.00     0.023 A 
ATOM     81  C   UNL A   1      45.406  25.825  33.355  1.00  0.00     0.012 A 
ATOM     82  C   UNL A   1      47.493  26.482  32.348  1.00  0.00     0.148 A 
ATOM     83  C   UNL A   1      46.080  24.899  34.157  1.00  0.00     0.002 A 
ATOM     84  C   UNL A   1      48.142  25.479  33.062  1.00  0.00     0.091 A 
ATOM     85  F   UNL A   1      48.214  27.294  31.561  1.00  0.00    -0.205 F 
ATOM     86  C   UNL A   1      47.445  24.707  33.994  1.00  0.00     0.022 A 
BRANCH  84  87
ATOM     87  S   UNL A   1      49.844  25.034  32.689  1.00  0.00     0.127 S 
ATOM     88  O   UNL A   1      50.585  26.160  33.251  1.00  0.00    -0.237 OA
ATOM     89  O   UNL A   1      50.009  23.773  33.417  1.00  0.00    -0.237 OA
ATOM     90  O   UNL A   1      49.888  24.891  31.239  1.00  0.00    -0.744 OA
ENDBRANCH  84  87
ENDBRANCH  57  80
ENDBRANCH  31  32
ENDBRANCH  23  26
ENDBRANCH   1  22
TORSDOF 14
ENDMDL
