MODEL 1
REMARK VINA RESULT:     -12.0      0.000      0.000
REMARK SMILES COC(=O)c1cccc(-c2cnc(Cl)cc2C(=O)NCCCNC(=O)c2ccc(-c3c4nc(c(-c5cccc(S(=O)(=O)[O-])c5F)c5ccc([nH]5)c(-c5cccc(S(=O)(=O)[O-])c5F)c5nc(c(-c6cccc(S(=O)(=O)[O-])c6F)c6ccc3[nH]6)C=C5)C=C4)cc2)c1
REMARK SMILES IDX 21 1 20 2 19 3 17 4 18 5 16 7 10 8 11 9 12 10 15 11 13 12
REMARK SMILES IDX 14 13 9 14 5 15 6 16 89 17 7 18 8 19 3 20 4 21 2 22 1 23
REMARK SMILES IDX 22 24 23 25 24 26 25 28 26 29 27 30 88 31 28 32 87 33 29 34
REMARK SMILES IDX 30 35 31 36 81 37 32 38 86 39 80 40 82 41 33 42 85 43 79 44
REMARK SMILES IDX 78 45 34 47 66 48 46 49 65 50 47 51 50 52 64 53 83 54 48 55
REMARK SMILES IDX 49 56 63 58 84 59 51 60 35 61 36 62 44 63 37 64 39 65 45 66
REMARK SMILES IDX 38 67 40 68 41 69 42 70 43 71 67 72 68 73 76 74 69 75 71 76
REMARK SMILES IDX 77 77 70 78 72 79 73 80 74 81 75 82 52 83 53 84 61 85 54 86
REMARK SMILES IDX 56 87 62 88 55 89 57 90 58 91 59 92 60 93
REMARK H PARENT 19 6 23 27 82 46 50 57
REMARK Flexibility Score: inf
ROOT
ATOM      1  C   UNL A   1      33.067  28.419  27.253  1.00  0.00     0.042 C 
ENDROOT
BRANCH   1   2
ATOM      2  C   UNL A   1      31.710  28.009  26.684  1.00  0.00     0.118 C 
BRANCH   2   3
ATOM      3  N   UNL A   1      31.450  26.605  26.933  1.00  0.00    -0.352 N 
ATOM      4  C   UNL A   1      31.710  25.421  26.300  1.00  0.00     0.252 C 
ATOM      5  O   UNL A   1      31.277  24.442  26.907  1.00  0.00    -0.269 OA
ATOM      6  H   UNL A   1      30.960  26.470  27.776  1.00  0.00     0.163 HD
BRANCH   4   7
ATOM      7  C   UNL A   1      32.489  25.260  25.020  1.00  0.00     0.052 A 
ATOM      8  C   UNL A   1      31.919  25.650  23.778  1.00  0.00     0.013 A 
ATOM      9  C   UNL A   1      32.639  25.318  22.621  1.00  0.00     0.122 A 
ATOM     10  N   UNL A   1      33.825  24.678  22.596  1.00  0.00    -0.244 NA
ATOM     11  C   UNL A   1      33.770  24.703  25.005  1.00  0.00     0.055 A 
ATOM     12  C   UNL A   1      34.365  24.410  23.792  1.00  0.00     0.129 A 
ATOM     13  Cl  UNL A   1      35.883  23.614  23.727  1.00  0.00    -0.062 Cl
BRANCH   8  14
ATOM     14  C   UNL A   1      30.652  26.385  23.604  1.00  0.00    -0.015 A 
ATOM     15  C   UNL A   1      29.440  28.397  22.935  1.00  0.00     0.060 A 
ATOM     16  C   UNL A   1      28.245  27.829  23.388  1.00  0.00     0.016 A 
ATOM     17  C   UNL A   1      30.631  27.663  23.012  1.00  0.00     0.024 A 
ATOM     18  C   UNL A   1      28.239  26.540  23.916  1.00  0.00     0.002 A 
ATOM     19  C   UNL A   1      29.435  25.827  24.030  1.00  0.00     0.009 A 
BRANCH  15  20
ATOM     20  C   UNL A   1      29.404  29.797  22.441  1.00  0.00     0.337 C 
ATOM     21  O   UNL A   1      29.808  30.127  21.338  1.00  0.00    -0.246 OA
BRANCH  20  22
ATOM     22  O   UNL A   1      28.926  30.628  23.400  1.00  0.00    -0.465 OA
ATOM     23  C   UNL A   1      28.028  31.626  22.909  1.00  0.00     0.282 C 
ENDBRANCH  20  22
ENDBRANCH  15  20
ENDBRANCH   8  14
ENDBRANCH   4   7
ENDBRANCH   2   3
ENDBRANCH   1   2
BRANCH   1  24
ATOM     24  C   UNL A   1      33.843  29.361  26.331  1.00  0.00     0.118 C 
BRANCH  24  25
ATOM     25  N   UNL A   1      33.891  30.717  26.862  1.00  0.00    -0.352 N 
ATOM     26  C   UNL A   1      34.680  31.260  27.842  1.00  0.00     0.251 C 
ATOM     27  H   UNL A   1      33.253  31.345  26.451  1.00  0.00     0.163 HD
ATOM     28  O   UNL A   1      34.357  32.337  28.335  1.00  0.00    -0.269 OA
BRANCH  26  29
ATOM     29  C   UNL A   1      35.913  30.578  28.288  1.00  0.00     0.039 A 
ATOM     30  C   UNL A   1      35.849  29.730  29.397  1.00  0.00     0.014 A 
ATOM     31  C   UNL A   1      37.145  30.839  27.680  1.00  0.00     0.014 A 
ATOM     32  C   UNL A   1      37.014  29.141  29.887  1.00  0.00     0.010 A 
ATOM     33  C   UNL A   1      38.289  30.176  28.110  1.00  0.00     0.010 A 
ATOM     34  C   UNL A   1      38.244  29.354  29.244  1.00  0.00    -0.014 A 
BRANCH  34  35
ATOM     35  C   UNL A   1      39.496  28.763  29.780  1.00  0.00     0.031 A 
ATOM     36  C   UNL A   1      40.133  29.329  31.021  1.00  0.00     0.074 A 
ATOM     37  C   UNL A   1      40.085  27.747  29.120  1.00  0.00     0.049 A 
ATOM     38  N   UNL A   1      41.215  28.940  31.644  1.00  0.00    -0.248 NA
ATOM     39  C   UNL A   1      39.490  30.508  31.627  1.00  0.00     0.031 C 
ATOM     40  C   UNL A   1      39.615  27.174  27.859  1.00  0.00     0.029 A 
ATOM     41  N   UNL A   1      41.217  27.030  29.411  1.00  0.00    -0.354 N 
ATOM     42  C   UNL A   1      41.405  29.845  32.681  1.00  0.00     0.074 A 
ATOM     43  C   UNL A   1      40.351  30.829  32.580  1.00  0.00     0.031 C 
ATOM     44  C   UNL A   1      40.444  26.185  27.490  1.00  0.00     0.029 A 
ATOM     45  C   UNL A   1      41.517  26.071  28.472  1.00  0.00     0.049 A 
ATOM     46  H   UNL A   1      41.764  27.188  30.214  1.00  0.00     0.167 HD
ATOM     47  C   UNL A   1      42.353  29.843  33.650  1.00  0.00     0.034 A 
ATOM     48  C   UNL A   1      42.540  25.199  28.411  1.00  0.00     0.034 A 
ATOM     49  C   UNL A   1      43.374  28.838  33.767  1.00  0.00     0.049 A 
ATOM     50  C   UNL A   1      43.538  25.168  29.535  1.00  0.00     0.074 A 
ATOM     51  C   UNL A   1      44.320  28.683  34.764  1.00  0.00     0.029 A 
ATOM     52  N   UNL A   1      43.590  27.822  32.848  1.00  0.00    -0.354 N 
ATOM     53  N   UNL A   1      43.606  25.930  30.599  1.00  0.00    -0.248 NA
ATOM     54  C   UNL A   1      44.571  24.125  29.474  1.00  0.00     0.031 C 
ATOM     55  C   UNL A   1      45.134  27.595  34.426  1.00  0.00     0.029 A 
ATOM     56  C   UNL A   1      44.663  27.043  33.245  1.00  0.00     0.049 A 
ATOM     57  H   UNL A   1      43.059  27.677  32.032  1.00  0.00     0.167 HD
ATOM     58  C   UNL A   1      44.662  25.436  31.356  1.00  0.00     0.074 A 
ATOM     59  C   UNL A   1      45.192  24.297  30.634  1.00  0.00     0.031 C 
ATOM     60  C   UNL A   1      45.154  25.889  32.536  1.00  0.00     0.034 A 
BRANCH  47  61
ATOM     61  C   UNL A   1      42.307  30.950  34.675  1.00  0.00     0.023 A 
ATOM     62  C   UNL A   1      41.589  30.769  35.876  1.00  0.00     0.012 A 
ATOM     63  C   UNL A   1      42.998  32.158  34.463  1.00  0.00     0.148 A 
ATOM     64  C   UNL A   1      41.517  31.791  36.825  1.00  0.00     0.002 A 
ATOM     65  C   UNL A   1      42.968  33.151  35.436  1.00  0.00     0.091 A 
ATOM     66  F   UNL A   1      43.659  32.323  33.307  1.00  0.00    -0.205 F 
ATOM     67  C   UNL A   1      42.214  32.975  36.608  1.00  0.00     0.022 A 
BRANCH  65  68
ATOM     68  S   UNL A   1      43.903  34.676  35.292  1.00  0.00     0.127 S 
ATOM     69  O   UNL A   1      43.262  35.307  34.139  1.00  0.00    -0.237 OA
ATOM     70  O   UNL A   1      43.631  35.327  36.574  1.00  0.00    -0.237 OA
ATOM     71  O   UNL A   1      45.291  34.279  35.096  1.00  0.00    -0.744 OA
ENDBRANCH  65  68
ENDBRANCH  47  61
BRANCH  48  72
ATOM     72  C   UNL A   1      42.622  24.239  27.276  1.00  0.00     0.023 A 
ATOM     73  C   UNL A   1      43.354  24.583  26.122  1.00  0.00     0.012 A 
ATOM     74  C   UNL A   1      42.023  22.967  27.357  1.00  0.00     0.148 A 
ATOM     75  C   UNL A   1      43.461  23.688  25.057  1.00  0.00     0.002 A 
ATOM     76  C   UNL A   1      42.182  22.060  26.317  1.00  0.00     0.091 A 
ATOM     77  F   UNL A   1      41.330  22.664  28.463  1.00  0.00    -0.205 F 
ATOM     78  C   UNL A   1      42.884  22.425  25.158  1.00  0.00     0.022 A 
BRANCH  76  79
ATOM     79  S   UNL A   1      41.593  20.367  26.416  1.00  0.00     0.127 S 
ATOM     80  O   UNL A   1      40.151  20.541  26.255  1.00  0.00    -0.237 OA
ATOM     81  O   UNL A   1      42.271  19.748  25.276  1.00  0.00    -0.237 OA
ATOM     82  O   UNL A   1      42.026  19.872  27.715  1.00  0.00    -0.744 OA
ENDBRANCH  76  79
ENDBRANCH  48  72
BRANCH  60  83
ATOM     83  C   UNL A   1      46.295  25.121  33.153  1.00  0.00     0.023 A 
ATOM     84  C   UNL A   1      47.626  25.537  32.951  1.00  0.00     0.012 A 
ATOM     85  C   UNL A   1      46.037  24.008  33.979  1.00  0.00     0.148 A 
ATOM     86  C   UNL A   1      48.684  24.829  33.521  1.00  0.00     0.002 A 
ATOM     87  C   UNL A   1      47.092  23.343  34.589  1.00  0.00     0.091 A 
ATOM     88  F   UNL A   1      44.766  23.614  34.145  1.00  0.00    -0.205 F 
ATOM     89  C   UNL A   1      48.417  23.741  34.348  1.00  0.00     0.022 A 
BRANCH  87  90
ATOM     90  S   UNL A   1      46.832  21.999  35.752  1.00  0.00     0.127 S 
ATOM     91  O   UNL A   1      48.181  21.451  35.881  1.00  0.00    -0.237 OA
ATOM     92  O   UNL A   1      46.343  22.704  36.938  1.00  0.00    -0.237 OA
ATOM     93  O   UNL A   1      45.853  21.117  35.130  1.00  0.00    -0.744 OA
ENDBRANCH  87  90
ENDBRANCH  60  83
ENDBRANCH  34  35
ENDBRANCH  26  29
ENDBRANCH  24  25
ENDBRANCH   1  24
TORSDOF 16
ENDMDL
MODEL 2
REMARK VINA RESULT:     -12.0      1.977      3.369
REMARK SMILES COC(=O)c1cccc(-c2cnc(Cl)cc2C(=O)NCCCNC(=O)c2ccc(-c3c4nc(c(-c5cccc(S(=O)(=O)[O-])c5F)c5ccc([nH]5)c(-c5cccc(S(=O)(=O)[O-])c5F)c5nc(c(-c6cccc(S(=O)(=O)[O-])c6F)c6ccc3[nH]6)C=C5)C=C4)cc2)c1
REMARK SMILES IDX 21 1 20 2 19 3 17 4 18 5 16 7 10 8 11 9 12 10 15 11 13 12
REMARK SMILES IDX 14 13 9 14 5 15 6 16 89 17 7 18 8 19 3 20 4 21 2 22 1 23
REMARK SMILES IDX 22 24 23 25 24 26 25 28 26 29 27 30 88 31 28 32 87 33 29 34
REMARK SMILES IDX 30 35 31 36 81 37 32 38 86 39 80 40 82 41 33 42 85 43 79 44
REMARK SMILES IDX 78 45 34 47 66 48 46 49 65 50 47 51 50 52 64 53 83 54 48 55
REMARK SMILES IDX 49 56 63 58 84 59 51 60 35 61 36 62 44 63 37 64 39 65 45 66
REMARK SMILES IDX 38 67 40 68 41 69 42 70 43 71 67 72 68 73 76 74 69 75 71 76
REMARK SMILES IDX 77 77 70 78 72 79 73 80 74 81 75 82 52 83 53 84 61 85 54 86
REMARK SMILES IDX 56 87 62 88 55 89 57 90 58 91 59 92 60 93
REMARK H PARENT 19 6 23 27 82 46 50 57
REMARK Flexibility Score: inf
ROOT
ATOM      1  C   UNL A   1      33.403  27.844  26.691  1.00  0.00     0.042 C 
ENDROOT
BRANCH   1   2
ATOM      2  C   UNL A   1      31.985  28.149  27.167  1.00  0.00     0.118 C 
BRANCH   2   3
ATOM      3  N   UNL A   1      31.141  26.975  27.060  1.00  0.00    -0.352 N 
ATOM      4  C   UNL A   1      30.515  26.292  26.054  1.00  0.00     0.252 C 
ATOM      5  O   UNL A   1      29.879  25.318  26.454  1.00  0.00    -0.269 OA
ATOM      6  H   UNL A   1      30.978  26.563  27.939  1.00  0.00     0.163 HD
BRANCH   4   7
ATOM      7  C   UNL A   1      30.600  26.617  24.586  1.00  0.00     0.052 A 
ATOM      8  C   UNL A   1      31.358  25.795  23.709  1.00  0.00     0.013 A 
ATOM      9  C   UNL A   1      31.522  26.255  22.394  1.00  0.00     0.122 A 
ATOM     10  N   UNL A   1      31.009  27.398  21.898  1.00  0.00    -0.244 NA
ATOM     11  C   UNL A   1      29.970  27.741  24.045  1.00  0.00     0.055 A 
ATOM     12  C   UNL A   1      30.229  28.096  22.733  1.00  0.00     0.129 A 
ATOM     13  Cl  UNL A   1      29.575  29.534  22.065  1.00  0.00    -0.062 Cl
BRANCH   8  14
ATOM     14  C   UNL A   1      31.968  24.497  24.058  1.00  0.00    -0.015 A 
ATOM     15  C   UNL A   1      33.902  23.180  24.758  1.00  0.00     0.060 A 
ATOM     16  C   UNL A   1      33.158  22.006  24.605  1.00  0.00     0.016 A 
ATOM     17  C   UNL A   1      33.297  24.421  24.518  1.00  0.00     0.024 A 
ATOM     18  C   UNL A   1      31.822  22.069  24.215  1.00  0.00     0.002 A 
ATOM     19  C   UNL A   1      31.234  23.305  23.936  1.00  0.00     0.009 A 
BRANCH  15  20
ATOM     20  C   UNL A   1      35.338  23.055  25.113  1.00  0.00     0.337 C 
ATOM     21  O   UNL A   1      35.851  23.656  26.043  1.00  0.00    -0.246 OA
BRANCH  20  22
ATOM     22  O   UNL A   1      35.978  22.245  24.233  1.00  0.00    -0.465 OA
ATOM     23  C   UNL A   1      36.723  22.948  23.235  1.00  0.00     0.282 C 
ENDBRANCH  20  22
ENDBRANCH  15  20
ENDBRANCH   8  14
ENDBRANCH   4   7
ENDBRANCH   2   3
ENDBRANCH   1   2
BRANCH   1  24
ATOM     24  C   UNL A   1      34.011  28.973  25.858  1.00  0.00     0.118 C 
BRANCH  24  25
ATOM     25  N   UNL A   1      33.892  30.262  26.529  1.00  0.00    -0.352 N 
ATOM     26  C   UNL A   1      34.581  30.774  27.597  1.00  0.00     0.251 C 
ATOM     27  H   UNL A   1      33.206  30.860  26.155  1.00  0.00     0.163 HD
ATOM     28  O   UNL A   1      34.125  31.753  28.183  1.00  0.00    -0.269 OA
BRANCH  26  29
ATOM     29  C   UNL A   1      35.864  30.181  28.029  1.00  0.00     0.039 A 
ATOM     30  C   UNL A   1      35.919  29.526  29.263  1.00  0.00     0.014 A 
ATOM     31  C   UNL A   1      37.028  30.342  27.272  1.00  0.00     0.014 A 
ATOM     32  C   UNL A   1      37.137  29.030  29.729  1.00  0.00     0.010 A 
ATOM     33  C   UNL A   1      38.220  29.764  27.694  1.00  0.00     0.010 A 
ATOM     34  C   UNL A   1      38.297  29.140  28.947  1.00  0.00    -0.014 A 
BRANCH  34  35
ATOM     35  C   UNL A   1      39.604  28.649  29.450  1.00  0.00     0.031 A 
ATOM     36  C   UNL A   1      40.294  29.356  30.587  1.00  0.00     0.074 A 
ATOM     37  C   UNL A   1      40.194  27.597  28.851  1.00  0.00     0.049 A 
ATOM     38  N   UNL A   1      41.429  29.069  31.170  1.00  0.00    -0.248 NA
ATOM     39  C   UNL A   1      39.640  30.564  31.121  1.00  0.00     0.031 C 
ATOM     40  C   UNL A   1      39.670  26.888  27.683  1.00  0.00     0.029 A 
ATOM     41  N   UNL A   1      41.372  26.954  29.131  1.00  0.00    -0.354 N 
ATOM     42  C   UNL A   1      41.645  30.078  32.102  1.00  0.00     0.074 A 
ATOM     43  C   UNL A   1      40.546  31.008  31.979  1.00  0.00     0.031 C 
ATOM     44  C   UNL A   1      40.515  25.899  27.355  1.00  0.00     0.029 A 
ATOM     45  C   UNL A   1      41.652  25.921  28.269  1.00  0.00     0.049 A 
ATOM     46  H   UNL A   1      41.962  27.209  29.877  1.00  0.00     0.167 HD
ATOM     47  C   UNL A   1      42.652  30.204  33.000  1.00  0.00     0.034 A 
ATOM     48  C   UNL A   1      42.706  25.084  28.222  1.00  0.00     0.034 A 
ATOM     49  C   UNL A   1      43.721  29.254  33.142  1.00  0.00     0.049 A 
ATOM     50  C   UNL A   1      43.775  25.199  29.274  1.00  0.00     0.074 A 
ATOM     51  C   UNL A   1      44.734  29.231  34.083  1.00  0.00     0.029 A 
ATOM     52  N   UNL A   1      43.922  28.162  32.311  1.00  0.00    -0.354 N 
ATOM     53  N   UNL A   1      43.876  26.063  30.255  1.00  0.00    -0.248 NA
ATOM     54  C   UNL A   1      44.846  24.194  29.242  1.00  0.00     0.031 C 
ATOM     55  C   UNL A   1      45.571  28.146  33.795  1.00  0.00     0.029 A 
ATOM     56  C   UNL A   1      45.050  27.465  32.707  1.00  0.00     0.049 A 
ATOM     57  H   UNL A   1      43.347  27.919  31.550  1.00  0.00     0.167 HD
ATOM     58  C   UNL A   1      44.999  25.684  30.982  1.00  0.00     0.074 A 
ATOM     59  C   UNL A   1      45.531  24.500  30.336  1.00  0.00     0.031 C 
ATOM     60  C   UNL A   1      45.545  26.267  32.078  1.00  0.00     0.034 A 
BRANCH  47  61
ATOM     61  C   UNL A   1      42.623  31.402  33.917  1.00  0.00     0.023 A 
ATOM     62  C   UNL A   1      43.210  32.618  33.507  1.00  0.00     0.012 A 
ATOM     63  C   UNL A   1      41.989  31.335  35.172  1.00  0.00     0.148 A 
ATOM     64  C   UNL A   1      43.212  33.730  34.352  1.00  0.00     0.002 A 
ATOM     65  C   UNL A   1      41.946  32.462  35.986  1.00  0.00     0.091 A 
ATOM     66  F   UNL A   1      41.454  30.166  35.557  1.00  0.00    -0.205 F 
ATOM     67  C   UNL A   1      42.572  33.653  35.585  1.00  0.00     0.022 A 
BRANCH  65  68
ATOM     68  S   UNL A   1      41.071  32.490  37.553  1.00  0.00     0.127 S 
ATOM     69  O   UNL A   1      39.780  31.913  37.180  1.00  0.00    -0.237 OA
ATOM     70  O   UNL A   1      41.907  31.627  38.388  1.00  0.00    -0.237 OA
ATOM     71  O   UNL A   1      41.036  33.885  37.969  1.00  0.00    -0.744 OA
ENDBRANCH  65  68
ENDBRANCH  47  61
BRANCH  48  72
ATOM     72  C   UNL A   1      42.758  24.023  27.179  1.00  0.00     0.023 A 
ATOM     73  C   UNL A   1      43.520  24.227  26.012  1.00  0.00     0.012 A 
ATOM     74  C   UNL A   1      42.098  22.793  27.364  1.00  0.00     0.148 A 
ATOM     75  C   UNL A   1      43.598  23.235  25.033  1.00  0.00     0.002 A 
ATOM     76  C   UNL A   1      42.227  21.789  26.412  1.00  0.00     0.091 A 
ATOM     77  F   UNL A   1      41.377  22.623  28.481  1.00  0.00    -0.205 F 
ATOM     78  C   UNL A   1      42.961  22.015  25.238  1.00  0.00     0.022 A 
BRANCH  76  79
ATOM     79  S   UNL A   1      41.557  20.140  26.654  1.00  0.00     0.127 S 
ATOM     80  O   UNL A   1      42.250  19.710  27.865  1.00  0.00    -0.237 OA
ATOM     81  O   UNL A   1      40.131  20.421  26.824  1.00  0.00    -0.237 OA
ATOM     82  O   UNL A   1      41.884  19.398  25.444  1.00  0.00    -0.744 OA
ENDBRANCH  76  79
ENDBRANCH  48  72
BRANCH  60  83
ATOM     83  C   UNL A   1      46.754  25.605  32.686  1.00  0.00     0.023 A 
ATOM     84  C   UNL A   1      48.051  25.971  32.273  1.00  0.00     0.012 A 
ATOM     85  C   UNL A   1      46.600  24.649  33.711  1.00  0.00     0.148 A 
ATOM     86  C   UNL A   1      49.172  25.361  32.834  1.00  0.00     0.002 A 
ATOM     87  C   UNL A   1      47.723  24.088  34.305  1.00  0.00     0.091 A 
ATOM     88  F   UNL A   1      45.360  24.299  34.080  1.00  0.00    -0.205 F 
ATOM     89  C   UNL A   1      49.009  24.429  33.856  1.00  0.00     0.022 A 
BRANCH  87  90
ATOM     90  S   UNL A   1      47.606  22.961  35.699  1.00  0.00     0.127 S 
ATOM     91  O   UNL A   1      46.872  23.766  36.673  1.00  0.00    -0.237 OA
ATOM     92  O   UNL A   1      46.845  21.845  35.133  1.00  0.00    -0.237 OA
ATOM     93  O   UNL A   1      48.977  22.630  36.063  1.00  0.00    -0.744 OA
ENDBRANCH  87  90
ENDBRANCH  60  83
ENDBRANCH  34  35
ENDBRANCH  26  29
ENDBRANCH  24  25
ENDBRANCH   1  24
TORSDOF 16
ENDMDL
MODEL 3
REMARK VINA RESULT:     -12.0      1.218      1.663
REMARK SMILES COC(=O)c1cccc(-c2cnc(Cl)cc2C(=O)NCCCNC(=O)c2ccc(-c3c4nc(c(-c5cccc(S(=O)(=O)[O-])c5F)c5ccc([nH]5)c(-c5cccc(S(=O)(=O)[O-])c5F)c5nc(c(-c6cccc(S(=O)(=O)[O-])c6F)c6ccc3[nH]6)C=C5)C=C4)cc2)c1
REMARK SMILES IDX 21 1 20 2 19 3 17 4 18 5 16 7 10 8 11 9 12 10 15 11 13 12
REMARK SMILES IDX 14 13 9 14 5 15 6 16 89 17 7 18 8 19 3 20 4 21 2 22 1 23
REMARK SMILES IDX 22 24 23 25 24 26 25 28 26 29 27 30 88 31 28 32 87 33 29 34
REMARK SMILES IDX 30 35 31 36 81 37 32 38 86 39 80 40 82 41 33 42 85 43 79 44
REMARK SMILES IDX 78 45 34 47 66 48 46 49 65 50 47 51 50 52 64 53 83 54 48 55
REMARK SMILES IDX 49 56 63 58 84 59 51 60 35 61 36 62 44 63 37 64 39 65 45 66
REMARK SMILES IDX 38 67 40 68 41 69 42 70 43 71 67 72 68 73 76 74 69 75 71 76
REMARK SMILES IDX 77 77 70 78 72 79 73 80 74 81 75 82 52 83 53 84 61 85 54 86
REMARK SMILES IDX 56 87 62 88 55 89 57 90 58 91 59 92 60 93
REMARK H PARENT 19 6 23 27 82 46 50 57
REMARK Flexibility Score: inf
ROOT
ATOM      1  C   UNL A   1      33.388  28.349  27.154  1.00  0.00     0.042 C 
ENDROOT
BRANCH   1   2
ATOM      2  C   UNL A   1      32.039  27.979  26.540  1.00  0.00     0.118 C 
BRANCH   2   3
ATOM      3  N   UNL A   1      31.703  26.599  26.827  1.00  0.00    -0.352 N 
ATOM      4  C   UNL A   1      31.865  25.389  26.210  1.00  0.00     0.252 C 
ATOM      5  O   UNL A   1      31.396  24.451  26.853  1.00  0.00    -0.269 OA
ATOM      6  H   UNL A   1      31.238  26.510  27.690  1.00  0.00     0.163 HD
BRANCH   4   7
ATOM      7  C   UNL A   1      32.583  25.158  24.905  1.00  0.00     0.052 A 
ATOM      8  C   UNL A   1      31.976  25.528  23.675  1.00  0.00     0.013 A 
ATOM      9  C   UNL A   1      32.634  25.131  22.501  1.00  0.00     0.122 A 
ATOM     10  N   UNL A   1      33.794  24.446  22.450  1.00  0.00    -0.244 NA
ATOM     11  C   UNL A   1      33.841  24.552  24.857  1.00  0.00     0.055 A 
ATOM     12  C   UNL A   1      34.373  24.197  23.631  1.00  0.00     0.129 A 
ATOM     13  Cl  UNL A   1      35.857  23.341  23.531  1.00  0.00    -0.062 Cl
BRANCH   8  14
ATOM     14  C   UNL A   1      30.731  26.305  23.528  1.00  0.00    -0.015 A 
ATOM     15  C   UNL A   1      29.575  28.362  22.898  1.00  0.00     0.060 A 
ATOM     16  C   UNL A   1      28.369  27.828  23.363  1.00  0.00     0.016 A 
ATOM     17  C   UNL A   1      30.742  27.589  22.949  1.00  0.00     0.024 A 
ATOM     18  C   UNL A   1      28.329  26.534  23.878  1.00  0.00     0.002 A 
ATOM     19  C   UNL A   1      29.503  25.781  23.967  1.00  0.00     0.009 A 
BRANCH  15  20
ATOM     20  C   UNL A   1      29.576  29.768  22.418  1.00  0.00     0.337 C 
ATOM     21  O   UNL A   1      29.760  30.076  21.252  1.00  0.00    -0.246 OA
BRANCH  20  22
ATOM     22  O   UNL A   1      29.409  30.625  23.456  1.00  0.00    -0.465 OA
ATOM     23  C   UNL A   1      28.216  31.409  23.375  1.00  0.00     0.282 C 
ENDBRANCH  20  22
ENDBRANCH  15  20
ENDBRANCH   8  14
ENDBRANCH   4   7
ENDBRANCH   2   3
ENDBRANCH   1   2
BRANCH   1  24
ATOM     24  C   UNL A   1      34.129  29.429  26.364  1.00  0.00     0.118 C 
BRANCH  24  25
ATOM     25  N   UNL A   1      33.914  30.754  26.930  1.00  0.00    -0.352 N 
ATOM     26  C   UNL A   1      34.506  31.370  28.001  1.00  0.00     0.251 C 
ATOM     27  H   UNL A   1      33.231  31.295  26.470  1.00  0.00     0.163 HD
ATOM     28  O   UNL A   1      33.973  32.366  28.483  1.00  0.00    -0.269 OA
BRANCH  26  29
ATOM     29  C   UNL A   1      35.778  30.865  28.560  1.00  0.00     0.039 A 
ATOM     30  C   UNL A   1      36.978  31.426  28.113  1.00  0.00     0.014 A 
ATOM     31  C   UNL A   1      35.801  29.786  29.448  1.00  0.00     0.014 A 
ATOM     32  C   UNL A   1      38.193  30.911  28.563  1.00  0.00     0.010 A 
ATOM     33  C   UNL A   1      37.010  29.337  29.969  1.00  0.00     0.010 A 
ATOM     34  C   UNL A   1      38.220  29.865  29.500  1.00  0.00    -0.014 A 
BRANCH  34  35
ATOM     35  C   UNL A   1      39.508  29.285  29.956  1.00  0.00     0.031 A 
ATOM     36  C   UNL A   1      40.247  29.896  31.117  1.00  0.00     0.074 A 
ATOM     37  C   UNL A   1      40.036  28.238  29.294  1.00  0.00     0.049 A 
ATOM     38  N   UNL A   1      41.375  29.523  31.665  1.00  0.00    -0.248 NA
ATOM     39  C   UNL A   1      39.663  31.105  31.723  1.00  0.00     0.031 C 
ATOM     40  C   UNL A   1      39.461  27.618  28.099  1.00  0.00     0.029 A 
ATOM     41  N   UNL A   1      41.184  27.524  29.521  1.00  0.00    -0.354 N 
ATOM     42  C   UNL A   1      41.653  30.469  32.644  1.00  0.00     0.074 A 
ATOM     43  C   UNL A   1      40.601  31.458  32.588  1.00  0.00     0.031 C 
ATOM     44  C   UNL A   1      40.251  26.607  27.706  1.00  0.00     0.029 A 
ATOM     45  C   UNL A   1      41.400  26.524  28.602  1.00  0.00     0.049 A 
ATOM     46  H   UNL A   1      41.796  27.709  30.269  1.00  0.00     0.167 HD
ATOM     47  C   UNL A   1      42.678  30.499  33.532  1.00  0.00     0.034 A 
ATOM     48  C   UNL A   1      42.410  25.641  28.494  1.00  0.00     0.034 A 
ATOM     49  C   UNL A   1      43.699  29.491  33.607  1.00  0.00     0.049 A 
ATOM     50  C   UNL A   1      43.497  25.648  29.533  1.00  0.00     0.074 A 
ATOM     51  C   UNL A   1      44.723  29.369  34.529  1.00  0.00     0.029 A 
ATOM     52  N   UNL A   1      43.834  28.436  32.717  1.00  0.00    -0.354 N 
ATOM     53  N   UNL A   1      43.656  26.452  30.556  1.00  0.00    -0.248 NA
ATOM     54  C   UNL A   1      44.516  24.594  29.432  1.00  0.00     0.031 C 
ATOM     55  C   UNL A   1      45.501  28.260  34.172  1.00  0.00     0.029 A 
ATOM     56  C   UNL A   1      44.931  27.664  33.058  1.00  0.00     0.049 A 
ATOM     57  H   UNL A   1      43.237  28.261  31.954  1.00  0.00     0.167 HD
ATOM     58  C   UNL A   1      44.768  25.981  31.244  1.00  0.00     0.074 A 
ATOM     59  C   UNL A   1      45.230  24.808  30.529  1.00  0.00     0.031 C 
ATOM     60  C   UNL A   1      45.357  26.478  32.360  1.00  0.00     0.034 A 
BRANCH  47  61
ATOM     61  C   UNL A   1      42.721  31.647  34.510  1.00  0.00     0.023 A 
ATOM     62  C   UNL A   1      43.401  32.837  34.171  1.00  0.00     0.012 A 
ATOM     63  C   UNL A   1      42.065  31.562  35.752  1.00  0.00     0.148 A 
ATOM     64  C   UNL A   1      43.471  33.900  35.073  1.00  0.00     0.002 A 
ATOM     65  C   UNL A   1      42.091  32.645  36.624  1.00  0.00     0.091 A 
ATOM     66  F   UNL A   1      41.441  30.417  36.069  1.00  0.00    -0.205 F 
ATOM     67  C   UNL A   1      42.808  33.807  36.293  1.00  0.00     0.022 A 
BRANCH  65  68
ATOM     68  S   UNL A   1      41.196  32.657  38.179  1.00  0.00     0.127 S 
ATOM     69  O   UNL A   1      41.920  31.643  38.944  1.00  0.00    -0.237 OA
ATOM     70  O   UNL A   1      41.401  34.030  38.642  1.00  0.00    -0.237 OA
ATOM     71  O   UNL A   1      39.816  32.328  37.852  1.00  0.00    -0.744 OA
ENDBRANCH  65  68
ENDBRANCH  47  61
BRANCH  48  72
ATOM     72  C   UNL A   1      42.394  24.634  27.397  1.00  0.00     0.023 A 
ATOM     73  C   UNL A   1      43.262  24.786  26.297  1.00  0.00     0.012 A 
ATOM     74  C   UNL A   1      41.561  23.501  27.465  1.00  0.00     0.148 A 
ATOM     75  C   UNL A   1      43.277  23.842  25.270  1.00  0.00     0.002 A 
ATOM     76  C   UNL A   1      41.623  22.537  26.467  1.00  0.00     0.091 A 
ATOM     77  F   UNL A   1      40.742  23.381  28.519  1.00  0.00    -0.205 F 
ATOM     78  C   UNL A   1      42.466  22.714  25.360  1.00  0.00     0.022 A 
BRANCH  76  79
ATOM     79  S   UNL A   1      40.718  20.988  26.566  1.00  0.00     0.127 S 
ATOM     80  O   UNL A   1      41.532  20.112  25.728  1.00  0.00    -0.237 OA
ATOM     81  O   UNL A   1      40.778  20.700  28.000  1.00  0.00    -0.237 OA
ATOM     82  O   UNL A   1      39.382  21.277  26.066  1.00  0.00    -0.744 OA
ENDBRANCH  76  79
ENDBRANCH  48  72
BRANCH  60  83
ATOM     83  C   UNL A   1      46.540  25.726  32.913  1.00  0.00     0.023 A 
ATOM     84  C   UNL A   1      47.851  26.104  32.564  1.00  0.00     0.012 A 
ATOM     85  C   UNL A   1      46.345  24.668  33.825  1.00  0.00     0.148 A 
ATOM     86  C   UNL A   1      48.948  25.411  33.075  1.00  0.00     0.002 A 
ATOM     87  C   UNL A   1      47.445  24.020  34.374  1.00  0.00     0.091 A 
ATOM     88  F   UNL A   1      45.091  24.309  34.132  1.00  0.00    -0.205 F 
ATOM     89  C   UNL A   1      48.746  24.378  33.987  1.00  0.00     0.022 A 
BRANCH  87  90
ATOM     90  S   UNL A   1      47.276  22.752  35.635  1.00  0.00     0.127 S 
ATOM     91  O   UNL A   1      46.536  23.462  36.676  1.00  0.00    -0.237 OA
ATOM     92  O   UNL A   1      46.507  21.720  34.936  1.00  0.00    -0.237 OA
ATOM     93  O   UNL A   1      48.632  22.355  35.987  1.00  0.00    -0.744 OA
ENDBRANCH  87  90
ENDBRANCH  60  83
ENDBRANCH  34  35
ENDBRANCH  26  29
ENDBRANCH  24  25
ENDBRANCH   1  24
TORSDOF 16
ENDMDL
