MODEL 1
REMARK VINA RESULT:     -14.9      0.000      0.000
REMARK SMILES C[C@]12C(=O)N(c3ccc(C(=O)NCCCNC(=O)c4ccc(-c5c6nc(c(-c7cccc(S(=O)(=O)[O-])c7F)c7ccc([nH]7)c(-c7cccc(S(=O)(=O)[O-])c7F)c7nc(c(-c8cccc(S(=O)(=O)[O-])c8F)c8ccc5[nH]8)C=C7)C=C6)cc4)cc3)C(=O)[C@H]1[C@H]1c3ccccc3[C@@H]2c2ccccc21
REMARK SMILES IDX 15 1 14 2 13 3 12 4 10 5 11 6 9 8 6 9 7 10 83 11 8 12 82 13
REMARK SMILES IDX 5 14 1 15 2 16 3 17 86 18 94 19 4 20 84 21 87 22 93 23 95 24
REMARK SMILES IDX 85 25 88 26 100 27 92 28 96 29 89 30 99 31 91 32 97 33 90 34
REMARK SMILES IDX 98 35 16 36 17 37 18 39 19 40 20 41 81 42 21 43 80 44 22 45
REMARK SMILES IDX 23 46 24 47 74 48 25 49 79 50 73 51 75 52 26 53 78 54 72 55
REMARK SMILES IDX 71 56 27 58 59 59 39 60 58 61 40 62 43 63 57 64 76 65 41 66
REMARK SMILES IDX 42 67 56 69 77 70 44 71 28 72 29 73 37 74 30 75 32 76 38 77
REMARK SMILES IDX 31 78 33 79 34 80 35 81 36 82 60 83 61 84 69 85 62 86 64 87
REMARK SMILES IDX 70 88 63 89 65 90 66 91 67 92 68 93 45 94 46 95 54 96 47 97
REMARK SMILES IDX 49 98 55 99 48 100 50 101 51 102 52 103 53 104
REMARK H PARENT 12 7 16 38 75 57 43 68
REMARK Flexibility Score: inf
ROOT
ATOM      1  C   UNL A   1      32.057  31.906  26.655  1.00  0.00     0.118 C 
ENDROOT
BRANCH   1   2
ATOM      2  C   UNL A   1      30.675  31.553  26.120  1.00  0.00     0.042 C 
BRANCH   2   3
ATOM      3  C   UNL A   1      30.422  32.060  24.709  1.00  0.00     0.118 C 
BRANCH   3   4
ATOM      4  N   UNL A   1      29.077  31.777  24.235  1.00  0.00    -0.352 N 
ATOM      5  C   UNL A   1      28.542  30.766  23.484  1.00  0.00     0.251 C 
ATOM      6  O   UNL A   1      27.358  30.868  23.154  1.00  0.00    -0.269 OA
ATOM      7  H   UNL A   1      28.414  32.450  24.513  1.00  0.00     0.163 HD
BRANCH   5   8
ATOM      8  C   UNL A   1      29.307  29.575  23.030  1.00  0.00     0.039 A 
ATOM      9  C   UNL A   1      30.767  27.189  22.448  1.00  0.00     0.052 A 
ATOM     10  C   UNL A   1      29.559  27.159  23.167  1.00  0.00     0.027 A 
ATOM     11  C   UNL A   1      31.210  28.442  22.003  1.00  0.00     0.027 A 
ATOM     12  C   UNL A   1      28.841  28.328  23.452  1.00  0.00     0.016 A 
ATOM     13  C   UNL A   1      30.513  29.621  22.330  1.00  0.00     0.016 A 
BRANCH   9  14
ATOM     14  N   UNL A   1      31.633  26.050  22.404  1.00  0.00    -0.250 N 
ATOM     15  C   UNL A   1      32.930  23.030  22.813  1.00  0.00     0.024 C 
ATOM     16  C   UNL A   1      32.577  24.304  23.610  1.00  0.00     0.071 C 
ATOM     17  C   UNL A   1      31.308  24.868  23.033  1.00  0.00     0.241 C 
ATOM     18  C   UNL A   1      33.646  25.420  23.375  1.00  0.00     0.107 C 
ATOM     19  C   UNL A   1      32.379  24.080  25.143  1.00  0.00     0.066 C 
ATOM     20  O   UNL A   1      30.235  24.301  23.128  1.00  0.00    -0.273 OA
ATOM     21  C   UNL A   1      33.013  26.103  22.170  1.00  0.00     0.238 C 
ATOM     22  C   UNL A   1      34.532  25.552  24.684  1.00  0.00     0.063 C 
ATOM     23  C   UNL A   1      32.326  25.458  25.829  1.00  0.00    -0.036 A 
ATOM     24  C   UNL A   1      33.670  23.424  25.612  1.00  0.00    -0.036 A 
ATOM     25  O   UNL A   1      33.620  26.661  21.269  1.00  0.00    -0.274 OA
ATOM     26  C   UNL A   1      33.527  26.220  25.687  1.00  0.00    -0.036 A 
ATOM     27  C   UNL A   1      34.832  24.185  25.315  1.00  0.00    -0.036 A 
ATOM     28  C   UNL A   1      31.195  26.040  26.381  1.00  0.00     0.005 A 
ATOM     29  C   UNL A   1      33.736  22.233  26.324  1.00  0.00     0.005 A 
ATOM     30  C   UNL A   1      33.594  27.546  26.102  1.00  0.00     0.004 A 
ATOM     31  C   UNL A   1      36.069  23.740  25.760  1.00  0.00     0.004 A 
ATOM     32  C   UNL A   1      31.263  27.376  26.789  1.00  0.00     0.000 A 
ATOM     33  C   UNL A   1      34.982  21.793  26.758  1.00  0.00     0.000 A 
ATOM     34  C   UNL A   1      32.448  28.119  26.656  1.00  0.00     0.000 A 
ATOM     35  C   UNL A   1      36.137  22.540  26.480  1.00  0.00     0.000 A 
ENDBRANCH   9  14
ENDBRANCH   5   8
ENDBRANCH   3   4
ENDBRANCH   2   3
ENDBRANCH   1   2
BRANCH   1  36
ATOM     36  N   UNL A   1      32.148  33.286  27.125  1.00  0.00    -0.352 N 
ATOM     37  C   UNL A   1      33.025  33.900  27.988  1.00  0.00     0.251 C 
ATOM     38  H   UNL A   1      31.458  33.884  26.757  1.00  0.00     0.163 HD
ATOM     39  O   UNL A   1      32.760  35.026  28.403  1.00  0.00    -0.269 OA
BRANCH  37  40
ATOM     40  C   UNL A   1      34.254  33.214  28.445  1.00  0.00     0.039 A 
ATOM     41  C   UNL A   1      34.193  31.954  29.037  1.00  0.00     0.014 A 
ATOM     42  C   UNL A   1      35.498  33.828  28.258  1.00  0.00     0.014 A 
ATOM     43  C   UNL A   1      35.326  31.412  29.629  1.00  0.00     0.010 A 
ATOM     44  C   UNL A   1      36.658  33.226  28.758  1.00  0.00     0.010 A 
ATOM     45  C   UNL A   1      36.574  32.041  29.505  1.00  0.00    -0.014 A 
BRANCH  45  46
ATOM     46  C   UNL A   1      37.762  31.439  30.169  1.00  0.00     0.031 A 
ATOM     47  C   UNL A   1      38.099  31.765  31.602  1.00  0.00     0.074 A 
ATOM     48  C   UNL A   1      38.511  30.542  29.495  1.00  0.00     0.049 A 
ATOM     49  N   UNL A   1      39.069  31.296  32.343  1.00  0.00    -0.248 NA
ATOM     50  C   UNL A   1      37.243  32.744  32.294  1.00  0.00     0.031 C 
ATOM     51  C   UNL A   1      38.305  30.154  28.097  1.00  0.00     0.029 A 
ATOM     52  N   UNL A   1      39.578  29.777  29.896  1.00  0.00    -0.354 N 
ATOM     53  C   UNL A   1      38.971  31.951  33.565  1.00  0.00     0.074 A 
ATOM     54  C   UNL A   1      37.847  32.856  33.470  1.00  0.00     0.031 C 
ATOM     55  C   UNL A   1      39.176  29.188  27.775  1.00  0.00     0.029 A 
ATOM     56  C   UNL A   1      40.042  28.926  28.920  1.00  0.00     0.049 A 
ATOM     57  H   UNL A   1      39.974  29.834  30.795  1.00  0.00     0.167 HD
ATOM     58  C   UNL A   1      39.732  31.798  34.673  1.00  0.00     0.034 A 
ATOM     59  C   UNL A   1      41.054  28.038  28.935  1.00  0.00     0.034 A 
ATOM     60  C   UNL A   1      40.806  30.850  34.795  1.00  0.00     0.049 A 
ATOM     61  C   UNL A   1      41.867  27.871  30.184  1.00  0.00     0.074 A 
ATOM     62  C   UNL A   1      41.595  30.588  35.901  1.00  0.00     0.029 A 
ATOM     63  N   UNL A   1      41.237  30.005  33.785  1.00  0.00    -0.354 N 
ATOM     64  N   UNL A   1      41.708  28.449  31.350  1.00  0.00    -0.248 NA
ATOM     65  C   UNL A   1      42.992  26.926  30.128  1.00  0.00     0.031 C 
ATOM     66  C   UNL A   1      42.508  29.587  35.559  1.00  0.00     0.029 A 
ATOM     67  C   UNL A   1      42.283  29.224  34.241  1.00  0.00     0.049 A 
ATOM     68  H   UNL A   1      40.857  29.968  32.878  1.00  0.00     0.167 HD
ATOM     69  C   UNL A   1      42.705  27.936  32.168  1.00  0.00     0.074 A 
ATOM     70  C   UNL A   1      43.451  26.981  31.373  1.00  0.00     0.031 C 
ATOM     71  C   UNL A   1      42.988  28.245  33.455  1.00  0.00     0.034 A 
BRANCH  58  72
ATOM     72  C   UNL A   1      39.406  32.633  35.880  1.00  0.00     0.023 A 
ATOM     73  C   UNL A   1      39.882  33.956  35.950  1.00  0.00     0.012 A 
ATOM     74  C   UNL A   1      38.543  32.149  36.883  1.00  0.00     0.148 A 
ATOM     75  C   UNL A   1      39.510  34.787  37.006  1.00  0.00     0.002 A 
ATOM     76  C   UNL A   1      38.154  32.992  37.917  1.00  0.00     0.091 A 
ATOM     77  F   UNL A   1      38.114  30.882  36.798  1.00  0.00    -0.205 F 
ATOM     78  C   UNL A   1      38.639  34.309  37.983  1.00  0.00     0.022 A 
BRANCH  76  79
ATOM     79  S   UNL A   1      36.992  32.495  39.195  1.00  0.00     0.127 S 
ATOM     80  O   UNL A   1      37.284  33.463  40.251  1.00  0.00    -0.237 OA
ATOM     81  O   UNL A   1      35.704  32.687  38.529  1.00  0.00    -0.237 OA
ATOM     82  O   UNL A   1      37.315  31.112  39.518  1.00  0.00    -0.744 OA
ENDBRANCH  76  79
ENDBRANCH  58  72
BRANCH  59  83
ATOM     83  C   UNL A   1      41.312  27.212  27.726  1.00  0.00     0.023 A 
ATOM     84  C   UNL A   1      41.939  27.798  26.611  1.00  0.00     0.012 A 
ATOM     85  C   UNL A   1      41.024  25.833  27.712  1.00  0.00     0.148 A 
ATOM     86  C   UNL A   1      42.274  27.024  25.499  1.00  0.00     0.002 A 
ATOM     87  C   UNL A   1      41.401  25.060  26.622  1.00  0.00     0.091 A 
ATOM     88  F   UNL A   1      40.419  25.303  28.785  1.00  0.00    -0.205 F 
ATOM     89  C   UNL A   1      42.018  25.655  25.510  1.00  0.00     0.022 A 
BRANCH  87  90
ATOM     90  S   UNL A   1      41.223  23.273  26.596  1.00  0.00     0.127 S 
ATOM     91  O   UNL A   1      42.045  22.908  25.444  1.00  0.00    -0.237 OA
ATOM     92  O   UNL A   1      41.779  22.898  27.896  1.00  0.00    -0.237 OA
ATOM     93  O   UNL A   1      39.796  23.019  26.452  1.00  0.00    -0.744 OA
ENDBRANCH  87  90
ENDBRANCH  59  83
BRANCH  71  94
ATOM     94  C   UNL A   1      44.152  27.556  34.107  1.00  0.00     0.023 A 
ATOM     95  C   UNL A   1      45.421  28.160  34.060  1.00  0.00     0.012 A 
ATOM     96  C   UNL A   1      43.963  26.387  34.869  1.00  0.00     0.148 A 
ATOM     97  C   UNL A   1      46.493  27.607  34.759  1.00  0.00     0.002 A 
ATOM     98  C   UNL A   1      45.026  25.860  35.590  1.00  0.00     0.091 A 
ATOM     99  F   UNL A   1      42.743  25.829  34.889  1.00  0.00    -0.205 F 
ATOM    100  C   UNL A   1      46.293  26.465  35.532  1.00  0.00     0.022 A 
BRANCH  98 101
ATOM    101  S   UNL A   1      44.852  24.437  36.674  1.00  0.00     0.127 S 
ATOM    102  O   UNL A   1      46.222  24.261  37.155  1.00  0.00    -0.237 OA
ATOM    103  O   UNL A   1      43.910  24.929  37.679  1.00  0.00    -0.237 OA
ATOM    104  O   UNL A   1      44.345  23.354  35.842  1.00  0.00    -0.744 OA
ENDBRANCH  98 101
ENDBRANCH  71  94
ENDBRANCH  45  46
ENDBRANCH  37  40
ENDBRANCH   1  36
TORSDOF 14
ENDMDL
MODEL 2
REMARK VINA RESULT:     -14.7      1.576      2.812
REMARK SMILES C[C@]12C(=O)N(c3ccc(C(=O)NCCCNC(=O)c4ccc(-c5c6nc(c(-c7cccc(S(=O)(=O)[O-])c7F)c7ccc([nH]7)c(-c7cccc(S(=O)(=O)[O-])c7F)c7nc(c(-c8cccc(S(=O)(=O)[O-])c8F)c8ccc5[nH]8)C=C7)C=C6)cc4)cc3)C(=O)[C@H]1[C@H]1c3ccccc3[C@@H]2c2ccccc21
REMARK SMILES IDX 15 1 14 2 13 3 12 4 10 5 11 6 9 8 6 9 7 10 83 11 8 12 82 13
REMARK SMILES IDX 5 14 1 15 2 16 3 17 86 18 94 19 4 20 84 21 87 22 93 23 95 24
REMARK SMILES IDX 85 25 88 26 100 27 92 28 96 29 89 30 99 31 91 32 97 33 90 34
REMARK SMILES IDX 98 35 16 36 17 37 18 39 19 40 20 41 81 42 21 43 80 44 22 45
REMARK SMILES IDX 23 46 24 47 74 48 25 49 79 50 73 51 75 52 26 53 78 54 72 55
REMARK SMILES IDX 71 56 27 58 59 59 39 60 58 61 40 62 43 63 57 64 76 65 41 66
REMARK SMILES IDX 42 67 56 69 77 70 44 71 28 72 29 73 37 74 30 75 32 76 38 77
REMARK SMILES IDX 31 78 33 79 34 80 35 81 36 82 60 83 61 84 69 85 62 86 64 87
REMARK SMILES IDX 70 88 63 89 65 90 66 91 67 92 68 93 45 94 46 95 54 96 47 97
REMARK SMILES IDX 49 98 55 99 48 100 50 101 51 102 52 103 53 104
REMARK H PARENT 12 7 16 38 75 57 43 68
REMARK Flexibility Score: inf
ROOT
ATOM      1  C   UNL A   1      32.324  31.167  26.873  1.00  0.00     0.118 C 
ENDROOT
BRANCH   1   2
ATOM      2  C   UNL A   1      31.330  30.865  25.759  1.00  0.00     0.042 C 
BRANCH   2   3
ATOM      3  C   UNL A   1      31.852  29.873  24.731  1.00  0.00     0.118 C 
BRANCH   3   4
ATOM      4  N   UNL A   1      30.886  29.579  23.684  1.00  0.00    -0.352 N 
ATOM      5  C   UNL A   1      30.293  28.422  23.255  1.00  0.00     0.251 C 
ATOM      6  O   UNL A   1      29.581  28.487  22.250  1.00  0.00    -0.269 OA
ATOM      7  H   UNL A   1      30.600  30.375  23.181  1.00  0.00     0.163 HD
BRANCH   5   8
ATOM      8  C   UNL A   1      30.474  27.103  23.916  1.00  0.00     0.039 A 
ATOM      9  C   UNL A   1      31.052  24.695  25.340  1.00  0.00     0.052 A 
ATOM     10  C   UNL A   1      30.900  25.925  26.002  1.00  0.00     0.027 A 
ATOM     11  C   UNL A   1      30.879  24.695  23.949  1.00  0.00     0.027 A 
ATOM     12  C   UNL A   1      30.615  27.107  25.305  1.00  0.00     0.016 A 
ATOM     13  C   UNL A   1      30.639  25.891  23.244  1.00  0.00     0.016 A 
BRANCH   9  14
ATOM     14  N   UNL A   1      31.616  23.559  26.005  1.00  0.00    -0.250 N 
ATOM     15  C   UNL A   1      33.723  21.429  27.419  1.00  0.00     0.024 C 
ATOM     16  C   UNL A   1      33.353  22.018  26.040  1.00  0.00     0.071 C 
ATOM     17  C   UNL A   1      32.969  23.457  26.243  1.00  0.00     0.241 C 
ATOM     18  C   UNL A   1      32.060  21.342  25.476  1.00  0.00     0.107 C 
ATOM     19  C   UNL A   1      34.492  21.945  24.973  1.00  0.00     0.066 C 
ATOM     20  O   UNL A   1      33.770  24.307  26.586  1.00  0.00    -0.273 OA
ATOM     21  C   UNL A   1      31.023  22.290  26.063  1.00  0.00     0.238 C 
ATOM     22  C   UNL A   1      32.476  20.366  24.297  1.00  0.00     0.063 C 
ATOM     23  C   UNL A   1      33.888  22.290  23.599  1.00  0.00    -0.036 A 
ATOM     24  C   UNL A   1      34.873  20.473  24.909  1.00  0.00    -0.036 A 
ATOM     25  O   UNL A   1      29.890  21.985  26.397  1.00  0.00    -0.274 OA
ATOM     26  C   UNL A   1      32.876  21.378  23.166  1.00  0.00    -0.036 A 
ATOM     27  C   UNL A   1      33.781  19.617  24.603  1.00  0.00    -0.036 A 
ATOM     28  C   UNL A   1      34.122  23.457  22.887  1.00  0.00     0.005 A 
ATOM     29  C   UNL A   1      36.165  19.986  25.060  1.00  0.00     0.005 A 
ATOM     30  C   UNL A   1      32.114  21.631  22.030  1.00  0.00     0.004 A 
ATOM     31  C   UNL A   1      34.007  18.259  24.433  1.00  0.00     0.004 A 
ATOM     32  C   UNL A   1      33.348  23.713  21.750  1.00  0.00     0.000 A 
ATOM     33  C   UNL A   1      36.379  18.621  24.896  1.00  0.00     0.000 A 
ATOM     34  C   UNL A   1      32.360  22.808  21.324  1.00  0.00     0.000 A 
ATOM     35  C   UNL A   1      35.310  17.766  24.584  1.00  0.00     0.000 A 
ENDBRANCH   9  14
ENDBRANCH   5   8
ENDBRANCH   3   4
ENDBRANCH   2   3
ENDBRANCH   1   2
BRANCH   1  36
ATOM     36  N   UNL A   1      32.483  32.597  27.120  1.00  0.00    -0.352 N 
ATOM     37  C   UNL A   1      33.442  33.304  27.808  1.00  0.00     0.251 C 
ATOM     38  H   UNL A   1      31.777  33.157  26.721  1.00  0.00     0.163 HD
ATOM     39  O   UNL A   1      33.236  34.487  28.068  1.00  0.00    -0.269 OA
BRANCH  37  40
ATOM     40  C   UNL A   1      34.690  32.653  28.264  1.00  0.00     0.039 A 
ATOM     41  C   UNL A   1      34.685  31.337  28.722  1.00  0.00     0.014 A 
ATOM     42  C   UNL A   1      35.897  33.360  28.210  1.00  0.00     0.014 A 
ATOM     43  C   UNL A   1      35.822  30.809  29.322  1.00  0.00     0.010 A 
ATOM     44  C   UNL A   1      37.069  32.783  28.714  1.00  0.00     0.010 A 
ATOM     45  C   UNL A   1      37.029  31.525  29.333  1.00  0.00    -0.014 A 
BRANCH  45  46
ATOM     46  C   UNL A   1      38.219  30.934  30.001  1.00  0.00     0.031 A 
ATOM     47  C   UNL A   1      38.540  31.251  31.439  1.00  0.00     0.074 A 
ATOM     48  C   UNL A   1      38.986  30.053  29.325  1.00  0.00     0.049 A 
ATOM     49  N   UNL A   1      39.511  30.789  32.183  1.00  0.00    -0.248 NA
ATOM     50  C   UNL A   1      37.665  32.212  32.134  1.00  0.00     0.031 C 
ATOM     51  C   UNL A   1      38.796  29.674  27.922  1.00  0.00     0.029 A 
ATOM     52  N   UNL A   1      40.060  29.299  29.727  1.00  0.00    -0.354 N 
ATOM     53  C   UNL A   1      39.395  31.432  33.411  1.00  0.00     0.074 A 
ATOM     54  C   UNL A   1      38.259  32.322  33.315  1.00  0.00     0.031 C 
ATOM     55  C   UNL A   1      39.683  28.723  27.599  1.00  0.00     0.029 A 
ATOM     56  C   UNL A   1      40.543  28.464  28.748  1.00  0.00     0.049 A 
ATOM     57  H   UNL A   1      40.448  29.353  30.630  1.00  0.00     0.167 HD
ATOM     58  C   UNL A   1      40.149  31.279  34.523  1.00  0.00     0.034 A 
ATOM     59  C   UNL A   1      41.568  27.589  28.763  1.00  0.00     0.034 A 
ATOM     60  C   UNL A   1      41.236  30.345  34.645  1.00  0.00     0.049 A 
ATOM     61  C   UNL A   1      42.373  27.422  30.017  1.00  0.00     0.074 A 
ATOM     62  C   UNL A   1      42.019  30.085  35.755  1.00  0.00     0.029 A 
ATOM     63  N   UNL A   1      41.686  29.516  33.631  1.00  0.00    -0.354 N 
ATOM     64  N   UNL A   1      42.197  27.988  31.186  1.00  0.00    -0.248 NA
ATOM     65  C   UNL A   1      43.512  26.494  29.961  1.00  0.00     0.031 C 
ATOM     66  C   UNL A   1      42.949  29.099  35.412  1.00  0.00     0.029 A 
ATOM     67  C   UNL A   1      42.739  28.745  34.089  1.00  0.00     0.049 A 
ATOM     68  H   UNL A   1      41.313  29.481  32.721  1.00  0.00     0.167 HD
ATOM     69  C   UNL A   1      43.195  27.481  32.007  1.00  0.00     0.074 A 
ATOM     70  C   UNL A   1      43.960  26.544  31.210  1.00  0.00     0.031 C 
ATOM     71  C   UNL A   1      43.463  27.783  33.299  1.00  0.00     0.034 A 
BRANCH  58  72
ATOM     72  C   UNL A   1      39.803  32.099  35.735  1.00  0.00     0.023 A 
ATOM     73  C   UNL A   1      40.406  33.360  35.909  1.00  0.00     0.012 A 
ATOM     74  C   UNL A   1      38.805  31.675  36.634  1.00  0.00     0.148 A 
ATOM     75  C   UNL A   1      40.027  34.186  36.966  1.00  0.00     0.002 A 
ATOM     76  C   UNL A   1      38.412  32.515  37.669  1.00  0.00     0.091 A 
ATOM     77  F   UNL A   1      38.256  30.465  36.452  1.00  0.00    -0.205 F 
ATOM     78  C   UNL A   1      39.024  33.768  37.839  1.00  0.00     0.022 A 
BRANCH  76  79
ATOM     79  S   UNL A   1      37.092  32.100  38.815  1.00  0.00     0.127 S 
ATOM     80  O   UNL A   1      36.992  30.652  38.636  1.00  0.00    -0.237 OA
ATOM     81  O   UNL A   1      37.657  32.520  40.097  1.00  0.00    -0.237 OA
ATOM     82  O   UNL A   1      35.927  32.858  38.381  1.00  0.00    -0.744 OA
ENDBRANCH  76  79
ENDBRANCH  58  72
BRANCH  59  83
ATOM     83  C   UNL A   1      41.846  26.778  27.548  1.00  0.00     0.023 A 
ATOM     84  C   UNL A   1      42.498  27.375  26.454  1.00  0.00     0.012 A 
ATOM     85  C   UNL A   1      41.552  25.400  27.512  1.00  0.00     0.148 A 
ATOM     86  C   UNL A   1      42.852  26.614  25.339  1.00  0.00     0.002 A 
ATOM     87  C   UNL A   1      41.948  24.639  26.419  1.00  0.00     0.091 A 
ATOM     88  F   UNL A   1      40.924  24.860  28.565  1.00  0.00    -0.205 F 
ATOM     89  C   UNL A   1      42.590  25.246  25.327  1.00  0.00     0.022 A 
BRANCH  87  90
ATOM     90  S   UNL A   1      41.763  22.854  26.366  1.00  0.00     0.127 S 
ATOM     91  O   UNL A   1      42.401  22.526  25.093  1.00  0.00    -0.237 OA
ATOM     92  O   UNL A   1      42.508  22.441  27.555  1.00  0.00    -0.237 OA
ATOM     93  O   UNL A   1      40.331  22.602  26.433  1.00  0.00    -0.744 OA
ENDBRANCH  87  90
ENDBRANCH  59  83
BRANCH  71  94
ATOM     94  C   UNL A   1      44.632  27.104  33.955  1.00  0.00     0.023 A 
ATOM     95  C   UNL A   1      45.902  27.705  33.884  1.00  0.00     0.012 A 
ATOM     96  C   UNL A   1      44.447  25.951  34.741  1.00  0.00     0.148 A 
ATOM     97  C   UNL A   1      46.979  27.163  34.584  1.00  0.00     0.002 A 
ATOM     98  C   UNL A   1      45.516  25.435  35.463  1.00  0.00     0.091 A 
ATOM     99  F   UNL A   1      43.227  25.397  34.783  1.00  0.00    -0.205 F 
ATOM    100  C   UNL A   1      46.783  26.037  35.382  1.00  0.00     0.022 A 
BRANCH  98 101
ATOM    101  S   UNL A   1      45.349  24.035  36.576  1.00  0.00     0.127 S 
ATOM    102  O   UNL A   1      44.465  24.578  37.606  1.00  0.00    -0.237 OA
ATOM    103  O   UNL A   1      44.734  23.027  35.713  1.00  0.00    -0.237 OA
ATOM    104  O   UNL A   1      46.697  23.712  37.025  1.00  0.00    -0.744 OA
ENDBRANCH  98 101
ENDBRANCH  71  94
ENDBRANCH  45  46
ENDBRANCH  37  40
ENDBRANCH   1  36
TORSDOF 14
ENDMDL
MODEL 3
REMARK VINA RESULT:     -14.5      5.443     10.840
REMARK SMILES C[C@]12C(=O)N(c3ccc(C(=O)NCCCNC(=O)c4ccc(-c5c6nc(c(-c7cccc(S(=O)(=O)[O-])c7F)c7ccc([nH]7)c(-c7cccc(S(=O)(=O)[O-])c7F)c7nc(c(-c8cccc(S(=O)(=O)[O-])c8F)c8ccc5[nH]8)C=C7)C=C6)cc4)cc3)C(=O)[C@H]1[C@H]1c3ccccc3[C@@H]2c2ccccc21
REMARK SMILES IDX 15 1 14 2 13 3 12 4 10 5 11 6 9 8 6 9 7 10 83 11 8 12 82 13
REMARK SMILES IDX 5 14 1 15 2 16 3 17 86 18 94 19 4 20 84 21 87 22 93 23 95 24
REMARK SMILES IDX 85 25 88 26 100 27 92 28 96 29 89 30 99 31 91 32 97 33 90 34
REMARK SMILES IDX 98 35 16 36 17 37 18 39 19 40 20 41 81 42 21 43 80 44 22 45
REMARK SMILES IDX 23 46 24 47 74 48 25 49 79 50 73 51 75 52 26 53 78 54 72 55
REMARK SMILES IDX 71 56 27 58 59 59 39 60 58 61 40 62 43 63 57 64 76 65 41 66
REMARK SMILES IDX 42 67 56 69 77 70 44 71 28 72 29 73 37 74 30 75 32 76 38 77
REMARK SMILES IDX 31 78 33 79 34 80 35 81 36 82 60 83 61 84 69 85 62 86 64 87
REMARK SMILES IDX 70 88 63 89 65 90 66 91 67 92 68 93 45 94 46 95 54 96 47 97
REMARK SMILES IDX 49 98 55 99 48 100 50 101 51 102 52 103 53 104
REMARK H PARENT 12 7 16 38 75 57 43 68
REMARK Flexibility Score: inf
ROOT
ATOM      1  C   UNL A   1      38.943  20.362  25.734  1.00  0.00     0.118 C 
ENDROOT
BRANCH   1   2
ATOM      2  C   UNL A   1      37.626  19.713  25.329  1.00  0.00     0.042 C 
BRANCH   2   3
ATOM      3  C   UNL A   1      36.536  20.716  24.983  1.00  0.00     0.118 C 
BRANCH   3   4
ATOM      4  N   UNL A   1      36.960  21.700  24.001  1.00  0.00    -0.352 N 
ATOM      5  C   UNL A   1      36.395  22.852  23.524  1.00  0.00     0.251 C 
ATOM      6  O   UNL A   1      36.968  23.423  22.594  1.00  0.00    -0.269 OA
ATOM      7  H   UNL A   1      37.834  21.497  23.596  1.00  0.00     0.163 HD
BRANCH   5   8
ATOM      8  C   UNL A   1      35.132  23.434  24.048  1.00  0.00     0.039 A 
ATOM      9  C   UNL A   1      32.598  24.542  24.767  1.00  0.00     0.052 A 
ATOM     10  C   UNL A   1      32.700  23.374  23.991  1.00  0.00     0.027 A 
ATOM     11  C   UNL A   1      33.798  25.125  25.198  1.00  0.00     0.027 A 
ATOM     12  C   UNL A   1      33.941  22.829  23.639  1.00  0.00     0.016 A 
ATOM     13  C   UNL A   1      35.046  24.603  24.805  1.00  0.00     0.016 A 
BRANCH   9  14
ATOM     14  N   UNL A   1      31.359  25.249  24.886  1.00  0.00    -0.250 N 
ATOM     15  C   UNL A   1      28.427  26.648  24.240  1.00  0.00     0.024 C 
ATOM     16  C   UNL A   1      29.929  26.799  23.913  1.00  0.00     0.071 C 
ATOM     17  C   UNL A   1      30.516  25.418  23.810  1.00  0.00     0.241 C 
ATOM     18  C   UNL A   1      30.693  27.463  25.105  1.00  0.00     0.107 C 
ATOM     19  C   UNL A   1      30.234  27.578  22.594  1.00  0.00     0.066 C 
ATOM     20  O   UNL A   1      30.221  24.645  22.917  1.00  0.00    -0.273 OA
ATOM     21  C   UNL A   1      31.074  26.203  25.872  1.00  0.00     0.238 C 
ATOM     22  C   UNL A   1      31.054  28.954  24.703  1.00  0.00     0.063 C 
ATOM     23  C   UNL A   1      31.741  27.896  22.560  1.00  0.00    -0.036 A 
ATOM     24  C   UNL A   1      29.524  28.914  22.756  1.00  0.00    -0.036 A 
ATOM     25  O   UNL A   1      31.198  26.118  27.083  1.00  0.00    -0.274 OA
ATOM     26  C   UNL A   1      32.179  28.735  23.631  1.00  0.00    -0.036 A 
ATOM     27  C   UNL A   1      29.920  29.628  23.918  1.00  0.00    -0.036 A 
ATOM     28  C   UNL A   1      32.670  27.307  21.715  1.00  0.00     0.005 A 
ATOM     29  C   UNL A   1      28.624  29.445  21.842  1.00  0.00     0.005 A 
ATOM     30  C   UNL A   1      33.530  28.986  23.845  1.00  0.00     0.004 A 
ATOM     31  C   UNL A   1      29.410  30.899  24.143  1.00  0.00     0.004 A 
ATOM     32  C   UNL A   1      34.028  27.554  21.938  1.00  0.00     0.000 A 
ATOM     33  C   UNL A   1      28.113  30.716  22.081  1.00  0.00     0.000 A 
ATOM     34  C   UNL A   1      34.453  28.387  22.988  1.00  0.00     0.000 A 
ATOM     35  C   UNL A   1      28.503  31.437  23.221  1.00  0.00     0.000 A 
ENDBRANCH   9  14
ENDBRANCH   5   8
ENDBRANCH   3   4
ENDBRANCH   2   3
ENDBRANCH   1   2
BRANCH   1  36
ATOM     36  N   UNL A   1      40.027  19.396  25.892  1.00  0.00    -0.352 N 
ATOM     37  C   UNL A   1      41.376  19.564  26.104  1.00  0.00     0.251 C 
ATOM     38  H   UNL A   1      39.740  18.455  25.839  1.00  0.00     0.163 HD
ATOM     39  O   UNL A   1      42.122  18.596  25.978  1.00  0.00    -0.269 OA
BRANCH  37  40
ATOM     40  C   UNL A   1      41.937  20.891  26.444  1.00  0.00     0.039 A 
ATOM     41  C   UNL A   1      42.256  21.216  27.760  1.00  0.00     0.014 A 
ATOM     42  C   UNL A   1      42.172  21.822  25.426  1.00  0.00     0.014 A 
ATOM     43  C   UNL A   1      42.599  22.523  28.086  1.00  0.00     0.010 A 
ATOM     44  C   UNL A   1      42.626  23.107  25.745  1.00  0.00     0.010 A 
ATOM     45  C   UNL A   1      42.783  23.490  27.086  1.00  0.00    -0.014 A 
BRANCH  45  46
ATOM     46  C   UNL A   1      43.133  24.882  27.475  1.00  0.00     0.031 A 
ATOM     47  C   UNL A   1      44.502  25.446  27.192  1.00  0.00     0.074 A 
ATOM     48  C   UNL A   1      42.189  25.669  28.031  1.00  0.00     0.049 A 
ATOM     49  N   UNL A   1      44.956  26.651  27.425  1.00  0.00    -0.248 NA
ATOM     50  C   UNL A   1      45.492  24.547  26.575  1.00  0.00     0.031 C 
ATOM     51  C   UNL A   1      40.831  25.240  28.375  1.00  0.00     0.029 A 
ATOM     52  N   UNL A   1      42.215  26.995  28.384  1.00  0.00    -0.354 N 
ATOM     53  C   UNL A   1      46.288  26.642  27.028  1.00  0.00     0.074 A 
ATOM     54  C   UNL A   1      46.576  25.312  26.541  1.00  0.00     0.031 C 
ATOM     55  C   UNL A   1      40.140  26.292  28.835  1.00  0.00     0.029 A 
ATOM     56  C   UNL A   1      41.017  27.457  28.876  1.00  0.00     0.049 A 
ATOM     57  H   UNL A   1      43.016  27.561  28.295  1.00  0.00     0.167 HD
ATOM     58  C   UNL A   1      47.185  27.655  27.047  1.00  0.00     0.034 A 
ATOM     59  C   UNL A   1      40.658  28.678  29.320  1.00  0.00     0.034 A 
ATOM     60  C   UNL A   1      46.884  28.998  27.465  1.00  0.00     0.049 A 
ATOM     61  C   UNL A   1      41.665  29.789  29.307  1.00  0.00     0.074 A 
ATOM     62  C   UNL A   1      47.719  30.101  27.464  1.00  0.00     0.029 A 
ATOM     63  N   UNL A   1      45.658  29.421  27.950  1.00  0.00    -0.354 N 
ATOM     64  N   UNL A   1      42.897  29.774  28.859  1.00  0.00    -0.248 NA
ATOM     65  C   UNL A   1      41.236  31.086  29.851  1.00  0.00     0.031 C 
ATOM     66  C   UNL A   1      46.998  31.194  27.953  1.00  0.00     0.029 A 
ATOM     67  C   UNL A   1      45.714  30.770  28.254  1.00  0.00     0.049 A 
ATOM     68  H   UNL A   1      44.866  28.848  28.063  1.00  0.00     0.167 HD
ATOM     69  C   UNL A   1      43.389  31.057  29.059  1.00  0.00     0.074 A 
ATOM     70  C   UNL A   1      42.315  31.832  29.647  1.00  0.00     0.031 C 
ATOM     71  C   UNL A   1      44.626  31.540  28.796  1.00  0.00     0.034 A 
BRANCH  58  72
ATOM     72  C   UNL A   1      48.577  27.382  26.549  1.00  0.00     0.023 A 
ATOM     73  C   UNL A   1      49.511  26.776  27.412  1.00  0.00     0.012 A 
ATOM     74  C   UNL A   1      48.924  27.618  25.204  1.00  0.00     0.148 A 
ATOM     75  C   UNL A   1      50.775  26.416  26.947  1.00  0.00     0.002 A 
ATOM     76  C   UNL A   1      50.175  27.230  24.740  1.00  0.00     0.091 A 
ATOM     77  F   UNL A   1      48.020  28.206  24.407  1.00  0.00    -0.205 F 
ATOM     78  C   UNL A   1      51.103  26.633  25.610  1.00  0.00     0.022 A 
BRANCH  76  79
ATOM     79  S   UNL A   1      50.679  27.412  23.025  1.00  0.00     0.127 S 
ATOM     80  O   UNL A   1      51.974  26.733  23.025  1.00  0.00    -0.237 OA
ATOM     81  O   UNL A   1      49.615  26.700  22.316  1.00  0.00    -0.237 OA
ATOM     82  O   UNL A   1      50.732  28.845  22.769  1.00  0.00    -0.744 OA
ENDBRANCH  76  79
ENDBRANCH  58  72
BRANCH  59  83
ATOM     83  C   UNL A   1      39.259  28.904  29.769  1.00  0.00     0.023 A 
ATOM     84  C   UNL A   1      38.919  28.665  31.113  1.00  0.00     0.012 A 
ATOM     85  C   UNL A   1      38.293  29.440  28.895  1.00  0.00     0.148 A 
ATOM     86  C   UNL A   1      37.637  28.956  31.582  1.00  0.00     0.002 A 
ATOM     87  C   UNL A   1      37.033  29.770  29.378  1.00  0.00     0.091 A 
ATOM     88  F   UNL A   1      38.643  29.651  27.618  1.00  0.00    -0.205 F 
ATOM     89  C   UNL A   1      36.700  29.519  30.719  1.00  0.00     0.022 A 
BRANCH  87  90
ATOM     90  S   UNL A   1      35.802  30.610  28.375  1.00  0.00     0.127 S 
ATOM     91  O   UNL A   1      34.942  31.205  29.396  1.00  0.00    -0.237 OA
ATOM     92  O   UNL A   1      36.625  31.562  27.629  1.00  0.00    -0.237 OA
ATOM     93  O   UNL A   1      35.183  29.576  27.559  1.00  0.00    -0.744 OA
ENDBRANCH  87  90
ENDBRANCH  59  83
BRANCH  71  94
ATOM     94  C   UNL A   1      44.910  32.975  29.137  1.00  0.00     0.023 A 
ATOM     95  C   UNL A   1      45.429  33.289  30.407  1.00  0.00     0.012 A 
ATOM     96  C   UNL A   1      44.786  33.986  28.164  1.00  0.00     0.148 A 
ATOM     97  C   UNL A   1      45.816  34.594  30.708  1.00  0.00     0.002 A 
ATOM     98  C   UNL A   1      45.205  35.276  28.459  1.00  0.00     0.091 A 
ATOM     99  F   UNL A   1      44.281  33.657  26.966  1.00  0.00    -0.205 F 
ATOM    100  C   UNL A   1      45.716  35.583  29.732  1.00  0.00     0.022 A 
BRANCH  98 101
ATOM    101  S   UNL A   1      45.186  36.603  27.248  1.00  0.00     0.127 S 
ATOM    102  O   UNL A   1      43.752  36.767  27.010  1.00  0.00    -0.237 OA
ATOM    103  O   UNL A   1      45.814  37.701  27.983  1.00  0.00    -0.237 OA
ATOM    104  O   UNL A   1      45.950  36.118  26.106  1.00  0.00    -0.744 OA
ENDBRANCH  98 101
ENDBRANCH  71  94
ENDBRANCH  45  46
ENDBRANCH  37  40
ENDBRANCH   1  36
TORSDOF 14
ENDMDL
