MODEL 1
REMARK VINA RESULT:     -11.2      0.000      0.000
REMARK SMILES Cn1cc2cc(C(=O)NCCCNC(=O)c3ccc(-c4c5nc(c(-c6cccc(S(=O)(=O)[O-])c6F)c6ccc([nH]6)c(-c6cccc(S(=O)(=O)[O-])c6F)c6nc(c(-c7cccc(S(=O)(=O)[O-])c7F)c7ccc4[nH]7)C=C6)C=C5)cc3)ccc2n1
REMARK SMILES IDX 13 1 14 2 15 3 12 5 11 6 10 7 9 8 7 9 8 10 6 12 1 13 2 14
REMARK SMILES IDX 3 15 82 16 4 17 81 18 5 19 80 20 79 21 16 22 17 23 78 24
REMARK SMILES IDX 18 25 77 26 19 27 20 28 21 29 71 30 22 31 76 32 70 33 72 34
REMARK SMILES IDX 23 35 75 36 69 37 68 38 24 40 56 41 36 42 55 43 37 44 40 45
REMARK SMILES IDX 54 46 73 47 38 48 39 49 53 51 74 52 41 53 25 54 26 55 34 56
REMARK SMILES IDX 27 57 29 58 35 59 28 60 30 61 31 62 32 63 33 64 57 65 58 66
REMARK SMILES IDX 66 67 59 68 61 69 67 70 60 71 62 72 63 73 64 74 65 75 42 76
REMARK SMILES IDX 43 77 51 78 44 79 46 80 52 81 45 82 47 83 48 84 49 85 50 86
REMARK H PARENT 13 4 9 11 72 39 40 50
REMARK Flexibility Score: inf
ROOT
ATOM      1  N   UNL A   1      33.829  30.102  26.613  1.00  0.00    -0.352 N 
ATOM      2  C   UNL A   1      34.540  30.815  27.545  1.00  0.00     0.251 C 
ATOM      3  O   UNL A   1      34.095  31.895  27.928  1.00  0.00    -0.269 OA
ATOM      4  H   UNL A   1      33.108  30.605  26.169  1.00  0.00     0.163 HD
ENDROOT
BRANCH   1   5
ATOM      5  C   UNL A   1      33.970  28.721  26.173  1.00  0.00     0.118 C 
BRANCH   5   6
ATOM      6  C   UNL A   1      33.008  27.791  26.910  1.00  0.00     0.042 C 
BRANCH   6   7
ATOM      7  C   UNL A   1      31.908  27.216  26.016  1.00  0.00     0.118 C 
BRANCH   7   8
ATOM      8  N   UNL A   1      31.303  26.041  26.612  1.00  0.00    -0.352 N 
ATOM      9  C   UNL A   1      31.589  24.702  26.545  1.00  0.00     0.251 C 
ATOM     10  O   UNL A   1      30.907  23.956  27.251  1.00  0.00    -0.269 OA
ATOM     11  H   UNL A   1      30.528  26.246  27.183  1.00  0.00     0.163 HD
BRANCH   9  12
ATOM     12  C   UNL A   1      32.688  24.106  25.720  1.00  0.00     0.040 A 
ATOM     13  C   UNL A   1      37.820  21.384  24.877  1.00  0.00     0.173 C 
ATOM     14  N   UNL A   1      36.576  22.110  24.957  1.00  0.00    -0.275 N 
ATOM     15  C   UNL A   1      35.979  22.579  26.091  1.00  0.00     0.117 A 
ATOM     16  N   UNL A   1      35.887  22.349  23.822  1.00  0.00    -0.173 NA
ATOM     17  C   UNL A   1      34.802  23.121  25.656  1.00  0.00     0.021 A 
ATOM     18  C   UNL A   1      34.752  22.939  24.231  1.00  0.00     0.092 A 
ATOM     19  C   UNL A   1      33.828  23.697  26.462  1.00  0.00     0.025 A 
ATOM     20  C   UNL A   1      33.627  23.342  23.502  1.00  0.00     0.032 A 
ATOM     21  C   UNL A   1      32.594  23.895  24.303  1.00  0.00     0.016 A 
ENDBRANCH   9  12
ENDBRANCH   7   8
ENDBRANCH   6   7
ENDBRANCH   5   6
ENDBRANCH   1   5
BRANCH   2  22
ATOM     22  C   UNL A   1      35.821  30.311  28.087  1.00  0.00     0.039 A 
ATOM     23  C   UNL A   1      36.976  30.446  27.308  1.00  0.00     0.014 A 
ATOM     24  C   UNL A   1      35.885  29.640  29.311  1.00  0.00     0.014 A 
ATOM     25  C   UNL A   1      38.193  29.936  27.768  1.00  0.00     0.010 A 
ATOM     26  C   UNL A   1      37.113  29.194  29.801  1.00  0.00     0.010 A 
ATOM     27  C   UNL A   1      38.275  29.319  29.026  1.00  0.00    -0.014 A 
BRANCH  27  28
ATOM     28  C   UNL A   1      39.567  28.789  29.536  1.00  0.00     0.031 A 
ATOM     29  C   UNL A   1      40.284  29.484  30.664  1.00  0.00     0.074 A 
ATOM     30  C   UNL A   1      40.129  27.721  28.938  1.00  0.00     0.049 A 
ATOM     31  N   UNL A   1      41.432  29.190  31.218  1.00  0.00    -0.248 NA
ATOM     32  C   UNL A   1      39.641  30.684  31.226  1.00  0.00     0.031 C 
ATOM     33  C   UNL A   1      39.573  27.009  27.784  1.00  0.00     0.029 A 
ATOM     34  N   UNL A   1      41.304  27.062  29.199  1.00  0.00    -0.354 N 
ATOM     35  C   UNL A   1      41.667  30.182  32.162  1.00  0.00     0.074 A 
ATOM     36  C   UNL A   1      40.557  31.107  32.085  1.00  0.00     0.031 C 
ATOM     37  C   UNL A   1      40.402  26.011  27.441  1.00  0.00     0.029 A 
ATOM     38  C   UNL A   1      41.559  26.026  28.332  1.00  0.00     0.049 A 
ATOM     39  H   UNL A   1      41.907  27.307  29.937  1.00  0.00     0.167 HD
ATOM     40  C   UNL A   1      42.696  30.298  33.036  1.00  0.00     0.034 A 
ATOM     41  C   UNL A   1      42.608  25.183  28.260  1.00  0.00     0.034 A 
ATOM     42  C   UNL A   1      43.771  29.349  33.143  1.00  0.00     0.049 A 
ATOM     43  C   UNL A   1      43.706  25.296  29.282  1.00  0.00     0.074 A 
ATOM     44  C   UNL A   1      44.814  29.328  34.052  1.00  0.00     0.029 A 
ATOM     45  N   UNL A   1      43.943  28.252  32.312  1.00  0.00    -0.354 N 
ATOM     46  N   UNL A   1      43.828  26.147  30.271  1.00  0.00    -0.248 NA
ATOM     47  C   UNL A   1      44.788  24.303  29.207  1.00  0.00     0.031 C 
ATOM     48  C   UNL A   1      45.626  28.227  33.760  1.00  0.00     0.029 A 
ATOM     49  C   UNL A   1      45.077  27.549  32.684  1.00  0.00     0.049 A 
ATOM     50  H   UNL A   1      43.348  28.010  31.566  1.00  0.00     0.167 HD
ATOM     51  C   UNL A   1      44.977  25.772  30.958  1.00  0.00     0.074 A 
ATOM     52  C   UNL A   1      45.502  24.603  30.284  1.00  0.00     0.031 C 
ATOM     53  C   UNL A   1      45.555  26.353  32.039  1.00  0.00     0.034 A 
BRANCH  40  54
ATOM     54  C   UNL A   1      42.677  31.467  33.988  1.00  0.00     0.023 A 
ATOM     55  C   UNL A   1      43.236  32.699  33.587  1.00  0.00     0.012 A 
ATOM     56  C   UNL A   1      42.059  31.370  35.250  1.00  0.00     0.148 A 
ATOM     57  C   UNL A   1      43.215  33.802  34.440  1.00  0.00     0.002 A 
ATOM     58  C   UNL A   1      42.002  32.487  36.077  1.00  0.00     0.091 A 
ATOM     59  F   UNL A   1      41.549  30.188  35.624  1.00  0.00    -0.205 F 
ATOM     60  C   UNL A   1      42.590  33.699  35.679  1.00  0.00     0.022 A 
BRANCH  58  61
ATOM     61  S   UNL A   1      41.149  32.481  37.658  1.00  0.00     0.127 S 
ATOM     62  O   UNL A   1      42.001  31.595  38.450  1.00  0.00    -0.237 OA
ATOM     63  O   UNL A   1      41.209  33.891  38.047  1.00  0.00    -0.237 OA
ATOM     64  O   UNL A   1      39.808  31.984  37.389  1.00  0.00    -0.744 OA
ENDBRANCH  58  61
ENDBRANCH  40  54
BRANCH  41  65
ATOM     65  C   UNL A   1      42.625  24.105  27.230  1.00  0.00     0.023 A 
ATOM     66  C   UNL A   1      43.261  24.340  25.996  1.00  0.00     0.012 A 
ATOM     67  C   UNL A   1      42.048  22.845  27.477  1.00  0.00     0.148 A 
ATOM     68  C   UNL A   1      43.294  23.350  25.012  1.00  0.00     0.002 A 
ATOM     69  C   UNL A   1      42.133  21.844  26.515  1.00  0.00     0.091 A 
ATOM     70  F   UNL A   1      41.437  22.644  28.653  1.00  0.00    -0.205 F 
ATOM     71  C   UNL A   1      42.740  22.100  25.275  1.00  0.00     0.022 A 
BRANCH  69  72
ATOM     72  S   UNL A   1      41.567  20.167  26.817  1.00  0.00     0.127 S 
ATOM     73  O   UNL A   1      40.167  20.382  27.172  1.00  0.00    -0.237 OA
ATOM     74  O   UNL A   1      41.785  19.534  25.516  1.00  0.00    -0.237 OA
ATOM     75  O   UNL A   1      42.420  19.653  27.883  1.00  0.00    -0.744 OA
ENDBRANCH  69  72
ENDBRANCH  41  65
BRANCH  53  76
ATOM     76  C   UNL A   1      46.801  25.712  32.590  1.00  0.00     0.023 A 
ATOM     77  C   UNL A   1      48.067  26.135  32.139  1.00  0.00     0.012 A 
ATOM     78  C   UNL A   1      46.719  24.737  33.604  1.00  0.00     0.148 A 
ATOM     79  C   UNL A   1      49.230  25.569  32.660  1.00  0.00     0.002 A 
ATOM     80  C   UNL A   1      47.883  24.214  34.154  1.00  0.00     0.091 A 
ATOM     81  F   UNL A   1      45.505  24.332  34.007  1.00  0.00    -0.205 F 
ATOM     82  C   UNL A   1      49.138  24.619  33.675  1.00  0.00     0.022 A 
BRANCH  80  83
ATOM     83  S   UNL A   1      47.857  23.059  35.529  1.00  0.00     0.127 S 
ATOM     84  O   UNL A   1      47.161  21.914  34.945  1.00  0.00    -0.237 OA
ATOM     85  O   UNL A   1      49.282  22.842  35.783  1.00  0.00    -0.237 OA
ATOM     86  O   UNL A   1      47.152  23.740  36.607  1.00  0.00    -0.744 OA
ENDBRANCH  80  83
ENDBRANCH  53  76
ENDBRANCH  27  28
ENDBRANCH   2  22
TORSDOF 13
ENDMDL
MODEL 2
REMARK VINA RESULT:     -11.2      3.663      9.107
REMARK SMILES Cn1cc2cc(C(=O)NCCCNC(=O)c3ccc(-c4c5nc(c(-c6cccc(S(=O)(=O)[O-])c6F)c6ccc([nH]6)c(-c6cccc(S(=O)(=O)[O-])c6F)c6nc(c(-c7cccc(S(=O)(=O)[O-])c7F)c7ccc4[nH]7)C=C6)C=C5)cc3)ccc2n1
REMARK SMILES IDX 13 1 14 2 15 3 12 5 11 6 10 7 9 8 7 9 8 10 6 12 1 13 2 14
REMARK SMILES IDX 3 15 82 16 4 17 81 18 5 19 80 20 79 21 16 22 17 23 78 24
REMARK SMILES IDX 18 25 77 26 19 27 20 28 21 29 71 30 22 31 76 32 70 33 72 34
REMARK SMILES IDX 23 35 75 36 69 37 68 38 24 40 56 41 36 42 55 43 37 44 40 45
REMARK SMILES IDX 54 46 73 47 38 48 39 49 53 51 74 52 41 53 25 54 26 55 34 56
REMARK SMILES IDX 27 57 29 58 35 59 28 60 30 61 31 62 32 63 33 64 57 65 58 66
REMARK SMILES IDX 66 67 59 68 61 69 67 70 60 71 62 72 63 73 64 74 65 75 42 76
REMARK SMILES IDX 43 77 51 78 44 79 46 80 52 81 45 82 47 83 48 84 49 85 50 86
REMARK H PARENT 13 4 9 11 72 39 40 50
REMARK Flexibility Score: inf
ROOT
ATOM      1  N   UNL A   1      32.605  34.174  27.636  1.00  0.00    -0.352 N 
ATOM      2  C   UNL A   1      33.120  34.770  28.759  1.00  0.00     0.251 C 
ATOM      3  O   UNL A   1      32.620  35.822  29.152  1.00  0.00    -0.269 OA
ATOM      4  H   UNL A   1      31.997  34.741  27.109  1.00  0.00     0.163 HD
ENDROOT
BRANCH   1   5
ATOM      5  C   UNL A   1      32.815  32.837  27.097  1.00  0.00     0.118 C 
BRANCH   5   6
ATOM      6  C   UNL A   1      31.493  32.149  26.759  1.00  0.00     0.042 C 
BRANCH   6   7
ATOM      7  C   UNL A   1      31.640  30.655  26.467  1.00  0.00     0.118 C 
BRANCH   7   8
ATOM      8  N   UNL A   1      32.825  30.107  27.098  1.00  0.00    -0.352 N 
ATOM      9  C   UNL A   1      33.765  29.195  26.698  1.00  0.00     0.251 C 
ATOM     10  O   UNL A   1      34.711  29.004  27.465  1.00  0.00    -0.269 OA
ATOM     11  H   UNL A   1      32.987  30.464  28.002  1.00  0.00     0.163 HD
BRANCH   9  12
ATOM     12  C   UNL A   1      33.742  28.467  25.389  1.00  0.00     0.040 A 
ATOM     13  C   UNL A   1      33.370  23.722  21.953  1.00  0.00     0.173 C 
ATOM     14  N   UNL A   1      33.534  24.949  22.693  1.00  0.00    -0.275 N 
ATOM     15  C   UNL A   1      33.606  25.077  24.051  1.00  0.00     0.117 A 
ATOM     16  N   UNL A   1      33.600  26.114  22.017  1.00  0.00    -0.173 NA
ATOM     17  C   UNL A   1      33.683  26.426  24.260  1.00  0.00     0.021 A 
ATOM     18  C   UNL A   1      33.648  27.058  22.970  1.00  0.00     0.092 A 
ATOM     19  C   UNL A   1      33.740  27.051  25.500  1.00  0.00     0.025 A 
ATOM     20  C   UNL A   1      33.649  28.454  22.863  1.00  0.00     0.032 A 
ATOM     21  C   UNL A   1      33.663  29.124  24.114  1.00  0.00     0.016 A 
ENDBRANCH   9  12
ENDBRANCH   7   8
ENDBRANCH   6   7
ENDBRANCH   5   6
ENDBRANCH   1   5
BRANCH   2  22
ATOM     22  C   UNL A   1      34.258  34.174  29.495  1.00  0.00     0.039 A 
ATOM     23  C   UNL A   1      35.557  34.452  29.057  1.00  0.00     0.014 A 
ATOM     24  C   UNL A   1      34.059  33.286  30.556  1.00  0.00     0.014 A 
ATOM     25  C   UNL A   1      36.651  33.865  29.698  1.00  0.00     0.010 A 
ATOM     26  C   UNL A   1      35.154  32.757  31.239  1.00  0.00     0.010 A 
ATOM     27  C   UNL A   1      36.460  33.025  30.805  1.00  0.00    -0.014 A 
BRANCH  27  28
ATOM     28  C   UNL A   1      37.616  32.409  31.508  1.00  0.00     0.031 A 
ATOM     29  C   UNL A   1      38.376  31.272  30.876  1.00  0.00     0.074 A 
ATOM     30  C   UNL A   1      37.939  32.827  32.747  1.00  0.00     0.049 A 
ATOM     31  N   UNL A   1      39.386  30.589  31.350  1.00  0.00    -0.248 NA
ATOM     32  C   UNL A   1      37.926  30.825  29.546  1.00  0.00     0.031 C 
ATOM     33  C   UNL A   1      37.229  33.865  33.500  1.00  0.00     0.029 A 
ATOM     34  N   UNL A   1      38.929  32.415  33.603  1.00  0.00    -0.354 N 
ATOM     35  C   UNL A   1      39.667  29.613  30.402  1.00  0.00     0.074 A 
ATOM     36  C   UNL A   1      38.700  29.770  29.337  1.00  0.00     0.031 C 
ATOM     37  C   UNL A   1      37.809  34.011  34.701  1.00  0.00     0.029 A 
ATOM     38  C   UNL A   1      38.915  33.064  34.816  1.00  0.00     0.049 A 
ATOM     39  H   UNL A   1      39.588  31.722  33.371  1.00  0.00     0.167 HD
ATOM     40  C   UNL A   1      40.658  28.689  30.400  1.00  0.00     0.034 A 
ATOM     41  C   UNL A   1      39.702  32.913  35.898  1.00  0.00     0.034 A 
ATOM     42  C   UNL A   1      41.647  28.569  31.437  1.00  0.00     0.049 A 
ATOM     43  C   UNL A   1      40.834  31.923  35.845  1.00  0.00     0.074 A 
ATOM     44  C   UNL A   1      42.743  27.726  31.489  1.00  0.00     0.029 A 
ATOM     45  N   UNL A   1      41.661  29.314  32.607  1.00  0.00    -0.354 N 
ATOM     46  N   UNL A   1      41.181  31.118  34.871  1.00  0.00    -0.248 NA
ATOM     47  C   UNL A   1      41.710  31.852  37.023  1.00  0.00     0.031 C 
ATOM     48  C   UNL A   1      43.410  27.950  32.698  1.00  0.00     0.029 A 
ATOM     49  C   UNL A   1      42.744  28.949  33.389  1.00  0.00     0.049 A 
ATOM     50  H   UNL A   1      40.998  30.001  32.846  1.00  0.00     0.167 HD
ATOM     51  C   UNL A   1      42.334  30.473  35.300  1.00  0.00     0.074 A 
ATOM     52  C   UNL A   1      42.639  30.998  36.615  1.00  0.00     0.031 C 
ATOM     53  C   UNL A   1      43.067  29.521  34.670  1.00  0.00     0.034 A 
BRANCH  40  54
ATOM     54  C   UNL A   1      40.756  27.769  29.209  1.00  0.00     0.023 A 
ATOM     55  C   UNL A   1      39.953  26.610  29.159  1.00  0.00     0.012 A 
ATOM     56  C   UNL A   1      41.592  28.076  28.118  1.00  0.00     0.148 A 
ATOM     57  C   UNL A   1      40.009  25.753  28.061  1.00  0.00     0.002 A 
ATOM     58  C   UNL A   1      41.609  27.239  27.006  1.00  0.00     0.091 A 
ATOM     59  F   UNL A   1      42.363  29.170  28.190  1.00  0.00    -0.205 F 
ATOM     60  C   UNL A   1      40.828  26.072  26.982  1.00  0.00     0.022 A 
BRANCH  58  61
ATOM     61  S   UNL A   1      42.569  27.603  25.533  1.00  0.00     0.127 S 
ATOM     62  O   UNL A   1      43.927  27.661  26.071  1.00  0.00    -0.237 OA
ATOM     63  O   UNL A   1      42.297  26.438  24.691  1.00  0.00    -0.237 OA
ATOM     64  O   UNL A   1      42.047  28.859  25.014  1.00  0.00    -0.744 OA
ENDBRANCH  58  61
ENDBRANCH  40  54
BRANCH  41  65
ATOM     65  C   UNL A   1      39.496  33.781  37.093  1.00  0.00     0.023 A 
ATOM     66  C   UNL A   1      39.949  35.114  37.064  1.00  0.00     0.012 A 
ATOM     67  C   UNL A   1      38.830  33.306  38.238  1.00  0.00     0.148 A 
ATOM     68  C   UNL A   1      39.770  35.951  38.167  1.00  0.00     0.002 A 
ATOM     69  C   UNL A   1      38.605  34.161  39.312  1.00  0.00     0.091 A 
ATOM     70  F   UNL A   1      38.416  32.031  38.252  1.00  0.00    -0.205 F 
ATOM     71  C   UNL A   1      39.090  35.478  39.286  1.00  0.00     0.022 A 
BRANCH  69  72
ATOM     72  S   UNL A   1      37.624  33.680  40.737  1.00  0.00     0.127 S 
ATOM     73  O   UNL A   1      38.536  32.785  41.442  1.00  0.00    -0.237 OA
ATOM     74  O   UNL A   1      37.390  34.967  41.393  1.00  0.00    -0.237 OA
ATOM     75  O   UNL A   1      36.422  33.060  40.192  1.00  0.00    -0.744 OA
ENDBRANCH  69  72
ENDBRANCH  41  65
BRANCH  53  76
ATOM     76  C   UNL A   1      44.295  29.009  35.375  1.00  0.00     0.023 A 
ATOM     77  C   UNL A   1      45.549  29.598  35.118  1.00  0.00     0.012 A 
ATOM     78  C   UNL A   1      44.196  27.988  36.341  1.00  0.00     0.148 A 
ATOM     79  C   UNL A   1      46.690  29.153  35.783  1.00  0.00     0.002 A 
ATOM     80  C   UNL A   1      45.330  27.584  37.037  1.00  0.00     0.091 A 
ATOM     81  F   UNL A   1      42.998  27.425  36.558  1.00  0.00    -0.205 F 
ATOM     82  C   UNL A   1      46.579  28.156  36.750  1.00  0.00     0.022 A 
BRANCH  80  83
ATOM     83  S   UNL A   1      45.259  26.376  38.364  1.00  0.00     0.127 S 
ATOM     84  O   UNL A   1      44.833  25.173  37.650  1.00  0.00    -0.237 OA
ATOM     85  O   UNL A   1      46.644  26.348  38.835  1.00  0.00    -0.237 OA
ATOM     86  O   UNL A   1      44.306  26.904  39.331  1.00  0.00    -0.744 OA
ENDBRANCH  80  83
ENDBRANCH  53  76
ENDBRANCH  27  28
ENDBRANCH   2  22
TORSDOF 13
ENDMDL
MODEL 3
REMARK VINA RESULT:     -11.1      3.799      9.077
REMARK SMILES Cn1cc2cc(C(=O)NCCCNC(=O)c3ccc(-c4c5nc(c(-c6cccc(S(=O)(=O)[O-])c6F)c6ccc([nH]6)c(-c6cccc(S(=O)(=O)[O-])c6F)c6nc(c(-c7cccc(S(=O)(=O)[O-])c7F)c7ccc4[nH]7)C=C6)C=C5)cc3)ccc2n1
REMARK SMILES IDX 13 1 14 2 15 3 12 5 11 6 10 7 9 8 7 9 8 10 6 12 1 13 2 14
REMARK SMILES IDX 3 15 82 16 4 17 81 18 5 19 80 20 79 21 16 22 17 23 78 24
REMARK SMILES IDX 18 25 77 26 19 27 20 28 21 29 71 30 22 31 76 32 70 33 72 34
REMARK SMILES IDX 23 35 75 36 69 37 68 38 24 40 56 41 36 42 55 43 37 44 40 45
REMARK SMILES IDX 54 46 73 47 38 48 39 49 53 51 74 52 41 53 25 54 26 55 34 56
REMARK SMILES IDX 27 57 29 58 35 59 28 60 30 61 31 62 32 63 33 64 57 65 58 66
REMARK SMILES IDX 66 67 59 68 61 69 67 70 60 71 62 72 63 73 64 74 65 75 42 76
REMARK SMILES IDX 43 77 51 78 44 79 46 80 52 81 45 82 47 83 48 84 49 85 50 86
REMARK H PARENT 13 4 9 11 72 39 40 50
REMARK Flexibility Score: inf
ROOT
ATOM      1  N   UNL A   1      32.543  33.836  27.591  1.00  0.00    -0.352 N 
ATOM      2  C   UNL A   1      33.172  34.529  28.593  1.00  0.00     0.251 C 
ATOM      3  O   UNL A   1      32.782  35.664  28.862  1.00  0.00    -0.269 OA
ATOM      4  H   UNL A   1      31.950  34.377  27.022  1.00  0.00     0.163 HD
ENDROOT
BRANCH   1   5
ATOM      5  C   UNL A   1      32.613  32.426  27.232  1.00  0.00     0.118 C 
BRANCH   5   6
ATOM      6  C   UNL A   1      31.354  31.965  26.501  1.00  0.00     0.042 C 
BRANCH   6   7
ATOM      7  C   UNL A   1      31.541  30.661  25.723  1.00  0.00     0.118 C 
BRANCH   7   8
ATOM      8  N   UNL A   1      30.557  30.530  24.667  1.00  0.00    -0.352 N 
ATOM      9  C   UNL A   1      30.446  29.696  23.585  1.00  0.00     0.251 C 
ATOM     10  O   UNL A   1      29.420  29.801  22.909  1.00  0.00    -0.269 OA
ATOM     11  H   UNL A   1      29.814  31.172  24.742  1.00  0.00     0.163 HD
BRANCH   9  12
ATOM     12  C   UNL A   1      31.452  28.652  23.209  1.00  0.00     0.040 A 
ATOM     13  C   UNL A   1      33.248  23.195  22.001  1.00  0.00     0.173 C 
ATOM     14  N   UNL A   1      32.939  24.563  22.336  1.00  0.00    -0.275 N 
ATOM     15  C   UNL A   1      31.743  25.041  22.790  1.00  0.00     0.117 A 
ATOM     16  N   UNL A   1      33.891  25.504  22.174  1.00  0.00    -0.173 NA
ATOM     17  C   UNL A   1      31.931  26.391  22.886  1.00  0.00     0.021 A 
ATOM     18  C   UNL A   1      33.278  26.663  22.466  1.00  0.00     0.092 A 
ATOM     19  C   UNL A   1      30.972  27.316  23.278  1.00  0.00     0.025 A 
ATOM     20  C   UNL A   1      33.749  27.980  22.398  1.00  0.00     0.032 A 
ATOM     21  C   UNL A   1      32.779  28.953  22.750  1.00  0.00     0.016 A 
ENDBRANCH   9  12
ENDBRANCH   7   8
ENDBRANCH   6   7
ENDBRANCH   5   6
ENDBRANCH   1   5
BRANCH   2  22
ATOM     22  C   UNL A   1      34.302  33.941  29.346  1.00  0.00     0.039 A 
ATOM     23  C   UNL A   1      35.606  34.286  28.974  1.00  0.00     0.014 A 
ATOM     24  C   UNL A   1      34.097  32.997  30.357  1.00  0.00     0.014 A 
ATOM     25  C   UNL A   1      36.697  33.709  29.630  1.00  0.00     0.010 A 
ATOM     26  C   UNL A   1      35.184  32.476  31.058  1.00  0.00     0.010 A 
ATOM     27  C   UNL A   1      36.495  32.811  30.689  1.00  0.00    -0.014 A 
BRANCH  27  28
ATOM     28  C   UNL A   1      37.646  32.205  31.409  1.00  0.00     0.031 A 
ATOM     29  C   UNL A   1      38.426  31.076  30.787  1.00  0.00     0.074 A 
ATOM     30  C   UNL A   1      37.945  32.624  32.654  1.00  0.00     0.049 A 
ATOM     31  N   UNL A   1      39.435  30.402  31.276  1.00  0.00    -0.248 NA
ATOM     32  C   UNL A   1      38.000  30.627  29.450  1.00  0.00     0.031 C 
ATOM     33  C   UNL A   1      37.214  33.654  33.397  1.00  0.00     0.029 A 
ATOM     34  N   UNL A   1      38.926  32.220  33.524  1.00  0.00    -0.354 N 
ATOM     35  C   UNL A   1      39.739  29.430  30.331  1.00  0.00     0.074 A 
ATOM     36  C   UNL A   1      38.787  29.579  29.252  1.00  0.00     0.031 C 
ATOM     37  C   UNL A   1      37.775  33.803  34.608  1.00  0.00     0.029 A 
ATOM     38  C   UNL A   1      38.887  32.867  34.738  1.00  0.00     0.049 A 
ATOM     39  H   UNL A   1      39.595  31.533  33.302  1.00  0.00     0.167 HD
ATOM     40  C   UNL A   1      40.738  28.515  30.343  1.00  0.00     0.034 A 
ATOM     41  C   UNL A   1      39.659  32.721  35.832  1.00  0.00     0.034 A 
ATOM     42  C   UNL A   1      41.713  28.402  31.395  1.00  0.00     0.049 A 
ATOM     43  C   UNL A   1      40.800  31.741  35.795  1.00  0.00     0.074 A 
ATOM     44  C   UNL A   1      42.815  27.569  31.463  1.00  0.00     0.029 A 
ATOM     45  N   UNL A   1      41.702  29.146  32.566  1.00  0.00    -0.354 N 
ATOM     46  N   UNL A   1      41.170  30.941  34.825  1.00  0.00    -0.248 NA
ATOM     47  C   UNL A   1      41.659  31.677  36.987  1.00  0.00     0.031 C 
ATOM     48  C   UNL A   1      43.461  27.797  32.683  1.00  0.00     0.029 A 
ATOM     49  C   UNL A   1      42.775  28.789  33.364  1.00  0.00     0.049 A 
ATOM     50  H   UNL A   1      41.029  29.826  32.796  1.00  0.00     0.167 HD
ATOM     51  C   UNL A   1      42.323  30.306  35.271  1.00  0.00     0.074 A 
ATOM     52  C   UNL A   1      42.602  30.832  36.591  1.00  0.00     0.031 C 
ATOM     53  C   UNL A   1      43.073  29.362  34.651  1.00  0.00     0.034 A 
BRANCH  40  54
ATOM     54  C   UNL A   1      40.864  27.597  29.153  1.00  0.00     0.023 A 
ATOM     55  C   UNL A   1      40.109  26.406  29.112  1.00  0.00     0.012 A 
ATOM     56  C   UNL A   1      41.675  27.937  28.053  1.00  0.00     0.148 A 
ATOM     57  C   UNL A   1      40.191  25.550  28.014  1.00  0.00     0.002 A 
ATOM     58  C   UNL A   1      41.716  27.100  26.942  1.00  0.00     0.091 A 
ATOM     59  F   UNL A   1      42.400  29.063  28.115  1.00  0.00    -0.205 F 
ATOM     60  C   UNL A   1      40.985  25.901  26.927  1.00  0.00     0.022 A 
BRANCH  58  61
ATOM     61  S   UNL A   1      42.645  27.502  25.459  1.00  0.00     0.127 S 
ATOM     62  O   UNL A   1      42.396  26.326  24.626  1.00  0.00    -0.237 OA
ATOM     63  O   UNL A   1      41.983  28.724  25.001  1.00  0.00    -0.237 OA
ATOM     64  O   UNL A   1      44.025  27.685  25.886  1.00  0.00    -0.744 OA
ENDBRANCH  58  61
ENDBRANCH  40  54
BRANCH  41  65
ATOM     65  C   UNL A   1      39.427  33.585  37.025  1.00  0.00     0.023 A 
ATOM     66  C   UNL A   1      39.857  34.925  37.000  1.00  0.00     0.012 A 
ATOM     67  C   UNL A   1      38.757  33.099  38.164  1.00  0.00     0.148 A 
ATOM     68  C   UNL A   1      39.653  35.759  38.101  1.00  0.00     0.002 A 
ATOM     69  C   UNL A   1      38.508  33.949  39.235  1.00  0.00     0.091 A 
ATOM     70  F   UNL A   1      38.366  31.817  38.173  1.00  0.00    -0.205 F 
ATOM     71  C   UNL A   1      38.971  35.275  39.213  1.00  0.00     0.022 A 
BRANCH  69  72
ATOM     72  S   UNL A   1      37.521  33.452  40.651  1.00  0.00     0.127 S 
ATOM     73  O   UNL A   1      37.417  34.701  41.399  1.00  0.00    -0.237 OA
ATOM     74  O   UNL A   1      36.281  33.007  40.015  1.00  0.00    -0.237 OA
ATOM     75  O   UNL A   1      38.277  32.385  41.298  1.00  0.00    -0.744 OA
ENDBRANCH  69  72
ENDBRANCH  41  65
BRANCH  53  76
ATOM     76  C   UNL A   1      44.296  28.860  35.374  1.00  0.00     0.023 A 
ATOM     77  C   UNL A   1      45.550  29.451  35.127  1.00  0.00     0.012 A 
ATOM     78  C   UNL A   1      44.189  27.847  36.348  1.00  0.00     0.148 A 
ATOM     79  C   UNL A   1      46.686  29.016  35.808  1.00  0.00     0.002 A 
ATOM     80  C   UNL A   1      45.316  27.453  37.059  1.00  0.00     0.091 A 
ATOM     81  F   UNL A   1      42.991  27.282  36.556  1.00  0.00    -0.205 F 
ATOM     82  C   UNL A   1      46.567  28.027  36.782  1.00  0.00     0.022 A 
BRANCH  80  83
ATOM     83  S   UNL A   1      45.234  26.256  38.396  1.00  0.00     0.127 S 
ATOM     84  O   UNL A   1      44.985  25.012  37.668  1.00  0.00    -0.237 OA
ATOM     85  O   UNL A   1      46.568  26.358  38.990  1.00  0.00    -0.237 OA
ATOM     86  O   UNL A   1      44.154  26.703  39.265  1.00  0.00    -0.744 OA
ENDBRANCH  80  83
ENDBRANCH  53  76
ENDBRANCH  27  28
ENDBRANCH   2  22
TORSDOF 13
ENDMDL
