MODEL 1
REMARK VINA RESULT:     -12.1      0.000      0.000
REMARK SMILES CC(C)C[C@H](Nc1ncnc2scc(-c3ccccc3)c12)C(=O)NCCCNC(=O)c1ccc(-c2c3nc(c(-c4cccc(S(=O)(=O)[O-])c4F)c4ccc([nH]4)c(-c4cccc(S(=O)(=O)[O-])c4F)c4nc(c(-c5cccc(S(=O)(=O)[O-])c5F)c5ccc2[nH]5)C=C4)C=C3)cc1
REMARK SMILES IDX 26 1 25 2 24 3 22 4 23 5 5 7 4 8 2 9 1 10 3 11 6 12 7 14
REMARK SMILES IDX 8 15 21 16 9 17 11 18 14 19 10 20 12 21 13 22 15 23 16 24
REMARK SMILES IDX 20 25 17 26 19 27 18 28 27 29 28 30 29 31 30 33 31 34 32 35
REMARK SMILES IDX 93 36 33 37 92 38 34 39 35 40 36 41 86 42 37 43 91 44 85 45
REMARK SMILES IDX 87 46 38 47 90 48 84 49 83 50 39 52 71 53 51 54 70 55 52 56
REMARK SMILES IDX 55 57 69 58 88 59 53 60 54 61 68 63 89 64 56 65 40 66 41 67
REMARK SMILES IDX 49 68 42 69 44 70 50 71 43 72 45 73 46 74 47 75 48 76 72 77
REMARK SMILES IDX 73 78 81 79 74 80 76 81 82 82 75 83 77 84 78 85 79 86 80 87
REMARK SMILES IDX 57 88 58 89 66 90 59 91 61 92 67 93 60 94 62 95 63 96 64 97
REMARK SMILES IDX 65 98
REMARK H PARENT 24 6 6 13 28 32 87 51 55 62
REMARK Flexibility Score: inf
ROOT
ATOM      1  C   UNL A   1      32.500  27.576  26.028  1.00  0.00     0.042 C 
ENDROOT
BRANCH   1   2
ATOM      2  C   UNL A   1      32.789  26.154  26.478  1.00  0.00     0.117 C 
BRANCH   2   3
ATOM      3  N   UNL A   1      31.614  25.376  26.835  1.00  0.00    -0.354 N 
ATOM      4  C   UNL A   1      30.835  24.521  26.114  1.00  0.00     0.242 C 
ATOM      5  O   UNL A   1      29.976  23.903  26.757  1.00  0.00    -0.273 OA
ATOM      6  H   UNL A   1      31.327  25.489  27.770  1.00  0.00     0.163 HD
BRANCH   4   7
ATOM      7  C   UNL A   1      30.954  24.312  24.586  1.00  0.00     0.170 C 
BRANCH   7   8
ATOM      8  C   UNL A   1      30.081  25.215  23.686  1.00  0.00     0.038 C 
BRANCH   8   9
ATOM      9  C   UNL A   1      29.505  26.544  24.222  1.00  0.00    -0.015 C 
ATOM     10  C   UNL A   1      30.170  27.783  23.612  1.00  0.00     0.007 C 
ATOM     11  C   UNL A   1      27.998  26.629  23.953  1.00  0.00     0.007 C 
ENDBRANCH   8   9
ENDBRANCH   7   8
BRANCH   7  12
ATOM     12  N   UNL A   1      31.145  22.892  24.239  1.00  0.00    -0.358 N 
ATOM     13  H   UNL A   1      30.428  22.468  23.714  1.00  0.00     0.162 HD
BRANCH  12  14
ATOM     14  C   UNL A   1      32.212  22.098  24.567  1.00  0.00     0.139 A 
ATOM     15  N   UNL A   1      31.957  20.970  25.265  1.00  0.00    -0.219 NA
ATOM     16  C   UNL A   1      33.561  22.409  24.237  1.00  0.00     0.062 A 
ATOM     17  C   UNL A   1      32.967  20.186  25.650  1.00  0.00     0.225 A 
ATOM     18  C   UNL A   1      34.502  21.525  24.767  1.00  0.00     0.129 A 
ATOM     19  C   UNL A   1      34.243  23.484  23.506  1.00  0.00     0.006 A 
ATOM     20  N   UNL A   1      34.260  20.411  25.477  1.00  0.00    -0.225 NA
ATOM     21  S   UNL A   1      36.111  21.989  24.489  1.00  0.00    -0.123 S 
ATOM     22  C   UNL A   1      35.621  23.360  23.614  1.00  0.00     0.076 A 
BRANCH  19  23
ATOM     23  C   UNL A   1      33.720  24.651  22.775  1.00  0.00    -0.017 A 
ATOM     24  C   UNL A   1      32.987  24.474  21.593  1.00  0.00     0.009 A 
ATOM     25  C   UNL A   1      34.011  25.961  23.169  1.00  0.00     0.009 A 
ATOM     26  C   UNL A   1      32.564  25.574  20.838  1.00  0.00     0.001 A 
ATOM     27  C   UNL A   1      33.570  27.064  22.433  1.00  0.00     0.001 A 
ATOM     28  C   UNL A   1      32.850  26.869  21.261  1.00  0.00     0.000 A 
ENDBRANCH  19  23
ENDBRANCH  12  14
ENDBRANCH   7  12
ENDBRANCH   4   7
ENDBRANCH   2   3
ENDBRANCH   1   2
BRANCH   1  29
ATOM     29  C   UNL A   1      31.998  28.494  27.127  1.00  0.00     0.118 C 
BRANCH  29  30
ATOM     30  N   UNL A   1      31.827  29.857  26.653  1.00  0.00    -0.352 N 
ATOM     31  C   UNL A   1      32.576  30.974  26.939  1.00  0.00     0.251 C 
ATOM     32  H   UNL A   1      31.071  30.000  26.041  1.00  0.00     0.163 HD
ATOM     33  O   UNL A   1      32.132  32.088  26.667  1.00  0.00    -0.269 OA
BRANCH  31  34
ATOM     34  C   UNL A   1      33.901  30.843  27.588  1.00  0.00     0.039 A 
ATOM     35  C   UNL A   1      34.608  31.995  27.950  1.00  0.00     0.014 A 
ATOM     36  C   UNL A   1      34.465  29.586  27.814  1.00  0.00     0.014 A 
ATOM     37  C   UNL A   1      35.847  31.880  28.589  1.00  0.00     0.010 A 
ATOM     38  C   UNL A   1      35.645  29.473  28.543  1.00  0.00     0.010 A 
ATOM     39  C   UNL A   1      36.364  30.616  28.919  1.00  0.00    -0.014 A 
BRANCH  39  40
ATOM     40  C   UNL A   1      37.663  30.444  29.621  1.00  0.00     0.031 A 
ATOM     41  C   UNL A   1      38.737  29.585  29.002  1.00  0.00     0.074 A 
ATOM     42  C   UNL A   1      37.840  30.953  30.856  1.00  0.00     0.049 A 
ATOM     43  N   UNL A   1      39.867  29.173  29.516  1.00  0.00    -0.248 NA
ATOM     44  C   UNL A   1      38.488  29.089  27.638  1.00  0.00     0.031 C 
ATOM     45  C   UNL A   1      36.856  31.746  31.598  1.00  0.00     0.029 A 
ATOM     46  N   UNL A   1      38.899  30.844  31.725  1.00  0.00    -0.354 N 
ATOM     47  C   UNL A   1      40.431  28.328  28.566  1.00  0.00     0.074 A 
ATOM     48  C   UNL A   1      39.506  28.262  27.457  1.00  0.00     0.031 C 
ATOM     49  C   UNL A   1      37.356  32.049  32.806  1.00  0.00     0.029 A 
ATOM     50  C   UNL A   1      38.675  31.441  32.945  1.00  0.00     0.049 A 
ATOM     51  H   UNL A   1      39.738  30.384  31.496  1.00  0.00     0.167 HD
ATOM     52  C   UNL A   1      41.623  27.687  28.598  1.00  0.00     0.034 A 
ATOM     53  C   UNL A   1      39.440  31.480  34.054  1.00  0.00     0.034 A 
ATOM     54  C   UNL A   1      42.572  27.812  29.670  1.00  0.00     0.049 A 
ATOM     55  C   UNL A   1      40.786  30.806  34.045  1.00  0.00     0.074 A 
ATOM     56  C   UNL A   1      43.847  27.281  29.755  1.00  0.00     0.029 A 
ATOM     57  N   UNL A   1      42.354  28.521  30.841  1.00  0.00    -0.354 N 
ATOM     58  N   UNL A   1      41.359  30.125  33.084  1.00  0.00    -0.248 NA
ATOM     59  C   UNL A   1      41.606  30.934  35.259  1.00  0.00     0.031 C 
ATOM     60  C   UNL A   1      44.394  27.656  30.986  1.00  0.00     0.029 A 
ATOM     61  C   UNL A   1      43.469  28.441  31.655  1.00  0.00     0.049 A 
ATOM     62  H   UNL A   1      41.527  29.009  31.059  1.00  0.00     0.167 HD
ATOM     63  C   UNL A   1      42.621  29.782  33.558  1.00  0.00     0.074 A 
ATOM     64  C   UNL A   1      42.731  30.338  34.890  1.00  0.00     0.031 C 
ATOM     65  C   UNL A   1      43.593  29.061  32.949  1.00  0.00     0.034 A 
BRANCH  52  66
ATOM     66  C   UNL A   1      41.998  26.836  27.412  1.00  0.00     0.023 A 
ATOM     67  C   UNL A   1      42.630  27.431  26.301  1.00  0.00     0.012 A 
ATOM     68  C   UNL A   1      41.782  25.445  27.421  1.00  0.00     0.148 A 
ATOM     69  C   UNL A   1      43.008  26.661  25.202  1.00  0.00     0.002 A 
ATOM     70  C   UNL A   1      42.204  24.677  26.341  1.00  0.00     0.091 A 
ATOM     71  F   UNL A   1      41.162  24.899  28.477  1.00  0.00    -0.205 F 
ATOM     72  C   UNL A   1      42.805  25.285  25.226  1.00  0.00     0.022 A 
BRANCH  70  73
ATOM     73  S   UNL A   1      42.063  22.886  26.315  1.00  0.00     0.127 S 
ATOM     74  O   UNL A   1      40.613  22.704  26.387  1.00  0.00    -0.237 OA
ATOM     75  O   UNL A   1      42.654  22.549  25.017  1.00  0.00    -0.237 OA
ATOM     76  O   UNL A   1      42.812  22.407  27.464  1.00  0.00    -0.744 OA
ENDBRANCH  70  73
ENDBRANCH  52  66
BRANCH  53  77
ATOM     77  C   UNL A   1      38.972  32.236  35.251  1.00  0.00     0.023 A 
ATOM     78  C   UNL A   1      39.073  33.641  35.262  1.00  0.00     0.012 A 
ATOM     79  C   UNL A   1      38.404  31.579  36.359  1.00  0.00     0.148 A 
ATOM     80  C   UNL A   1      38.644  34.376  36.368  1.00  0.00     0.002 A 
ATOM     81  C   UNL A   1      37.929  32.321  37.435  1.00  0.00     0.091 A 
ATOM     82  F   UNL A   1      38.329  30.240  36.334  1.00  0.00    -0.205 F 
ATOM     83  C   UNL A   1      38.062  33.718  37.448  1.00  0.00     0.022 A 
BRANCH  81  84
ATOM     84  S   UNL A   1      37.055  31.563  38.810  1.00  0.00     0.127 S 
ATOM     85  O   UNL A   1      38.002  31.753  39.906  1.00  0.00    -0.237 OA
ATOM     86  O   UNL A   1      35.847  32.387  38.891  1.00  0.00    -0.237 OA
ATOM     87  O   UNL A   1      36.816  30.185  38.409  1.00  0.00    -0.744 OA
ENDBRANCH  81  84
ENDBRANCH  53  77
BRANCH  65  88
ATOM     88  C   UNL A   1      44.897  28.873  33.677  1.00  0.00     0.023 A 
ATOM     89  C   UNL A   1      45.919  29.833  33.549  1.00  0.00     0.012 A 
ATOM     90  C   UNL A   1      45.061  27.798  34.574  1.00  0.00     0.148 A 
ATOM     91  C   UNL A   1      47.094  29.716  34.291  1.00  0.00     0.002 A 
ATOM     92  C   UNL A   1      46.214  27.714  35.344  1.00  0.00     0.091 A 
ATOM     93  F   UNL A   1      44.082  26.887  34.666  1.00  0.00    -0.205 F 
ATOM     94  C   UNL A   1      47.236  28.666  35.197  1.00  0.00     0.022 A 
BRANCH  92  95
ATOM     95  S   UNL A   1      46.441  26.457  36.608  1.00  0.00     0.127 S 
ATOM     96  O   UNL A   1      45.289  26.697  37.476  1.00  0.00    -0.237 OA
ATOM     97  O   UNL A   1      46.372  25.220  35.829  1.00  0.00    -0.237 OA
ATOM     98  O   UNL A   1      47.741  26.722  37.210  1.00  0.00    -0.744 OA
ENDBRANCH  92  95
ENDBRANCH  65  88
ENDBRANCH  39  40
ENDBRANCH  31  34
ENDBRANCH  29  30
ENDBRANCH   1  29
TORSDOF 18
ENDMDL
MODEL 2
REMARK VINA RESULT:     -12.0      5.296     10.235
REMARK SMILES CC(C)C[C@H](Nc1ncnc2scc(-c3ccccc3)c12)C(=O)NCCCNC(=O)c1ccc(-c2c3nc(c(-c4cccc(S(=O)(=O)[O-])c4F)c4ccc([nH]4)c(-c4cccc(S(=O)(=O)[O-])c4F)c4nc(c(-c5cccc(S(=O)(=O)[O-])c5F)c5ccc2[nH]5)C=C4)C=C3)cc1
REMARK SMILES IDX 26 1 25 2 24 3 22 4 23 5 5 7 4 8 2 9 1 10 3 11 6 12 7 14
REMARK SMILES IDX 8 15 21 16 9 17 11 18 14 19 10 20 12 21 13 22 15 23 16 24
REMARK SMILES IDX 20 25 17 26 19 27 18 28 27 29 28 30 29 31 30 33 31 34 32 35
REMARK SMILES IDX 93 36 33 37 92 38 34 39 35 40 36 41 86 42 37 43 91 44 85 45
REMARK SMILES IDX 87 46 38 47 90 48 84 49 83 50 39 52 71 53 51 54 70 55 52 56
REMARK SMILES IDX 55 57 69 58 88 59 53 60 54 61 68 63 89 64 56 65 40 66 41 67
REMARK SMILES IDX 49 68 42 69 44 70 50 71 43 72 45 73 46 74 47 75 48 76 72 77
REMARK SMILES IDX 73 78 81 79 74 80 76 81 82 82 75 83 77 84 78 85 79 86 80 87
REMARK SMILES IDX 57 88 58 89 66 90 59 91 61 92 67 93 60 94 62 95 63 96 64 97
REMARK SMILES IDX 65 98
REMARK H PARENT 24 6 6 13 28 32 87 51 55 62
REMARK Flexibility Score: inf
ROOT
ATOM      1  C   UNL A   1      37.559  19.431  25.241  1.00  0.00     0.042 C 
ENDROOT
BRANCH   1   2
ATOM      2  C   UNL A   1      36.398  20.342  24.877  1.00  0.00     0.117 C 
BRANCH   2   3
ATOM      3  N   UNL A   1      35.709  20.935  26.012  1.00  0.00    -0.354 N 
ATOM      4  C   UNL A   1      34.395  20.945  26.375  1.00  0.00     0.242 C 
ATOM      5  O   UNL A   1      34.148  21.429  27.488  1.00  0.00    -0.273 OA
ATOM      6  H   UNL A   1      36.300  21.419  26.632  1.00  0.00     0.163 HD
BRANCH   4   7
ATOM      7  C   UNL A   1      33.241  20.423  25.487  1.00  0.00     0.170 C 
BRANCH   7   8
ATOM      8  C   UNL A   1      33.528  19.168  24.631  1.00  0.00     0.038 C 
BRANCH   8   9
ATOM      9  C   UNL A   1      32.390  18.198  24.247  1.00  0.00    -0.015 C 
ATOM     10  C   UNL A   1      32.435  17.761  22.779  1.00  0.00     0.007 C 
ATOM     11  C   UNL A   1      32.434  16.939  25.122  1.00  0.00     0.007 C 
ENDBRANCH   8   9
ENDBRANCH   7   8
BRANCH   7  12
ATOM     12  N   UNL A   1      32.435  21.525  24.929  1.00  0.00    -0.358 N 
ATOM     13  H   UNL A   1      32.405  21.593  23.947  1.00  0.00     0.162 HD
BRANCH  12  14
ATOM     14  C   UNL A   1      31.725  22.464  25.628  1.00  0.00     0.139 A 
ATOM     15  N   UNL A   1      30.530  22.090  26.135  1.00  0.00    -0.219 NA
ATOM     16  C   UNL A   1      32.164  23.804  25.825  1.00  0.00     0.062 A 
ATOM     17  C   UNL A   1      29.778  22.981  26.785  1.00  0.00     0.225 A 
ATOM     18  C   UNL A   1      31.236  24.625  26.467  1.00  0.00     0.129 A 
ATOM     19  C   UNL A   1      33.356  24.582  25.468  1.00  0.00     0.006 A 
ATOM     20  N   UNL A   1      30.038  24.268  26.958  1.00  0.00    -0.225 NA
ATOM     21  S   UNL A   1      31.712  26.251  26.563  1.00  0.00    -0.123 S 
ATOM     22  C   UNL A   1      33.191  25.920  25.797  1.00  0.00     0.076 A 
BRANCH  19  23
ATOM     23  C   UNL A   1      34.604  24.198  24.786  1.00  0.00    -0.017 A 
ATOM     24  C   UNL A   1      34.568  23.680  23.484  1.00  0.00     0.009 A 
ATOM     25  C   UNL A   1      35.843  24.240  25.435  1.00  0.00     0.009 A 
ATOM     26  C   UNL A   1      35.734  23.223  22.859  1.00  0.00     0.001 A 
ATOM     27  C   UNL A   1      37.015  23.809  24.807  1.00  0.00     0.001 A 
ATOM     28  C   UNL A   1      36.958  23.293  23.518  1.00  0.00     0.000 A 
ENDBRANCH  19  23
ENDBRANCH  12  14
ENDBRANCH   7  12
ENDBRANCH   4   7
ENDBRANCH   2   3
ENDBRANCH   1   2
BRANCH   1  29
ATOM     29  C   UNL A   1      38.794  20.156  25.742  1.00  0.00     0.118 C 
BRANCH  29  30
ATOM     30  N   UNL A   1      39.912  19.247  25.929  1.00  0.00    -0.352 N 
ATOM     31  C   UNL A   1      41.238  19.537  26.145  1.00  0.00     0.251 C 
ATOM     32  H   UNL A   1      39.688  18.289  25.899  1.00  0.00     0.163 HD
ATOM     33  O   UNL A   1      42.082  18.652  26.013  1.00  0.00    -0.269 OA
BRANCH  31  34
ATOM     34  C   UNL A   1      41.655  20.910  26.514  1.00  0.00     0.039 A 
ATOM     35  C   UNL A   1      41.980  21.197  27.844  1.00  0.00     0.014 A 
ATOM     36  C   UNL A   1      41.699  21.925  25.557  1.00  0.00     0.014 A 
ATOM     37  C   UNL A   1      42.402  22.484  28.197  1.00  0.00     0.010 A 
ATOM     38  C   UNL A   1      42.219  23.173  25.888  1.00  0.00     0.010 A 
ATOM     39  C   UNL A   1      42.555  23.476  27.215  1.00  0.00    -0.014 A 
BRANCH  39  40
ATOM     40  C   UNL A   1      43.025  24.850  27.536  1.00  0.00     0.031 A 
ATOM     41  C   UNL A   1      42.070  25.840  28.155  1.00  0.00     0.074 A 
ATOM     42  C   UNL A   1      44.260  25.247  27.170  1.00  0.00     0.049 A 
ATOM     43  N   UNL A   1      42.225  27.122  28.360  1.00  0.00    -0.248 NA
ATOM     44  C   UNL A   1      40.749  25.327  28.557  1.00  0.00     0.031 C 
ATOM     45  C   UNL A   1      45.260  24.409  26.504  1.00  0.00     0.029 A 
ATOM     46  N   UNL A   1      44.872  26.473  27.272  1.00  0.00    -0.354 N 
ATOM     47  C   UNL A   1      41.008  27.577  28.858  1.00  0.00     0.074 A 
ATOM     48  C   UNL A   1      40.117  26.440  28.897  1.00  0.00     0.031 C 
ATOM     49  C   UNL A   1      46.355  25.143  26.255  1.00  0.00     0.029 A 
ATOM     50  C   UNL A   1      46.125  26.513  26.706  1.00  0.00     0.049 A 
ATOM     51  H   UNL A   1      44.453  27.249  27.709  1.00  0.00     0.167 HD
ATOM     52  C   UNL A   1      40.671  28.820  29.275  1.00  0.00     0.034 A 
ATOM     53  C   UNL A   1      46.985  27.540  26.552  1.00  0.00     0.034 A 
ATOM     54  C   UNL A   1      41.581  29.931  29.304  1.00  0.00     0.049 A 
ATOM     55  C   UNL A   1      46.608  28.901  27.074  1.00  0.00     0.074 A 
ATOM     56  C   UNL A   1      41.366  31.206  29.796  1.00  0.00     0.029 A 
ATOM     57  N   UNL A   1      42.882  29.900  28.826  1.00  0.00    -0.354 N 
ATOM     58  N   UNL A   1      45.501  29.277  27.666  1.00  0.00    -0.248 NA
ATOM     59  C   UNL A   1      47.608  29.970  26.937  1.00  0.00     0.031 C 
ATOM     60  C   UNL A   1      42.532  31.952  29.600  1.00  0.00     0.029 A 
ATOM     61  C   UNL A   1      43.481  31.133  29.009  1.00  0.00     0.049 A 
ATOM     62  H   UNL A   1      43.314  29.116  28.416  1.00  0.00     0.167 HD
ATOM     63  C   UNL A   1      45.689  30.611  28.013  1.00  0.00     0.074 A 
ATOM     64  C   UNL A   1      47.019  30.975  27.571  1.00  0.00     0.031 C 
ATOM     65  C   UNL A   1      44.831  31.459  28.630  1.00  0.00     0.034 A 
BRANCH  52  66
ATOM     66  C   UNL A   1      39.271  29.034  29.791  1.00  0.00     0.023 A 
ATOM     67  C   UNL A   1      38.943  28.631  31.101  1.00  0.00     0.012 A 
ATOM     68  C   UNL A   1      38.301  29.686  29.006  1.00  0.00     0.148 A 
ATOM     69  C   UNL A   1      37.662  28.839  31.609  1.00  0.00     0.002 A 
ATOM     70  C   UNL A   1      37.039  29.933  29.536  1.00  0.00     0.091 A 
ATOM     71  F   UNL A   1      38.624  30.045  27.755  1.00  0.00    -0.205 F 
ATOM     72  C   UNL A   1      36.715  29.499  30.832  1.00  0.00     0.022 A 
BRANCH  70  73
ATOM     73  S   UNL A   1      35.778  30.850  28.644  1.00  0.00     0.127 S 
ATOM     74  O   UNL A   1      36.579  31.874  27.973  1.00  0.00    -0.237 OA
ATOM     75  O   UNL A   1      35.227  29.828  27.751  1.00  0.00    -0.237 OA
ATOM     76  O   UNL A   1      34.850  31.340  29.650  1.00  0.00    -0.744 OA
ENDBRANCH  70  73
ENDBRANCH  52  66
BRANCH  53  77
ATOM     77  C   UNL A   1      48.316  27.305  25.923  1.00  0.00     0.023 A 
ATOM     78  C   UNL A   1      49.388  26.866  26.724  1.00  0.00     0.012 A 
ATOM     79  C   UNL A   1      48.518  27.484  24.542  1.00  0.00     0.148 A 
ATOM     80  C   UNL A   1      50.646  26.637  26.165  1.00  0.00     0.002 A 
ATOM     81  C   UNL A   1      49.760  27.203  23.982  1.00  0.00     0.091 A 
ATOM     82  F   UNL A   1      47.488  27.916  23.800  1.00  0.00    -0.205 F 
ATOM     83  C   UNL A   1      50.829  26.795  24.794  1.00  0.00     0.022 A 
BRANCH  81  84
ATOM     84  S   UNL A   1      50.046  27.260  22.209  1.00  0.00     0.127 S 
ATOM     85  O   UNL A   1      48.981  26.393  21.708  1.00  0.00    -0.237 OA
ATOM     86  O   UNL A   1      49.866  28.685  21.920  1.00  0.00    -0.237 OA
ATOM     87  O   UNL A   1      51.403  26.775  22.016  1.00  0.00    -0.744 OA
ENDBRANCH  81  84
ENDBRANCH  53  77
BRANCH  65  88
ATOM     88  C   UNL A   1      45.309  32.855  28.931  1.00  0.00     0.023 A 
ATOM     89  C   UNL A   1      46.065  33.105  30.092  1.00  0.00     0.012 A 
ATOM     90  C   UNL A   1      45.100  33.894  28.002  1.00  0.00     0.148 A 
ATOM     91  C   UNL A   1      46.591  34.375  30.332  1.00  0.00     0.002 A 
ATOM     92  C   UNL A   1      45.666  35.142  28.224  1.00  0.00     0.091 A 
ATOM     93  F   UNL A   1      44.361  33.636  26.911  1.00  0.00    -0.205 F 
ATOM     94  C   UNL A   1      46.403  35.387  29.394  1.00  0.00     0.022 A 
BRANCH  92  95
ATOM     95  S   UNL A   1      45.564  36.476  27.025  1.00  0.00     0.127 S 
ATOM     96  O   UNL A   1      46.299  37.543  27.703  1.00  0.00    -0.237 OA
ATOM     97  O   UNL A   1      46.250  35.903  25.866  1.00  0.00    -0.237 OA
ATOM     98  O   UNL A   1      44.143  36.728  26.824  1.00  0.00    -0.744 OA
ENDBRANCH  92  95
ENDBRANCH  65  88
ENDBRANCH  39  40
ENDBRANCH  31  34
ENDBRANCH  29  30
ENDBRANCH   1  29
TORSDOF 18
ENDMDL
MODEL 3
REMARK VINA RESULT:     -12.0      1.796      3.041
REMARK SMILES CC(C)C[C@H](Nc1ncnc2scc(-c3ccccc3)c12)C(=O)NCCCNC(=O)c1ccc(-c2c3nc(c(-c4cccc(S(=O)(=O)[O-])c4F)c4ccc([nH]4)c(-c4cccc(S(=O)(=O)[O-])c4F)c4nc(c(-c5cccc(S(=O)(=O)[O-])c5F)c5ccc2[nH]5)C=C4)C=C3)cc1
REMARK SMILES IDX 26 1 25 2 24 3 22 4 23 5 5 7 4 8 2 9 1 10 3 11 6 12 7 14
REMARK SMILES IDX 8 15 21 16 9 17 11 18 14 19 10 20 12 21 13 22 15 23 16 24
REMARK SMILES IDX 20 25 17 26 19 27 18 28 27 29 28 30 29 31 30 33 31 34 32 35
REMARK SMILES IDX 93 36 33 37 92 38 34 39 35 40 36 41 86 42 37 43 91 44 85 45
REMARK SMILES IDX 87 46 38 47 90 48 84 49 83 50 39 52 71 53 51 54 70 55 52 56
REMARK SMILES IDX 55 57 69 58 88 59 53 60 54 61 68 63 89 64 56 65 40 66 41 67
REMARK SMILES IDX 49 68 42 69 44 70 50 71 43 72 45 73 46 74 47 75 48 76 72 77
REMARK SMILES IDX 73 78 81 79 74 80 76 81 82 82 75 83 77 84 78 85 79 86 80 87
REMARK SMILES IDX 57 88 58 89 66 90 59 91 61 92 67 93 60 94 62 95 63 96 64 97
REMARK SMILES IDX 65 98
REMARK H PARENT 24 6 6 13 28 32 87 51 55 62
REMARK Flexibility Score: inf
ROOT
ATOM      1  C   UNL A   1      31.900  27.971  26.948  1.00  0.00     0.042 C 
ENDROOT
BRANCH   1   2
ATOM      2  C   UNL A   1      31.926  26.485  26.629  1.00  0.00     0.117 C 
BRANCH   2   3
ATOM      3  N   UNL A   1      30.685  25.780  26.908  1.00  0.00    -0.354 N 
ATOM      4  C   UNL A   1      30.218  24.565  26.504  1.00  0.00     0.242 C 
ATOM      5  O   UNL A   1      29.165  24.188  27.037  1.00  0.00    -0.273 OA
ATOM      6  H   UNL A   1      30.068  26.271  27.497  1.00  0.00     0.163 HD
BRANCH   4   7
ATOM      7  C   UNL A   1      30.902  23.680  25.436  1.00  0.00     0.170 C 
BRANCH   7   8
ATOM      8  C   UNL A   1      32.226  22.993  25.838  1.00  0.00     0.038 C 
BRANCH   8   9
ATOM      9  C   UNL A   1      32.377  21.458  25.751  1.00  0.00    -0.015 C 
ATOM     10  C   UNL A   1      32.377  20.930  24.313  1.00  0.00     0.007 C 
ATOM     11  C   UNL A   1      33.676  21.003  26.427  1.00  0.00     0.007 C 
ENDBRANCH   8   9
ENDBRANCH   7   8
BRANCH   7  12
ATOM     12  N   UNL A   1      30.744  24.236  24.079  1.00  0.00    -0.358 N 
ATOM     13  H   UNL A   1      30.766  23.591  23.336  1.00  0.00     0.162 HD
BRANCH  12  14
ATOM     14  C   UNL A   1      30.572  25.552  23.741  1.00  0.00     0.139 A 
ATOM     15  N   UNL A   1      29.310  26.035  23.743  1.00  0.00    -0.219 NA
ATOM     16  C   UNL A   1      31.637  26.420  23.370  1.00  0.00     0.062 A 
ATOM     17  C   UNL A   1      29.083  27.298  23.376  1.00  0.00     0.225 A 
ATOM     18  C   UNL A   1      31.228  27.688  22.953  1.00  0.00     0.129 A 
ATOM     19  C   UNL A   1      33.096  26.304  23.256  1.00  0.00     0.006 A 
ATOM     20  N   UNL A   1      29.975  28.171  22.933  1.00  0.00    -0.225 NA
ATOM     21  S   UNL A   1      32.493  28.660  22.375  1.00  0.00    -0.123 S 
ATOM     22  C   UNL A   1      33.642  27.452  22.698  1.00  0.00     0.076 A 
BRANCH  19  23
ATOM     23  C   UNL A   1      34.013  25.193  23.561  1.00  0.00    -0.017 A 
ATOM     24  C   UNL A   1      34.076  24.076  22.715  1.00  0.00     0.009 A 
ATOM     25  C   UNL A   1      34.771  25.161  24.736  1.00  0.00     0.009 A 
ATOM     26  C   UNL A   1      34.872  22.972  23.041  1.00  0.00     0.001 A 
ATOM     27  C   UNL A   1      35.587  24.072  25.054  1.00  0.00     0.001 A 
ATOM     28  C   UNL A   1      35.632  22.972  24.207  1.00  0.00     0.000 A 
ENDBRANCH  19  23
ENDBRANCH  12  14
ENDBRANCH   7  12
ENDBRANCH   4   7
ENDBRANCH   2   3
ENDBRANCH   1   2
BRANCH   1  29
ATOM     29  C   UNL A   1      32.816  28.815  26.083  1.00  0.00     0.118 C 
BRANCH  29  30
ATOM     30  N   UNL A   1      32.486  30.228  26.171  1.00  0.00    -0.352 N 
ATOM     31  C   UNL A   1      33.057  31.204  26.953  1.00  0.00     0.251 C 
ATOM     32  H   UNL A   1      31.751  30.528  25.589  1.00  0.00     0.163 HD
ATOM     33  O   UNL A   1      32.479  32.280  27.097  1.00  0.00    -0.269 OA
BRANCH  31  34
ATOM     34  C   UNL A   1      34.350  30.960  27.633  1.00  0.00     0.039 A 
ATOM     35  C   UNL A   1      35.287  31.995  27.724  1.00  0.00     0.014 A 
ATOM     36  C   UNL A   1      34.656  29.702  28.156  1.00  0.00     0.014 A 
ATOM     37  C   UNL A   1      36.499  31.781  28.390  1.00  0.00     0.010 A 
ATOM     38  C   UNL A   1      35.813  29.523  28.907  1.00  0.00     0.010 A 
ATOM     39  C   UNL A   1      36.760  30.550  29.014  1.00  0.00    -0.014 A 
BRANCH  39  40
ATOM     40  C   UNL A   1      38.022  30.284  29.755  1.00  0.00     0.031 A 
ATOM     41  C   UNL A   1      39.039  29.332  29.178  1.00  0.00     0.074 A 
ATOM     42  C   UNL A   1      38.205  30.796  30.989  1.00  0.00     0.049 A 
ATOM     43  N   UNL A   1      40.117  28.838  29.729  1.00  0.00    -0.248 NA
ATOM     44  C   UNL A   1      38.788  28.837  27.813  1.00  0.00     0.031 C 
ATOM     45  C   UNL A   1      37.269  31.676  31.692  1.00  0.00     0.029 A 
ATOM     46  N   UNL A   1      39.227  30.614  31.889  1.00  0.00    -0.354 N 
ATOM     47  C   UNL A   1      40.637  27.936  28.807  1.00  0.00     0.074 A 
ATOM     48  C   UNL A   1      39.741  27.929  27.673  1.00  0.00     0.031 C 
ATOM     49  C   UNL A   1      37.757  31.956  32.910  1.00  0.00     0.029 A 
ATOM     50  C   UNL A   1      39.019  31.245  33.094  1.00  0.00     0.049 A 
ATOM     51  H   UNL A   1      40.032  30.084  31.690  1.00  0.00     0.167 HD
ATOM     52  C   UNL A   1      41.772  27.202  28.881  1.00  0.00     0.034 A 
ATOM     53  C   UNL A   1      39.753  31.238  34.225  1.00  0.00     0.034 A 
ATOM     54  C   UNL A   1      42.698  27.266  29.978  1.00  0.00     0.049 A 
ATOM     55  C   UNL A   1      41.041  30.459  34.262  1.00  0.00     0.074 A 
ATOM     56  C   UNL A   1      43.923  26.635  30.106  1.00  0.00     0.029 A 
ATOM     57  N   UNL A   1      42.506  28.007  31.133  1.00  0.00    -0.354 N 
ATOM     58  N   UNL A   1      41.583  29.719  33.327  1.00  0.00    -0.248 NA
ATOM     59  C   UNL A   1      41.834  30.537  35.498  1.00  0.00     0.031 C 
ATOM     60  C   UNL A   1      44.464  26.982  31.348  1.00  0.00     0.029 A 
ATOM     61  C   UNL A   1      43.587  27.849  31.980  1.00  0.00     0.049 A 
ATOM     62  H   UNL A   1      41.715  28.564  31.321  1.00  0.00     0.167 HD
ATOM     63  C   UNL A   1      42.799  29.282  33.841  1.00  0.00     0.074 A 
ATOM     64  C   UNL A   1      42.917  29.847  35.169  1.00  0.00     0.031 C 
ATOM     65  C   UNL A   1      43.725  28.477  33.269  1.00  0.00     0.034 A 
BRANCH  52  66
ATOM     66  C   UNL A   1      42.109  26.306  27.717  1.00  0.00     0.023 A 
ATOM     67  C   UNL A   1      42.901  26.804  26.663  1.00  0.00     0.012 A 
ATOM     68  C   UNL A   1      41.696  24.960  27.695  1.00  0.00     0.148 A 
ATOM     69  C   UNL A   1      43.246  25.988  25.586  1.00  0.00     0.002 A 
ATOM     70  C   UNL A   1      42.084  24.139  26.641  1.00  0.00     0.091 A 
ATOM     71  F   UNL A   1      40.927  24.508  28.696  1.00  0.00    -0.205 F 
ATOM     72  C   UNL A   1      42.848  24.655  25.581  1.00  0.00     0.022 A 
BRANCH  70  73
ATOM     73  S   UNL A   1      41.691  22.387  26.585  1.00  0.00     0.127 S 
ATOM     74  O   UNL A   1      42.309  21.907  27.821  1.00  0.00    -0.237 OA
ATOM     75  O   UNL A   1      40.226  22.399  26.604  1.00  0.00    -0.237 OA
ATOM     76  O   UNL A   1      42.277  21.882  25.355  1.00  0.00    -0.744 OA
ENDBRANCH  70  73
ENDBRANCH  52  66
BRANCH  53  77
ATOM     77  C   UNL A   1      39.315  32.047  35.398  1.00  0.00     0.023 A 
ATOM     78  C   UNL A   1      38.467  31.463  36.359  1.00  0.00     0.012 A 
ATOM     79  C   UNL A   1      39.755  33.371  35.582  1.00  0.00     0.148 A 
ATOM     80  C   UNL A   1      38.040  32.195  37.468  1.00  0.00     0.002 A 
ATOM     81  C   UNL A   1      39.368  34.077  36.717  1.00  0.00     0.091 A 
ATOM     82  F   UNL A   1      40.551  33.913  34.649  1.00  0.00    -0.205 F 
ATOM     83  C   UNL A   1      38.499  33.496  37.653  1.00  0.00     0.022 A 
BRANCH  81  84
ATOM     84  S   UNL A   1      40.013  35.711  37.094  1.00  0.00     0.127 S 
ATOM     85  O   UNL A   1      41.441  35.440  37.245  1.00  0.00    -0.237 OA
ATOM     86  O   UNL A   1      39.654  36.463  35.889  1.00  0.00    -0.237 OA
ATOM     87  O   UNL A   1      39.317  36.138  38.298  1.00  0.00    -0.744 OA
ENDBRANCH  81  84
ENDBRANCH  53  77
BRANCH  65  88
ATOM     88  C   UNL A   1      44.989  28.194  34.036  1.00  0.00     0.023 A 
ATOM     89  C   UNL A   1      46.087  29.069  33.931  1.00  0.00     0.012 A 
ATOM     90  C   UNL A   1      45.043  27.120  34.947  1.00  0.00     0.148 A 
ATOM     91  C   UNL A   1      47.228  28.869  34.708  1.00  0.00     0.002 A 
ATOM     92  C   UNL A   1      46.163  26.953  35.752  1.00  0.00     0.091 A 
ATOM     93  F   UNL A   1      43.993  26.289  35.018  1.00  0.00    -0.205 F 
ATOM     94  C   UNL A   1      47.261  27.821  35.626  1.00  0.00     0.022 A 
BRANCH  92  95
ATOM     95  S   UNL A   1      46.254  25.697  37.032  1.00  0.00     0.127 S 
ATOM     96  O   UNL A   1      45.034  25.959  37.793  1.00  0.00    -0.237 OA
ATOM     97  O   UNL A   1      46.233  24.458  36.252  1.00  0.00    -0.237 OA
ATOM     98  O   UNL A   1      47.500  25.940  37.747  1.00  0.00    -0.744 OA
ENDBRANCH  92  95
ENDBRANCH  65  88
ENDBRANCH  39  40
ENDBRANCH  31  34
ENDBRANCH  29  30
ENDBRANCH   1  29
TORSDOF 18
ENDMDL
