MODEL 1
REMARK VINA RESULT:     -12.2      0.000      0.000
REMARK SMILES Cc1cc(C(=O)N[C@H]2C=C[C@@H](C(=O)NCCCNC(=O)c3ccc(-c4c5nc(c(-c6cccc(S(=O)(=O)[O-])c6F)c6ccc([nH]6)c(-c6cccc(S(=O)(=O)[O-])c6F)c6nc(c(-c7cccc(S(=O)(=O)[O-])c7F)c7ccc4[nH]7)C=C6)C=C5)cc3)C2)no1
REMARK SMILES IDX 16 1 15 2 14 3 12 4 13 5 11 7 8 8 9 9 84 10 10 11 7 12 5 13
REMARK SMILES IDX 6 14 4 16 1 17 2 18 3 19 86 20 85 21 17 22 18 23 19 24 20 26
REMARK SMILES IDX 21 27 22 28 83 29 23 30 82 31 24 32 25 33 26 34 76 35 27 36
REMARK SMILES IDX 81 37 75 38 77 39 28 40 80 41 74 42 73 43 29 45 61 46 41 47
REMARK SMILES IDX 60 48 42 49 45 50 59 51 78 52 43 53 44 54 58 56 79 57 46 58
REMARK SMILES IDX 30 59 31 60 39 61 32 62 34 63 40 64 33 65 35 66 36 67 37 68
REMARK SMILES IDX 38 69 62 70 63 71 71 72 64 73 66 74 72 75 65 76 67 77 68 78
REMARK SMILES IDX 69 79 70 80 47 81 48 82 56 83 49 84 51 85 57 86 50 87 52 88
REMARK SMILES IDX 53 89 54 90 55 91
REMARK H PARENT 14 6 7 15 18 25 77 44 45 55
REMARK Flexibility Score: inf
ROOT
ATOM      1  C   UNL A   1      31.565  32.033  26.567  1.00  0.00     0.042 C 
ENDROOT
BRANCH   1   2
ATOM      2  C   UNL A   1      31.782  30.569  26.203  1.00  0.00     0.117 C 
BRANCH   2   3
ATOM      3  N   UNL A   1      31.301  30.250  24.868  1.00  0.00    -0.356 N 
ATOM      4  C   UNL A   1      31.220  29.070  24.195  1.00  0.00     0.227 C 
ATOM      5  O   UNL A   1      30.698  29.092  23.076  1.00  0.00    -0.274 OA
ATOM      6  H   UNL A   1      30.975  31.027  24.360  1.00  0.00     0.163 HD
BRANCH   4   7
ATOM      7  C   UNL A   1      31.716  27.744  24.775  1.00  0.00     0.103 C 
ATOM      8  C   UNL A   1      32.582  25.598  23.935  1.00  0.00     0.106 C 
ATOM      9  C   UNL A   1      33.674  26.527  24.364  1.00  0.00    -0.006 C 
ATOM     10  C   UNL A   1      31.328  26.493  23.980  1.00  0.00     0.047 C 
ATOM     11  C   UNL A   1      33.206  27.678  24.853  1.00  0.00    -0.016 C 
BRANCH   8  12
ATOM     12  N   UNL A   1      32.817  25.056  22.612  1.00  0.00    -0.344 N 
ATOM     13  C   UNL A   1      33.404  23.873  22.214  1.00  0.00     0.273 C 
ATOM     14  O   UNL A   1      33.425  23.621  21.011  1.00  0.00    -0.267 OA
ATOM     15  H   UNL A   1      32.507  25.629  21.875  1.00  0.00     0.164 HD
BRANCH  13  16
ATOM     16  C   UNL A   1      34.030  23.006  23.211  1.00  0.00     0.171 A 
ATOM     17  C   UNL A   1      36.543  21.161  25.151  1.00  0.00     0.091 C 
ATOM     18  C   UNL A   1      35.446  21.861  24.463  1.00  0.00     0.134 A 
ATOM     19  C   UNL A   1      35.364  22.998  23.700  1.00  0.00     0.082 A 
ATOM     20  O   UNL A   1      34.220  21.283  24.534  1.00  0.00    -0.361 OA
ATOM     21  N   UNL A   1      33.329  22.003  23.767  1.00  0.00    -0.074 NA
ENDBRANCH  13  16
ENDBRANCH   8  12
ENDBRANCH   4   7
ENDBRANCH   2   3
ENDBRANCH   1   2
BRANCH   1  22
ATOM     22  C   UNL A   1      32.746  32.676  27.285  1.00  0.00     0.118 C 
BRANCH  22  23
ATOM     23  N   UNL A   1      32.491  34.059  27.659  1.00  0.00    -0.352 N 
ATOM     24  C   UNL A   1      33.082  34.815  28.643  1.00  0.00     0.251 C 
ATOM     25  H   UNL A   1      31.796  34.519  27.134  1.00  0.00     0.163 HD
ATOM     26  O   UNL A   1      32.630  35.924  28.915  1.00  0.00    -0.269 OA
BRANCH  24  27
ATOM     27  C   UNL A   1      34.248  34.287  29.386  1.00  0.00     0.039 A 
ATOM     28  C   UNL A   1      34.030  33.579  30.572  1.00  0.00     0.014 A 
ATOM     29  C   UNL A   1      35.550  34.497  28.922  1.00  0.00     0.014 A 
ATOM     30  C   UNL A   1      35.114  33.032  31.263  1.00  0.00     0.010 A 
ATOM     31  C   UNL A   1      36.623  33.899  29.578  1.00  0.00     0.010 A 
ATOM     32  C   UNL A   1      36.417  33.168  30.757  1.00  0.00    -0.014 A 
BRANCH  32  33
ATOM     33  C   UNL A   1      37.585  32.564  31.443  1.00  0.00     0.031 A 
ATOM     34  C   UNL A   1      38.324  31.423  30.801  1.00  0.00     0.074 A 
ATOM     35  C   UNL A   1      37.915  32.970  32.685  1.00  0.00     0.049 A 
ATOM     36  N   UNL A   1      39.295  30.694  31.285  1.00  0.00    -0.248 NA
ATOM     37  C   UNL A   1      37.894  31.030  29.448  1.00  0.00     0.031 C 
ATOM     38  C   UNL A   1      37.228  34.015  33.445  1.00  0.00     0.029 A 
ATOM     39  N   UNL A   1      38.897  32.530  33.537  1.00  0.00    -0.354 N 
ATOM     40  C   UNL A   1      39.556  29.726  30.324  1.00  0.00     0.074 A 
ATOM     41  C   UNL A   1      38.634  29.952  29.231  1.00  0.00     0.031 C 
ATOM     42  C   UNL A   1      37.808  34.136  34.650  1.00  0.00     0.029 A 
ATOM     43  C   UNL A   1      38.895  33.167  34.755  1.00  0.00     0.049 A 
ATOM     44  H   UNL A   1      39.540  31.824  33.299  1.00  0.00     0.167 HD
ATOM     45  C   UNL A   1      40.498  28.754  30.334  1.00  0.00     0.034 A 
ATOM     46  C   UNL A   1      39.684  32.992  35.834  1.00  0.00     0.034 A 
ATOM     47  C   UNL A   1      41.470  28.584  31.378  1.00  0.00     0.049 A 
ATOM     48  C   UNL A   1      40.786  31.971  35.779  1.00  0.00     0.074 A 
ATOM     49  C   UNL A   1      42.525  27.691  31.434  1.00  0.00     0.029 A 
ATOM     50  N   UNL A   1      41.515  29.334  32.542  1.00  0.00    -0.354 N 
ATOM     51  N   UNL A   1      41.110  31.161  34.800  1.00  0.00    -0.248 NA
ATOM     52  C   UNL A   1      41.653  31.860  36.962  1.00  0.00     0.031 C 
ATOM     53  C   UNL A   1      43.221  27.913  32.628  1.00  0.00     0.029 A 
ATOM     54  C   UNL A   1      42.588  28.934  33.319  1.00  0.00     0.049 A 
ATOM     55  H   UNL A   1      40.879  30.046  32.780  1.00  0.00     0.167 HD
ATOM     56  C   UNL A   1      42.231  30.466  35.236  1.00  0.00     0.074 A 
ATOM     57  C   UNL A   1      42.543  30.961  36.561  1.00  0.00     0.031 C 
ATOM     58  C   UNL A   1      42.926  29.489  34.605  1.00  0.00     0.034 A 
BRANCH  45  59
ATOM     59  C   UNL A   1      40.573  27.850  29.136  1.00  0.00     0.023 A 
ATOM     60  C   UNL A   1      39.705  26.742  29.059  1.00  0.00     0.012 A 
ATOM     61  C   UNL A   1      41.462  28.109  28.077  1.00  0.00     0.148 A 
ATOM     62  C   UNL A   1      39.734  25.894  27.954  1.00  0.00     0.002 A 
ATOM     63  C   UNL A   1      41.465  27.273  26.964  1.00  0.00     0.091 A 
ATOM     64  F   UNL A   1      42.305  29.146  28.181  1.00  0.00    -0.205 F 
ATOM     65  C   UNL A   1      40.607  26.165  26.903  1.00  0.00     0.022 A 
BRANCH  63  66
ATOM     66  S   UNL A   1      42.524  27.596  25.548  1.00  0.00     0.127 S 
ATOM     67  O   UNL A   1      43.849  27.609  26.165  1.00  0.00    -0.237 OA
ATOM     68  O   UNL A   1      42.267  26.442  24.685  1.00  0.00    -0.237 OA
ATOM     69  O   UNL A   1      42.059  28.864  25.003  1.00  0.00    -0.744 OA
ENDBRANCH  63  66
ENDBRANCH  45  59
BRANCH  46  70
ATOM     70  C   UNL A   1      39.519  33.880  37.017  1.00  0.00     0.023 A 
ATOM     71  C   UNL A   1      39.932  35.223  36.922  1.00  0.00     0.012 A 
ATOM     72  C   UNL A   1      38.915  33.431  38.205  1.00  0.00     0.148 A 
ATOM     73  C   UNL A   1      39.760  36.099  37.994  1.00  0.00     0.002 A 
ATOM     74  C   UNL A   1      38.708  34.320  39.256  1.00  0.00     0.091 A 
ATOM     75  F   UNL A   1      38.545  32.145  38.291  1.00  0.00    -0.205 F 
ATOM     76  C   UNL A   1      39.139  35.652  39.156  1.00  0.00     0.022 A 
BRANCH  74  77
ATOM     77  S   UNL A   1      37.803  33.823  40.727  1.00  0.00     0.127 S 
ATOM     78  O   UNL A   1      36.614  33.199  40.157  1.00  0.00    -0.237 OA
ATOM     79  O   UNL A   1      38.732  32.898  41.378  1.00  0.00    -0.237 OA
ATOM     80  O   UNL A   1      37.593  35.064  41.464  1.00  0.00    -0.744 OA
ENDBRANCH  74  77
ENDBRANCH  46  70
BRANCH  58  81
ATOM     81  C   UNL A   1      44.103  28.894  35.323  1.00  0.00     0.023 A 
ATOM     82  C   UNL A   1      45.382  29.447  35.117  1.00  0.00     0.012 A 
ATOM     83  C   UNL A   1      43.937  27.862  36.264  1.00  0.00     0.148 A 
ATOM     84  C   UNL A   1      46.481  28.970  35.829  1.00  0.00     0.002 A 
ATOM     85  C   UNL A   1      45.033  27.412  36.993  1.00  0.00     0.091 A 
ATOM     86  F   UNL A   1      42.716  27.329  36.428  1.00  0.00    -0.205 F 
ATOM     87  C   UNL A   1      46.306  27.962  36.775  1.00  0.00     0.022 A 
BRANCH  85  88
ATOM     88  S   UNL A   1      44.853  26.171  38.280  1.00  0.00     0.127 S 
ATOM     89  O   UNL A   1      44.381  25.015  37.521  1.00  0.00    -0.237 OA
ATOM     90  O   UNL A   1      46.217  26.041  38.798  1.00  0.00    -0.237 OA
ATOM     91  O   UNL A   1      43.908  26.740  39.231  1.00  0.00    -0.744 OA
ENDBRANCH  85  88
ENDBRANCH  58  81
ENDBRANCH  32  33
ENDBRANCH  24  27
ENDBRANCH  22  23
ENDBRANCH   1  22
TORSDOF 15
ENDMDL
MODEL 2
REMARK VINA RESULT:     -11.8      6.561     11.911
REMARK SMILES Cc1cc(C(=O)N[C@H]2C=C[C@@H](C(=O)NCCCNC(=O)c3ccc(-c4c5nc(c(-c6cccc(S(=O)(=O)[O-])c6F)c6ccc([nH]6)c(-c6cccc(S(=O)(=O)[O-])c6F)c6nc(c(-c7cccc(S(=O)(=O)[O-])c7F)c7ccc4[nH]7)C=C6)C=C5)cc3)C2)no1
REMARK SMILES IDX 16 1 15 2 14 3 12 4 13 5 11 7 8 8 9 9 84 10 10 11 7 12 5 13
REMARK SMILES IDX 6 14 4 16 1 17 2 18 3 19 86 20 85 21 17 22 18 23 19 24 20 26
REMARK SMILES IDX 21 27 22 28 83 29 23 30 82 31 24 32 25 33 26 34 76 35 27 36
REMARK SMILES IDX 81 37 75 38 77 39 28 40 80 41 74 42 73 43 29 45 61 46 41 47
REMARK SMILES IDX 60 48 42 49 45 50 59 51 78 52 43 53 44 54 58 56 79 57 46 58
REMARK SMILES IDX 30 59 31 60 39 61 32 62 34 63 40 64 33 65 35 66 36 67 37 68
REMARK SMILES IDX 38 69 62 70 63 71 71 72 64 73 66 74 72 75 65 76 67 77 68 78
REMARK SMILES IDX 69 79 70 80 47 81 48 82 56 83 49 84 51 85 57 86 50 87 52 88
REMARK SMILES IDX 53 89 54 90 55 91
REMARK H PARENT 14 6 7 15 18 25 77 44 45 55
REMARK Flexibility Score: inf
ROOT
ATOM      1  C   UNL A   1      37.907  19.664  24.987  1.00  0.00     0.042 C 
ENDROOT
BRANCH   1   2
ATOM      2  C   UNL A   1      36.835  20.712  24.713  1.00  0.00     0.117 C 
BRANCH   2   3
ATOM      3  N   UNL A   1      35.517  20.290  25.160  1.00  0.00    -0.356 N 
ATOM      4  C   UNL A   1      34.329  20.953  25.222  1.00  0.00     0.227 C 
ATOM      5  O   UNL A   1      33.342  20.310  25.592  1.00  0.00    -0.274 OA
ATOM      6  H   UNL A   1      35.475  19.359  25.474  1.00  0.00     0.163 HD
BRANCH   4   7
ATOM      7  C   UNL A   1      34.174  22.424  24.832  1.00  0.00     0.103 C 
ATOM      8  C   UNL A   1      32.524  24.226  25.136  1.00  0.00     0.106 C 
ATOM      9  C   UNL A   1      33.646  24.306  26.123  1.00  0.00    -0.006 C 
ATOM     10  C   UNL A   1      32.753  22.860  24.461  1.00  0.00     0.047 C 
ATOM     11  C   UNL A   1      34.562  23.350  25.938  1.00  0.00    -0.016 C 
BRANCH   8  12
ATOM     12  N   UNL A   1      31.229  24.306  25.779  1.00  0.00    -0.344 N 
ATOM     13  C   UNL A   1      30.460  25.398  26.125  1.00  0.00     0.273 C 
ATOM     14  O   UNL A   1      29.352  25.186  26.614  1.00  0.00    -0.267 OA
ATOM     15  H   UNL A   1      30.831  23.435  26.007  1.00  0.00     0.164 HD
BRANCH  13  16
ATOM     16  C   UNL A   1      31.006  26.745  25.968  1.00  0.00     0.171 A 
ATOM     17  C   UNL A   1      32.245  30.121  26.708  1.00  0.00     0.091 C 
ATOM     18  C   UNL A   1      31.788  28.788  26.286  1.00  0.00     0.134 A 
ATOM     19  C   UNL A   1      31.679  27.570  26.908  1.00  0.00     0.082 A 
ATOM     20  O   UNL A   1      31.326  28.680  25.014  1.00  0.00    -0.361 OA
ATOM     21  N   UNL A   1      30.851  27.402  24.805  1.00  0.00    -0.074 NA
ENDBRANCH  13  16
ENDBRANCH   8  12
ENDBRANCH   4   7
ENDBRANCH   2   3
ENDBRANCH   1   2
BRANCH   1  22
ATOM     22  C   UNL A   1      39.093  20.183  25.789  1.00  0.00     0.118 C 
BRANCH  22  23
ATOM     23  N   UNL A   1      40.148  19.191  25.939  1.00  0.00    -0.352 N 
ATOM     24  C   UNL A   1      41.491  19.379  26.162  1.00  0.00     0.251 C 
ATOM     25  H   UNL A   1      39.859  18.252  25.871  1.00  0.00     0.163 HD
ATOM     26  O   UNL A   1      42.258  18.422  26.110  1.00  0.00    -0.269 OA
BRANCH  24  27
ATOM     27  C   UNL A   1      42.015  20.734  26.444  1.00  0.00     0.039 A 
ATOM     28  C   UNL A   1      42.112  21.654  25.396  1.00  0.00     0.014 A 
ATOM     29  C   UNL A   1      42.416  21.094  27.734  1.00  0.00     0.014 A 
ATOM     30  C   UNL A   1      42.560  22.953  25.651  1.00  0.00     0.010 A 
ATOM     31  C   UNL A   1      42.803  22.405  27.998  1.00  0.00     0.010 A 
ATOM     32  C   UNL A   1      42.885  23.345  26.959  1.00  0.00    -0.014 A 
BRANCH  32  33
ATOM     33  C   UNL A   1      43.323  24.727  27.272  1.00  0.00     0.031 A 
ATOM     34  C   UNL A   1      42.351  25.702  27.877  1.00  0.00     0.074 A 
ATOM     35  C   UNL A   1      44.557  25.135  26.916  1.00  0.00     0.049 A 
ATOM     36  N   UNL A   1      42.508  26.977  28.121  1.00  0.00    -0.248 NA
ATOM     37  C   UNL A   1      41.018  25.182  28.226  1.00  0.00     0.031 C 
ATOM     38  C   UNL A   1      45.564  24.305  26.253  1.00  0.00     0.029 A 
ATOM     39  N   UNL A   1      45.162  26.360  27.037  1.00  0.00    -0.354 N 
ATOM     40  C   UNL A   1      41.283  27.423  28.600  1.00  0.00     0.074 A 
ATOM     41  C   UNL A   1      40.388  26.286  28.602  1.00  0.00     0.031 C 
ATOM     42  C   UNL A   1      46.662  25.045  26.025  1.00  0.00     0.029 A 
ATOM     43  C   UNL A   1      46.431  26.403  26.509  1.00  0.00     0.049 A 
ATOM     44  H   UNL A   1      44.729  27.135  27.459  1.00  0.00     0.167 HD
ATOM     45  C   UNL A   1      40.940  28.661  29.027  1.00  0.00     0.034 A 
ATOM     46  C   UNL A   1      47.311  27.421  26.428  1.00  0.00     0.034 A 
ATOM     47  C   UNL A   1      41.852  29.767  29.108  1.00  0.00     0.049 A 
ATOM     48  C   UNL A   1      46.938  28.759  27.002  1.00  0.00     0.074 A 
ATOM     49  C   UNL A   1      41.627  31.033  29.618  1.00  0.00     0.029 A 
ATOM     50  N   UNL A   1      43.170  29.735  28.680  1.00  0.00    -0.354 N 
ATOM     51  N   UNL A   1      45.821  29.123  27.584  1.00  0.00    -0.248 NA
ATOM     52  C   UNL A   1      47.955  29.820  26.938  1.00  0.00     0.031 C 
ATOM     53  C   UNL A   1      42.817  31.764  29.514  1.00  0.00     0.029 A 
ATOM     54  C   UNL A   1      43.776  30.955  28.926  1.00  0.00     0.049 A 
ATOM     55  H   UNL A   1      43.610  28.959  28.264  1.00  0.00     0.167 HD
ATOM     56  C   UNL A   1      46.009  30.441  27.980  1.00  0.00     0.074 A 
ATOM     57  C   UNL A   1      47.354  30.809  27.588  1.00  0.00     0.031 C 
ATOM     58  C   UNL A   1      45.139  31.279  28.593  1.00  0.00     0.034 A 
BRANCH  45  59
ATOM     59  C   UNL A   1      39.535  28.858  29.522  1.00  0.00     0.023 A 
ATOM     60  C   UNL A   1      39.225  28.516  30.854  1.00  0.00     0.012 A 
ATOM     61  C   UNL A   1      38.538  29.411  28.698  1.00  0.00     0.148 A 
ATOM     62  C   UNL A   1      37.937  28.703  31.352  1.00  0.00     0.002 A 
ATOM     63  C   UNL A   1      37.262  29.621  29.212  1.00  0.00     0.091 A 
ATOM     64  F   UNL A   1      38.840  29.699  27.423  1.00  0.00    -0.205 F 
ATOM     65  C   UNL A   1      36.959  29.264  30.535  1.00  0.00     0.022 A 
BRANCH  63  66
ATOM     66  S   UNL A   1      35.968  30.392  28.232  1.00  0.00     0.127 S 
ATOM     67  O   UNL A   1      36.664  31.555  27.683  1.00  0.00    -0.237 OA
ATOM     68  O   UNL A   1      35.648  29.356  27.250  1.00  0.00    -0.237 OA
ATOM     69  O   UNL A   1      34.892  30.676  29.172  1.00  0.00    -0.744 OA
ENDBRANCH  63  66
ENDBRANCH  45  59
BRANCH  46  70
ATOM     70  C   UNL A   1      48.668  27.176  25.870  1.00  0.00     0.023 A 
ATOM     71  C   UNL A   1      49.652  26.606  26.701  1.00  0.00     0.012 A 
ATOM     72  C   UNL A   1      48.980  27.448  24.526  1.00  0.00     0.148 A 
ATOM     73  C   UNL A   1      50.926  26.325  26.206  1.00  0.00     0.002 A 
ATOM     74  C   UNL A   1      50.239  27.127  24.027  1.00  0.00     0.091 A 
ATOM     75  F   UNL A   1      48.040  28.011  23.751  1.00  0.00    -0.205 F 
ATOM     76  C   UNL A   1      51.217  26.575  24.868  1.00  0.00     0.022 A 
BRANCH  74  77
ATOM     77  S   UNL A   1      50.622  27.317  22.282  1.00  0.00     0.127 S 
ATOM     78  O   UNL A   1      49.566  26.532  21.651  1.00  0.00    -0.237 OA
ATOM     79  O   UNL A   1      50.515  28.764  22.085  1.00  0.00    -0.237 OA
ATOM     80  O   UNL A   1      51.980  26.803  22.147  1.00  0.00    -0.744 OA
ENDBRANCH  74  77
ENDBRANCH  46  70
BRANCH  58  81
ATOM     81  C   UNL A   1      45.608  32.673  28.896  1.00  0.00     0.023 A 
ATOM     82  C   UNL A   1      46.321  32.913  30.087  1.00  0.00     0.012 A 
ATOM     83  C   UNL A   1      45.430  33.719  27.972  1.00  0.00     0.148 A 
ATOM     84  C   UNL A   1      46.839  34.178  30.358  1.00  0.00     0.002 A 
ATOM     85  C   UNL A   1      45.976  34.971  28.235  1.00  0.00     0.091 A 
ATOM     86  F   UNL A   1      44.725  33.479  26.855  1.00  0.00    -0.205 F 
ATOM     87  C   UNL A   1      46.678  35.203  29.428  1.00  0.00     0.022 A 
BRANCH  85  88
ATOM     88  S   UNL A   1      45.867  36.308  27.039  1.00  0.00     0.127 S 
ATOM     89  O   UNL A   1      44.424  36.524  26.958  1.00  0.00    -0.237 OA
ATOM     90  O   UNL A   1      46.608  37.389  27.694  1.00  0.00    -0.237 OA
ATOM     91  O   UNL A   1      46.506  35.796  25.834  1.00  0.00    -0.744 OA
ENDBRANCH  85  88
ENDBRANCH  58  81
ENDBRANCH  32  33
ENDBRANCH  24  27
ENDBRANCH  22  23
ENDBRANCH   1  22
TORSDOF 15
ENDMDL
MODEL 3
REMARK VINA RESULT:     -11.6      1.216      8.031
REMARK SMILES Cc1cc(C(=O)N[C@H]2C=C[C@@H](C(=O)NCCCNC(=O)c3ccc(-c4c5nc(c(-c6cccc(S(=O)(=O)[O-])c6F)c6ccc([nH]6)c(-c6cccc(S(=O)(=O)[O-])c6F)c6nc(c(-c7cccc(S(=O)(=O)[O-])c7F)c7ccc4[nH]7)C=C6)C=C5)cc3)C2)no1
REMARK SMILES IDX 16 1 15 2 14 3 12 4 13 5 11 7 8 8 9 9 84 10 10 11 7 12 5 13
REMARK SMILES IDX 6 14 4 16 1 17 2 18 3 19 86 20 85 21 17 22 18 23 19 24 20 26
REMARK SMILES IDX 21 27 22 28 83 29 23 30 82 31 24 32 25 33 26 34 76 35 27 36
REMARK SMILES IDX 81 37 75 38 77 39 28 40 80 41 74 42 73 43 29 45 61 46 41 47
REMARK SMILES IDX 60 48 42 49 45 50 59 51 78 52 43 53 44 54 58 56 79 57 46 58
REMARK SMILES IDX 30 59 31 60 39 61 32 62 34 63 40 64 33 65 35 66 36 67 37 68
REMARK SMILES IDX 38 69 62 70 63 71 71 72 64 73 66 74 72 75 65 76 67 77 68 78
REMARK SMILES IDX 69 79 70 80 47 81 48 82 56 83 49 84 51 85 57 86 50 87 52 88
REMARK SMILES IDX 53 89 54 90 55 91
REMARK H PARENT 14 6 7 15 18 25 77 44 45 55
REMARK Flexibility Score: inf
ROOT
ATOM      1  C   UNL A   1      31.610  32.094  26.554  1.00  0.00     0.042 C 
ENDROOT
BRANCH   1   2
ATOM      2  C   UNL A   1      31.792  30.642  26.129  1.00  0.00     0.117 C 
BRANCH   2   3
ATOM      3  N   UNL A   1      31.620  29.712  27.234  1.00  0.00    -0.356 N 
ATOM      4  C   UNL A   1      31.647  28.352  27.282  1.00  0.00     0.227 C 
ATOM      5  O   UNL A   1      31.531  27.824  28.393  1.00  0.00    -0.274 OA
ATOM      6  H   UNL A   1      31.455  30.144  28.102  1.00  0.00     0.163 HD
BRANCH   4   7
ATOM      7  C   UNL A   1      31.838  27.477  26.043  1.00  0.00     0.103 C 
ATOM      8  C   UNL A   1      33.200  25.538  25.373  1.00  0.00     0.106 C 
ATOM      9  C   UNL A   1      31.817  25.149  25.790  1.00  0.00    -0.006 C 
ATOM     10  C   UNL A   1      33.277  27.025  25.773  1.00  0.00     0.047 C 
ATOM     11  C   UNL A   1      31.064  26.202  26.120  1.00  0.00    -0.016 C 
BRANCH   8  12
ATOM     12  N   UNL A   1      34.212  24.743  26.036  1.00  0.00    -0.344 N 
ATOM     13  C   UNL A   1      34.569  23.421  25.873  1.00  0.00     0.273 C 
ATOM     14  O   UNL A   1      35.520  22.999  26.530  1.00  0.00    -0.267 OA
ATOM     15  H   UNL A   1      34.732  25.227  26.717  1.00  0.00     0.164 HD
BRANCH  13  16
ATOM     16  C   UNL A   1      33.777  22.561  24.994  1.00  0.00     0.171 A 
ATOM     17  C   UNL A   1      31.933  21.294  22.083  1.00  0.00     0.091 C 
ATOM     18  C   UNL A   1      32.656  21.681  23.305  1.00  0.00     0.134 A 
ATOM     19  C   UNL A   1      33.681  22.552  23.576  1.00  0.00     0.082 A 
ATOM     20  O   UNL A   1      32.240  21.108  24.463  1.00  0.00    -0.361 OA
ATOM     21  N   UNL A   1      32.948  21.642  25.519  1.00  0.00    -0.074 NA
ENDBRANCH  13  16
ENDBRANCH   8  12
ENDBRANCH   4   7
ENDBRANCH   2   3
ENDBRANCH   1   2
BRANCH   1  22
ATOM     22  C   UNL A   1      32.825  32.695  27.250  1.00  0.00     0.118 C 
BRANCH  22  23
ATOM     23  N   UNL A   1      32.587  34.051  27.724  1.00  0.00    -0.352 N 
ATOM     24  C   UNL A   1      33.170  34.716  28.776  1.00  0.00     0.251 C 
ATOM     25  H   UNL A   1      31.915  34.564  27.221  1.00  0.00     0.163 HD
ATOM     26  O   UNL A   1      32.733  35.810  29.123  1.00  0.00    -0.269 OA
BRANCH  24  27
ATOM     27  C   UNL A   1      34.308  34.108  29.501  1.00  0.00     0.039 A 
ATOM     28  C   UNL A   1      34.048  33.283  30.600  1.00  0.00     0.014 A 
ATOM     29  C   UNL A   1      35.626  34.357  29.107  1.00  0.00     0.014 A 
ATOM     30  C   UNL A   1      35.106  32.663  31.268  1.00  0.00     0.010 A 
ATOM     31  C   UNL A   1      36.674  33.689  29.734  1.00  0.00     0.010 A 
ATOM     32  C   UNL A   1      36.425  32.842  30.825  1.00  0.00    -0.014 A 
BRANCH  32  33
ATOM     33  C   UNL A   1      37.568  32.165  31.485  1.00  0.00     0.031 A 
ATOM     34  C   UNL A   1      38.054  32.648  32.823  1.00  0.00     0.074 A 
ATOM     35  C   UNL A   1      38.231  31.187  30.837  1.00  0.00     0.049 A 
ATOM     36  N   UNL A   1      39.098  32.263  33.509  1.00  0.00    -0.248 NA
ATOM     37  C   UNL A   1      37.282  33.729  33.460  1.00  0.00     0.031 C 
ATOM     38  C   UNL A   1      37.904  30.681  29.503  1.00  0.00     0.029 A 
ATOM     39  N   UNL A   1      39.338  30.464  31.205  1.00  0.00    -0.354 N 
ATOM     40  C   UNL A   1      39.141  33.085  34.627  1.00  0.00     0.074 A 
ATOM     41  C   UNL A   1      38.024  34.000  34.525  1.00  0.00     0.031 C 
ATOM     42  C   UNL A   1      38.790  29.731  29.164  1.00  0.00     0.029 A 
ATOM     43  C   UNL A   1      39.758  29.572  30.246  1.00  0.00     0.049 A 
ATOM     44  H   UNL A   1      39.791  30.575  32.071  1.00  0.00     0.167 HD
ATOM     45  C   UNL A   1      40.012  33.064  35.662  1.00  0.00     0.034 A 
ATOM     46  C   UNL A   1      40.801  28.719  30.242  1.00  0.00     0.034 A 
ATOM     47  C   UNL A   1      41.067  32.100  35.808  1.00  0.00     0.049 A 
ATOM     48  C   UNL A   1      41.694  28.648  31.449  1.00  0.00     0.074 A 
ATOM     49  C   UNL A   1      41.941  31.934  36.868  1.00  0.00     0.029 A 
ATOM     50  N   UNL A   1      41.381  31.128  34.872  1.00  0.00    -0.354 N 
ATOM     51  N   UNL A   1      41.630  29.337  32.563  1.00  0.00    -0.248 NA
ATOM     52  C   UNL A   1      42.785  27.661  31.415  1.00  0.00     0.031 C 
ATOM     53  C   UNL A   1      42.776  30.848  36.579  1.00  0.00     0.029 A 
ATOM     54  C   UNL A   1      42.428  30.349  35.333  1.00  0.00     0.049 A 
ATOM     55  H   UNL A   1      40.926  31.008  34.007  1.00  0.00     0.167 HD
ATOM     56  C   UNL A   1      42.650  28.850  33.371  1.00  0.00     0.074 A 
ATOM     57  C   UNL A   1      43.307  27.795  32.628  1.00  0.00     0.031 C 
ATOM     58  C   UNL A   1      43.023  29.256  34.609  1.00  0.00     0.034 A 
BRANCH  45  59
ATOM     59  C   UNL A   1      39.805  34.065  36.763  1.00  0.00     0.023 A 
ATOM     60  C   UNL A   1      40.122  35.418  36.525  1.00  0.00     0.012 A 
ATOM     61  C   UNL A   1      39.267  33.688  38.007  1.00  0.00     0.148 A 
ATOM     62  C   UNL A   1      39.924  36.377  37.516  1.00  0.00     0.002 A 
ATOM     63  C   UNL A   1      39.047  34.656  38.982  1.00  0.00     0.091 A 
ATOM     64  F   UNL A   1      39.004  32.392  38.230  1.00  0.00    -0.205 F 
ATOM     65  C   UNL A   1      39.379  35.998  38.740  1.00  0.00     0.022 A 
BRANCH  63  66
ATOM     66  S   UNL A   1      38.294  34.247  40.561  1.00  0.00     0.127 S 
ATOM     67  O   UNL A   1      37.114  33.493  40.142  1.00  0.00    -0.237 OA
ATOM     68  O   UNL A   1      39.329  33.443  41.212  1.00  0.00    -0.237 OA
ATOM     69  O   UNL A   1      38.039  35.528  41.207  1.00  0.00    -0.744 OA
ENDBRANCH  63  66
ENDBRANCH  45  59
BRANCH  46  70
ATOM     70  C   UNL A   1      40.989  27.793  29.092  1.00  0.00     0.023 A 
ATOM     71  C   UNL A   1      40.292  26.570  29.084  1.00  0.00     0.012 A 
ATOM     72  C   UNL A   1      41.799  28.128  27.992  1.00  0.00     0.148 A 
ATOM     73  C   UNL A   1      40.409  25.690  28.008  1.00  0.00     0.002 A 
ATOM     74  C   UNL A   1      41.880  27.266  26.903  1.00  0.00     0.091 A 
ATOM     75  F   UNL A   1      42.474  29.287  28.022  1.00  0.00    -0.205 F 
ATOM     76  C   UNL A   1      41.194  26.042  26.913  1.00  0.00     0.022 A 
BRANCH  74  77
ATOM     77  S   UNL A   1      42.779  27.728  25.418  1.00  0.00     0.127 S 
ATOM     78  O   UNL A   1      42.634  26.535  24.590  1.00  0.00    -0.237 OA
ATOM     79  O   UNL A   1      42.038  28.899  24.945  1.00  0.00    -0.237 OA
ATOM     80  O   UNL A   1      44.126  28.032  25.885  1.00  0.00    -0.744 OA
ENDBRANCH  74  77
ENDBRANCH  46  70
BRANCH  58  81
ATOM     81  C   UNL A   1      44.183  28.554  35.253  1.00  0.00     0.023 A 
ATOM     82  C   UNL A   1      45.493  28.976  34.952  1.00  0.00     0.012 A 
ATOM     83  C   UNL A   1      43.983  27.549  36.218  1.00  0.00     0.148 A 
ATOM     84  C   UNL A   1      46.587  28.398  35.595  1.00  0.00     0.002 A 
ATOM     85  C   UNL A   1      45.078  26.999  36.877  1.00  0.00     0.091 A 
ATOM     86  F   UNL A   1      42.730  27.142  36.473  1.00  0.00    -0.205 F 
ATOM     87  C   UNL A   1      46.380  27.420  36.565  1.00  0.00     0.022 A 
BRANCH  85  88
ATOM     88  S   UNL A   1      44.867  25.792  38.191  1.00  0.00     0.127 S 
ATOM     89  O   UNL A   1      44.279  24.663  37.472  1.00  0.00    -0.237 OA
ATOM     90  O   UNL A   1      46.239  25.571  38.651  1.00  0.00    -0.237 OA
ATOM     91  O   UNL A   1      44.008  26.441  39.173  1.00  0.00    -0.744 OA
ENDBRANCH  85  88
ENDBRANCH  58  81
ENDBRANCH  32  33
ENDBRANCH  24  27
ENDBRANCH  22  23
ENDBRANCH   1  22
TORSDOF 15
ENDMDL
