MODEL 1
REMARK VINA RESULT:     -11.8      0.000      0.000
REMARK SMILES CCCc1cc(OC(F)(F)F)cc2c1O[C@H](C(F)(F)F)C(C(=O)NCCCNC(=O)c1ccc(-c3c4nc(c(-c5cccc(S(=O)(=O)[O-])c5F)c5ccc([nH]5)c(-c5cccc(S(=O)(=O)[O-])c5F)c5nc(c(-c6cccc(S(=O)(=O)[O-])c6F)c6ccc3[nH]6)C=C5)C=C4)cc1)=C2
REMARK SMILES IDX 26 1 25 2 24 3 22 4 23 5 21 7 4 8 5 9 14 10 6 11 13 12 15 13
REMARK SMILES IDX 12 14 94 15 16 16 3 17 2 18 1 19 7 20 8 21 9 22 10 23 11 24
REMARK SMILES IDX 17 25 18 26 19 27 20 28 27 29 28 30 29 31 30 33 31 34 32 35
REMARK SMILES IDX 93 36 33 37 92 38 34 39 35 40 36 41 86 42 37 43 91 44 85 45
REMARK SMILES IDX 87 46 38 47 90 48 84 49 83 50 39 52 71 53 51 54 70 55 52 56
REMARK SMILES IDX 55 57 69 58 88 59 53 60 54 61 68 63 89 64 56 65 40 66 41 67
REMARK SMILES IDX 49 68 42 69 44 70 50 71 43 72 45 73 46 74 47 75 48 76 72 77
REMARK SMILES IDX 73 78 81 79 74 80 76 81 82 82 75 83 77 84 78 85 79 86 80 87
REMARK SMILES IDX 57 88 58 89 66 90 59 91 61 92 67 93 60 94 62 95 63 96 64 97
REMARK SMILES IDX 65 98
REMARK H PARENT 24 6 28 32 87 51 55 62
REMARK Flexibility Score: inf
ROOT
ATOM      1  C   UNL A   1      32.867  28.064  26.675  1.00  0.00     0.042 C 
ENDROOT
BRANCH   1   2
ATOM      2  C   UNL A   1      32.024  27.454  25.559  1.00  0.00     0.118 C 
BRANCH   2   3
ATOM      3  N   UNL A   1      30.902  26.712  26.098  1.00  0.00    -0.352 N 
ATOM      4  C   UNL A   1      30.646  25.386  26.209  1.00  0.00     0.251 C 
ATOM      5  O   UNL A   1      29.616  25.063  26.801  1.00  0.00    -0.270 OA
ATOM      6  H   UNL A   1      30.184  27.283  26.454  1.00  0.00     0.163 HD
BRANCH   4   7
ATOM      7  C   UNL A   1      31.598  24.328  25.771  1.00  0.00     0.067 C 
ATOM      8  C   UNL A   1      33.625  20.769  24.795  1.00  0.00    -0.002 A 
ATOM      9  C   UNL A   1      34.989  20.661  25.145  1.00  0.00     0.054 A 
ATOM     10  C   UNL A   1      32.944  21.953  25.121  1.00  0.00     0.131 A 
ATOM     11  C   UNL A   1      35.667  21.714  25.763  1.00  0.00     0.130 A 
ATOM     12  C   UNL A   1      33.624  23.025  25.707  1.00  0.00     0.021 A 
ATOM     13  O   UNL A   1      31.589  21.995  24.929  1.00  0.00    -0.475 OA
ATOM     14  C   UNL A   1      34.980  22.900  26.023  1.00  0.00     0.058 A 
ATOM     15  C   UNL A   1      32.896  24.229  26.091  1.00  0.00     0.025 C 
ATOM     16  C   UNL A   1      30.981  23.312  24.830  1.00  0.00     0.314 C 
BRANCH   8  17
ATOM     17  C   UNL A   1      32.964  19.571  24.140  1.00  0.00     0.039 C 
BRANCH  17  18
ATOM     18  C   UNL A   1      33.382  18.166  24.596  1.00  0.00     0.001 C 
ATOM     19  C   UNL A   1      33.998  17.318  23.493  1.00  0.00     0.004 C 
ENDBRANCH  17  18
ENDBRANCH   8  17
BRANCH  11  20
ATOM     20  O   UNL A   1      36.967  21.719  26.177  1.00  0.00    -0.406 OA
BRANCH  20  21
ATOM     21  C   UNL A   1      37.912  22.430  25.400  1.00  0.00     0.573 C 
ATOM     22  F   UNL A   1      39.156  21.927  25.567  1.00  0.00    -0.132 F 
ATOM     23  F   UNL A   1      37.592  22.402  24.089  1.00  0.00    -0.132 F 
ATOM     24  F   UNL A   1      37.932  23.720  25.804  1.00  0.00    -0.132 F 
ENDBRANCH  20  21
ENDBRANCH  11  20
BRANCH  16  25
ATOM     25  C   UNL A   1      30.971  23.795  23.364  1.00  0.00     0.429 C 
ATOM     26  F   UNL A   1      31.189  22.805  22.471  1.00  0.00    -0.167 F 
ATOM     27  F   UNL A   1      29.797  24.378  23.028  1.00  0.00    -0.167 F 
ATOM     28  F   UNL A   1      31.947  24.717  23.158  1.00  0.00    -0.167 F 
ENDBRANCH  16  25
ENDBRANCH   4   7
ENDBRANCH   2   3
ENDBRANCH   1   2
BRANCH   1  29
ATOM     29  C   UNL A   1      33.994  28.940  26.140  1.00  0.00     0.118 C 
BRANCH  29  30
ATOM     30  N   UNL A   1      33.919  30.295  26.675  1.00  0.00    -0.352 N 
ATOM     31  C   UNL A   1      34.666  30.877  27.669  1.00  0.00     0.251 C 
ATOM     32  H   UNL A   1      33.235  30.873  26.266  1.00  0.00     0.163 HD
ATOM     33  O   UNL A   1      34.301  31.933  28.172  1.00  0.00    -0.269 OA
BRANCH  31  34
ATOM     34  C   UNL A   1      35.906  30.218  28.121  1.00  0.00     0.039 A 
ATOM     35  C   UNL A   1      37.063  30.326  27.346  1.00  0.00     0.014 A 
ATOM     36  C   UNL A   1      35.915  29.494  29.316  1.00  0.00     0.014 A 
ATOM     37  C   UNL A   1      38.253  29.755  27.805  1.00  0.00     0.010 A 
ATOM     38  C   UNL A   1      37.114  28.997  29.807  1.00  0.00     0.010 A 
ATOM     39  C   UNL A   1      38.292  29.115  29.053  1.00  0.00    -0.014 A 
BRANCH  39  40
ATOM     40  C   UNL A   1      39.544  28.548  29.611  1.00  0.00     0.031 A 
ATOM     41  C   UNL A   1      40.269  29.286  30.701  1.00  0.00     0.074 A 
ATOM     42  C   UNL A   1      40.090  27.453  29.046  1.00  0.00     0.049 A 
ATOM     43  N   UNL A   1      41.452  29.058  31.207  1.00  0.00    -0.248 NA
ATOM     44  C   UNL A   1      39.587  30.459  31.275  1.00  0.00     0.031 C 
ATOM     45  C   UNL A   1      39.508  26.691  27.939  1.00  0.00     0.029 A 
ATOM     46  N   UNL A   1      41.280  26.817  29.297  1.00  0.00    -0.354 N 
ATOM     47  C   UNL A   1      41.678  30.084  32.116  1.00  0.00     0.074 A 
ATOM     48  C   UNL A   1      40.521  30.951  32.075  1.00  0.00     0.031 C 
ATOM     49  C   UNL A   1      40.346  25.698  27.600  1.00  0.00     0.029 A 
ATOM     50  C   UNL A   1      41.541  25.778  28.434  1.00  0.00     0.049 A 
ATOM     51  H   UNL A   1      41.887  27.078  30.026  1.00  0.00     0.167 HD
ATOM     52  C   UNL A   1      42.744  30.273  32.930  1.00  0.00     0.034 A 
ATOM     53  C   UNL A   1      42.632  24.996  28.311  1.00  0.00     0.034 A 
ATOM     54  C   UNL A   1      43.867  29.381  32.996  1.00  0.00     0.049 A 
ATOM     55  C   UNL A   1      43.790  25.211  29.247  1.00  0.00     0.074 A 
ATOM     56  C   UNL A   1      44.955  29.430  33.848  1.00  0.00     0.029 A 
ATOM     57  N   UNL A   1      44.051  28.281  32.172  1.00  0.00    -0.354 N 
ATOM     58  N   UNL A   1      43.926  26.101  30.200  1.00  0.00    -0.248 NA
ATOM     59  C   UNL A   1      44.934  24.297  29.113  1.00  0.00     0.031 C 
ATOM     60  C   UNL A   1      45.812  28.376  33.520  1.00  0.00     0.029 A 
ATOM     61  C   UNL A   1      45.239  27.648  32.488  1.00  0.00     0.049 A 
ATOM     62  H   UNL A   1      43.428  27.993  31.467  1.00  0.00     0.167 HD
ATOM     63  C   UNL A   1      45.145  25.827  30.807  1.00  0.00     0.074 A 
ATOM     64  C   UNL A   1      45.707  24.682  30.120  1.00  0.00     0.031 C 
ATOM     65  C   UNL A   1      45.751  26.472  31.835  1.00  0.00     0.034 A 
BRANCH  52  66
ATOM     66  C   UNL A   1      42.724  31.470  33.845  1.00  0.00     0.023 A 
ATOM     67  C   UNL A   1      43.169  32.721  33.371  1.00  0.00     0.012 A 
ATOM     68  C   UNL A   1      42.213  31.371  35.155  1.00  0.00     0.148 A 
ATOM     69  C   UNL A   1      43.144  33.845  34.195  1.00  0.00     0.002 A 
ATOM     70  C   UNL A   1      42.145  32.506  35.954  1.00  0.00     0.091 A 
ATOM     71  F   UNL A   1      41.813  30.169  35.596  1.00  0.00    -0.205 F 
ATOM     72  C   UNL A   1      42.622  33.740  35.481  1.00  0.00     0.022 A 
BRANCH  70  73
ATOM     73  S   UNL A   1      41.414  32.494  37.594  1.00  0.00     0.127 S 
ATOM     74  O   UNL A   1      40.051  32.049  37.308  1.00  0.00    -0.237 OA
ATOM     75  O   UNL A   1      42.242  31.510  38.291  1.00  0.00    -0.237 OA
ATOM     76  O   UNL A   1      41.534  33.855  38.098  1.00  0.00    -0.744 OA
ENDBRANCH  70  73
ENDBRANCH  52  66
BRANCH  53  77
ATOM     77  C   UNL A   1      42.658  23.905  27.296  1.00  0.00     0.023 A 
ATOM     78  C   UNL A   1      43.260  24.141  26.045  1.00  0.00     0.012 A 
ATOM     79  C   UNL A   1      42.118  22.633  27.569  1.00  0.00     0.148 A 
ATOM     80  C   UNL A   1      43.293  23.142  25.071  1.00  0.00     0.002 A 
ATOM     81  C   UNL A   1      42.204  21.625  26.615  1.00  0.00     0.091 A 
ATOM     82  F   UNL A   1      41.543  22.430  28.763  1.00  0.00    -0.205 F 
ATOM     83  C   UNL A   1      42.774  21.883  25.359  1.00  0.00     0.022 A 
BRANCH  81  84
ATOM     84  S   UNL A   1      41.683  19.938  26.944  1.00  0.00     0.127 S 
ATOM     85  O   UNL A   1      42.799  19.429  27.735  1.00  0.00    -0.237 OA
ATOM     86  O   UNL A   1      40.441  20.146  27.689  1.00  0.00    -0.237 OA
ATOM     87  O   UNL A   1      41.501  19.321  25.637  1.00  0.00    -0.744 OA
ENDBRANCH  81  84
ENDBRANCH  53  77
BRANCH  65  88
ATOM     88  C   UNL A   1      47.064  25.928  32.332  1.00  0.00     0.023 A 
ATOM     89  C   UNL A   1      48.276  26.431  31.821  1.00  0.00     0.012 A 
ATOM     90  C   UNL A   1      47.090  24.998  33.390  1.00  0.00     0.148 A 
ATOM     91  C   UNL A   1      49.495  25.999  32.340  1.00  0.00     0.002 A 
ATOM     92  C   UNL A   1      48.305  24.612  33.938  1.00  0.00     0.091 A 
ATOM     93  F   UNL A   1      45.923  24.522  33.850  1.00  0.00    -0.205 F 
ATOM     94  C   UNL A   1      49.510  25.102  33.408  1.00  0.00     0.022 A 
BRANCH  92  95
ATOM     95  S   UNL A   1      48.420  23.544  35.378  1.00  0.00     0.127 S 
ATOM     96  O   UNL A   1      47.635  24.288  36.363  1.00  0.00    -0.237 OA
ATOM     97  O   UNL A   1      47.789  22.314  34.900  1.00  0.00    -0.237 OA
ATOM     98  O   UNL A   1      49.838  23.422  35.680  1.00  0.00    -0.744 OA
ENDBRANCH  92  95
ENDBRANCH  65  88
ENDBRANCH  39  40
ENDBRANCH  31  34
ENDBRANCH  29  30
ENDBRANCH   1  29
TORSDOF 18
ENDMDL
MODEL 2
REMARK VINA RESULT:     -11.5      5.379      8.545
REMARK SMILES CCCc1cc(OC(F)(F)F)cc2c1O[C@H](C(F)(F)F)C(C(=O)NCCCNC(=O)c1ccc(-c3c4nc(c(-c5cccc(S(=O)(=O)[O-])c5F)c5ccc([nH]5)c(-c5cccc(S(=O)(=O)[O-])c5F)c5nc(c(-c6cccc(S(=O)(=O)[O-])c6F)c6ccc3[nH]6)C=C5)C=C4)cc1)=C2
REMARK SMILES IDX 26 1 25 2 24 3 22 4 23 5 21 7 4 8 5 9 14 10 6 11 13 12 15 13
REMARK SMILES IDX 12 14 94 15 16 16 3 17 2 18 1 19 7 20 8 21 9 22 10 23 11 24
REMARK SMILES IDX 17 25 18 26 19 27 20 28 27 29 28 30 29 31 30 33 31 34 32 35
REMARK SMILES IDX 93 36 33 37 92 38 34 39 35 40 36 41 86 42 37 43 91 44 85 45
REMARK SMILES IDX 87 46 38 47 90 48 84 49 83 50 39 52 71 53 51 54 70 55 52 56
REMARK SMILES IDX 55 57 69 58 88 59 53 60 54 61 68 63 89 64 56 65 40 66 41 67
REMARK SMILES IDX 49 68 42 69 44 70 50 71 43 72 45 73 46 74 47 75 48 76 72 77
REMARK SMILES IDX 73 78 81 79 74 80 76 81 82 82 75 83 77 84 78 85 79 86 80 87
REMARK SMILES IDX 57 88 58 89 66 90 59 91 61 92 67 93 60 94 62 95 63 96 64 97
REMARK SMILES IDX 65 98
REMARK H PARENT 24 6 28 32 87 51 55 62
REMARK Flexibility Score: inf
ROOT
ATOM      1  C   UNL A   1      37.897  20.044  24.946  1.00  0.00     0.042 C 
ENDROOT
BRANCH   1   2
ATOM      2  C   UNL A   1      36.773  21.076  24.920  1.00  0.00     0.118 C 
BRANCH   2   3
ATOM      3  N   UNL A   1      35.525  20.499  25.377  1.00  0.00    -0.352 N 
ATOM      4  C   UNL A   1      34.280  21.010  25.534  1.00  0.00     0.251 C 
ATOM      5  O   UNL A   1      33.392  20.227  25.873  1.00  0.00    -0.270 OA
ATOM      6  H   UNL A   1      35.595  19.548  25.622  1.00  0.00     0.163 HD
BRANCH   4   7
ATOM      7  C   UNL A   1      33.923  22.416  25.196  1.00  0.00     0.067 C 
ATOM      8  C   UNL A   1      33.527  26.282  23.575  1.00  0.00    -0.002 A 
ATOM      9  C   UNL A   1      33.460  27.374  24.467  1.00  0.00     0.054 A 
ATOM     10  C   UNL A   1      33.662  24.991  24.111  1.00  0.00     0.131 A 
ATOM     11  C   UNL A   1      33.484  27.187  25.850  1.00  0.00     0.130 A 
ATOM     12  C   UNL A   1      33.651  24.791  25.495  1.00  0.00     0.021 A 
ATOM     13  O   UNL A   1      33.889  23.952  23.249  1.00  0.00    -0.475 OA
ATOM     14  C   UNL A   1      33.560  25.889  26.356  1.00  0.00     0.058 A 
ATOM     15  C   UNL A   1      33.846  23.453  26.041  1.00  0.00     0.025 C 
ATOM     16  C   UNL A   1      33.578  22.617  23.733  1.00  0.00     0.314 C 
BRANCH   8  17
ATOM     17  C   UNL A   1      33.510  26.577  22.087  1.00  0.00     0.039 C 
BRANCH  17  18
ATOM     18  C   UNL A   1      32.272  26.169  21.276  1.00  0.00     0.001 C 
ATOM     19  C   UNL A   1      30.954  26.423  21.992  1.00  0.00     0.004 C 
ENDBRANCH  17  18
ENDBRANCH   8  17
BRANCH  11  20
ATOM     20  O   UNL A   1      33.459  28.159  26.808  1.00  0.00    -0.406 OA
BRANCH  20  21
ATOM     21  C   UNL A   1      32.221  28.782  27.095  1.00  0.00     0.573 C 
ATOM     22  F   UNL A   1      32.407  30.022  27.602  1.00  0.00    -0.132 F 
ATOM     23  F   UNL A   1      31.445  28.863  25.993  1.00  0.00    -0.132 F 
ATOM     24  F   UNL A   1      31.565  28.051  28.023  1.00  0.00    -0.132 F 
ENDBRANCH  20  21
ENDBRANCH  11  20
BRANCH  16  25
ATOM     25  C   UNL A   1      32.111  22.255  23.418  1.00  0.00     0.429 C 
ATOM     26  F   UNL A   1      31.335  22.150  24.518  1.00  0.00    -0.167 F 
ATOM     27  F   UNL A   1      31.525  23.166  22.606  1.00  0.00    -0.167 F 
ATOM     28  F   UNL A   1      32.040  21.055  22.785  1.00  0.00    -0.167 F 
ENDBRANCH  16  25
ENDBRANCH   4   7
ENDBRANCH   2   3
ENDBRANCH   1   2
BRANCH   1  29
ATOM     29  C   UNL A   1      39.045  20.458  25.860  1.00  0.00     0.118 C 
BRANCH  29  30
ATOM     30  N   UNL A   1      40.055  19.411  25.958  1.00  0.00    -0.352 N 
ATOM     31  C   UNL A   1      41.420  19.528  26.055  1.00  0.00     0.251 C 
ATOM     32  H   UNL A   1      39.710  18.489  25.954  1.00  0.00     0.163 HD
ATOM     33  O   UNL A   1      42.135  18.551  25.867  1.00  0.00    -0.269 OA
BRANCH  31  34
ATOM     34  C   UNL A   1      42.011  20.839  26.386  1.00  0.00     0.039 A 
ATOM     35  C   UNL A   1      42.239  21.767  25.367  1.00  0.00     0.014 A 
ATOM     36  C   UNL A   1      42.336  21.142  27.710  1.00  0.00     0.014 A 
ATOM     37  C   UNL A   1      42.739  23.031  25.689  1.00  0.00     0.010 A 
ATOM     38  C   UNL A   1      42.757  22.423  28.036  1.00  0.00     0.010 A 
ATOM     39  C   UNL A   1      42.971  23.377  27.029  1.00  0.00    -0.014 A 
BRANCH  39  40
ATOM     40  C   UNL A   1      43.443  24.726  27.425  1.00  0.00     0.031 A 
ATOM     41  C   UNL A   1      42.474  25.700  28.035  1.00  0.00     0.074 A 
ATOM     42  C   UNL A   1      44.696  25.113  27.115  1.00  0.00     0.049 A 
ATOM     43  N   UNL A   1      42.632  26.970  28.295  1.00  0.00    -0.248 NA
ATOM     44  C   UNL A   1      41.133  25.184  28.362  1.00  0.00     0.031 C 
ATOM     45  C   UNL A   1      45.705  24.274  26.464  1.00  0.00     0.029 A 
ATOM     46  N   UNL A   1      45.320  26.326  27.265  1.00  0.00    -0.354 N 
ATOM     47  C   UNL A   1      41.404  27.416  28.765  1.00  0.00     0.074 A 
ATOM     48  C   UNL A   1      40.500  26.288  28.730  1.00  0.00     0.031 C 
ATOM     49  C   UNL A   1      46.817  24.999  26.261  1.00  0.00     0.029 A 
ATOM     50  C   UNL A   1      46.586  26.363  26.727  1.00  0.00     0.049 A 
ATOM     51  H   UNL A   1      44.902  27.095  27.715  1.00  0.00     0.167 HD
ATOM     52  C   UNL A   1      41.065  28.650  29.209  1.00  0.00     0.034 A 
ATOM     53  C   UNL A   1      47.453  27.388  26.600  1.00  0.00     0.034 A 
ATOM     54  C   UNL A   1      41.983  29.753  29.282  1.00  0.00     0.049 A 
ATOM     55  C   UNL A   1      47.061  28.741  27.126  1.00  0.00     0.074 A 
ATOM     56  C   UNL A   1      41.768  31.017  29.799  1.00  0.00     0.029 A 
ATOM     57  N   UNL A   1      43.289  29.724  28.818  1.00  0.00    -0.354 N 
ATOM     58  N   UNL A   1      45.941  29.110  27.700  1.00  0.00    -0.248 NA
ATOM     59  C   UNL A   1      48.060  29.814  27.017  1.00  0.00     0.031 C 
ATOM     60  C   UNL A   1      42.936  31.764  29.620  1.00  0.00     0.029 A 
ATOM     61  C   UNL A   1      43.890  30.952  29.027  1.00  0.00     0.049 A 
ATOM     62  H   UNL A   1      43.724  28.946  28.401  1.00  0.00     0.167 HD
ATOM     63  C   UNL A   1      46.116  30.441  28.059  1.00  0.00     0.074 A 
ATOM     64  C   UNL A   1      47.455  30.813  27.648  1.00  0.00     0.031 C 
ATOM     65  C   UNL A   1      45.245  31.283  28.668  1.00  0.00     0.034 A 
BRANCH  52  66
ATOM     66  C   UNL A   1      39.653  28.861  29.689  1.00  0.00     0.023 A 
ATOM     67  C   UNL A   1      39.267  28.384  30.958  1.00  0.00     0.012 A 
ATOM     68  C   UNL A   1      38.723  29.579  28.910  1.00  0.00     0.148 A 
ATOM     69  C   UNL A   1      37.970  28.582  31.429  1.00  0.00     0.002 A 
ATOM     70  C   UNL A   1      37.448  29.816  29.407  1.00  0.00     0.091 A 
ATOM     71  F   UNL A   1      39.102  30.008  27.697  1.00  0.00    -0.205 F 
ATOM     72  C   UNL A   1      37.065  29.307  30.659  1.00  0.00     0.022 A 
BRANCH  70  73
ATOM     73  S   UNL A   1      36.235  30.808  28.530  1.00  0.00     0.127 S 
ATOM     74  O   UNL A   1      35.183  30.948  29.537  1.00  0.00    -0.237 OA
ATOM     75  O   UNL A   1      36.982  32.035  28.256  1.00  0.00    -0.237 OA
ATOM     76  O   UNL A   1      35.867  30.043  27.348  1.00  0.00    -0.744 OA
ENDBRANCH  70  73
ENDBRANCH  52  66
BRANCH  53  77
ATOM     77  C   UNL A   1      48.795  27.160  25.994  1.00  0.00     0.023 A 
ATOM     78  C   UNL A   1      49.830  26.631  26.789  1.00  0.00     0.012 A 
ATOM     79  C   UNL A   1      49.045  27.435  24.635  1.00  0.00     0.148 A 
ATOM     80  C   UNL A   1      51.100  26.414  26.252  1.00  0.00     0.002 A 
ATOM     81  C   UNL A   1      50.296  27.164  24.093  1.00  0.00     0.091 A 
ATOM     82  F   UNL A   1      48.048  27.944  23.896  1.00  0.00    -0.205 F 
ATOM     83  C   UNL A   1      51.330  26.671  24.904  1.00  0.00     0.022 A 
BRANCH  81  84
ATOM     84  S   UNL A   1      50.647  27.339  22.340  1.00  0.00     0.127 S 
ATOM     85  O   UNL A   1      49.623  26.487  21.744  1.00  0.00    -0.237 OA
ATOM     86  O   UNL A   1      50.452  28.775  22.135  1.00  0.00    -0.237 OA
ATOM     87  O   UNL A   1      52.023  26.891  22.167  1.00  0.00    -0.744 OA
ENDBRANCH  81  84
ENDBRANCH  53  77
BRANCH  65  88
ATOM     88  C   UNL A   1      45.717  32.677  28.987  1.00  0.00     0.023 A 
ATOM     89  C   UNL A   1      46.434  32.925  30.173  1.00  0.00     0.012 A 
ATOM     90  C   UNL A   1      45.542  33.715  28.050  1.00  0.00     0.148 A 
ATOM     91  C   UNL A   1      46.954  34.193  30.432  1.00  0.00     0.002 A 
ATOM     92  C   UNL A   1      46.107  34.960  28.290  1.00  0.00     0.091 A 
ATOM     93  F   UNL A   1      44.842  33.458  26.936  1.00  0.00    -0.205 F 
ATOM     94  C   UNL A   1      46.804  35.205  29.485  1.00  0.00     0.022 A 
BRANCH  92  95
ATOM     95  S   UNL A   1      46.055  36.292  27.085  1.00  0.00     0.127 S 
ATOM     96  O   UNL A   1      44.619  36.552  26.991  1.00  0.00    -0.237 OA
ATOM     97  O   UNL A   1      46.822  37.342  27.755  1.00  0.00    -0.237 OA
ATOM     98  O   UNL A   1      46.670  35.768  25.875  1.00  0.00    -0.744 OA
ENDBRANCH  92  95
ENDBRANCH  65  88
ENDBRANCH  39  40
ENDBRANCH  31  34
ENDBRANCH  29  30
ENDBRANCH   1  29
TORSDOF 18
ENDMDL
MODEL 3
REMARK VINA RESULT:     -11.4      2.228      7.572
REMARK SMILES CCCc1cc(OC(F)(F)F)cc2c1O[C@H](C(F)(F)F)C(C(=O)NCCCNC(=O)c1ccc(-c3c4nc(c(-c5cccc(S(=O)(=O)[O-])c5F)c5ccc([nH]5)c(-c5cccc(S(=O)(=O)[O-])c5F)c5nc(c(-c6cccc(S(=O)(=O)[O-])c6F)c6ccc3[nH]6)C=C5)C=C4)cc1)=C2
REMARK SMILES IDX 26 1 25 2 24 3 22 4 23 5 21 7 4 8 5 9 14 10 6 11 13 12 15 13
REMARK SMILES IDX 12 14 94 15 16 16 3 17 2 18 1 19 7 20 8 21 9 22 10 23 11 24
REMARK SMILES IDX 17 25 18 26 19 27 20 28 27 29 28 30 29 31 30 33 31 34 32 35
REMARK SMILES IDX 93 36 33 37 92 38 34 39 35 40 36 41 86 42 37 43 91 44 85 45
REMARK SMILES IDX 87 46 38 47 90 48 84 49 83 50 39 52 71 53 51 54 70 55 52 56
REMARK SMILES IDX 55 57 69 58 88 59 53 60 54 61 68 63 89 64 56 65 40 66 41 67
REMARK SMILES IDX 49 68 42 69 44 70 50 71 43 72 45 73 46 74 47 75 48 76 72 77
REMARK SMILES IDX 73 78 81 79 74 80 76 81 82 82 75 83 77 84 78 85 79 86 80 87
REMARK SMILES IDX 57 88 58 89 66 90 59 91 61 92 67 93 60 94 62 95 63 96 64 97
REMARK SMILES IDX 65 98
REMARK H PARENT 24 6 28 32 87 51 55 62
REMARK Flexibility Score: inf
ROOT
ATOM      1  C   UNL A   1      33.173  27.653  25.524  1.00  0.00     0.042 C 
ENDROOT
BRANCH   1   2
ATOM      2  C   UNL A   1      31.905  27.348  24.730  1.00  0.00     0.118 C 
BRANCH   2   3
ATOM      3  N   UNL A   1      30.907  26.712  25.567  1.00  0.00    -0.352 N 
ATOM      4  C   UNL A   1      30.715  25.428  25.953  1.00  0.00     0.251 C 
ATOM      5  O   UNL A   1      29.801  25.213  26.750  1.00  0.00    -0.270 OA
ATOM      6  H   UNL A   1      30.236  27.336  25.925  1.00  0.00     0.163 HD
BRANCH   4   7
ATOM      7  C   UNL A   1      31.621  24.311  25.565  1.00  0.00     0.067 C 
ATOM      8  C   UNL A   1      33.489  20.628  24.745  1.00  0.00    -0.002 A 
ATOM      9  C   UNL A   1      34.844  20.472  25.111  1.00  0.00     0.054 A 
ATOM     10  C   UNL A   1      32.861  21.853  25.018  1.00  0.00     0.131 A 
ATOM     11  C   UNL A   1      35.566  21.517  25.694  1.00  0.00     0.130 A 
ATOM     12  C   UNL A   1      33.585  22.916  25.569  1.00  0.00     0.021 A 
ATOM     13  O   UNL A   1      31.511  21.950  24.813  1.00  0.00    -0.475 OA
ATOM     14  C   UNL A   1      34.932  22.742  25.901  1.00  0.00     0.058 A 
ATOM     15  C   UNL A   1      32.910  24.166  25.900  1.00  0.00     0.025 C 
ATOM     16  C   UNL A   1      30.964  23.288  24.658  1.00  0.00     0.314 C 
BRANCH   8  17
ATOM     17  C   UNL A   1      32.779  19.437  24.131  1.00  0.00     0.039 C 
BRANCH  17  18
ATOM     18  C   UNL A   1      33.264  18.028  24.499  1.00  0.00     0.001 C 
ATOM     19  C   UNL A   1      32.676  17.493  25.797  1.00  0.00     0.004 C 
ENDBRANCH  17  18
ENDBRANCH   8  17
BRANCH  11  20
ATOM     20  O   UNL A   1      36.861  21.479  26.119  1.00  0.00    -0.406 OA
BRANCH  20  21
ATOM     21  C   UNL A   1      37.861  22.003  25.263  1.00  0.00     0.573 C 
ATOM     22  F   UNL A   1      38.013  23.333  25.451  1.00  0.00    -0.132 F 
ATOM     23  F   UNL A   1      39.045  21.385  25.455  1.00  0.00    -0.132 F 
ATOM     24  F   UNL A   1      37.484  21.809  23.979  1.00  0.00    -0.132 F 
ENDBRANCH  20  21
ENDBRANCH  11  20
BRANCH  16  25
ATOM     25  C   UNL A   1      30.987  23.713  23.174  1.00  0.00     0.429 C 
ATOM     26  F   UNL A   1      31.148  22.678  22.322  1.00  0.00    -0.167 F 
ATOM     27  F   UNL A   1      29.850  24.352  22.810  1.00  0.00    -0.167 F 
ATOM     28  F   UNL A   1      32.016  24.567  22.938  1.00  0.00    -0.167 F 
ENDBRANCH  16  25
ENDBRANCH   4   7
ENDBRANCH   2   3
ENDBRANCH   1   2
BRANCH   1  29
ATOM     29  C   UNL A   1      33.803  28.982  25.123  1.00  0.00     0.118 C 
BRANCH  29  30
ATOM     30  N   UNL A   1      32.999  30.112  25.571  1.00  0.00    -0.352 N 
ATOM     31  C   UNL A   1      33.130  30.875  26.706  1.00  0.00     0.251 C 
ATOM     32  H   UNL A   1      32.256  30.364  24.976  1.00  0.00     0.163 HD
ATOM     33  O   UNL A   1      32.218  31.614  27.057  1.00  0.00    -0.269 OA
BRANCH  31  34
ATOM     34  C   UNL A   1      34.376  30.792  27.491  1.00  0.00     0.039 A 
ATOM     35  C   UNL A   1      34.745  29.575  28.069  1.00  0.00     0.014 A 
ATOM     36  C   UNL A   1      35.175  31.926  27.652  1.00  0.00     0.014 A 
ATOM     37  C   UNL A   1      35.955  29.481  28.759  1.00  0.00     0.010 A 
ATOM     38  C   UNL A   1      36.413  31.811  28.268  1.00  0.00     0.010 A 
ATOM     39  C   UNL A   1      36.811  30.591  28.836  1.00  0.00    -0.014 A 
BRANCH  39  40
ATOM     40  C   UNL A   1      38.133  30.523  29.504  1.00  0.00     0.031 A 
ATOM     41  C   UNL A   1      39.237  29.714  28.882  1.00  0.00     0.074 A 
ATOM     42  C   UNL A   1      38.293  31.072  30.725  1.00  0.00     0.049 A 
ATOM     43  N   UNL A   1      40.401  29.387  29.376  1.00  0.00    -0.248 NA
ATOM     44  C   UNL A   1      38.982  29.170  27.536  1.00  0.00     0.031 C 
ATOM     45  C   UNL A   1      37.272  31.825  31.455  1.00  0.00     0.029 A 
ATOM     46  N   UNL A   1      39.363  31.043  31.585  1.00  0.00    -0.354 N 
ATOM     47  C   UNL A   1      40.994  28.559  28.430  1.00  0.00     0.074 A 
ATOM     48  C   UNL A   1      40.052  28.412  27.343  1.00  0.00     0.031 C 
ATOM     49  C   UNL A   1      37.759  32.178  32.656  1.00  0.00     0.029 A 
ATOM     50  C   UNL A   1      39.109  31.640  32.798  1.00  0.00     0.049 A 
ATOM     51  H   UNL A   1      40.228  30.635  31.355  1.00  0.00     0.167 HD
ATOM     52  C   UNL A   1      42.224  27.992  28.455  1.00  0.00     0.034 A 
ATOM     53  C   UNL A   1      39.867  31.722  33.908  1.00  0.00     0.034 A 
ATOM     54  C   UNL A   1      43.170  28.182  29.518  1.00  0.00     0.049 A 
ATOM     55  C   UNL A   1      41.240  31.106  33.898  1.00  0.00     0.074 A 
ATOM     56  C   UNL A   1      44.473  27.729  29.600  1.00  0.00     0.029 A 
ATOM     57  N   UNL A   1      42.911  28.877  30.690  1.00  0.00    -0.354 N 
ATOM     58  N   UNL A   1      41.841  30.447  32.937  1.00  0.00    -0.248 NA
ATOM     59  C   UNL A   1      42.054  31.270  35.112  1.00  0.00     0.031 C 
ATOM     60  C   UNL A   1      44.994  28.124  30.836  1.00  0.00     0.029 A 
ATOM     61  C   UNL A   1      44.028  28.857  31.506  1.00  0.00     0.049 A 
ATOM     62  H   UNL A   1      42.060  29.319  30.909  1.00  0.00     0.167 HD
ATOM     63  C   UNL A   1      43.115  30.157  33.411  1.00  0.00     0.074 A 
ATOM     64  C   UNL A   1      43.204  30.721  34.742  1.00  0.00     0.031 C 
ATOM     65  C   UNL A   1      44.118  29.478  32.802  1.00  0.00     0.034 A 
BRANCH  52  66
ATOM     66  C   UNL A   1      42.631  27.147  27.276  1.00  0.00     0.023 A 
ATOM     67  C   UNL A   1      43.297  27.743  26.185  1.00  0.00     0.012 A 
ATOM     68  C   UNL A   1      42.406  25.757  27.270  1.00  0.00     0.148 A 
ATOM     69  C   UNL A   1      43.697  26.977  25.091  1.00  0.00     0.002 A 
ATOM     70  C   UNL A   1      42.852  24.992  26.200  1.00  0.00     0.091 A 
ATOM     71  F   UNL A   1      41.753  25.210  28.307  1.00  0.00    -0.205 F 
ATOM     72  C   UNL A   1      43.486  25.601  25.104  1.00  0.00     0.022 A 
BRANCH  70  73
ATOM     73  S   UNL A   1      42.702  23.203  26.157  1.00  0.00     0.127 S 
ATOM     74  O   UNL A   1      41.297  23.015  26.516  1.00  0.00    -0.237 OA
ATOM     75  O   UNL A   1      43.020  22.902  24.761  1.00  0.00    -0.237 OA
ATOM     76  O   UNL A   1      43.666  22.694  27.123  1.00  0.00    -0.744 OA
ENDBRANCH  70  73
ENDBRANCH  52  66
BRANCH  53  77
ATOM     77  C   UNL A   1      39.366  32.457  35.103  1.00  0.00     0.023 A 
ATOM     78  C   UNL A   1      39.486  33.860  35.151  1.00  0.00     0.012 A 
ATOM     79  C   UNL A   1      38.749  31.784  36.177  1.00  0.00     0.148 A 
ATOM     80  C   UNL A   1      39.033  34.576  36.259  1.00  0.00     0.002 A 
ATOM     81  C   UNL A   1      38.250  32.509  37.253  1.00  0.00     0.091 A 
ATOM     82  F   UNL A   1      38.651  30.448  36.116  1.00  0.00    -0.205 F 
ATOM     83  C   UNL A   1      38.408  33.903  37.305  1.00  0.00     0.022 A 
BRANCH  81  84
ATOM     84  S   UNL A   1      37.314  31.743  38.581  1.00  0.00     0.127 S 
ATOM     85  O   UNL A   1      38.260  31.810  39.691  1.00  0.00    -0.237 OA
ATOM     86  O   UNL A   1      36.164  32.641  38.695  1.00  0.00    -0.237 OA
ATOM     87  O   UNL A   1      36.984  30.405  38.109  1.00  0.00    -0.744 OA
ENDBRANCH  81  84
ENDBRANCH  53  77
BRANCH  65  88
ATOM     88  C   UNL A   1      45.428  29.348  33.534  1.00  0.00     0.023 A 
ATOM     89  C   UNL A   1      46.415  30.342  33.395  1.00  0.00     0.012 A 
ATOM     90  C   UNL A   1      45.627  28.294  34.447  1.00  0.00     0.148 A 
ATOM     91  C   UNL A   1      47.593  30.277  34.139  1.00  0.00     0.002 A 
ATOM     92  C   UNL A   1      46.778  28.263  35.222  1.00  0.00     0.091 A 
ATOM     93  F   UNL A   1      44.678  27.351  34.550  1.00  0.00    -0.205 F 
ATOM     94  C   UNL A   1      47.767  29.247  35.062  1.00  0.00     0.022 A 
BRANCH  92  95
ATOM     95  S   UNL A   1      47.043  27.038  36.509  1.00  0.00     0.127 S 
ATOM     96  O   UNL A   1      48.308  27.485  37.090  1.00  0.00    -0.237 OA
ATOM     97  O   UNL A   1      45.874  27.235  37.366  1.00  0.00    -0.237 OA
ATOM     98  O   UNL A   1      47.092  25.748  35.835  1.00  0.00    -0.744 OA
ENDBRANCH  92  95
ENDBRANCH  65  88
ENDBRANCH  39  40
ENDBRANCH  31  34
ENDBRANCH  29  30
ENDBRANCH   1  29
TORSDOF 18
ENDMDL
