MODEL 1
REMARK VINA RESULT:     -12.7      0.000      0.000
REMARK SMILES Cc1c(C)c2cc(Cl)c(O[C@@H](C)C(=O)NCCCNC(=O)c3ccc(-c4c5nc(c(-c6cccc(S(=O)(=O)[O-])c6F)c6ccc([nH]6)c(-c6cccc(S(=O)(=O)[O-])c6F)c6nc(c(-c7cccc(S(=O)(=O)[O-])c7F)c7ccc4[nH]7)C=C6)C=C5)cc3)cc2oc1=O
REMARK SMILES IDX 17 1 16 2 15 3 13 4 14 5 11 7 12 8 10 9 9 10 1 11 2 12 3 13
REMARK SMILES IDX 88 14 4 15 5 16 87 17 89 18 6 19 86 20 7 21 85 22 8 23 18 24
REMARK SMILES IDX 19 25 20 26 21 28 22 29 23 30 84 31 24 32 83 33 25 34 26 35
REMARK SMILES IDX 27 36 77 37 28 38 82 39 76 40 78 41 29 42 81 43 75 44 74 45
REMARK SMILES IDX 30 47 62 48 42 49 61 50 43 51 46 52 60 53 79 54 44 55 45 56
REMARK SMILES IDX 59 58 80 59 47 60 31 61 32 62 40 63 33 64 35 65 41 66 34 67
REMARK SMILES IDX 36 68 37 69 38 70 39 71 63 72 64 73 72 74 65 75 67 76 73 77
REMARK SMILES IDX 66 78 68 79 69 80 70 81 71 82 48 83 49 84 57 85 50 86 52 87
REMARK SMILES IDX 58 88 51 89 53 90 54 91 55 92 56 93
REMARK H PARENT 15 6 19 27 78 46 46 57
REMARK Flexibility Score: inf
ROOT
ATOM      1  C   UNL A   1      31.668  29.020  26.752  1.00  0.00     0.042 C 
ENDROOT
BRANCH   1   2
ATOM      2  C   UNL A   1      32.320  27.642  26.720  1.00  0.00     0.118 C 
BRANCH   2   3
ATOM      3  N   UNL A   1      31.326  26.587  26.787  1.00  0.00    -0.353 N 
ATOM      4  C   UNL A   1      30.351  26.176  25.935  1.00  0.00     0.260 C 
ATOM      5  O   UNL A   1      29.599  25.295  26.378  1.00  0.00    -0.271 OA
ATOM      6  H   UNL A   1      31.367  26.062  27.618  1.00  0.00     0.163 HD
BRANCH   4   7
ATOM      7  C   UNL A   1      30.176  26.666  24.462  1.00  0.00     0.258 C 
ATOM      8  C   UNL A   1      28.721  26.703  23.994  1.00  0.00     0.064 C 
BRANCH   7   9
ATOM      9  O   UNL A   1      31.113  26.402  23.421  1.00  0.00    -0.479 OA
BRANCH   9  10
ATOM     10  C   UNL A   1      31.989  25.369  23.525  1.00  0.00     0.142 A 
ATOM     11  C   UNL A   1      34.948  19.784  24.992  1.00  0.00     0.052 C 
ATOM     12  C   UNL A   1      34.174  20.961  24.471  1.00  0.00     0.038 A 
ATOM     13  C   UNL A   1      34.746  22.129  24.104  1.00  0.00    -0.030 A 
ATOM     14  C   UNL A   1      32.698  20.772  24.411  1.00  0.00     0.339 A 
ATOM     15  C   UNL A   1      36.232  22.351  24.039  1.00  0.00     0.046 C 
ATOM     16  C   UNL A   1      33.869  23.270  23.796  1.00  0.00     0.023 A 
ATOM     17  O   UNL A   1      31.978  21.738  23.727  1.00  0.00    -0.422 OA
ATOM     18  O   UNL A   1      32.133  19.792  24.881  1.00  0.00    -0.246 OA
ATOM     19  C   UNL A   1      34.294  24.604  23.764  1.00  0.00     0.036 A 
ATOM     20  C   UNL A   1      32.514  23.026  23.601  1.00  0.00     0.142 A 
ATOM     21  C   UNL A   1      33.359  25.644  23.641  1.00  0.00     0.083 A 
ATOM     22  C   UNL A   1      31.585  24.048  23.406  1.00  0.00     0.096 A 
ATOM     23  Cl  UNL A   1      33.941  27.270  23.683  1.00  0.00    -0.080 Cl
ENDBRANCH   9  10
ENDBRANCH   7   9
ENDBRANCH   4   7
ENDBRANCH   2   3
ENDBRANCH   1   2
BRANCH   1  24
ATOM     24  C   UNL A   1      32.360  30.057  25.880  1.00  0.00     0.118 C 
BRANCH  24  25
ATOM     25  N   UNL A   1      32.130  31.420  26.348  1.00  0.00    -0.352 N 
ATOM     26  C   UNL A   1      32.843  32.231  27.205  1.00  0.00     0.251 C 
ATOM     27  H   UNL A   1      31.317  31.838  25.984  1.00  0.00     0.163 HD
ATOM     28  O   UNL A   1      32.345  33.305  27.543  1.00  0.00    -0.269 OA
BRANCH  26  29
ATOM     29  C   UNL A   1      34.162  31.830  27.754  1.00  0.00     0.039 A 
ATOM     30  C   UNL A   1      34.433  30.518  28.134  1.00  0.00     0.014 A 
ATOM     31  C   UNL A   1      35.180  32.790  27.853  1.00  0.00     0.014 A 
ATOM     32  C   UNL A   1      35.620  30.212  28.794  1.00  0.00     0.010 A 
ATOM     33  C   UNL A   1      36.416  32.459  28.428  1.00  0.00     0.010 A 
ATOM     34  C   UNL A   1      36.624  31.180  28.958  1.00  0.00    -0.014 A 
BRANCH  34  35
ATOM     35  C   UNL A   1      37.889  30.783  29.632  1.00  0.00     0.031 A 
ATOM     36  C   UNL A   1      38.223  31.239  31.024  1.00  0.00     0.074 A 
ATOM     37  C   UNL A   1      38.708  29.920  29.005  1.00  0.00     0.049 A 
ATOM     38  N   UNL A   1      39.144  30.794  31.839  1.00  0.00    -0.248 NA
ATOM     39  C   UNL A   1      37.411  32.326  31.587  1.00  0.00     0.031 C 
ATOM     40  C   UNL A   1      38.522  29.430  27.637  1.00  0.00     0.029 A 
ATOM     41  N   UNL A   1      39.842  29.283  29.438  1.00  0.00    -0.354 N 
ATOM     42  C   UNL A   1      39.005  31.524  33.014  1.00  0.00     0.074 A 
ATOM     43  C   UNL A   1      37.936  32.470  32.797  1.00  0.00     0.031 C 
ATOM     44  C   UNL A   1      39.485  28.541  27.358  1.00  0.00     0.029 A 
ATOM     45  C   UNL A   1      40.371  28.420  28.512  1.00  0.00     0.049 A 
ATOM     46  H   UNL A   1      40.238  29.431  30.327  1.00  0.00     0.167 HD
ATOM     47  C   UNL A   1      39.685  31.399  34.175  1.00  0.00     0.034 A 
ATOM     48  C   UNL A   1      41.449  27.615  28.579  1.00  0.00     0.034 A 
ATOM     49  C   UNL A   1      40.773  30.485  34.380  1.00  0.00     0.049 A 
ATOM     50  C   UNL A   1      42.242  27.552  29.848  1.00  0.00     0.074 A 
ATOM     51  C   UNL A   1      41.503  30.261  35.534  1.00  0.00     0.029 A 
ATOM     52  N   UNL A   1      41.314  29.673  33.397  1.00  0.00    -0.354 N 
ATOM     53  N   UNL A   1      41.992  28.129  30.999  1.00  0.00    -0.248 NA
ATOM     54  C   UNL A   1      43.453  26.720  29.838  1.00  0.00     0.031 C 
ATOM     55  C   UNL A   1      42.504  29.330  35.240  1.00  0.00     0.029 A 
ATOM     56  C   UNL A   1      42.391  28.972  33.906  1.00  0.00     0.049 A 
ATOM     57  H   UNL A   1      40.980  29.605  32.473  1.00  0.00     0.167 HD
ATOM     58  C   UNL A   1      43.013  27.729  31.852  1.00  0.00     0.074 A 
ATOM     59  C   UNL A   1      43.872  26.843  31.092  1.00  0.00     0.031 C 
ATOM     60  C   UNL A   1      43.225  28.079  33.144  1.00  0.00     0.034 A 
BRANCH  47  61
ATOM     61  C   UNL A   1      39.238  32.224  35.351  1.00  0.00     0.023 A 
ATOM     62  C   UNL A   1      38.349  31.647  36.280  1.00  0.00     0.012 A 
ATOM     63  C   UNL A   1      39.766  33.505  35.595  1.00  0.00     0.148 A 
ATOM     64  C   UNL A   1      37.992  32.333  37.440  1.00  0.00     0.002 A 
ATOM     65  C   UNL A   1      39.418  34.177  36.762  1.00  0.00     0.091 A 
ATOM     66  F   UNL A   1      40.596  34.035  34.685  1.00  0.00    -0.205 F 
ATOM     67  C   UNL A   1      38.533  33.592  37.684  1.00  0.00     0.022 A 
BRANCH  65  68
ATOM     68  S   UNL A   1      40.076  35.792  37.191  1.00  0.00     0.127 S 
ATOM     69  O   UNL A   1      39.405  36.050  38.464  1.00  0.00    -0.237 OA
ATOM     70  O   UNL A   1      41.508  35.519  37.300  1.00  0.00    -0.237 OA
ATOM     71  O   UNL A   1      39.699  36.683  36.103  1.00  0.00    -0.744 OA
ENDBRANCH  65  68
ENDBRANCH  47  61
BRANCH  48  72
ATOM     72  C   UNL A   1      41.786  26.780  27.397  1.00  0.00     0.023 A 
ATOM     73  C   UNL A   1      42.519  27.343  26.336  1.00  0.00     0.012 A 
ATOM     74  C   UNL A   1      41.497  25.402  27.387  1.00  0.00     0.148 A 
ATOM     75  C   UNL A   1      42.968  26.542  25.287  1.00  0.00     0.002 A 
ATOM     76  C   UNL A   1      41.990  24.601  26.365  1.00  0.00     0.091 A 
ATOM     77  F   UNL A   1      40.785  24.898  28.405  1.00  0.00    -0.205 F 
ATOM     78  C   UNL A   1      42.720  25.170  25.310  1.00  0.00     0.022 A 
BRANCH  76  79
ATOM     79  S   UNL A   1      41.839  22.812  26.392  1.00  0.00     0.127 S 
ATOM     80  O   UNL A   1      40.390  22.635  26.394  1.00  0.00    -0.237 OA
ATOM     81  O   UNL A   1      42.504  22.435  25.143  1.00  0.00    -0.237 OA
ATOM     82  O   UNL A   1      42.532  22.375  27.595  1.00  0.00    -0.744 OA
ENDBRANCH  76  79
ENDBRANCH  48  72
BRANCH  60  83
ATOM     83  C   UNL A   1      44.450  27.540  33.824  1.00  0.00     0.023 A 
ATOM     84  C   UNL A   1      45.648  28.276  33.754  1.00  0.00     0.012 A 
ATOM     85  C   UNL A   1      44.387  26.382  34.620  1.00  0.00     0.148 A 
ATOM     86  C   UNL A   1      46.774  27.861  34.462  1.00  0.00     0.002 A 
ATOM     87  C   UNL A   1      45.504  25.991  35.349  1.00  0.00     0.091 A 
ATOM     88  F   UNL A   1      43.236  25.694  34.659  1.00  0.00    -0.205 F 
ATOM     89  C   UNL A   1      46.698  26.726  35.268  1.00  0.00     0.022 A 
BRANCH  87  90
ATOM     90  S   UNL A   1      45.480  24.590  36.474  1.00  0.00     0.127 S 
ATOM     91  O   UNL A   1      46.872  24.542  36.916  1.00  0.00    -0.237 OA
ATOM     92  O   UNL A   1      44.528  25.029  37.495  1.00  0.00    -0.237 OA
ATOM     93  O   UNL A   1      45.036  23.449  35.684  1.00  0.00    -0.744 OA
ENDBRANCH  87  90
ENDBRANCH  60  83
ENDBRANCH  34  35
ENDBRANCH  26  29
ENDBRANCH  24  25
ENDBRANCH   1  24
TORSDOF 15
ENDMDL
MODEL 2
REMARK VINA RESULT:     -12.5      1.602      1.915
REMARK SMILES Cc1c(C)c2cc(Cl)c(O[C@@H](C)C(=O)NCCCNC(=O)c3ccc(-c4c5nc(c(-c6cccc(S(=O)(=O)[O-])c6F)c6ccc([nH]6)c(-c6cccc(S(=O)(=O)[O-])c6F)c6nc(c(-c7cccc(S(=O)(=O)[O-])c7F)c7ccc4[nH]7)C=C6)C=C5)cc3)cc2oc1=O
REMARK SMILES IDX 17 1 16 2 15 3 13 4 14 5 11 7 12 8 10 9 9 10 1 11 2 12 3 13
REMARK SMILES IDX 88 14 4 15 5 16 87 17 89 18 6 19 86 20 7 21 85 22 8 23 18 24
REMARK SMILES IDX 19 25 20 26 21 28 22 29 23 30 84 31 24 32 83 33 25 34 26 35
REMARK SMILES IDX 27 36 77 37 28 38 82 39 76 40 78 41 29 42 81 43 75 44 74 45
REMARK SMILES IDX 30 47 62 48 42 49 61 50 43 51 46 52 60 53 79 54 44 55 45 56
REMARK SMILES IDX 59 58 80 59 47 60 31 61 32 62 40 63 33 64 35 65 41 66 34 67
REMARK SMILES IDX 36 68 37 69 38 70 39 71 63 72 64 73 72 74 65 75 67 76 73 77
REMARK SMILES IDX 66 78 68 79 69 80 70 81 71 82 48 83 49 84 57 85 50 86 52 87
REMARK SMILES IDX 58 88 51 89 53 90 54 91 55 92 56 93
REMARK H PARENT 15 6 19 27 78 46 46 57
REMARK Flexibility Score: inf
ROOT
ATOM      1  C   UNL A   1      33.077  29.314  24.940  1.00  0.00     0.042 C 
ENDROOT
BRANCH   1   2
ATOM      2  C   UNL A   1      32.491  28.026  24.371  1.00  0.00     0.118 C 
BRANCH   2   3
ATOM      3  N   UNL A   1      31.781  27.274  25.388  1.00  0.00    -0.353 N 
ATOM      4  C   UNL A   1      30.653  26.517  25.365  1.00  0.00     0.260 C 
ATOM      5  O   UNL A   1      30.268  26.108  26.470  1.00  0.00    -0.271 OA
ATOM      6  H   UNL A   1      32.202  27.322  26.277  1.00  0.00     0.163 HD
BRANCH   4   7
ATOM      7  C   UNL A   1      29.887  26.081  24.075  1.00  0.00     0.258 C 
ATOM      8  C   UNL A   1      28.380  26.329  24.140  1.00  0.00     0.064 C 
BRANCH   7   9
ATOM      9  O   UNL A   1      30.256  24.963  23.272  1.00  0.00    -0.479 OA
BRANCH   9  10
ATOM     10  C   UNL A   1      31.476  24.382  23.417  1.00  0.00     0.142 A 
ATOM     11  C   UNL A   1      36.927  21.747  25.751  1.00  0.00     0.052 C 
ATOM     12  C   UNL A   1      35.580  22.141  25.215  1.00  0.00     0.038 A 
ATOM     13  C   UNL A   1      35.396  22.739  24.017  1.00  0.00    -0.030 A 
ATOM     14  C   UNL A   1      34.431  21.853  26.118  1.00  0.00     0.339 A 
ATOM     15  C   UNL A   1      36.495  22.960  23.014  1.00  0.00     0.046 C 
ATOM     16  C   UNL A   1      34.056  23.250  23.689  1.00  0.00     0.023 A 
ATOM     17  O   UNL A   1      33.165  21.987  25.571  1.00  0.00    -0.422 OA
ATOM     18  O   UNL A   1      34.572  21.461  27.270  1.00  0.00    -0.246 OA
ATOM     19  C   UNL A   1      33.797  24.192  22.686  1.00  0.00     0.036 A 
ATOM     20  C   UNL A   1      32.984  22.838  24.473  1.00  0.00     0.142 A 
ATOM     21  C   UNL A   1      32.520  24.760  22.560  1.00  0.00     0.083 A 
ATOM     22  C   UNL A   1      31.694  23.343  24.310  1.00  0.00     0.096 A 
ATOM     23  Cl  UNL A   1      32.283  25.970  21.349  1.00  0.00    -0.080 Cl
ENDBRANCH   9  10
ENDBRANCH   7   9
ENDBRANCH   4   7
ENDBRANCH   2   3
ENDBRANCH   1   2
BRANCH   1  24
ATOM     24  C   UNL A   1      32.732  29.562  26.401  1.00  0.00     0.118 C 
BRANCH  24  25
ATOM     25  N   UNL A   1      32.628  30.984  26.714  1.00  0.00    -0.352 N 
ATOM     26  C   UNL A   1      33.450  31.831  27.426  1.00  0.00     0.251 C 
ATOM     27  H   UNL A   1      31.824  31.418  26.350  1.00  0.00     0.163 HD
ATOM     28  O   UNL A   1      33.052  32.971  27.660  1.00  0.00    -0.269 OA
BRANCH  26  29
ATOM     29  C   UNL A   1      34.772  31.396  27.943  1.00  0.00     0.039 A 
ATOM     30  C   UNL A   1      34.993  30.099  28.398  1.00  0.00     0.014 A 
ATOM     31  C   UNL A   1      35.841  32.304  27.933  1.00  0.00     0.014 A 
ATOM     32  C   UNL A   1      36.192  29.773  29.025  1.00  0.00     0.010 A 
ATOM     33  C   UNL A   1      37.084  31.944  28.474  1.00  0.00     0.010 A 
ATOM     34  C   UNL A   1      37.251  30.694  29.080  1.00  0.00    -0.014 A 
BRANCH  34  35
ATOM     35  C   UNL A   1      38.525  30.274  29.723  1.00  0.00     0.031 A 
ATOM     36  C   UNL A   1      38.910  30.742  31.098  1.00  0.00     0.074 A 
ATOM     37  C   UNL A   1      39.303  29.380  29.086  1.00  0.00     0.049 A 
ATOM     38  N   UNL A   1      39.843  30.284  31.893  1.00  0.00    -0.248 NA
ATOM     39  C   UNL A   1      38.143  31.858  31.667  1.00  0.00     0.031 C 
ATOM     40  C   UNL A   1      39.064  28.875  27.733  1.00  0.00     0.029 A 
ATOM     41  N   UNL A   1      40.431  28.721  29.497  1.00  0.00    -0.354 N 
ATOM     42  C   UNL A   1      39.757  31.036  33.059  1.00  0.00     0.074 A 
ATOM     43  C   UNL A   1      38.708  32.006  32.859  1.00  0.00     0.031 C 
ATOM     44  C   UNL A   1      39.995  27.956  27.440  1.00  0.00     0.029 A 
ATOM     45  C   UNL A   1      40.911  27.830  28.570  1.00  0.00     0.049 A 
ATOM     46  H   UNL A   1      40.857  28.871  30.372  1.00  0.00     0.167 HD
ATOM     47  C   UNL A   1      40.467  30.910  34.203  1.00  0.00     0.034 A 
ATOM     48  C   UNL A   1      41.969  26.998  28.618  1.00  0.00     0.034 A 
ATOM     49  C   UNL A   1      41.537  29.971  34.391  1.00  0.00     0.049 A 
ATOM     50  C   UNL A   1      42.797  26.933  29.865  1.00  0.00     0.074 A 
ATOM     51  C   UNL A   1      42.294  29.746  35.527  1.00  0.00     0.029 A 
ATOM     52  N   UNL A   1      42.027  29.130  33.406  1.00  0.00    -0.354 N 
ATOM     53  N   UNL A   1      42.596  27.533  31.014  1.00  0.00    -0.248 NA
ATOM     54  C   UNL A   1      43.985  26.070  29.834  1.00  0.00     0.031 C 
ATOM     55  C   UNL A   1      43.262  28.784  35.219  1.00  0.00     0.029 A 
ATOM     56  C   UNL A   1      43.101  28.410  33.894  1.00  0.00     0.049 A 
ATOM     57  H   UNL A   1      41.666  29.058  32.493  1.00  0.00     0.167 HD
ATOM     58  C   UNL A   1      43.630  27.120  31.844  1.00  0.00     0.074 A 
ATOM     59  C   UNL A   1      44.443  26.200  31.073  1.00  0.00     0.031 C 
ATOM     60  C   UNL A   1      43.889  27.484  33.123  1.00  0.00     0.034 A 
BRANCH  47  61
ATOM     61  C   UNL A   1      40.076  31.764  35.378  1.00  0.00     0.023 A 
ATOM     62  C   UNL A   1      40.651  33.045  35.501  1.00  0.00     0.012 A 
ATOM     63  C   UNL A   1      39.081  31.357  36.286  1.00  0.00     0.148 A 
ATOM     64  C   UNL A   1      40.239  33.913  36.511  1.00  0.00     0.002 A 
ATOM     65  C   UNL A   1      38.663  32.234  37.281  1.00  0.00     0.091 A 
ATOM     66  F   UNL A   1      38.564  30.127  36.154  1.00  0.00    -0.205 F 
ATOM     67  C   UNL A   1      39.241  33.510  37.394  1.00  0.00     0.022 A 
BRANCH  65  68
ATOM     68  S   UNL A   1      37.366  31.831  38.455  1.00  0.00     0.127 S 
ATOM     69  O   UNL A   1      37.061  30.448  38.090  1.00  0.00    -0.237 OA
ATOM     70  O   UNL A   1      38.054  31.989  39.736  1.00  0.00    -0.237 OA
ATOM     71  O   UNL A   1      36.292  32.784  38.211  1.00  0.00    -0.744 OA
ENDBRANCH  65  68
ENDBRANCH  47  61
BRANCH  48  72
ATOM     72  C   UNL A   1      42.250  26.137  27.440  1.00  0.00     0.023 A 
ATOM     73  C   UNL A   1      43.087  26.615  26.415  1.00  0.00     0.012 A 
ATOM     74  C   UNL A   1      41.799  24.803  27.404  1.00  0.00     0.148 A 
ATOM     75  C   UNL A   1      43.478  25.772  25.375  1.00  0.00     0.002 A 
ATOM     76  C   UNL A   1      42.232  23.956  26.392  1.00  0.00     0.091 A 
ATOM     77  F   UNL A   1      40.991  24.382  28.387  1.00  0.00    -0.205 F 
ATOM     78  C   UNL A   1      43.065  24.441  25.372  1.00  0.00     0.022 A 
BRANCH  76  79
ATOM     79  S   UNL A   1      41.867  22.198  26.392  1.00  0.00     0.127 S 
ATOM     80  O   UNL A   1      42.290  21.806  27.733  1.00  0.00    -0.237 OA
ATOM     81  O   UNL A   1      40.419  22.192  26.175  1.00  0.00    -0.237 OA
ATOM     82  O   UNL A   1      42.640  21.634  25.294  1.00  0.00    -0.744 OA
ENDBRANCH  76  79
ENDBRANCH  48  72
BRANCH  60  83
ATOM     83  C   UNL A   1      45.119  26.922  33.776  1.00  0.00     0.023 A 
ATOM     84  C   UNL A   1      46.301  27.687  33.773  1.00  0.00     0.012 A 
ATOM     85  C   UNL A   1      45.073  25.709  34.485  1.00  0.00     0.148 A 
ATOM     86  C   UNL A   1      47.428  27.246  34.461  1.00  0.00     0.002 A 
ATOM     87  C   UNL A   1      46.191  25.290  35.197  1.00  0.00     0.091 A 
ATOM     88  F   UNL A   1      43.938  24.996  34.462  1.00  0.00    -0.205 F 
ATOM     89  C   UNL A   1      47.370  26.054  35.183  1.00  0.00     0.022 A 
BRANCH  87  90
ATOM     90  S   UNL A   1      46.187  23.811  36.217  1.00  0.00     0.127 S 
ATOM     91  O   UNL A   1      45.157  24.135  37.203  1.00  0.00    -0.237 OA
ATOM     92  O   UNL A   1      45.811  22.773  35.257  1.00  0.00    -0.237 OA
ATOM     93  O   UNL A   1      47.539  23.685  36.746  1.00  0.00    -0.744 OA
ENDBRANCH  87  90
ENDBRANCH  60  83
ENDBRANCH  34  35
ENDBRANCH  26  29
ENDBRANCH  24  25
ENDBRANCH   1  24
TORSDOF 15
ENDMDL
MODEL 3
REMARK VINA RESULT:     -12.4      4.747      9.881
REMARK SMILES Cc1c(C)c2cc(Cl)c(O[C@@H](C)C(=O)NCCCNC(=O)c3ccc(-c4c5nc(c(-c6cccc(S(=O)(=O)[O-])c6F)c6ccc([nH]6)c(-c6cccc(S(=O)(=O)[O-])c6F)c6nc(c(-c7cccc(S(=O)(=O)[O-])c7F)c7ccc4[nH]7)C=C6)C=C5)cc3)cc2oc1=O
REMARK SMILES IDX 17 1 16 2 15 3 13 4 14 5 11 7 12 8 10 9 9 10 1 11 2 12 3 13
REMARK SMILES IDX 88 14 4 15 5 16 87 17 89 18 6 19 86 20 7 21 85 22 8 23 18 24
REMARK SMILES IDX 19 25 20 26 21 28 22 29 23 30 84 31 24 32 83 33 25 34 26 35
REMARK SMILES IDX 27 36 77 37 28 38 82 39 76 40 78 41 29 42 81 43 75 44 74 45
REMARK SMILES IDX 30 47 62 48 42 49 61 50 43 51 46 52 60 53 79 54 44 55 45 56
REMARK SMILES IDX 59 58 80 59 47 60 31 61 32 62 40 63 33 64 35 65 41 66 34 67
REMARK SMILES IDX 36 68 37 69 38 70 39 71 63 72 64 73 72 74 65 75 67 76 73 77
REMARK SMILES IDX 66 78 68 79 69 80 70 81 71 82 48 83 49 84 57 85 50 86 52 87
REMARK SMILES IDX 58 88 51 89 53 90 54 91 55 92 56 93
REMARK H PARENT 15 6 19 27 78 46 46 57
REMARK Flexibility Score: inf
ROOT
ATOM      1  C   UNL A   1      35.957  22.489  23.768  1.00  0.00     0.042 C 
ENDROOT
BRANCH   1   2
ATOM      2  C   UNL A   1      34.714  23.360  23.614  1.00  0.00     0.118 C 
BRANCH   2   3
ATOM      3  N   UNL A   1      33.716  22.713  22.784  1.00  0.00    -0.353 N 
ATOM      4  C   UNL A   1      32.816  21.722  23.017  1.00  0.00     0.260 C 
ATOM      5  O   UNL A   1      32.186  21.336  22.021  1.00  0.00    -0.271 OA
ATOM      6  H   UNL A   1      33.684  23.063  21.864  1.00  0.00     0.163 HD
BRANCH   4   7
ATOM      7  C   UNL A   1      32.482  21.119  24.419  1.00  0.00     0.258 C 
ATOM      8  C   UNL A   1      32.567  19.594  24.471  1.00  0.00     0.064 C 
BRANCH   7   9
ATOM      9  O   UNL A   1      31.523  21.677  25.315  1.00  0.00    -0.479 OA
BRANCH   9  10
ATOM     10  C   UNL A   1      31.400  23.023  25.443  1.00  0.00     0.142 A 
ATOM     11  C   UNL A   1      31.043  29.415  24.381  1.00  0.00     0.052 C 
ATOM     12  C   UNL A   1      30.896  27.935  24.590  1.00  0.00     0.038 A 
ATOM     13  C   UNL A   1      31.230  27.303  25.737  1.00  0.00    -0.030 A 
ATOM     14  C   UNL A   1      30.376  27.179  23.417  1.00  0.00     0.339 A 
ATOM     15  C   UNL A   1      31.659  28.015  26.991  1.00  0.00     0.046 C 
ATOM     16  C   UNL A   1      31.224  25.832  25.752  1.00  0.00     0.023 A 
ATOM     17  O   UNL A   1      30.010  25.862  23.642  1.00  0.00    -0.422 OA
ATOM     18  O   UNL A   1      30.213  27.689  22.315  1.00  0.00    -0.246 OA
ATOM     19  C   UNL A   1      31.881  25.052  26.712  1.00  0.00     0.036 A 
ATOM     20  C   UNL A   1      30.596  25.165  24.707  1.00  0.00     0.142 A 
ATOM     21  C   UNL A   1      31.977  23.661  26.551  1.00  0.00     0.083 A 
ATOM     22  C   UNL A   1      30.623  23.776  24.574  1.00  0.00     0.096 A 
ATOM     23  Cl  UNL A   1      32.864  22.764  27.732  1.00  0.00    -0.080 Cl
ENDBRANCH   9  10
ENDBRANCH   7   9
ENDBRANCH   4   7
ENDBRANCH   2   3
ENDBRANCH   1   2
BRANCH   1  24
ATOM     24  C   UNL A   1      36.268  22.098  25.205  1.00  0.00     0.118 C 
BRANCH  24  25
ATOM     25  N   UNL A   1      37.255  21.025  25.288  1.00  0.00    -0.352 N 
ATOM     26  C   UNL A   1      38.565  21.012  25.718  1.00  0.00     0.251 C 
ATOM     27  H   UNL A   1      36.925  20.151  24.979  1.00  0.00     0.163 HD
ATOM     28  O   UNL A   1      39.224  19.986  25.549  1.00  0.00    -0.269 OA
BRANCH  26  29
ATOM     29  C   UNL A   1      39.203  22.199  26.340  1.00  0.00     0.039 A 
ATOM     30  C   UNL A   1      38.780  23.495  26.053  1.00  0.00     0.014 A 
ATOM     31  C   UNL A   1      40.229  22.010  27.276  1.00  0.00     0.014 A 
ATOM     32  C   UNL A   1      39.504  24.586  26.526  1.00  0.00     0.010 A 
ATOM     33  C   UNL A   1      40.895  23.112  27.832  1.00  0.00     0.010 A 
ATOM     34  C   UNL A   1      40.577  24.410  27.415  1.00  0.00    -0.014 A 
BRANCH  34  35
ATOM     35  C   UNL A   1      41.285  25.616  27.922  1.00  0.00     0.031 A 
ATOM     36  C   UNL A   1      42.725  25.888  27.589  1.00  0.00     0.074 A 
ATOM     37  C   UNL A   1      40.584  26.527  28.620  1.00  0.00     0.049 A 
ATOM     38  N   UNL A   1      43.409  26.993  27.736  1.00  0.00    -0.248 NA
ATOM     39  C   UNL A   1      43.498  24.786  27.002  1.00  0.00     0.031 C 
ATOM     40  C   UNL A   1      39.191  26.368  29.043  1.00  0.00     0.029 A 
ATOM     41  N   UNL A   1      40.933  27.771  29.074  1.00  0.00    -0.354 N 
ATOM     42  C   UNL A   1      44.680  26.727  27.237  1.00  0.00     0.074 A 
ATOM     43  C   UNL A   1      44.687  25.346  26.817  1.00  0.00     0.031 C 
ATOM     44  C   UNL A   1      38.793  27.488  29.662  1.00  0.00     0.029 A 
ATOM     45  C   UNL A   1      39.907  28.430  29.705  1.00  0.00     0.049 A 
ATOM     46  H   UNL A   1      41.832  28.155  28.960  1.00  0.00     0.167 HD
ATOM     47  C   UNL A   1      45.734  27.564  27.113  1.00  0.00     0.034 A 
ATOM     48  C   UNL A   1      39.862  29.658  30.256  1.00  0.00     0.034 A 
ATOM     49  C   UNL A   1      45.741  28.927  27.564  1.00  0.00     0.049 A 
ATOM     50  C   UNL A   1      41.069  30.542  30.184  1.00  0.00     0.074 A 
ATOM     51  C   UNL A   1      46.752  29.865  27.451  1.00  0.00     0.029 A 
ATOM     52  N   UNL A   1      44.702  29.534  28.250  1.00  0.00    -0.354 N 
ATOM     53  N   UNL A   1      42.203  30.329  29.561  1.00  0.00    -0.248 NA
ATOM     54  C   UNL A   1      40.990  31.838  30.871  1.00  0.00     0.031 C 
ATOM     55  C   UNL A   1      46.331  31.034  28.094  1.00  0.00     0.029 A 
ATOM     56  C   UNL A   1      45.058  30.822  28.600  1.00  0.00     0.049 A 
ATOM     57  H   UNL A   1      43.838  29.110  28.458  1.00  0.00     0.167 HD
ATOM     58  C   UNL A   1      42.974  31.464  29.779  1.00  0.00     0.074 A 
ATOM     59  C   UNL A   1      42.169  32.371  30.573  1.00  0.00     0.031 C 
ATOM     60  C   UNL A   1      44.241  31.721  29.372  1.00  0.00     0.034 A 
BRANCH  47  61
ATOM     61  C   UNL A   1      46.960  27.060  26.402  1.00  0.00     0.023 A 
ATOM     62  C   UNL A   1      47.090  27.312  25.022  1.00  0.00     0.012 A 
ATOM     63  C   UNL A   1      48.014  26.443  27.100  1.00  0.00     0.148 A 
ATOM     64  C   UNL A   1      48.257  26.959  24.343  1.00  0.00     0.002 A 
ATOM     65  C   UNL A   1      49.181  26.108  26.421  1.00  0.00     0.091 A 
ATOM     66  F   UNL A   1      47.856  26.200  28.409  1.00  0.00    -0.205 F 
ATOM     67  C   UNL A   1      49.303  26.366  25.045  1.00  0.00     0.022 A 
BRANCH  65  68
ATOM     68  S   UNL A   1      50.602  25.366  27.229  1.00  0.00     0.127 S 
ATOM     69  O   UNL A   1      50.002  24.184  27.846  1.00  0.00    -0.237 OA
ATOM     70  O   UNL A   1      51.484  25.084  26.098  1.00  0.00    -0.237 OA
ATOM     71  O   UNL A   1      51.100  26.364  28.166  1.00  0.00    -0.744 OA
ENDBRANCH  65  68
ENDBRANCH  47  61
BRANCH  48  72
ATOM     72  C   UNL A   1      38.591  30.110  30.881  1.00  0.00     0.023 A 
ATOM     73  C   UNL A   1      38.419  29.983  32.272  1.00  0.00     0.012 A 
ATOM     74  C   UNL A   1      37.617  30.781  30.118  1.00  0.00     0.148 A 
ATOM     75  C   UNL A   1      37.298  30.530  32.895  1.00  0.00     0.002 A 
ATOM     76  C   UNL A   1      36.528  31.367  30.751  1.00  0.00     0.091 A 
ATOM     77  F   UNL A   1      37.802  30.872  28.794  1.00  0.00    -0.205 F 
ATOM     78  C   UNL A   1      36.362  31.235  32.139  1.00  0.00     0.022 A 
BRANCH  76  79
ATOM     79  S   UNL A   1      35.357  32.410  29.877  1.00  0.00     0.127 S 
ATOM     80  O   UNL A   1      34.401  32.734  30.932  1.00  0.00    -0.237 OA
ATOM     81  O   UNL A   1      36.207  33.524  29.451  1.00  0.00    -0.237 OA
ATOM     82  O   UNL A   1      34.843  31.597  28.785  1.00  0.00    -0.744 OA
ENDBRANCH  76  79
ENDBRANCH  48  72
BRANCH  60  83
ATOM     83  C   UNL A   1      44.864  33.019  29.798  1.00  0.00     0.023 A 
ATOM     84  C   UNL A   1      45.623  33.053  30.984  1.00  0.00     0.012 A 
ATOM     85  C   UNL A   1      44.799  34.159  28.976  1.00  0.00     0.148 A 
ATOM     86  C   UNL A   1      46.303  34.211  31.352  1.00  0.00     0.002 A 
ATOM     87  C   UNL A   1      45.507  35.301  29.333  1.00  0.00     0.091 A 
ATOM     88  F   UNL A   1      44.061  34.101  27.859  1.00  0.00    -0.205 F 
ATOM     89  C   UNL A   1      46.256  35.330  30.522  1.00  0.00     0.022 A 
BRANCH  87  90
ATOM     90  S   UNL A   1      45.570  36.762  28.290  1.00  0.00     0.127 S 
ATOM     91  O   UNL A   1      46.664  37.515  28.901  1.00  0.00    -0.237 OA
ATOM     92  O   UNL A   1      45.875  36.193  26.977  1.00  0.00    -0.237 OA
ATOM     93  O   UNL A   1      44.254  37.382  28.389  1.00  0.00    -0.744 OA
ENDBRANCH  87  90
ENDBRANCH  60  83
ENDBRANCH  34  35
ENDBRANCH  26  29
ENDBRANCH  24  25
ENDBRANCH   1  24
TORSDOF 15
ENDMDL
