MODEL 1
REMARK VINA RESULT:     -10.4      0.000      0.000
REMARK SMILES CCN(CCC#N)C(=O)c1ccncc1/C=C/C(=O)NCCCNC(=O)c1ccc(-c2c3nc(c(-c4cccc(S(=O)(=O)[O-])c4F)c4ccc([nH]4)c(-c4cccc(S(=O)(=O)[O-])c4F)c4nc(c(-c5cccc(S(=O)(=O)[O-])c5F)c5ccc2[nH]5)C=C4)C=C3)cc1
REMARK SMILES IDX 18 1 19 2 20 3 17 5 16 6 15 7 10 8 11 9 12 10 14 11 13 12
REMARK SMILES IDX 8 13 9 14 3 15 2 16 1 17 4 18 5 19 6 20 7 21 21 22 22 23
REMARK SMILES IDX 23 24 24 25 25 26 26 28 27 29 28 30 89 31 29 32 88 33 30 34
REMARK SMILES IDX 31 35 32 36 82 37 33 38 87 39 81 40 83 41 34 42 86 43 80 44
REMARK SMILES IDX 79 45 35 47 67 48 47 49 66 50 48 51 51 52 65 53 84 54 49 55
REMARK SMILES IDX 50 56 64 58 85 59 52 60 36 61 37 62 45 63 38 64 40 65 46 66
REMARK SMILES IDX 39 67 41 68 42 69 43 70 44 71 68 72 69 73 77 74 70 75 72 76
REMARK SMILES IDX 78 77 71 78 73 79 74 80 75 81 76 82 53 83 54 84 62 85 55 86
REMARK SMILES IDX 57 87 63 88 56 89 58 90 59 91 60 92 61 93
REMARK H PARENT 20 4 24 27 83 46 51 57
REMARK Flexibility Score: inf
ROOT
ATOM      1  C   UNL A   1      31.869  23.880  26.694  1.00  0.00     0.244 C 
ATOM      2  O   UNL A   1      30.835  23.512  27.247  1.00  0.00    -0.270 OA
ATOM      3  N   UNL A   1      32.802  22.974  26.293  1.00  0.00    -0.352 N 
ATOM      4  H   UNL A   1      32.606  22.033  26.510  1.00  0.00     0.163 HD
ENDROOT
BRANCH   1   5
ATOM      5  C   UNL A   1      32.195  25.317  26.623  1.00  0.00     0.072 C 
ATOM      6  C   UNL A   1      31.330  26.346  26.556  1.00  0.00     0.016 C 
BRANCH   6   7
ATOM      7  C   UNL A   1      31.900  27.665  26.249  1.00  0.00     0.006 A 
ATOM      8  C   UNL A   1      32.846  27.920  25.220  1.00  0.00     0.050 A 
ATOM      9  C   UNL A   1      33.673  29.027  25.396  1.00  0.00     0.034 A 
ATOM     10  C   UNL A   1      33.370  29.953  26.386  1.00  0.00     0.112 A 
ATOM     11  C   UNL A   1      31.652  28.680  27.178  1.00  0.00     0.119 A 
ATOM     12  N   UNL A   1      32.347  29.832  27.251  1.00  0.00    -0.264 NA
BRANCH   8  13
ATOM     13  C   UNL A   1      32.863  27.096  23.941  1.00  0.00     0.254 C 
ATOM     14  O   UNL A   1      33.951  26.642  23.588  1.00  0.00    -0.269 OA
BRANCH  13  15
ATOM     15  N   UNL A   1      31.709  26.713  23.188  1.00  0.00    -0.338 N 
BRANCH  15  16
ATOM     16  C   UNL A   1      31.592  25.269  22.886  1.00  0.00     0.116 C 
ATOM     17  C   UNL A   1      30.292  24.626  23.361  1.00  0.00     0.027 C 
ENDBRANCH  15  16
BRANCH  15  18
ATOM     18  C   UNL A   1      30.476  27.502  22.932  1.00  0.00     0.135 C 
BRANCH  18  19
ATOM     19  C   UNL A   1      30.703  28.933  22.404  1.00  0.00     0.141 C 
BRANCH  19  20
ATOM     20  C   UNL A   1      29.581  29.803  22.945  1.00  0.00     0.064 C 
ATOM     21  N   UNL A   1      28.650  30.525  23.395  1.00  0.00    -0.198 NA
ENDBRANCH  19  20
ENDBRANCH  18  19
ENDBRANCH  15  18
ENDBRANCH  13  15
ENDBRANCH   8  13
ENDBRANCH   6   7
ENDBRANCH   1   5
BRANCH   3  22
ATOM     22  C   UNL A   1      34.046  23.211  25.592  1.00  0.00     0.118 C 
BRANCH  22  23
ATOM     23  C   UNL A   1      35.284  23.097  26.469  1.00  0.00     0.042 C 
BRANCH  23  24
ATOM     24  C   UNL A   1      36.568  23.459  25.737  1.00  0.00     0.118 C 
BRANCH  24  25
ATOM     25  N   UNL A   1      37.654  22.523  26.024  1.00  0.00    -0.352 N 
ATOM     26  C   UNL A   1      38.951  22.740  26.391  1.00  0.00     0.251 C 
ATOM     27  H   UNL A   1      37.408  21.574  25.937  1.00  0.00     0.163 HD
ATOM     28  O   UNL A   1      39.756  21.804  26.347  1.00  0.00    -0.269 OA
BRANCH  26  29
ATOM     29  C   UNL A   1      39.391  24.070  26.848  1.00  0.00     0.039 A 
ATOM     30  C   UNL A   1      40.001  24.936  25.937  1.00  0.00     0.014 A 
ATOM     31  C   UNL A   1      39.248  24.445  28.185  1.00  0.00     0.014 A 
ATOM     32  C   UNL A   1      40.433  26.192  26.363  1.00  0.00     0.010 A 
ATOM     33  C   UNL A   1      39.574  25.733  28.581  1.00  0.00     0.010 A 
ATOM     34  C   UNL A   1      40.200  26.608  27.685  1.00  0.00    -0.014 A 
BRANCH  34  35
ATOM     35  C   UNL A   1      40.645  27.935  28.168  1.00  0.00     0.031 A 
ATOM     36  C   UNL A   1      42.116  28.263  28.205  1.00  0.00     0.074 A 
ATOM     37  C   UNL A   1      39.739  28.806  28.650  1.00  0.00     0.049 A 
ATOM     38  N   UNL A   1      42.709  29.338  28.652  1.00  0.00    -0.248 NA
ATOM     39  C   UNL A   1      43.045  27.231  27.709  1.00  0.00     0.031 C 
ATOM     40  C   UNL A   1      38.297  28.564  28.744  1.00  0.00     0.029 A 
ATOM     41  N   UNL A   1      39.898  30.063  29.175  1.00  0.00    -0.354 N 
ATOM     42  C   UNL A   1      44.073  29.095  28.531  1.00  0.00     0.074 A 
ATOM     43  C   UNL A   1      44.222  27.753  28.017  1.00  0.00     0.031 C 
ATOM     44  C   UNL A   1      37.704  29.641  29.279  1.00  0.00     0.029 A 
ATOM     45  C   UNL A   1      38.723  30.636  29.598  1.00  0.00     0.049 A 
ATOM     46  H   UNL A   1      40.772  30.511  29.243  1.00  0.00     0.167 HD
ATOM     47  C   UNL A   1      45.109  29.926  28.793  1.00  0.00     0.034 A 
ATOM     48  C   UNL A   1      38.495  31.829  30.180  1.00  0.00     0.034 A 
ATOM     49  C   UNL A   1      44.949  31.275  29.258  1.00  0.00     0.049 A 
ATOM     50  C   UNL A   1      39.658  32.756  30.406  1.00  0.00     0.074 A 
ATOM     51  C   UNL A   1      45.922  32.234  29.473  1.00  0.00     0.029 A 
ATOM     52  N   UNL A   1      43.733  31.858  29.583  1.00  0.00    -0.354 N 
ATOM     53  N   UNL A   1      40.929  32.566  30.147  1.00  0.00    -0.248 NA
ATOM     54  C   UNL A   1      39.350  34.081  30.964  1.00  0.00     0.031 C 
ATOM     55  C   UNL A   1      45.296  33.388  29.954  1.00  0.00     0.029 A 
ATOM     56  C   UNL A   1      43.930  33.162  30.001  1.00  0.00     0.049 A 
ATOM     57  H   UNL A   1      42.859  31.409  29.525  1.00  0.00     0.167 HD
ATOM     58  C   UNL A   1      41.567  33.758  30.467  1.00  0.00     0.074 A 
ATOM     59  C   UNL A   1      40.538  34.671  30.923  1.00  0.00     0.031 C 
ATOM     60  C   UNL A   1      42.886  34.070  30.398  1.00  0.00     0.034 A 
BRANCH  47  61
ATOM     61  C   UNL A   1      46.503  29.410  28.536  1.00  0.00     0.023 A 
ATOM     62  C   UNL A   1      47.112  29.632  27.282  1.00  0.00     0.012 A 
ATOM     63  C   UNL A   1      47.226  28.745  29.544  1.00  0.00     0.148 A 
ATOM     64  C   UNL A   1      48.398  29.163  27.022  1.00  0.00     0.002 A 
ATOM     65  C   UNL A   1      48.528  28.325  29.295  1.00  0.00     0.091 A 
ATOM     66  F   UNL A   1      46.625  28.522  30.722  1.00  0.00    -0.205 F 
ATOM     67  C   UNL A   1      49.109  28.519  28.031  1.00  0.00     0.022 A 
BRANCH  65  68
ATOM     68  S   UNL A   1      49.559  27.566  30.554  1.00  0.00     0.127 S 
ATOM     69  O   UNL A   1      50.805  27.348  29.821  1.00  0.00    -0.237 OA
ATOM     70  O   UNL A   1      49.625  28.616  31.570  1.00  0.00    -0.237 OA
ATOM     71  O   UNL A   1      48.862  26.359  30.971  1.00  0.00    -0.744 OA
ENDBRANCH  65  68
ENDBRANCH  47  61
BRANCH  48  72
ATOM     72  C   UNL A   1      37.102  32.242  30.512  1.00  0.00     0.023 A 
ATOM     73  C   UNL A   1      36.619  32.054  31.821  1.00  0.00     0.012 A 
ATOM     74  C   UNL A   1      36.267  32.845  29.552  1.00  0.00     0.148 A 
ATOM     75  C   UNL A   1      35.316  32.423  32.160  1.00  0.00     0.002 A 
ATOM     76  C   UNL A   1      34.990  33.264  29.911  1.00  0.00     0.091 A 
ATOM     77  F   UNL A   1      36.744  33.012  28.311  1.00  0.00    -0.205 F 
ATOM     78  C   UNL A   1      34.506  33.035  31.208  1.00  0.00     0.022 A 
BRANCH  76  79
ATOM     79  S   UNL A   1      33.928  34.185  28.793  1.00  0.00     0.127 S 
ATOM     80  O   UNL A   1      34.821  35.248  28.336  1.00  0.00    -0.237 OA
ATOM     81  O   UNL A   1      33.606  33.175  27.783  1.00  0.00    -0.237 OA
ATOM     82  O   UNL A   1      32.789  34.616  29.591  1.00  0.00    -0.744 OA
ENDBRANCH  76  79
ENDBRANCH  48  72
BRANCH  60  83
ATOM     83  C   UNL A   1      43.289  35.473  30.769  1.00  0.00     0.023 A 
ATOM     84  C   UNL A   1      43.667  35.776  32.092  1.00  0.00     0.012 A 
ATOM     85  C   UNL A   1      43.357  36.476  29.782  1.00  0.00     0.148 A 
ATOM     86  C   UNL A   1      44.067  37.068  32.434  1.00  0.00     0.002 A 
ATOM     87  C   UNL A   1      43.810  37.745  30.119  1.00  0.00     0.091 A 
ATOM     88  F   UNL A   1      42.976  36.172  28.532  1.00  0.00    -0.205 F 
ATOM     89  C   UNL A   1      44.150  38.047  31.447  1.00  0.00     0.022 A 
BRANCH  87  90
ATOM     90  S   UNL A   1      44.046  39.036  28.894  1.00  0.00     0.127 S 
ATOM     91  O   UNL A   1      42.684  39.232  28.401  1.00  0.00    -0.237 OA
ATOM     92  O   UNL A   1      44.567  40.139  29.701  1.00  0.00    -0.237 OA
ATOM     93  O   UNL A   1      44.991  38.500  27.923  1.00  0.00    -0.744 OA
ENDBRANCH  87  90
ENDBRANCH  60  83
ENDBRANCH  34  35
ENDBRANCH  26  29
ENDBRANCH  24  25
ENDBRANCH  23  24
ENDBRANCH  22  23
ENDBRANCH   3  22
TORSDOF 20
ENDMDL
MODEL 2
REMARK VINA RESULT:      -9.6      1.628      2.538
REMARK SMILES CCN(CCC#N)C(=O)c1ccncc1/C=C/C(=O)NCCCNC(=O)c1ccc(-c2c3nc(c(-c4cccc(S(=O)(=O)[O-])c4F)c4ccc([nH]4)c(-c4cccc(S(=O)(=O)[O-])c4F)c4nc(c(-c5cccc(S(=O)(=O)[O-])c5F)c5ccc2[nH]5)C=C4)C=C3)cc1
REMARK SMILES IDX 18 1 19 2 20 3 17 5 16 6 15 7 10 8 11 9 12 10 14 11 13 12
REMARK SMILES IDX 8 13 9 14 3 15 2 16 1 17 4 18 5 19 6 20 7 21 21 22 22 23
REMARK SMILES IDX 23 24 24 25 25 26 26 28 27 29 28 30 89 31 29 32 88 33 30 34
REMARK SMILES IDX 31 35 32 36 82 37 33 38 87 39 81 40 83 41 34 42 86 43 80 44
REMARK SMILES IDX 79 45 35 47 67 48 47 49 66 50 48 51 51 52 65 53 84 54 49 55
REMARK SMILES IDX 50 56 64 58 85 59 52 60 36 61 37 62 45 63 38 64 40 65 46 66
REMARK SMILES IDX 39 67 41 68 42 69 43 70 44 71 68 72 69 73 77 74 70 75 72 76
REMARK SMILES IDX 78 77 71 78 73 79 74 80 75 81 76 82 53 83 54 84 62 85 55 86
REMARK SMILES IDX 57 87 63 88 56 89 58 90 59 91 60 92 61 93
REMARK H PARENT 20 4 24 27 83 46 51 57
REMARK Flexibility Score: inf
ROOT
ATOM      1  C   UNL A   1      33.712  22.544  23.871  1.00  0.00     0.244 C 
ATOM      2  O   UNL A   1      32.913  21.645  24.128  1.00  0.00    -0.270 OA
ATOM      3  N   UNL A   1      35.053  22.317  23.928  1.00  0.00    -0.352 N 
ATOM      4  H   UNL A   1      35.323  21.416  24.219  1.00  0.00     0.163 HD
ENDROOT
BRANCH   1   5
ATOM      5  C   UNL A   1      33.230  23.925  23.679  1.00  0.00     0.072 C 
ATOM      6  C   UNL A   1      32.229  24.536  24.337  1.00  0.00     0.016 C 
BRANCH   6   7
ATOM      7  C   UNL A   1      31.780  25.827  23.798  1.00  0.00     0.006 A 
ATOM      8  C   UNL A   1      31.087  26.820  24.542  1.00  0.00     0.050 A 
ATOM      9  C   UNL A   1      30.276  27.689  23.815  1.00  0.00     0.034 A 
ATOM     10  C   UNL A   1      30.387  27.727  22.431  1.00  0.00     0.112 A 
ATOM     11  C   UNL A   1      31.854  25.981  22.411  1.00  0.00     0.119 A 
ATOM     12  N   UNL A   1      31.195  26.927  21.712  1.00  0.00    -0.264 NA
BRANCH   8  13
ATOM     13  C   UNL A   1      31.320  26.994  26.035  1.00  0.00     0.254 C 
ATOM     14  O   UNL A   1      30.844  26.133  26.776  1.00  0.00    -0.269 OA
BRANCH  13  15
ATOM     15  N   UNL A   1      32.140  28.002  26.633  1.00  0.00    -0.338 N 
BRANCH  15  16
ATOM     16  C   UNL A   1      33.596  27.735  26.619  1.00  0.00     0.116 C 
ATOM     17  C   UNL A   1      34.280  28.024  25.286  1.00  0.00     0.027 C 
ENDBRANCH  15  16
BRANCH  15  18
ATOM     18  C   UNL A   1      31.769  29.397  26.987  1.00  0.00     0.135 C 
BRANCH  18  19
ATOM     19  C   UNL A   1      31.559  30.350  25.793  1.00  0.00     0.141 C 
BRANCH  19  20
ATOM     20  C   UNL A   1      31.425  31.757  26.349  1.00  0.00     0.064 C 
ATOM     21  N   UNL A   1      31.314  32.926  26.811  1.00  0.00    -0.198 NA
ENDBRANCH  19  20
ENDBRANCH  18  19
ENDBRANCH  15  18
ENDBRANCH  13  15
ENDBRANCH   8  13
ENDBRANCH   6   7
ENDBRANCH   1   5
BRANCH   3  22
ATOM     22  C   UNL A   1      36.135  23.227  23.618  1.00  0.00     0.118 C 
BRANCH  22  23
ATOM     23  C   UNL A   1      36.721  23.930  24.833  1.00  0.00     0.042 C 
BRANCH  23  24
ATOM     24  C   UNL A   1      36.752  23.048  26.073  1.00  0.00     0.118 C 
BRANCH  24  25
ATOM     25  N   UNL A   1      37.921  22.170  26.102  1.00  0.00    -0.352 N 
ATOM     26  C   UNL A   1      39.245  22.446  26.289  1.00  0.00     0.251 C 
ATOM     27  H   UNL A   1      37.718  21.217  25.963  1.00  0.00     0.163 HD
ATOM     28  O   UNL A   1      40.085  21.576  26.035  1.00  0.00    -0.269 OA
BRANCH  26  29
ATOM     29  C   UNL A   1      39.676  23.758  26.800  1.00  0.00     0.039 A 
ATOM     30  C   UNL A   1      39.898  24.802  25.898  1.00  0.00     0.014 A 
ATOM     31  C   UNL A   1      39.908  23.949  28.163  1.00  0.00     0.014 A 
ATOM     32  C   UNL A   1      40.318  26.045  26.371  1.00  0.00     0.010 A 
ATOM     33  C   UNL A   1      40.215  25.213  28.643  1.00  0.00     0.010 A 
ATOM     34  C   UNL A   1      40.457  26.265  27.751  1.00  0.00    -0.014 A 
BRANCH  34  35
ATOM     35  C   UNL A   1      40.901  27.573  28.285  1.00  0.00     0.031 A 
ATOM     36  C   UNL A   1      42.373  27.865  28.420  1.00  0.00     0.074 A 
ATOM     37  C   UNL A   1      39.986  28.457  28.726  1.00  0.00     0.049 A 
ATOM     38  N   UNL A   1      42.961  28.919  28.922  1.00  0.00    -0.248 NA
ATOM     39  C   UNL A   1      43.308  26.821  27.965  1.00  0.00     0.031 C 
ATOM     40  C   UNL A   1      38.536  28.247  28.724  1.00  0.00     0.029 A 
ATOM     41  N   UNL A   1      40.140  29.701  29.282  1.00  0.00    -0.354 N 
ATOM     42  C   UNL A   1      44.324  28.646  28.883  1.00  0.00     0.074 A 
ATOM     43  C   UNL A   1      44.475  27.310  28.355  1.00  0.00     0.031 C 
ATOM     44  C   UNL A   1      37.934  29.329  29.241  1.00  0.00     0.029 A 
ATOM     45  C   UNL A   1      38.953  30.294  29.641  1.00  0.00     0.049 A 
ATOM     46  H   UNL A   1      41.017  30.127  29.412  1.00  0.00     0.167 HD
ATOM     47  C   UNL A   1      45.360  29.447  29.223  1.00  0.00     0.034 A 
ATOM     48  C   UNL A   1      38.716  31.482  30.229  1.00  0.00     0.034 A 
ATOM     49  C   UNL A   1      45.202  30.793  29.702  1.00  0.00     0.049 A 
ATOM     50  C   UNL A   1      39.883  32.379  30.544  1.00  0.00     0.074 A 
ATOM     51  C   UNL A   1      46.180  31.725  29.994  1.00  0.00     0.029 A 
ATOM     52  N   UNL A   1      43.980  31.398  29.961  1.00  0.00    -0.354 N 
ATOM     53  N   UNL A   1      41.164  32.163  30.361  1.00  0.00    -0.248 NA
ATOM     54  C   UNL A   1      39.571  33.700  31.105  1.00  0.00     0.031 C 
ATOM     55  C   UNL A   1      45.552  32.885  30.456  1.00  0.00     0.029 A 
ATOM     56  C   UNL A   1      44.180  32.690  30.414  1.00  0.00     0.049 A 
ATOM     57  H   UNL A   1      43.102  30.971  29.840  1.00  0.00     0.167 HD
ATOM     58  C   UNL A   1      41.807  33.334  30.742  1.00  0.00     0.074 A 
ATOM     59  C   UNL A   1      40.771  34.263  31.149  1.00  0.00     0.031 C 
ATOM     60  C   UNL A   1      43.134  33.616  30.761  1.00  0.00     0.034 A 
BRANCH  47  61
ATOM     61  C   UNL A   1      46.755  28.904  29.045  1.00  0.00     0.023 A 
ATOM     62  C   UNL A   1      47.385  28.227  30.110  1.00  0.00     0.012 A 
ATOM     63  C   UNL A   1      47.427  29.025  27.813  1.00  0.00     0.148 A 
ATOM     64  C   UNL A   1      48.676  27.719  29.968  1.00  0.00     0.002 A 
ATOM     65  C   UNL A   1      48.693  28.470  27.662  1.00  0.00     0.091 A 
ATOM     66  F   UNL A   1      46.823  29.690  26.817  1.00  0.00    -0.205 F 
ATOM     67  C   UNL A   1      49.324  27.831  28.742  1.00  0.00     0.022 A 
BRANCH  65  68
ATOM     68  S   UNL A   1      49.576  28.482  26.098  1.00  0.00     0.127 S 
ATOM     69  O   UNL A   1      50.247  29.781  26.150  1.00  0.00    -0.237 OA
ATOM     70  O   UNL A   1      50.466  27.330  26.240  1.00  0.00    -0.237 OA
ATOM     71  O   UNL A   1      48.564  28.344  25.062  1.00  0.00    -0.744 OA
ENDBRANCH  65  68
ENDBRANCH  47  61
BRANCH  48  72
ATOM     72  C   UNL A   1      37.315  31.922  30.481  1.00  0.00     0.023 A 
ATOM     73  C   UNL A   1      36.707  31.622  31.715  1.00  0.00     0.012 A 
ATOM     74  C   UNL A   1      36.594  32.660  29.522  1.00  0.00     0.148 A 
ATOM     75  C   UNL A   1      35.393  32.014  31.976  1.00  0.00     0.002 A 
ATOM     76  C   UNL A   1      35.306  33.098  29.811  1.00  0.00     0.091 A 
ATOM     77  F   UNL A   1      37.188  32.933  28.352  1.00  0.00    -0.205 F 
ATOM     78  C   UNL A   1      34.697  32.758  31.028  1.00  0.00     0.022 A 
BRANCH  76  79
ATOM     79  S   UNL A   1      34.385  34.178  28.710  1.00  0.00     0.127 S 
ATOM     80  O   UNL A   1      35.219  35.378  28.699  1.00  0.00    -0.237 OA
ATOM     81  O   UNL A   1      34.391  33.412  27.462  1.00  0.00    -0.237 OA
ATOM     82  O   UNL A   1      33.067  34.329  29.311  1.00  0.00    -0.744 OA
ENDBRANCH  76  79
ENDBRANCH  48  72
BRANCH  60  83
ATOM     83  C   UNL A   1      43.544  35.002  31.182  1.00  0.00     0.023 A 
ATOM     84  C   UNL A   1      43.892  35.264  32.522  1.00  0.00     0.012 A 
ATOM     85  C   UNL A   1      43.649  36.032  30.226  1.00  0.00     0.148 A 
ATOM     86  C   UNL A   1      44.299  36.540  32.911  1.00  0.00     0.002 A 
ATOM     87  C   UNL A   1      44.108  37.285  30.610  1.00  0.00     0.091 A 
ATOM     88  F   UNL A   1      43.296  35.768  28.959  1.00  0.00    -0.205 F 
ATOM     89  C   UNL A   1      44.418  37.546  31.954  1.00  0.00     0.022 A 
BRANCH  87  90
ATOM     90  S   UNL A   1      44.390  38.607  29.428  1.00  0.00     0.127 S 
ATOM     91  O   UNL A   1      44.897  39.674  30.289  1.00  0.00    -0.237 OA
ATOM     92  O   UNL A   1      45.389  38.018  28.535  1.00  0.00    -0.237 OA
ATOM     93  O   UNL A   1      43.101  38.868  28.802  1.00  0.00    -0.744 OA
ENDBRANCH  87  90
ENDBRANCH  60  83
ENDBRANCH  34  35
ENDBRANCH  26  29
ENDBRANCH  24  25
ENDBRANCH  23  24
ENDBRANCH  22  23
ENDBRANCH   3  22
TORSDOF 20
ENDMDL
MODEL 3
REMARK VINA RESULT:      -9.4      2.043      7.973
REMARK SMILES CCN(CCC#N)C(=O)c1ccncc1/C=C/C(=O)NCCCNC(=O)c1ccc(-c2c3nc(c(-c4cccc(S(=O)(=O)[O-])c4F)c4ccc([nH]4)c(-c4cccc(S(=O)(=O)[O-])c4F)c4nc(c(-c5cccc(S(=O)(=O)[O-])c5F)c5ccc2[nH]5)C=C4)C=C3)cc1
REMARK SMILES IDX 18 1 19 2 20 3 17 5 16 6 15 7 10 8 11 9 12 10 14 11 13 12
REMARK SMILES IDX 8 13 9 14 3 15 2 16 1 17 4 18 5 19 6 20 7 21 21 22 22 23
REMARK SMILES IDX 23 24 24 25 25 26 26 28 27 29 28 30 89 31 29 32 88 33 30 34
REMARK SMILES IDX 31 35 32 36 82 37 33 38 87 39 81 40 83 41 34 42 86 43 80 44
REMARK SMILES IDX 79 45 35 47 67 48 47 49 66 50 48 51 51 52 65 53 84 54 49 55
REMARK SMILES IDX 50 56 64 58 85 59 52 60 36 61 37 62 45 63 38 64 40 65 46 66
REMARK SMILES IDX 39 67 41 68 42 69 43 70 44 71 68 72 69 73 77 74 70 75 72 76
REMARK SMILES IDX 78 77 71 78 73 79 74 80 75 81 76 82 53 83 54 84 62 85 55 86
REMARK SMILES IDX 57 87 63 88 56 89 58 90 59 91 60 92 61 93
REMARK H PARENT 20 4 24 27 83 46 51 57
REMARK Flexibility Score: inf
ROOT
ATOM      1  C   UNL A   1      31.982  23.692  26.822  1.00  0.00     0.244 C 
ATOM      2  O   UNL A   1      31.098  23.122  27.458  1.00  0.00    -0.270 OA
ATOM      3  N   UNL A   1      33.017  22.987  26.288  1.00  0.00    -0.352 N 
ATOM      4  H   UNL A   1      33.019  22.020  26.477  1.00  0.00     0.163 HD
ENDROOT
BRANCH   1   5
ATOM      5  C   UNL A   1      32.032  25.166  26.788  1.00  0.00     0.072 C 
ATOM      6  C   UNL A   1      31.440  25.980  25.895  1.00  0.00     0.016 C 
BRANCH   6   7
ATOM      7  C   UNL A   1      31.838  27.394  25.929  1.00  0.00     0.006 A 
ATOM      8  C   UNL A   1      32.675  28.024  24.970  1.00  0.00     0.050 A 
ATOM      9  C   UNL A   1      33.386  29.142  25.403  1.00  0.00     0.034 A 
ATOM     10  C   UNL A   1      33.054  29.732  26.616  1.00  0.00     0.112 A 
ATOM     11  C   UNL A   1      31.546  28.093  27.105  1.00  0.00     0.119 A 
ATOM     12  N   UNL A   1      32.114  29.264  27.456  1.00  0.00    -0.264 NA
BRANCH   8  13
ATOM     13  C   UNL A   1      32.691  27.571  23.518  1.00  0.00     0.254 C 
ATOM     14  O   UNL A   1      33.790  27.527  22.963  1.00  0.00    -0.269 OA
BRANCH  13  15
ATOM     15  N   UNL A   1      31.561  27.086  22.789  1.00  0.00    -0.338 N 
BRANCH  15  16
ATOM     16  C   UNL A   1      31.690  25.715  22.245  1.00  0.00     0.116 C 
ATOM     17  C   UNL A   1      32.068  25.653  20.767  1.00  0.00     0.027 C 
ENDBRANCH  15  16
BRANCH  15  18
ATOM     18  C   UNL A   1      30.181  27.636  22.761  1.00  0.00     0.135 C 
BRANCH  18  19
ATOM     19  C   UNL A   1      30.068  29.153  23.015  1.00  0.00     0.141 C 
BRANCH  19  20
ATOM     20  C   UNL A   1      28.591  29.511  22.991  1.00  0.00     0.064 C 
ATOM     21  N   UNL A   1      27.366  29.809  22.971  1.00  0.00    -0.198 NA
ENDBRANCH  19  20
ENDBRANCH  18  19
ENDBRANCH  15  18
ENDBRANCH  13  15
ENDBRANCH   8  13
ENDBRANCH   6   7
ENDBRANCH   1   5
BRANCH   3  22
ATOM     22  C   UNL A   1      34.114  23.471  25.477  1.00  0.00     0.118 C 
BRANCH  22  23
ATOM     23  C   UNL A   1      35.489  23.181  26.060  1.00  0.00     0.042 C 
BRANCH  23  24
ATOM     24  C   UNL A   1      36.464  22.619  25.036  1.00  0.00     0.118 C 
BRANCH  24  25
ATOM     25  N   UNL A   1      37.227  21.486  25.558  1.00  0.00    -0.352 N 
ATOM     26  C   UNL A   1      38.492  21.415  26.065  1.00  0.00     0.251 C 
ATOM     27  H   UNL A   1      36.746  20.627  25.541  1.00  0.00     0.163 HD
ATOM     28  O   UNL A   1      39.018  20.308  26.224  1.00  0.00    -0.269 OA
BRANCH  26  29
ATOM     29  C   UNL A   1      39.226  22.639  26.432  1.00  0.00     0.039 A 
ATOM     30  C   UNL A   1      40.369  22.536  27.229  1.00  0.00     0.014 A 
ATOM     31  C   UNL A   1      38.760  23.893  26.034  1.00  0.00     0.014 A 
ATOM     32  C   UNL A   1      41.063  23.690  27.592  1.00  0.00     0.010 A 
ATOM     33  C   UNL A   1      39.511  25.027  26.300  1.00  0.00     0.010 A 
ATOM     34  C   UNL A   1      40.650  24.943  27.110  1.00  0.00    -0.014 A 
BRANCH  34  35
ATOM     35  C   UNL A   1      41.365  26.187  27.476  1.00  0.00     0.031 A 
ATOM     36  C   UNL A   1      40.679  27.219  28.334  1.00  0.00     0.074 A 
ATOM     37  C   UNL A   1      42.590  26.424  26.971  1.00  0.00     0.049 A 
ATOM     38  N   UNL A   1      41.107  28.395  28.709  1.00  0.00    -0.248 NA
ATOM     39  C   UNL A   1      39.317  26.904  28.800  1.00  0.00     0.031 C 
ATOM     40  C   UNL A   1      43.318  25.536  26.061  1.00  0.00     0.029 A 
ATOM     41  N   UNL A   1      43.432  27.495  27.131  1.00  0.00    -0.354 N 
ATOM     42  C   UNL A   1      40.057  28.973  29.414  1.00  0.00     0.074 A 
ATOM     43  C   UNL A   1      38.954  28.041  29.372  1.00  0.00     0.031 C 
ATOM     44  C   UNL A   1      44.500  26.092  25.755  1.00  0.00     0.029 A 
ATOM     45  C   UNL A   1      44.602  27.388  26.418  1.00  0.00     0.049 A 
ATOM     46  H   UNL A   1      43.217  28.268  27.702  1.00  0.00     0.167 HD
ATOM     47  C   UNL A   1      40.024  30.158  30.067  1.00  0.00     0.034 A 
ATOM     48  C   UNL A   1      45.637  28.242  26.310  1.00  0.00     0.034 A 
ATOM     49  C   UNL A   1      41.143  31.056  30.143  1.00  0.00     0.049 A 
ATOM     50  C   UNL A   1      45.600  29.526  27.092  1.00  0.00     0.074 A 
ATOM     51  C   UNL A   1      41.251  32.241  30.847  1.00  0.00     0.029 A 
ATOM     52  N   UNL A   1      42.351  30.868  29.487  1.00  0.00    -0.354 N 
ATOM     53  N   UNL A   1      44.656  29.989  27.875  1.00  0.00    -0.248 NA
ATOM     54  C   UNL A   1      46.789  30.386  27.012  1.00  0.00     0.031 C 
ATOM     55  C   UNL A   1      42.515  32.783  30.596  1.00  0.00     0.029 A 
ATOM     56  C   UNL A   1      43.209  31.916  29.767  1.00  0.00     0.049 A 
ATOM     57  H   UNL A   1      42.565  30.101  28.908  1.00  0.00     0.167 HD
ATOM     58  C   UNL A   1      45.152  31.170  28.416  1.00  0.00     0.074 A 
ATOM     59  C   UNL A   1      46.488  31.341  27.882  1.00  0.00     0.031 C 
ATOM     60  C   UNL A   1      44.555  32.039  29.269  1.00  0.00     0.034 A 
BRANCH  47  61
ATOM     61  C   UNL A   1      38.752  30.526  30.788  1.00  0.00     0.023 A 
ATOM     62  C   UNL A   1      38.605  30.209  32.154  1.00  0.00     0.012 A 
ATOM     63  C   UNL A   1      37.721  31.221  30.127  1.00  0.00     0.148 A 
ATOM     64  C   UNL A   1      37.436  30.537  32.840  1.00  0.00     0.002 A 
ATOM     65  C   UNL A   1      36.580  31.592  30.830  1.00  0.00     0.091 A 
ATOM     66  F   UNL A   1      37.867  31.496  28.823  1.00  0.00    -0.205 F 
ATOM     67  C   UNL A   1      36.430  31.238  32.181  1.00  0.00     0.022 A 
BRANCH  65  68
ATOM     68  S   UNL A   1      35.265  32.572  30.098  1.00  0.00     0.127 S 
ATOM     69  O   UNL A   1      34.829  31.706  29.003  1.00  0.00    -0.237 OA
ATOM     70  O   UNL A   1      34.314  32.683  31.203  1.00  0.00    -0.237 OA
ATOM     71  O   UNL A   1      35.877  33.828  29.693  1.00  0.00    -0.744 OA
ENDBRANCH  65  68
ENDBRANCH  47  61
BRANCH  48  72
ATOM     72  C   UNL A   1      46.827  27.870  25.493  1.00  0.00     0.023 A 
ATOM     73  C   UNL A   1      46.812  28.102  24.104  1.00  0.00     0.012 A 
ATOM     74  C   UNL A   1      47.980  27.319  26.084  1.00  0.00     0.148 A 
ATOM     75  C   UNL A   1      47.908  27.756  23.312  1.00  0.00     0.002 A 
ATOM     76  C   UNL A   1      49.091  27.032  25.298  1.00  0.00     0.091 A 
ATOM     77  F   UNL A   1      47.975  27.103  27.407  1.00  0.00    -0.205 F 
ATOM     78  C   UNL A   1      49.049  27.229  23.910  1.00  0.00     0.022 A 
BRANCH  76  79
ATOM     79  S   UNL A   1      50.651  26.482  25.998  1.00  0.00     0.127 S 
ATOM     80  O   UNL A   1      50.292  25.176  26.545  1.00  0.00    -0.237 OA
ATOM     81  O   UNL A   1      51.514  26.439  24.816  1.00  0.00    -0.237 OA
ATOM     82  O   UNL A   1      51.027  27.495  26.975  1.00  0.00    -0.744 OA
ENDBRANCH  76  79
ENDBRANCH  48  72
BRANCH  60  83
ATOM     83  C   UNL A   1      45.360  33.225  29.729  1.00  0.00     0.023 A 
ATOM     84  C   UNL A   1      46.168  33.131  30.880  1.00  0.00     0.012 A 
ATOM     85  C   UNL A   1      45.365  34.416  28.976  1.00  0.00     0.148 A 
ATOM     86  C   UNL A   1      46.936  34.218  31.296  1.00  0.00     0.002 A 
ATOM     87  C   UNL A   1      46.176  35.474  29.364  1.00  0.00     0.091 A 
ATOM     88  F   UNL A   1      44.576  34.492  27.894  1.00  0.00    -0.205 F 
ATOM     89  C   UNL A   1      46.949  35.383  30.533  1.00  0.00     0.022 A 
BRANCH  87  90
ATOM     90  S   UNL A   1      46.333  36.971  28.386  1.00  0.00     0.127 S 
ATOM     91  O   UNL A   1      47.288  37.745  29.176  1.00  0.00    -0.237 OA
ATOM     92  O   UNL A   1      46.859  36.461  27.120  1.00  0.00    -0.237 OA
ATOM     93  O   UNL A   1      44.993  37.535  28.297  1.00  0.00    -0.744 OA
ENDBRANCH  87  90
ENDBRANCH  60  83
ENDBRANCH  34  35
ENDBRANCH  26  29
ENDBRANCH  24  25
ENDBRANCH  23  24
ENDBRANCH  22  23
ENDBRANCH   3  22
TORSDOF 20
ENDMDL
