MODEL 1
REMARK VINA RESULT:     -14.9      0.000      0.000
REMARK SMILES Cc1ccc(-c2cc(C(=O)NCCCNC(=O)c3ccc(-c4c5nc(c(-c6cccc(S(=O)(=O)[O-])c6F)c6ccc([nH]6)c(-c6cccc(S(=O)(=O)[O-])c6F)c6nc(c(-c7cccc(S(=O)(=O)[O-])c7F)c7ccc4[nH]7)C=C6)C=C5)cc3)c3c(-c4cccc([N+](=O)[O-])c4)[nH]nc3n2)cc1
REMARK SMILES IDX 13 1 12 2 11 3 9 4 10 5 8 7 6 8 7 9 95 10 94 11 81 12 93 13
REMARK SMILES IDX 82 14 92 15 5 17 1 18 2 19 3 20 97 21 4 22 96 23 83 24 84 25
REMARK SMILES IDX 91 26 85 27 87 28 86 29 88 30 89 31 90 32 14 33 15 34 16 35
REMARK SMILES IDX 17 37 18 38 19 39 80 40 20 41 79 42 21 43 22 44 23 45 73 46
REMARK SMILES IDX 24 47 78 48 72 49 74 50 25 51 77 52 71 53 70 54 26 56 58 57
REMARK SMILES IDX 38 58 57 59 39 60 42 61 56 62 75 63 40 64 41 65 55 67 76 68
REMARK SMILES IDX 43 69 27 70 28 71 36 72 29 73 31 74 37 75 30 76 32 77 33 78
REMARK SMILES IDX 34 79 35 80 59 81 60 82 68 83 61 84 63 85 69 86 62 87 64 88
REMARK SMILES IDX 65 89 66 90 67 91 44 92 45 93 53 94 46 95 48 96 54 97 47 98
REMARK SMILES IDX 49 99 50 100 51 101 52 102
REMARK H PARENT 11 6 92 16 15 36 74 55 42 66
REMARK Flexibility Score: inf
ROOT
ATOM      1  C   UNL A   1      33.593  29.588  27.565  1.00  0.00     0.042 C 
ENDROOT
BRANCH   1   2
ATOM      2  C   UNL A   1      33.773  28.124  27.169  1.00  0.00     0.118 C 
BRANCH   2   3
ATOM      3  N   UNL A   1      32.505  27.439  26.956  1.00  0.00    -0.352 N 
ATOM      4  C   UNL A   1      32.070  26.414  26.146  1.00  0.00     0.252 C 
ATOM      5  O   UNL A   1      30.953  25.993  26.424  1.00  0.00    -0.269 OA
ATOM      6  H   UNL A   1      31.787  27.796  27.527  1.00  0.00     0.163 HD
BRANCH   4   7
ATOM      7  C   UNL A   1      32.850  25.813  25.028  1.00  0.00     0.055 A 
ATOM      8  C   UNL A   1      34.487  24.117  24.175  1.00  0.00     0.074 A 
ATOM      9  C   UNL A   1      33.752  24.760  25.202  1.00  0.00     0.043 A 
ATOM     10  N   UNL A   1      34.440  24.441  22.863  1.00  0.00    -0.226 NA
ATOM     11  C   UNL A   1      33.585  25.470  22.617  1.00  0.00     0.182 A 
ATOM     12  C   UNL A   1      32.827  26.146  23.656  1.00  0.00     0.059 A 
ATOM     13  N   UNL A   1      33.333  25.971  21.408  1.00  0.00    -0.154 NA
ATOM     14  C   UNL A   1      32.144  27.145  22.976  1.00  0.00     0.076 A 
ATOM     15  N   UNL A   1      32.466  26.962  21.653  1.00  0.00    -0.275 N 
ATOM     16  H   UNL A   1      32.086  27.521  20.935  1.00  0.00     0.190 HD
BRANCH   8  17
ATOM     17  C   UNL A   1      35.362  23.004  24.591  1.00  0.00     0.000 A 
ATOM     18  C   UNL A   1      38.055  19.641  25.018  1.00  0.00     0.044 C 
ATOM     19  C   UNL A   1      37.126  20.815  24.919  1.00  0.00    -0.051 A 
ATOM     20  C   UNL A   1      35.739  20.635  24.995  1.00  0.00     0.004 A 
ATOM     21  C   UNL A   1      37.632  22.100  24.724  1.00  0.00     0.004 A 
ATOM     22  C   UNL A   1      34.864  21.719  24.837  1.00  0.00     0.010 A 
ATOM     23  C   UNL A   1      36.761  23.178  24.574  1.00  0.00     0.010 A 
ENDBRANCH   8  17
BRANCH  14  24
ATOM     24  C   UNL A   1      31.285  28.249  23.375  1.00  0.00     0.007 A 
ATOM     25  C   UNL A   1      31.746  29.216  24.280  1.00  0.00     0.011 A 
ATOM     26  C   UNL A   1      30.021  28.393  22.789  1.00  0.00     0.096 A 
ATOM     27  C   UNL A   1      30.977  30.350  24.555  1.00  0.00     0.008 A 
ATOM     28  C   UNL A   1      29.271  29.548  23.045  1.00  0.00     0.270 A 
ATOM     29  C   UNL A   1      29.743  30.528  23.928  1.00  0.00     0.085 A 
BRANCH  28  30
ATOM     30  N   UNL A   1      27.991  29.743  22.355  1.00  0.00     0.062 N 
ATOM     31  O   UNL A   1      28.022  29.937  21.131  1.00  0.00    -0.258 OA
ATOM     32  O   UNL A   1      26.961  29.750  23.045  1.00  0.00    -0.258 OA
ENDBRANCH  28  30
ENDBRANCH  14  24
ENDBRANCH   4   7
ENDBRANCH   2   3
ENDBRANCH   1   2
BRANCH   1  33
ATOM     33  C   UNL A   1      34.429  30.539  26.735  1.00  0.00     0.118 C 
BRANCH  33  34
ATOM     34  N   UNL A   1      35.191  31.490  27.536  1.00  0.00    -0.352 N 
ATOM     35  C   UNL A   1      36.321  31.253  28.302  1.00  0.00     0.251 C 
ATOM     36  H   UNL A   1      34.861  32.417  27.532  1.00  0.00     0.163 HD
ATOM     37  O   UNL A   1      36.762  32.137  29.028  1.00  0.00    -0.269 OA
BRANCH  35  38
ATOM     38  C   UNL A   1      37.034  29.969  28.115  1.00  0.00     0.039 A 
ATOM     39  C   UNL A   1      37.024  29.072  29.186  1.00  0.00     0.014 A 
ATOM     40  C   UNL A   1      37.945  29.825  27.072  1.00  0.00     0.014 A 
ATOM     41  C   UNL A   1      38.103  28.211  29.355  1.00  0.00     0.010 A 
ATOM     42  C   UNL A   1      39.062  29.048  27.287  1.00  0.00     0.010 A 
ATOM     43  C   UNL A   1      39.172  28.308  28.470  1.00  0.00    -0.014 A 
BRANCH  43  44
ATOM     44  C   UNL A   1      40.450  27.645  28.657  1.00  0.00     0.031 A 
ATOM     45  C   UNL A   1      40.508  26.181  28.553  1.00  0.00     0.074 A 
ATOM     46  C   UNL A   1      41.578  28.379  28.768  1.00  0.00     0.049 A 
ATOM     47  N   UNL A   1      41.521  25.470  28.907  1.00  0.00    -0.248 NA
ATOM     48  C   UNL A   1      39.381  25.397  28.071  1.00  0.00     0.031 C 
ATOM     49  C   UNL A   1      42.953  27.928  28.600  1.00  0.00     0.029 A 
ATOM     50  N   UNL A   1      41.711  29.665  29.301  1.00  0.00    -0.354 N 
ATOM     51  C   UNL A   1      41.318  24.202  28.410  1.00  0.00     0.074 A 
ATOM     52  C   UNL A   1      39.929  24.180  28.024  1.00  0.00     0.031 C 
ATOM     53  C   UNL A   1      43.764  28.757  29.275  1.00  0.00     0.029 A 
ATOM     54  C   UNL A   1      42.907  29.637  30.049  1.00  0.00     0.049 A 
ATOM     55  H   UNL A   1      41.100  30.428  29.181  1.00  0.00     0.167 HD
ATOM     56  C   UNL A   1      42.406  23.397  28.241  1.00  0.00     0.034 A 
ATOM     57  C   UNL A   1      42.942  29.782  31.410  1.00  0.00     0.034 A 
ATOM     58  C   UNL A   1      43.593  23.982  28.898  1.00  0.00     0.049 A 
ATOM     59  C   UNL A   1      43.572  28.593  32.137  1.00  0.00     0.074 A 
ATOM     60  C   UNL A   1      44.729  24.649  28.466  1.00  0.00     0.029 A 
ATOM     61  N   UNL A   1      43.551  24.169  30.272  1.00  0.00    -0.354 N 
ATOM     62  N   UNL A   1      44.098  27.547  31.555  1.00  0.00    -0.248 NA
ATOM     63  C   UNL A   1      43.546  28.450  33.592  1.00  0.00     0.031 C 
ATOM     64  C   UNL A   1      45.343  25.270  29.600  1.00  0.00     0.029 A 
ATOM     65  C   UNL A   1      44.601  24.953  30.724  1.00  0.00     0.049 A 
ATOM     66  H   UNL A   1      42.858  23.788  30.858  1.00  0.00     0.167 HD
ATOM     67  C   UNL A   1      44.305  26.554  32.484  1.00  0.00     0.074 A 
ATOM     68  C   UNL A   1      43.967  27.185  33.750  1.00  0.00     0.031 C 
ATOM     69  C   UNL A   1      44.656  25.269  32.148  1.00  0.00     0.034 A 
BRANCH  56  70
ATOM     70  C   UNL A   1      42.476  22.221  27.272  1.00  0.00     0.023 A 
ATOM     71  C   UNL A   1      41.494  21.213  27.406  1.00  0.00     0.012 A 
ATOM     72  C   UNL A   1      43.474  21.966  26.298  1.00  0.00     0.148 A 
ATOM     73  C   UNL A   1      41.547  20.004  26.698  1.00  0.00     0.002 A 
ATOM     74  C   UNL A   1      43.560  20.743  25.627  1.00  0.00     0.091 A 
ATOM     75  F   UNL A   1      44.324  22.925  25.943  1.00  0.00    -0.205 F 
ATOM     76  C   UNL A   1      42.598  19.754  25.830  1.00  0.00     0.022 A 
BRANCH  74  77
ATOM     77  S   UNL A   1      44.930  20.339  24.522  1.00  0.00     0.127 S 
ATOM     78  O   UNL A   1      46.096  20.651  25.352  1.00  0.00    -0.237 OA
ATOM     79  O   UNL A   1      44.724  18.912  24.276  1.00  0.00    -0.237 OA
ATOM     80  O   UNL A   1      44.786  21.197  23.352  1.00  0.00    -0.744 OA
ENDBRANCH  74  77
ENDBRANCH  56  70
BRANCH  57  81
ATOM     81  C   UNL A   1      41.802  30.607  31.932  1.00  0.00     0.023 A 
ATOM     82  C   UNL A   1      41.657  31.911  31.395  1.00  0.00     0.012 A 
ATOM     83  C   UNL A   1      40.696  30.016  32.564  1.00  0.00     0.148 A 
ATOM     84  C   UNL A   1      40.397  32.504  31.292  1.00  0.00     0.002 A 
ATOM     85  C   UNL A   1      39.451  30.636  32.496  1.00  0.00     0.091 A 
ATOM     86  F   UNL A   1      40.840  28.826  33.160  1.00  0.00    -0.205 F 
ATOM     87  C   UNL A   1      39.286  31.843  31.804  1.00  0.00     0.022 A 
BRANCH  85  88
ATOM     88  S   UNL A   1      38.007  29.841  33.212  1.00  0.00     0.127 S 
ATOM     89  O   UNL A   1      38.217  30.085  34.635  1.00  0.00    -0.237 OA
ATOM     90  O   UNL A   1      36.901  30.589  32.617  1.00  0.00    -0.237 OA
ATOM     91  O   UNL A   1      38.100  28.459  32.767  1.00  0.00    -0.744 OA
ENDBRANCH  85  88
ENDBRANCH  57  81
BRANCH  69  92
ATOM     92  C   UNL A   1      44.981  24.165  33.155  1.00  0.00     0.023 A 
ATOM     93  C   UNL A   1      43.997  23.261  33.603  1.00  0.00     0.012 A 
ATOM     94  C   UNL A   1      46.258  24.044  33.772  1.00  0.00     0.148 A 
ATOM     95  C   UNL A   1      44.290  22.207  34.479  1.00  0.00     0.002 A 
ATOM     96  C   UNL A   1      46.541  23.018  34.670  1.00  0.00     0.091 A 
ATOM     97  F   UNL A   1      47.204  24.955  33.535  1.00  0.00    -0.205 F 
ATOM     98  C   UNL A   1      45.568  22.074  34.998  1.00  0.00     0.022 A 
BRANCH  96  99
ATOM     99  S   UNL A   1      48.136  22.862  35.491  1.00  0.00     0.127 S 
ATOM    100  O   UNL A   1      47.881  21.757  36.416  1.00  0.00    -0.237 OA
ATOM    101  O   UNL A   1      49.019  22.528  34.373  1.00  0.00    -0.237 OA
ATOM    102  O   UNL A   1      48.404  24.147  36.118  1.00  0.00    -0.744 OA
ENDBRANCH  96  99
ENDBRANCH  69  92
ENDBRANCH  43  44
ENDBRANCH  35  38
ENDBRANCH  33  34
ENDBRANCH   1  33
TORSDOF 16
ENDMDL
MODEL 2
REMARK VINA RESULT:     -14.7      4.406     10.468
REMARK SMILES Cc1ccc(-c2cc(C(=O)NCCCNC(=O)c3ccc(-c4c5nc(c(-c6cccc(S(=O)(=O)[O-])c6F)c6ccc([nH]6)c(-c6cccc(S(=O)(=O)[O-])c6F)c6nc(c(-c7cccc(S(=O)(=O)[O-])c7F)c7ccc4[nH]7)C=C6)C=C5)cc3)c3c(-c4cccc([N+](=O)[O-])c4)[nH]nc3n2)cc1
REMARK SMILES IDX 13 1 12 2 11 3 9 4 10 5 8 7 6 8 7 9 95 10 94 11 81 12 93 13
REMARK SMILES IDX 82 14 92 15 5 17 1 18 2 19 3 20 97 21 4 22 96 23 83 24 84 25
REMARK SMILES IDX 91 26 85 27 87 28 86 29 88 30 89 31 90 32 14 33 15 34 16 35
REMARK SMILES IDX 17 37 18 38 19 39 80 40 20 41 79 42 21 43 22 44 23 45 73 46
REMARK SMILES IDX 24 47 78 48 72 49 74 50 25 51 77 52 71 53 70 54 26 56 58 57
REMARK SMILES IDX 38 58 57 59 39 60 42 61 56 62 75 63 40 64 41 65 55 67 76 68
REMARK SMILES IDX 43 69 27 70 28 71 36 72 29 73 31 74 37 75 30 76 32 77 33 78
REMARK SMILES IDX 34 79 35 80 59 81 60 82 68 83 61 84 63 85 69 86 62 87 64 88
REMARK SMILES IDX 65 89 66 90 67 91 44 92 45 93 53 94 46 95 48 96 54 97 47 98
REMARK SMILES IDX 49 99 50 100 51 101 52 102
REMARK H PARENT 11 6 92 16 15 36 74 55 42 66
REMARK Flexibility Score: inf
ROOT
ATOM      1  C   UNL A   1      37.512  21.741  25.788  1.00  0.00     0.042 C 
ENDROOT
BRANCH   1   2
ATOM      2  C   UNL A   1      36.075  22.246  25.902  1.00  0.00     0.118 C 
BRANCH   2   3
ATOM      3  N   UNL A   1      35.496  22.587  24.609  1.00  0.00    -0.352 N 
ATOM      4  C   UNL A   1      34.458  23.386  24.182  1.00  0.00     0.252 C 
ATOM      5  O   UNL A   1      34.427  23.563  22.969  1.00  0.00    -0.269 OA
ATOM      6  H   UNL A   1      35.956  22.138  23.864  1.00  0.00     0.163 HD
BRANCH   4   7
ATOM      7  C   UNL A   1      33.444  24.024  25.067  1.00  0.00     0.055 A 
ATOM      8  C   UNL A   1      32.502  26.054  26.196  1.00  0.00     0.074 A 
ATOM      9  C   UNL A   1      33.461  25.381  25.398  1.00  0.00     0.043 A 
ATOM     10  N   UNL A   1      31.427  25.475  26.776  1.00  0.00    -0.226 NA
ATOM     11  C   UNL A   1      31.349  24.144  26.505  1.00  0.00     0.182 A 
ATOM     12  C   UNL A   1      32.324  23.435  25.695  1.00  0.00     0.059 A 
ATOM     13  N   UNL A   1      30.375  23.341  26.934  1.00  0.00    -0.154 NA
ATOM     14  C   UNL A   1      31.891  22.117  25.727  1.00  0.00     0.076 A 
ATOM     15  N   UNL A   1      30.722  22.142  26.449  1.00  0.00    -0.275 N 
ATOM     16  H   UNL A   1      30.177  21.334  26.599  1.00  0.00     0.190 HD
BRANCH   8  17
ATOM     17  C   UNL A   1      32.708  27.502  26.389  1.00  0.00     0.000 A 
ATOM     18  C   UNL A   1      33.616  31.536  27.674  1.00  0.00     0.044 C 
ATOM     19  C   UNL A   1      33.295  30.156  27.183  1.00  0.00    -0.051 A 
ATOM     20  C   UNL A   1      31.991  29.650  27.281  1.00  0.00     0.004 A 
ATOM     21  C   UNL A   1      34.295  29.347  26.644  1.00  0.00     0.004 A 
ATOM     22  C   UNL A   1      31.699  28.337  26.885  1.00  0.00     0.010 A 
ATOM     23  C   UNL A   1      34.001  28.044  26.243  1.00  0.00     0.010 A 
ENDBRANCH   8  17
BRANCH  14  24
ATOM     24  C   UNL A   1      32.418  20.855  25.229  1.00  0.00     0.007 A 
ATOM     25  C   UNL A   1      33.069  19.967  26.097  1.00  0.00     0.011 A 
ATOM     26  C   UNL A   1      32.200  20.489  23.895  1.00  0.00     0.096 A 
ATOM     27  C   UNL A   1      33.450  18.697  25.653  1.00  0.00     0.008 A 
ATOM     28  C   UNL A   1      32.556  19.204  23.467  1.00  0.00     0.270 A 
ATOM     29  C   UNL A   1      33.182  18.305  24.341  1.00  0.00     0.085 A 
BRANCH  28  30
ATOM     30  N   UNL A   1      32.240  18.788  22.096  1.00  0.00     0.062 N 
ATOM     31  O   UNL A   1      32.295  17.578  21.836  1.00  0.00    -0.258 OA
ATOM     32  O   UNL A   1      31.983  19.676  21.270  1.00  0.00    -0.258 OA
ENDBRANCH  28  30
ENDBRANCH  14  24
ENDBRANCH   4   7
ENDBRANCH   2   3
ENDBRANCH   1   2
BRANCH   1  33
ATOM     33  C   UNL A   1      38.540  22.852  25.821  1.00  0.00     0.118 C 
BRANCH  33  34
ATOM     34  N   UNL A   1      39.605  22.627  26.791  1.00  0.00    -0.352 N 
ATOM     35  C   UNL A   1      40.274  23.563  27.563  1.00  0.00     0.251 C 
ATOM     36  H   UNL A   1      39.884  21.691  26.914  1.00  0.00     0.163 HD
ATOM     37  O   UNL A   1      41.243  23.222  28.232  1.00  0.00    -0.269 OA
BRANCH  35  38
ATOM     38  C   UNL A   1      39.707  24.928  27.649  1.00  0.00     0.039 A 
ATOM     39  C   UNL A   1      40.271  25.907  26.826  1.00  0.00     0.014 A 
ATOM     40  C   UNL A   1      38.908  25.282  28.733  1.00  0.00     0.014 A 
ATOM     41  C   UNL A   1      40.272  27.229  27.254  1.00  0.00     0.010 A 
ATOM     42  C   UNL A   1      38.992  26.572  29.209  1.00  0.00     0.010 A 
ATOM     43  C   UNL A   1      39.746  27.520  28.509  1.00  0.00    -0.014 A 
BRANCH  43  44
ATOM     44  C   UNL A   1      39.886  28.801  29.176  1.00  0.00     0.031 A 
ATOM     45  C   UNL A   1      38.956  29.885  28.830  1.00  0.00     0.074 A 
ATOM     46  C   UNL A   1      40.754  28.933  30.203  1.00  0.00     0.049 A 
ATOM     47  N   UNL A   1      39.109  31.112  29.185  1.00  0.00    -0.248 NA
ATOM     48  C   UNL A   1      37.783  29.657  27.999  1.00  0.00     0.031 C 
ATOM     49  C   UNL A   1      40.787  29.985  31.211  1.00  0.00     0.029 A 
ATOM     50  N   UNL A   1      41.955  28.244  30.398  1.00  0.00    -0.354 N 
ATOM     51  C   UNL A   1      37.924  31.760  28.921  1.00  0.00     0.074 A 
ATOM     52  C   UNL A   1      37.194  30.853  28.071  1.00  0.00     0.031 C 
ATOM     53  C   UNL A   1      42.032  30.069  31.704  1.00  0.00     0.029 A 
ATOM     54  C   UNL A   1      42.864  29.210  30.881  1.00  0.00     0.049 A 
ATOM     55  H   UNL A   1      42.130  27.290  30.233  1.00  0.00     0.167 HD
ATOM     56  C   UNL A   1      37.657  32.911  29.602  1.00  0.00     0.034 A 
ATOM     57  C   UNL A   1      43.971  29.611  30.183  1.00  0.00     0.034 A 
ATOM     58  C   UNL A   1      38.860  33.383  30.318  1.00  0.00     0.049 A 
ATOM     59  C   UNL A   1      43.998  31.111  29.888  1.00  0.00     0.074 A 
ATOM     60  C   UNL A   1      39.288  33.374  31.637  1.00  0.00     0.029 A 
ATOM     61  N   UNL A   1      39.978  33.715  29.566  1.00  0.00    -0.354 N 
ATOM     62  N   UNL A   1      43.107  31.976  30.297  1.00  0.00    -0.248 NA
ATOM     63  C   UNL A   1      44.985  31.726  29.000  1.00  0.00     0.031 C 
ATOM     64  C   UNL A   1      40.689  33.668  31.656  1.00  0.00     0.029 A 
ATOM     65  C   UNL A   1      41.104  33.888  30.355  1.00  0.00     0.049 A 
ATOM     66  H   UNL A   1      39.971  33.818  28.587  1.00  0.00     0.167 HD
ATOM     67  C   UNL A   1      43.271  33.165  29.625  1.00  0.00     0.074 A 
ATOM     68  C   UNL A   1      44.480  32.960  28.844  1.00  0.00     0.031 C 
ATOM     69  C   UNL A   1      42.366  34.196  29.688  1.00  0.00     0.034 A 
BRANCH  56  70
ATOM     70  C   UNL A   1      36.260  33.477  29.842  1.00  0.00     0.023 A 
ATOM     71  C   UNL A   1      35.626  34.119  28.754  1.00  0.00     0.012 A 
ATOM     72  C   UNL A   1      35.547  33.517  31.066  1.00  0.00     0.148 A 
ATOM     73  C   UNL A   1      34.423  34.827  28.887  1.00  0.00     0.002 A 
ATOM     74  C   UNL A   1      34.374  34.264  31.217  1.00  0.00     0.091 A 
ATOM     75  F   UNL A   1      35.944  32.778  32.098  1.00  0.00    -0.205 F 
ATOM     76  C   UNL A   1      33.812  34.927  30.127  1.00  0.00     0.022 A 
BRANCH  74  77
ATOM     77  S   UNL A   1      33.557  34.472  32.813  1.00  0.00     0.127 S 
ATOM     78  O   UNL A   1      33.294  33.085  33.206  1.00  0.00    -0.237 OA
ATOM     79  O   UNL A   1      34.585  35.142  33.607  1.00  0.00    -0.237 OA
ATOM     80  O   UNL A   1      32.354  35.257  32.564  1.00  0.00    -0.744 OA
ENDBRANCH  74  77
ENDBRANCH  56  70
BRANCH  57  81
ATOM     81  C   UNL A   1      44.496  28.543  29.269  1.00  0.00     0.023 A 
ATOM     82  C   UNL A   1      44.851  27.307  29.867  1.00  0.00     0.012 A 
ATOM     83  C   UNL A   1      44.250  28.571  27.887  1.00  0.00     0.148 A 
ATOM     84  C   UNL A   1      44.742  26.111  29.153  1.00  0.00     0.002 A 
ATOM     85  C   UNL A   1      44.187  27.378  27.172  1.00  0.00     0.091 A 
ATOM     86  F   UNL A   1      44.007  29.743  27.289  1.00  0.00    -0.205 F 
ATOM     87  C   UNL A   1      44.365  26.145  27.816  1.00  0.00     0.022 A 
BRANCH  85  88
ATOM     88  S   UNL A   1      43.774  27.393  25.424  1.00  0.00     0.127 S 
ATOM     89  O   UNL A   1      45.048  27.779  24.827  1.00  0.00    -0.237 OA
ATOM     90  O   UNL A   1      43.374  26.008  25.177  1.00  0.00    -0.237 OA
ATOM     91  O   UNL A   1      42.686  28.355  25.321  1.00  0.00    -0.744 OA
ENDBRANCH  85  88
ENDBRANCH  57  81
BRANCH  69  92
ATOM     92  C   UNL A   1      42.557  35.563  29.027  1.00  0.00     0.023 A 
ATOM     93  C   UNL A   1      42.079  35.828  27.729  1.00  0.00     0.012 A 
ATOM     94  C   UNL A   1      43.309  36.607  29.635  1.00  0.00     0.148 A 
ATOM     95  C   UNL A   1      42.192  37.091  27.131  1.00  0.00     0.002 A 
ATOM     96  C   UNL A   1      43.453  37.852  29.027  1.00  0.00     0.091 A 
ATOM     97  F   UNL A   1      43.940  36.392  30.792  1.00  0.00    -0.205 F 
ATOM     98  C   UNL A   1      42.863  38.110  27.789  1.00  0.00     0.022 A 
BRANCH  96  99
ATOM     99  S   UNL A   1      44.427  39.180  29.756  1.00  0.00     0.127 S 
ATOM    100  O   UNL A   1      45.770  38.599  29.740  1.00  0.00    -0.237 OA
ATOM    101  O   UNL A   1      44.222  40.265  28.797  1.00  0.00    -0.237 OA
ATOM    102  O   UNL A   1      43.870  39.420  31.078  1.00  0.00    -0.744 OA
ENDBRANCH  96  99
ENDBRANCH  69  92
ENDBRANCH  43  44
ENDBRANCH  35  38
ENDBRANCH  33  34
ENDBRANCH   1  33
TORSDOF 16
ENDMDL
MODEL 3
REMARK VINA RESULT:     -13.9      4.488     10.135
REMARK SMILES Cc1ccc(-c2cc(C(=O)NCCCNC(=O)c3ccc(-c4c5nc(c(-c6cccc(S(=O)(=O)[O-])c6F)c6ccc([nH]6)c(-c6cccc(S(=O)(=O)[O-])c6F)c6nc(c(-c7cccc(S(=O)(=O)[O-])c7F)c7ccc4[nH]7)C=C6)C=C5)cc3)c3c(-c4cccc([N+](=O)[O-])c4)[nH]nc3n2)cc1
REMARK SMILES IDX 13 1 12 2 11 3 9 4 10 5 8 7 6 8 7 9 95 10 94 11 81 12 93 13
REMARK SMILES IDX 82 14 92 15 5 17 1 18 2 19 3 20 97 21 4 22 96 23 83 24 84 25
REMARK SMILES IDX 91 26 85 27 87 28 86 29 88 30 89 31 90 32 14 33 15 34 16 35
REMARK SMILES IDX 17 37 18 38 19 39 80 40 20 41 79 42 21 43 22 44 23 45 73 46
REMARK SMILES IDX 24 47 78 48 72 49 74 50 25 51 77 52 71 53 70 54 26 56 58 57
REMARK SMILES IDX 38 58 57 59 39 60 42 61 56 62 75 63 40 64 41 65 55 67 76 68
REMARK SMILES IDX 43 69 27 70 28 71 36 72 29 73 31 74 37 75 30 76 32 77 33 78
REMARK SMILES IDX 34 79 35 80 59 81 60 82 68 83 61 84 63 85 69 86 62 87 64 88
REMARK SMILES IDX 65 89 66 90 67 91 44 92 45 93 53 94 46 95 48 96 54 97 47 98
REMARK SMILES IDX 49 99 50 100 51 101 52 102
REMARK H PARENT 11 6 92 16 15 36 74 55 42 66
REMARK Flexibility Score: inf
ROOT
ATOM      1  C   UNL A   1      37.467  22.346  24.662  1.00  0.00     0.042 C 
ENDROOT
BRANCH   1   2
ATOM      2  C   UNL A   1      36.642  23.548  24.207  1.00  0.00     0.118 C 
BRANCH   2   3
ATOM      3  N   UNL A   1      35.536  23.174  23.336  1.00  0.00    -0.352 N 
ATOM      4  C   UNL A   1      34.171  23.362  23.352  1.00  0.00     0.252 C 
ATOM      5  O   UNL A   1      33.610  23.058  22.304  1.00  0.00    -0.269 OA
ATOM      6  H   UNL A   1      35.836  22.665  22.549  1.00  0.00     0.163 HD
BRANCH   4   7
ATOM      7  C   UNL A   1      33.392  23.901  24.500  1.00  0.00     0.055 A 
ATOM      8  C   UNL A   1      32.742  25.807  25.993  1.00  0.00     0.074 A 
ATOM      9  C   UNL A   1      33.489  25.224  24.939  1.00  0.00     0.043 A 
ATOM     10  N   UNL A   1      31.828  25.160  26.751  1.00  0.00    -0.226 NA
ATOM     11  C   UNL A   1      31.686  23.857  26.387  1.00  0.00     0.182 A 
ATOM     12  C   UNL A   1      32.445  23.239  25.314  1.00  0.00     0.059 A 
ATOM     13  N   UNL A   1      30.835  23.002  26.955  1.00  0.00    -0.154 NA
ATOM     14  C   UNL A   1      32.027  21.916  25.326  1.00  0.00     0.076 A 
ATOM     15  N   UNL A   1      31.056  21.856  26.297  1.00  0.00    -0.275 N 
ATOM     16  H   UNL A   1      30.559  21.029  26.496  1.00  0.00     0.190 HD
BRANCH   8  17
ATOM     17  C   UNL A   1      32.992  27.236  26.263  1.00  0.00     0.000 A 
ATOM     18  C   UNL A   1      34.023  31.166  27.759  1.00  0.00     0.044 C 
ATOM     19  C   UNL A   1      33.659  29.824  27.196  1.00  0.00    -0.051 A 
ATOM     20  C   UNL A   1      32.342  29.352  27.273  1.00  0.00     0.004 A 
ATOM     21  C   UNL A   1      34.633  29.016  26.609  1.00  0.00     0.004 A 
ATOM     22  C   UNL A   1      32.009  28.072  26.808  1.00  0.00     0.010 A 
ATOM     23  C   UNL A   1      34.299  27.747  26.141  1.00  0.00     0.010 A 
ENDBRANCH   8  17
BRANCH  14  24
ATOM     24  C   UNL A   1      32.421  20.713  24.609  1.00  0.00     0.007 A 
ATOM     25  C   UNL A   1      31.794  20.368  23.403  1.00  0.00     0.011 A 
ATOM     26  C   UNL A   1      33.487  19.939  25.083  1.00  0.00     0.096 A 
ATOM     27  C   UNL A   1      32.265  19.292  22.645  1.00  0.00     0.008 A 
ATOM     28  C   UNL A   1      33.974  18.884  24.302  1.00  0.00     0.270 A 
ATOM     29  C   UNL A   1      33.365  18.555  23.083  1.00  0.00     0.085 A 
BRANCH  28  30
ATOM     30  N   UNL A   1      35.152  18.136  24.754  1.00  0.00     0.062 N 
ATOM     31  O   UNL A   1      34.993  16.947  25.065  1.00  0.00    -0.258 OA
ATOM     32  O   UNL A   1      36.225  18.751  24.841  1.00  0.00    -0.258 OA
ENDBRANCH  28  30
ENDBRANCH  14  24
ENDBRANCH   4   7
ENDBRANCH   2   3
ENDBRANCH   1   2
BRANCH   1  33
ATOM     33  C   UNL A   1      37.986  22.479  26.078  1.00  0.00     0.118 C 
BRANCH  33  34
ATOM     34  N   UNL A   1      39.438  22.378  26.174  1.00  0.00    -0.352 N 
ATOM     35  C   UNL A   1      40.358  23.400  26.341  1.00  0.00     0.251 C 
ATOM     36  H   UNL A   1      39.811  21.469  26.113  1.00  0.00     0.163 HD
ATOM     37  O   UNL A   1      41.558  23.159  26.264  1.00  0.00    -0.269 OA
BRANCH  35  38
ATOM     38  C   UNL A   1      39.854  24.734  26.738  1.00  0.00     0.039 A 
ATOM     39  C   UNL A   1      40.479  25.847  26.169  1.00  0.00     0.014 A 
ATOM     40  C   UNL A   1      39.051  24.867  27.867  1.00  0.00     0.014 A 
ATOM     41  C   UNL A   1      40.533  27.033  26.892  1.00  0.00     0.010 A 
ATOM     42  C   UNL A   1      39.186  26.006  28.630  1.00  0.00     0.010 A 
ATOM     43  C   UNL A   1      39.997  27.051  28.175  1.00  0.00    -0.014 A 
BRANCH  43  44
ATOM     44  C   UNL A   1      40.183  28.135  29.123  1.00  0.00     0.031 A 
ATOM     45  C   UNL A   1      39.352  29.339  28.993  1.00  0.00     0.074 A 
ATOM     46  C   UNL A   1      40.994  27.962  30.190  1.00  0.00     0.049 A 
ATOM     47  N   UNL A   1      39.567  30.439  29.626  1.00  0.00    -0.248 NA
ATOM     48  C   UNL A   1      38.219  29.399  28.082  1.00  0.00     0.031 C 
ATOM     49  C   UNL A   1      41.038  28.755  31.412  1.00  0.00     0.029 A 
ATOM     50  N   UNL A   1      42.132  27.153  30.274  1.00  0.00    -0.354 N 
ATOM     51  C   UNL A   1      38.447  31.223  29.466  1.00  0.00     0.074 A 
ATOM     52  C   UNL A   1      37.710  30.592  28.399  1.00  0.00     0.031 C 
ATOM     53  C   UNL A   1      42.253  28.626  31.965  1.00  0.00     0.029 A 
ATOM     54  C   UNL A   1      43.073  27.910  31.005  1.00  0.00     0.049 A 
ATOM     55  H   UNL A   1      42.251  26.249  29.904  1.00  0.00     0.167 HD
ATOM     56  C   UNL A   1      38.219  32.210  30.378  1.00  0.00     0.034 A 
ATOM     57  C   UNL A   1      44.245  28.367  30.465  1.00  0.00     0.034 A 
ATOM     58  C   UNL A   1      39.405  32.411  31.236  1.00  0.00     0.049 A 
ATOM     59  C   UNL A   1      44.393  29.889  30.522  1.00  0.00     0.074 A 
ATOM     60  C   UNL A   1      39.750  32.072  32.535  1.00  0.00     0.029 A 
ATOM     61  N   UNL A   1      40.587  32.812  30.628  1.00  0.00    -0.354 N 
ATOM     62  N   UNL A   1      43.539  30.708  31.079  1.00  0.00    -0.248 NA
ATOM     63  C   UNL A   1      45.471  30.605  29.842  1.00  0.00     0.031 C 
ATOM     64  C   UNL A   1      41.164  32.240  32.681  1.00  0.00     0.029 A 
ATOM     65  C   UNL A   1      41.672  32.713  31.485  1.00  0.00     0.049 A 
ATOM     66  H   UNL A   1      40.646  33.132  29.699  1.00  0.00     0.167 HD
ATOM     67  C   UNL A   1      43.825  32.000  30.704  1.00  0.00     0.074 A 
ATOM     68  C   UNL A   1      45.062  31.879  29.950  1.00  0.00     0.031 C 
ATOM     69  C   UNL A   1      42.990  33.060  30.961  1.00  0.00     0.034 A 
BRANCH  56  70
ATOM     70  C   UNL A   1      36.851  32.817  30.680  1.00  0.00     0.023 A 
ATOM     71  C   UNL A   1      36.179  32.354  31.834  1.00  0.00     0.012 A 
ATOM     72  C   UNL A   1      36.124  33.737  29.885  1.00  0.00     0.148 A 
ATOM     73  C   UNL A   1      34.852  32.701  32.129  1.00  0.00     0.002 A 
ATOM     74  C   UNL A   1      34.785  34.047  30.146  1.00  0.00     0.091 A 
ATOM     75  F   UNL A   1      36.726  34.391  28.896  1.00  0.00    -0.205 F 
ATOM     76  C   UNL A   1      34.143  33.523  31.267  1.00  0.00     0.022 A 
BRANCH  74  77
ATOM     77  S   UNL A   1      33.794  35.072  29.038  1.00  0.00     0.127 S 
ATOM     78  O   UNL A   1      32.550  34.305  28.941  1.00  0.00    -0.237 OA
ATOM     79  O   UNL A   1      33.678  36.322  29.788  1.00  0.00    -0.237 OA
ATOM     80  O   UNL A   1      34.535  35.165  27.786  1.00  0.00    -0.744 OA
ENDBRANCH  74  77
ENDBRANCH  56  70
BRANCH  57  81
ATOM     81  C   UNL A   1      44.750  27.493  29.355  1.00  0.00     0.023 A 
ATOM     82  C   UNL A   1      45.040  26.144  29.685  1.00  0.00     0.012 A 
ATOM     83  C   UNL A   1      44.542  27.822  28.007  1.00  0.00     0.148 A 
ATOM     84  C   UNL A   1      44.902  25.132  28.733  1.00  0.00     0.002 A 
ATOM     85  C   UNL A   1      44.450  26.810  27.055  1.00  0.00     0.091 A 
ATOM     86  F   UNL A   1      44.361  29.104  27.666  1.00  0.00    -0.205 F 
ATOM     87  C   UNL A   1      44.561  25.462  27.426  1.00  0.00     0.022 A 
BRANCH  85  88
ATOM     88  S   UNL A   1      44.083  27.211  25.343  1.00  0.00     0.127 S 
ATOM     89  O   UNL A   1      43.624  25.923  24.834  1.00  0.00    -0.237 OA
ATOM     90  O   UNL A   1      43.040  28.229  25.468  1.00  0.00    -0.237 OA
ATOM     91  O   UNL A   1      45.343  27.711  24.813  1.00  0.00    -0.744 OA
ENDBRANCH  85  88
ENDBRANCH  57  81
BRANCH  69  92
ATOM     92  C   UNL A   1      43.314  34.520  30.638  1.00  0.00     0.023 A 
ATOM     93  C   UNL A   1      43.569  35.462  31.655  1.00  0.00     0.012 A 
ATOM     94  C   UNL A   1      43.278  35.036  29.312  1.00  0.00     0.148 A 
ATOM     95  C   UNL A   1      43.925  36.788  31.376  1.00  0.00     0.002 A 
ATOM     96  C   UNL A   1      43.597  36.364  29.036  1.00  0.00     0.091 A 
ATOM     97  F   UNL A   1      42.884  34.258  28.302  1.00  0.00    -0.205 F 
ATOM     98  C   UNL A   1      43.958  37.235  30.064  1.00  0.00     0.022 A 
BRANCH  96  99
ATOM     99  S   UNL A   1      43.526  37.052  27.374  1.00  0.00     0.127 S 
ATOM    100  O   UNL A   1      43.764  38.471  27.635  1.00  0.00    -0.237 OA
ATOM    101  O   UNL A   1      44.634  36.360  26.714  1.00  0.00    -0.237 OA
ATOM    102  O   UNL A   1      42.207  36.730  26.851  1.00  0.00    -0.744 OA
ENDBRANCH  96  99
ENDBRANCH  69  92
ENDBRANCH  43  44
ENDBRANCH  35  38
ENDBRANCH  33  34
ENDBRANCH   1  33
TORSDOF 16
ENDMDL
