MODEL 1
REMARK VINA RESULT:     -11.8      0.000      0.000
REMARK SMILES O=C(CNC(=O)c1ccco1)Nc1cccc(C(=O)NCCCNC(=O)c2ccc(-c3c4nc(c(-c5cccc(S(=O)(=O)[O-])c5F)c5ccc([nH]5)c(-c5cccc(S(=O)(=O)[O-])c5F)c5nc(c(-c6cccc(S(=O)(=O)[O-])c6F)c6ccc3[nH]6)C=C5)C=C4)cc2)c1
REMARK SMILES IDX 21 1 20 2 18 3 19 4 17 6 13 7 14 8 90 9 15 10 16 11 12 12
REMARK SMILES IDX 1 13 2 14 3 16 4 17 5 18 6 20 7 21 8 22 11 23 9 24 10 25
REMARK SMILES IDX 22 26 23 27 24 28 25 29 26 31 27 32 28 33 89 34 29 35 88 36
REMARK SMILES IDX 30 37 31 38 32 39 82 40 33 41 87 42 81 43 83 44 34 45 86 46
REMARK SMILES IDX 80 47 79 48 35 50 67 51 47 52 66 53 48 54 51 55 65 56 84 57
REMARK SMILES IDX 49 58 50 59 64 61 85 62 52 63 36 64 37 65 45 66 38 67 40 68
REMARK SMILES IDX 46 69 39 70 41 71 42 72 43 73 44 74 68 75 69 76 77 77 70 78
REMARK SMILES IDX 72 79 78 80 71 81 73 82 74 83 75 84 76 85 53 86 54 87 62 88
REMARK SMILES IDX 55 89 57 90 63 91 56 92 58 93 59 94 60 95 61 96
REMARK H PARENT 20 5 12 15 4 19 24 30 83 49 51 60
REMARK Flexibility Score: inf
ROOT
ATOM      1  C   UNL A   1      33.035  29.545  25.738  1.00  0.00     0.118 C 
ENDROOT
BRANCH   1   2
ATOM      2  N   UNL A   1      33.412  29.122  24.390  1.00  0.00    -0.352 N 
ATOM      3  C   UNL A   1      32.772  28.312  23.475  1.00  0.00     0.251 C 
ATOM      4  O   UNL A   1      33.319  28.071  22.400  1.00  0.00    -0.269 OA
ATOM      5  H   UNL A   1      34.276  29.479  24.080  1.00  0.00     0.163 HD
BRANCH   3   6
ATOM      6  C   UNL A   1      31.464  27.682  23.779  1.00  0.00     0.041 A 
ATOM      7  C   UNL A   1      30.214  25.752  24.530  1.00  0.00     0.042 A 
ATOM      8  C   UNL A   1      29.051  26.310  23.992  1.00  0.00     0.026 A 
ATOM      9  C   UNL A   1      31.382  26.512  24.533  1.00  0.00     0.040 A 
ATOM     10  C   UNL A   1      29.085  27.572  23.387  1.00  0.00     0.003 A 
ATOM     11  C   UNL A   1      30.301  28.243  23.247  1.00  0.00     0.014 A 
BRANCH   7  12
ATOM     12  N   UNL A   1      30.197  24.386  24.893  1.00  0.00    -0.325 N 
ATOM     13  O   UNL A   1      30.882  24.476  27.125  1.00  0.00    -0.273 OA
ATOM     14  C   UNL A   1      30.654  23.851  26.092  1.00  0.00     0.243 C 
ATOM     15  H   UNL A   1      29.827  23.754  24.236  1.00  0.00     0.169 HD
BRANCH  14  16
ATOM     16  C   UNL A   1      31.124  22.399  25.968  1.00  0.00     0.216 C 
BRANCH  16  17
ATOM     17  N   UNL A   1      32.351  22.129  26.695  1.00  0.00    -0.340 N 
ATOM     18  C   UNL A   1      33.655  22.367  26.320  1.00  0.00     0.287 C 
ATOM     19  H   UNL A   1      32.235  21.718  27.582  1.00  0.00     0.164 HD
ATOM     20  O   UNL A   1      34.522  21.913  27.063  1.00  0.00    -0.266 OA
BRANCH  18  21
ATOM     21  C   UNL A   1      33.928  23.091  25.096  1.00  0.00     0.191 A 
ATOM     22  C   UNL A   1      34.346  24.382  24.823  1.00  0.00     0.056 A 
ATOM     23  O   UNL A   1      33.781  22.410  23.915  1.00  0.00    -0.459 OA
ATOM     24  C   UNL A   1      34.417  24.503  23.413  1.00  0.00     0.043 A 
ATOM     25  C   UNL A   1      34.062  23.276  22.907  1.00  0.00     0.196 A 
ENDBRANCH  18  21
ENDBRANCH  16  17
ENDBRANCH  14  16
ENDBRANCH   7  12
ENDBRANCH   3   6
ENDBRANCH   1   2
BRANCH   1  26
ATOM     26  C   UNL A   1      31.965  30.626  25.780  1.00  0.00     0.042 C 
BRANCH  26  27
ATOM     27  C   UNL A   1      31.819  31.334  27.117  1.00  0.00     0.118 C 
BRANCH  27  28
ATOM     28  N   UNL A   1      32.195  32.742  27.067  1.00  0.00    -0.352 N 
ATOM     29  C   UNL A   1      33.302  33.407  27.541  1.00  0.00     0.251 C 
ATOM     30  H   UNL A   1      31.541  33.320  26.613  1.00  0.00     0.163 HD
ATOM     31  O   UNL A   1      33.319  34.636  27.508  1.00  0.00    -0.269 OA
BRANCH  29  32
ATOM     32  C   UNL A   1      34.459  32.678  28.115  1.00  0.00     0.039 A 
ATOM     33  C   UNL A   1      35.705  33.316  28.158  1.00  0.00     0.014 A 
ATOM     34  C   UNL A   1      34.344  31.367  28.574  1.00  0.00     0.014 A 
ATOM     35  C   UNL A   1      36.804  32.672  28.740  1.00  0.00     0.010 A 
ATOM     36  C   UNL A   1      35.410  30.765  29.239  1.00  0.00     0.010 A 
ATOM     37  C   UNL A   1      36.654  31.407  29.328  1.00  0.00    -0.014 A 
BRANCH  37  38
ATOM     38  C   UNL A   1      37.765  30.728  30.047  1.00  0.00     0.031 A 
ATOM     39  C   UNL A   1      38.115  31.137  31.453  1.00  0.00     0.074 A 
ATOM     40  C   UNL A   1      38.541  29.840  29.393  1.00  0.00     0.049 A 
ATOM     41  N   UNL A   1      39.142  30.787  32.185  1.00  0.00    -0.248 NA
ATOM     42  C   UNL A   1      37.212  32.097  32.111  1.00  0.00     0.031 C 
ATOM     43  C   UNL A   1      38.358  29.416  28.004  1.00  0.00     0.029 A 
ATOM     44  N   UNL A   1      39.668  29.165  29.798  1.00  0.00    -0.354 N 
ATOM     45  C   UNL A   1      39.040  31.525  33.359  1.00  0.00     0.074 A 
ATOM     46  C   UNL A   1      37.865  32.359  33.235  1.00  0.00     0.031 C 
ATOM     47  C   UNL A   1      39.335  28.557  27.672  1.00  0.00     0.029 A 
ATOM     48  C   UNL A   1      40.236  28.396  28.809  1.00  0.00     0.049 A 
ATOM     49  H   UNL A   1      40.033  29.226  30.710  1.00  0.00     0.167 HD
ATOM     50  C   UNL A   1      39.835  31.491  34.455  1.00  0.00     0.034 A 
ATOM     51  C   UNL A   1      41.362  27.655  28.809  1.00  0.00     0.034 A 
ATOM     52  C   UNL A   1      40.955  30.602  34.610  1.00  0.00     0.049 A 
ATOM     53  C   UNL A   1      42.185  27.576  30.068  1.00  0.00     0.074 A 
ATOM     54  C   UNL A   1      41.756  30.416  35.722  1.00  0.00     0.029 A 
ATOM     55  N   UNL A   1      41.423  29.744  33.628  1.00  0.00    -0.354 N 
ATOM     56  N   UNL A   1      41.985  28.166  31.221  1.00  0.00    -0.248 NA
ATOM     57  C   UNL A   1      43.368  26.703  30.039  1.00  0.00     0.031 C 
ATOM     58  C   UNL A   1      42.713  29.444  35.411  1.00  0.00     0.029 A 
ATOM     59  C   UNL A   1      42.502  29.022  34.108  1.00  0.00     0.049 A 
ATOM     60  H   UNL A   1      41.045  29.661  32.723  1.00  0.00     0.167 HD
ATOM     61  C   UNL A   1      42.992  27.711  32.063  1.00  0.00     0.074 A 
ATOM     62  C   UNL A   1      43.792  26.780  31.293  1.00  0.00     0.031 C 
ATOM     63  C   UNL A   1      43.245  28.048  33.352  1.00  0.00     0.034 A 
BRANCH  50  64
ATOM     64  C   UNL A   1      39.476  32.392  35.607  1.00  0.00     0.023 A 
ATOM     65  C   UNL A   1      38.715  31.876  36.676  1.00  0.00     0.012 A 
ATOM     66  C   UNL A   1      39.934  33.723  35.664  1.00  0.00     0.148 A 
ATOM     67  C   UNL A   1      38.384  32.680  37.765  1.00  0.00     0.002 A 
ATOM     68  C   UNL A   1      39.634  34.506  36.773  1.00  0.00     0.091 A 
ATOM     69  F   UNL A   1      40.637  34.204  34.629  1.00  0.00    -0.205 F 
ATOM     70  C   UNL A   1      38.852  33.990  37.820  1.00  0.00     0.022 A 
BRANCH  68  71
ATOM     71  S   UNL A   1      40.255  36.181  36.967  1.00  0.00     0.127 S 
ATOM     72  O   UNL A   1      39.498  36.643  38.130  1.00  0.00    -0.237 OA
ATOM     73  O   UNL A   1      41.680  35.958  37.218  1.00  0.00    -0.237 OA
ATOM     74  O   UNL A   1      39.961  36.861  35.714  1.00  0.00    -0.744 OA
ENDBRANCH  68  71
ENDBRANCH  50  64
BRANCH  51  75
ATOM     75  C   UNL A   1      41.729  26.865  27.599  1.00  0.00     0.023 A 
ATOM     76  C   UNL A   1      42.339  27.522  26.513  1.00  0.00     0.012 A 
ATOM     77  C   UNL A   1      41.530  25.472  27.534  1.00  0.00     0.148 A 
ATOM     78  C   UNL A   1      42.720  26.812  25.373  1.00  0.00     0.002 A 
ATOM     79  C   UNL A   1      41.966  24.761  26.420  1.00  0.00     0.091 A 
ATOM     80  F   UNL A   1      40.936  24.865  28.571  1.00  0.00    -0.205 F 
ATOM     81  C   UNL A   1      42.544  25.432  25.332  1.00  0.00     0.022 A 
BRANCH  79  82
ATOM     82  S   UNL A   1      41.922  22.967  26.347  1.00  0.00     0.127 S 
ATOM     83  O   UNL A   1      40.488  22.698  26.401  1.00  0.00    -0.237 OA
ATOM     84  O   UNL A   1      42.555  22.697  25.055  1.00  0.00    -0.237 OA
ATOM     85  O   UNL A   1      42.700  22.509  27.491  1.00  0.00    -0.744 OA
ENDBRANCH  79  82
ENDBRANCH  51  75
BRANCH  63  86
ATOM     86  C   UNL A   1      44.412  27.386  34.034  1.00  0.00     0.023 A 
ATOM     87  C   UNL A   1      45.694  27.960  33.931  1.00  0.00     0.012 A 
ATOM     88  C   UNL A   1      44.221  26.256  34.854  1.00  0.00     0.148 A 
ATOM     89  C   UNL A   1      46.773  27.407  34.616  1.00  0.00     0.002 A 
ATOM     90  C   UNL A   1      45.294  25.735  35.566  1.00  0.00     0.091 A 
ATOM     91  F   UNL A   1      42.997  25.713  34.922  1.00  0.00    -0.205 F 
ATOM     92  C   UNL A   1      46.572  26.304  35.443  1.00  0.00     0.022 A 
BRANCH  90  93
ATOM     93  S   UNL A   1      45.106  24.373  36.723  1.00  0.00     0.127 S 
ATOM     94  O   UNL A   1      44.673  23.290  35.841  1.00  0.00    -0.237 OA
ATOM     95  O   UNL A   1      46.461  24.222  37.255  1.00  0.00    -0.237 OA
ATOM     96  O   UNL A   1      44.123  24.816  37.702  1.00  0.00    -0.744 OA
ENDBRANCH  90  93
ENDBRANCH  63  86
ENDBRANCH  37  38
ENDBRANCH  29  32
ENDBRANCH  27  28
ENDBRANCH  26  27
ENDBRANCH   1  26
TORSDOF 17
ENDMDL
MODEL 2
REMARK VINA RESULT:     -11.7      2.038      8.061
REMARK SMILES O=C(CNC(=O)c1ccco1)Nc1cccc(C(=O)NCCCNC(=O)c2ccc(-c3c4nc(c(-c5cccc(S(=O)(=O)[O-])c5F)c5ccc([nH]5)c(-c5cccc(S(=O)(=O)[O-])c5F)c5nc(c(-c6cccc(S(=O)(=O)[O-])c6F)c6ccc3[nH]6)C=C5)C=C4)cc2)c1
REMARK SMILES IDX 21 1 20 2 18 3 19 4 17 6 13 7 14 8 90 9 15 10 16 11 12 12
REMARK SMILES IDX 1 13 2 14 3 16 4 17 5 18 6 20 7 21 8 22 11 23 9 24 10 25
REMARK SMILES IDX 22 26 23 27 24 28 25 29 26 31 27 32 28 33 89 34 29 35 88 36
REMARK SMILES IDX 30 37 31 38 32 39 82 40 33 41 87 42 81 43 83 44 34 45 86 46
REMARK SMILES IDX 80 47 79 48 35 50 67 51 47 52 66 53 48 54 51 55 65 56 84 57
REMARK SMILES IDX 49 58 50 59 64 61 85 62 52 63 36 64 37 65 45 66 38 67 40 68
REMARK SMILES IDX 46 69 39 70 41 71 42 72 43 73 44 74 68 75 69 76 77 77 70 78
REMARK SMILES IDX 72 79 78 80 71 81 73 82 74 83 75 84 76 85 53 86 54 87 62 88
REMARK SMILES IDX 55 89 57 90 63 91 56 92 58 93 59 94 60 95 61 96
REMARK H PARENT 20 5 12 15 4 19 24 30 83 49 51 60
REMARK Flexibility Score: inf
ROOT
ATOM      1  C   UNL A   1      33.877  28.267  24.377  1.00  0.00     0.118 C 
ENDROOT
BRANCH   1   2
ATOM      2  N   UNL A   1      33.991  27.817  22.990  1.00  0.00    -0.352 N 
ATOM      3  C   UNL A   1      33.365  26.795  22.308  1.00  0.00     0.251 C 
ATOM      4  O   UNL A   1      33.661  26.586  21.133  1.00  0.00    -0.269 OA
ATOM      5  H   UNL A   1      34.628  28.335  22.447  1.00  0.00     0.163 HD
BRANCH   3   6
ATOM      6  C   UNL A   1      32.382  25.906  22.975  1.00  0.00     0.041 A 
ATOM      7  C   UNL A   1      31.721  23.681  23.657  1.00  0.00     0.042 A 
ATOM      8  C   UNL A   1      30.415  24.140  23.851  1.00  0.00     0.026 A 
ATOM      9  C   UNL A   1      32.717  24.606  23.349  1.00  0.00     0.040 A 
ATOM     10  C   UNL A   1      30.102  25.490  23.650  1.00  0.00     0.003 A 
ATOM     11  C   UNL A   1      31.078  26.367  23.175  1.00  0.00     0.014 A 
BRANCH   7  12
ATOM     12  N   UNL A   1      31.943  22.285  23.615  1.00  0.00    -0.325 N 
ATOM     13  O   UNL A   1      32.068  21.753  25.886  1.00  0.00    -0.273 OA
ATOM     14  C   UNL A   1      32.230  21.468  24.702  1.00  0.00     0.243 C 
ATOM     15  H   UNL A   1      31.888  21.851  22.733  1.00  0.00     0.169 HD
BRANCH  14  16
ATOM     16  C   UNL A   1      33.042  20.225  24.328  1.00  0.00     0.216 C 
BRANCH  16  17
ATOM     17  N   UNL A   1      32.435  19.442  23.268  1.00  0.00    -0.340 N 
ATOM     18  C   UNL A   1      32.614  18.111  22.957  1.00  0.00     0.287 C 
ATOM     19  H   UNL A   1      31.807  19.931  22.688  1.00  0.00     0.164 HD
ATOM     20  O   UNL A   1      32.087  17.725  21.917  1.00  0.00    -0.266 OA
BRANCH  18  21
ATOM     21  C   UNL A   1      33.410  17.272  23.828  1.00  0.00     0.191 A 
ATOM     22  C   UNL A   1      34.751  17.253  24.171  1.00  0.00     0.056 A 
ATOM     23  O   UNL A   1      32.761  16.274  24.507  1.00  0.00    -0.459 OA
ATOM     24  C   UNL A   1      34.931  16.170  25.067  1.00  0.00     0.043 A 
ATOM     25  C   UNL A   1      33.691  15.606  25.237  1.00  0.00     0.196 A 
ENDBRANCH  18  21
ENDBRANCH  16  17
ENDBRANCH  14  16
ENDBRANCH   7  12
ENDBRANCH   3   6
ENDBRANCH   1   2
BRANCH   1  26
ATOM     26  C   UNL A   1      32.784  29.299  24.613  1.00  0.00     0.042 C 
BRANCH  26  27
ATOM     27  C   UNL A   1      32.431  29.538  26.072  1.00  0.00     0.118 C 
BRANCH  27  28
ATOM     28  N   UNL A   1      32.179  30.941  26.380  1.00  0.00    -0.352 N 
ATOM     29  C   UNL A   1      32.877  31.844  27.150  1.00  0.00     0.251 C 
ATOM     30  H   UNL A   1      31.366  31.308  25.965  1.00  0.00     0.163 HD
ATOM     31  O   UNL A   1      32.374  32.943  27.381  1.00  0.00    -0.269 OA
BRANCH  29  32
ATOM     32  C   UNL A   1      34.202  31.513  27.726  1.00  0.00     0.039 A 
ATOM     33  C   UNL A   1      35.137  32.540  27.902  1.00  0.00     0.014 A 
ATOM     34  C   UNL A   1      34.550  30.205  28.059  1.00  0.00     0.014 A 
ATOM     35  C   UNL A   1      36.379  32.267  28.491  1.00  0.00     0.010 A 
ATOM     36  C   UNL A   1      35.742  29.950  28.732  1.00  0.00     0.010 A 
ATOM     37  C   UNL A   1      36.673  30.976  28.954  1.00  0.00    -0.014 A 
BRANCH  37  38
ATOM     38  C   UNL A   1      37.935  30.660  29.676  1.00  0.00     0.031 A 
ATOM     39  C   UNL A   1      38.921  29.690  29.083  1.00  0.00     0.074 A 
ATOM     40  C   UNL A   1      38.131  31.141  30.921  1.00  0.00     0.049 A 
ATOM     41  N   UNL A   1      39.989  29.162  29.624  1.00  0.00    -0.248 NA
ATOM     42  C   UNL A   1      38.651  29.221  27.713  1.00  0.00     0.031 C 
ATOM     43  C   UNL A   1      37.215  32.028  31.642  1.00  0.00     0.029 A 
ATOM     44  N   UNL A   1      39.148  30.918  31.818  1.00  0.00    -0.354 N 
ATOM     45  C   UNL A   1      40.482  28.259  28.688  1.00  0.00     0.074 A 
ATOM     46  C   UNL A   1      39.585  28.293  27.554  1.00  0.00     0.031 C 
ATOM     47  C   UNL A   1      37.709  32.271  32.866  1.00  0.00     0.029 A 
ATOM     48  C   UNL A   1      38.956  31.531  33.035  1.00  0.00     0.049 A 
ATOM     49  H   UNL A   1      39.940  30.372  31.609  1.00  0.00     0.167 HD
ATOM     50  C   UNL A   1      41.596  27.493  28.752  1.00  0.00     0.034 A 
ATOM     51  C   UNL A   1      39.691  31.493  34.165  1.00  0.00     0.034 A 
ATOM     52  C   UNL A   1      42.531  27.521  29.845  1.00  0.00     0.049 A 
ATOM     53  C   UNL A   1      40.965  30.692  34.181  1.00  0.00     0.074 A 
ATOM     54  C   UNL A   1      43.743  26.863  29.956  1.00  0.00     0.029 A 
ATOM     55  N   UNL A   1      42.363  28.254  31.009  1.00  0.00    -0.354 N 
ATOM     56  N   UNL A   1      41.492  29.964  33.227  1.00  0.00    -0.248 NA
ATOM     57  C   UNL A   1      41.765  30.735  35.414  1.00  0.00     0.031 C 
ATOM     58  C   UNL A   1      44.308  27.198  31.192  1.00  0.00     0.029 A 
ATOM     59  C   UNL A   1      43.450  28.068  31.844  1.00  0.00     0.049 A 
ATOM     60  H   UNL A   1      41.585  28.823  31.211  1.00  0.00     0.167 HD
ATOM     61  C   UNL A   1      42.699  29.491  33.730  1.00  0.00     0.074 A 
ATOM     62  C   UNL A   1      42.834  30.031  35.068  1.00  0.00     0.031 C 
ATOM     63  C   UNL A   1      43.603  28.668  33.145  1.00  0.00     0.034 A 
BRANCH  50  64
ATOM     64  C   UNL A   1      41.908  26.611  27.572  1.00  0.00     0.023 A 
ATOM     65  C   UNL A   1      42.593  27.154  26.466  1.00  0.00     0.012 A 
ATOM     66  C   UNL A   1      41.577  25.242  27.576  1.00  0.00     0.148 A 
ATOM     67  C   UNL A   1      42.912  26.358  25.368  1.00  0.00     0.002 A 
ATOM     68  C   UNL A   1      41.935  24.445  26.494  1.00  0.00     0.091 A 
ATOM     69  F   UNL A   1      40.906  24.746  28.626  1.00  0.00    -0.205 F 
ATOM     70  C   UNL A   1      42.593  25.003  25.386  1.00  0.00     0.022 A 
BRANCH  68  71
ATOM     71  S   UNL A   1      41.634  22.674  26.459  1.00  0.00     0.127 S 
ATOM     72  O   UNL A   1      42.206  22.253  27.738  1.00  0.00    -0.237 OA
ATOM     73  O   UNL A   1      40.174  22.606  26.393  1.00  0.00    -0.237 OA
ATOM     74  O   UNL A   1      42.316  22.179  25.272  1.00  0.00    -0.744 OA
ENDBRANCH  68  71
ENDBRANCH  50  64
BRANCH  51  75
ATOM     75  C   UNL A   1      39.276  32.304  35.345  1.00  0.00     0.023 A 
ATOM     76  C   UNL A   1      38.445  31.718  36.319  1.00  0.00     0.012 A 
ATOM     77  C   UNL A   1      39.735  33.621  35.537  1.00  0.00     0.148 A 
ATOM     78  C   UNL A   1      38.057  32.437  37.451  1.00  0.00     0.002 A 
ATOM     79  C   UNL A   1      39.394  34.311  36.697  1.00  0.00     0.091 A 
ATOM     80  F   UNL A   1      40.515  34.168  34.594  1.00  0.00    -0.205 F 
ATOM     81  C   UNL A   1      38.540  33.728  37.645  1.00  0.00     0.022 A 
BRANCH  79  82
ATOM     82  S   UNL A   1      40.094  35.915  37.102  1.00  0.00     0.127 S 
ATOM     83  O   UNL A   1      41.515  35.601  37.225  1.00  0.00    -0.237 OA
ATOM     84  O   UNL A   1      39.735  36.712  35.928  1.00  0.00    -0.237 OA
ATOM     85  O   UNL A   1      39.427  36.337  38.327  1.00  0.00    -0.744 OA
ENDBRANCH  79  82
ENDBRANCH  51  75
BRANCH  63  86
ATOM     86  C   UNL A   1      44.843  28.321  33.924  1.00  0.00     0.023 A 
ATOM     87  C   UNL A   1      45.989  29.129  33.803  1.00  0.00     0.012 A 
ATOM     88  C   UNL A   1      44.839  27.256  34.847  1.00  0.00     0.148 A 
ATOM     89  C   UNL A   1      47.122  28.871  34.572  1.00  0.00     0.002 A 
ATOM     90  C   UNL A   1      45.958  27.030  35.640  1.00  0.00     0.091 A 
ATOM     91  F   UNL A   1      43.745  26.486  34.932  1.00  0.00    -0.205 F 
ATOM     92  C   UNL A   1      47.102  27.831  35.499  1.00  0.00     0.022 A 
BRANCH  90  93
ATOM     93  S   UNL A   1      45.985  25.770  36.921  1.00  0.00     0.127 S 
ATOM     94  O   UNL A   1      45.822  24.545  36.139  1.00  0.00    -0.237 OA
ATOM     95  O   UNL A   1      47.315  25.947  37.507  1.00  0.00    -0.237 OA
ATOM     96  O   UNL A   1      44.886  26.093  37.820  1.00  0.00    -0.744 OA
ENDBRANCH  90  93
ENDBRANCH  63  86
ENDBRANCH  37  38
ENDBRANCH  29  32
ENDBRANCH  27  28
ENDBRANCH  26  27
ENDBRANCH   1  26
TORSDOF 17
ENDMDL
MODEL 3
REMARK VINA RESULT:     -11.7      5.917      9.417
REMARK SMILES O=C(CNC(=O)c1ccco1)Nc1cccc(C(=O)NCCCNC(=O)c2ccc(-c3c4nc(c(-c5cccc(S(=O)(=O)[O-])c5F)c5ccc([nH]5)c(-c5cccc(S(=O)(=O)[O-])c5F)c5nc(c(-c6cccc(S(=O)(=O)[O-])c6F)c6ccc3[nH]6)C=C5)C=C4)cc2)c1
REMARK SMILES IDX 21 1 20 2 18 3 19 4 17 6 13 7 14 8 90 9 15 10 16 11 12 12
REMARK SMILES IDX 1 13 2 14 3 16 4 17 5 18 6 20 7 21 8 22 11 23 9 24 10 25
REMARK SMILES IDX 22 26 23 27 24 28 25 29 26 31 27 32 28 33 89 34 29 35 88 36
REMARK SMILES IDX 30 37 31 38 32 39 82 40 33 41 87 42 81 43 83 44 34 45 86 46
REMARK SMILES IDX 80 47 79 48 35 50 67 51 47 52 66 53 48 54 51 55 65 56 84 57
REMARK SMILES IDX 49 58 50 59 64 61 85 62 52 63 36 64 37 65 45 66 38 67 40 68
REMARK SMILES IDX 46 69 39 70 41 71 42 72 43 73 44 74 68 75 69 76 77 77 70 78
REMARK SMILES IDX 72 79 78 80 71 81 73 82 74 83 75 84 76 85 53 86 54 87 62 88
REMARK SMILES IDX 55 89 57 90 63 91 56 92 58 93 59 94 60 95 61 96
REMARK H PARENT 20 5 12 15 4 19 24 30 83 49 51 60
REMARK Flexibility Score: inf
ROOT
ATOM      1  C   UNL A   1      37.247  21.210  24.615  1.00  0.00     0.118 C 
ENDROOT
BRANCH   1   2
ATOM      2  N   UNL A   1      36.512  21.790  25.739  1.00  0.00    -0.352 N 
ATOM      3  C   UNL A   1      35.178  22.106  25.890  1.00  0.00     0.251 C 
ATOM      4  O   UNL A   1      34.799  22.630  26.937  1.00  0.00    -0.269 OA
ATOM      5  H   UNL A   1      37.068  21.992  26.526  1.00  0.00     0.163 HD
BRANCH   3   6
ATOM      6  C   UNL A   1      34.199  21.879  24.799  1.00  0.00     0.041 A 
ATOM      7  C   UNL A   1      32.645  22.785  23.181  1.00  0.00     0.042 A 
ATOM      8  C   UNL A   1      32.075  21.516  23.035  1.00  0.00     0.026 A 
ATOM      9  C   UNL A   1      33.789  22.918  23.965  1.00  0.00     0.040 A 
ATOM     10  C   UNL A   1      32.595  20.421  23.736  1.00  0.00     0.003 A 
ATOM     11  C   UNL A   1      33.634  20.610  24.648  1.00  0.00     0.014 A 
BRANCH   7  12
ATOM     12  N   UNL A   1      31.941  23.899  22.669  1.00  0.00    -0.325 N 
ATOM     13  O   UNL A   1      33.348  24.597  20.939  1.00  0.00    -0.273 OA
ATOM     14  C   UNL A   1      32.402  24.783  21.700  1.00  0.00     0.243 C 
ATOM     15  H   UNL A   1      31.042  24.064  23.032  1.00  0.00     0.169 HD
BRANCH  14  16
ATOM     16  C   UNL A   1      31.788  26.181  21.815  1.00  0.00     0.216 C 
BRANCH  16  17
ATOM     17  N   UNL A   1      32.773  27.223  22.039  1.00  0.00    -0.340 N 
ATOM     18  C   UNL A   1      33.245  27.733  23.229  1.00  0.00     0.287 C 
ATOM     19  H   UNL A   1      33.157  27.623  21.226  1.00  0.00     0.164 HD
ATOM     20  O   UNL A   1      33.977  28.715  23.142  1.00  0.00    -0.266 OA
BRANCH  18  21
ATOM     21  C   UNL A   1      32.845  27.122  24.479  1.00  0.00     0.191 A 
ATOM     22  C   UNL A   1      33.404  26.146  25.287  1.00  0.00     0.056 A 
ATOM     23  O   UNL A   1      31.685  27.569  25.057  1.00  0.00    -0.459 OA
ATOM     24  C   UNL A   1      32.524  25.964  26.381  1.00  0.00     0.043 A 
ATOM     25  C   UNL A   1      31.493  26.852  26.194  1.00  0.00     0.196 A 
ENDBRANCH  18  21
ENDBRANCH  16  17
ENDBRANCH  14  16
ENDBRANCH   7  12
ENDBRANCH   3   6
ENDBRANCH   1   2
BRANCH   1  26
ATOM     26  C   UNL A   1      38.124  20.023  24.987  1.00  0.00     0.042 C 
BRANCH  26  27
ATOM     27  C   UNL A   1      39.251  20.336  25.958  1.00  0.00     0.118 C 
BRANCH  27  28
ATOM     28  N   UNL A   1      40.293  19.316  25.979  1.00  0.00    -0.352 N 
ATOM     29  C   UNL A   1      41.659  19.411  26.110  1.00  0.00     0.251 C 
ATOM     30  H   UNL A   1      39.959  18.395  25.882  1.00  0.00     0.163 HD
ATOM     31  O   UNL A   1      42.345  18.404  25.944  1.00  0.00    -0.269 OA
BRANCH  29  32
ATOM     32  C   UNL A   1      42.321  20.701  26.418  1.00  0.00     0.039 A 
ATOM     33  C   UNL A   1      42.671  21.551  25.362  1.00  0.00     0.014 A 
ATOM     34  C   UNL A   1      42.636  21.069  27.726  1.00  0.00     0.014 A 
ATOM     35  C   UNL A   1      43.251  22.798  25.625  1.00  0.00     0.010 A 
ATOM     36  C   UNL A   1      43.122  22.346  27.994  1.00  0.00     0.010 A 
ATOM     37  C   UNL A   1      43.439  23.226  26.948  1.00  0.00    -0.014 A 
BRANCH  37  38
ATOM     38  C   UNL A   1      43.956  24.581  27.278  1.00  0.00     0.031 A 
ATOM     39  C   UNL A   1      43.021  25.638  27.804  1.00  0.00     0.074 A 
ATOM     40  C   UNL A   1      45.233  24.900  26.983  1.00  0.00     0.049 A 
ATOM     41  N   UNL A   1      43.239  26.914  27.994  1.00  0.00    -0.248 NA
ATOM     42  C   UNL A   1      41.647  25.213  28.121  1.00  0.00     0.031 C 
ATOM     43  C   UNL A   1      46.221  23.991  26.398  1.00  0.00     0.029 A 
ATOM     44  N   UNL A   1      45.908  26.092  27.097  1.00  0.00    -0.354 N 
ATOM     45  C   UNL A   1      42.021  27.451  28.395  1.00  0.00     0.074 A 
ATOM     46  C   UNL A   1      41.062  26.369  28.399  1.00  0.00     0.031 C 
ATOM     47  C   UNL A   1      47.370  24.656  26.203  1.00  0.00     0.029 A 
ATOM     48  C   UNL A   1      47.195  26.046  26.612  1.00  0.00     0.049 A 
ATOM     49  H   UNL A   1      45.509  26.902  27.489  1.00  0.00     0.167 HD
ATOM     50  C   UNL A   1      41.732  28.724  28.756  1.00  0.00     0.034 A 
ATOM     51  C   UNL A   1      48.127  27.014  26.497  1.00  0.00     0.034 A 
ATOM     52  C   UNL A   1      42.704  29.781  28.831  1.00  0.00     0.049 A 
ATOM     53  C   UNL A   1      47.801  28.403  26.977  1.00  0.00     0.074 A 
ATOM     54  C   UNL A   1      42.533  31.076  29.287  1.00  0.00     0.029 A 
ATOM     55  N   UNL A   1      44.031  29.660  28.450  1.00  0.00    -0.354 N 
ATOM     56  N   UNL A   1      46.685  28.854  27.496  1.00  0.00    -0.248 NA
ATOM     57  C   UNL A   1      48.871  29.407  26.891  1.00  0.00     0.031 C 
ATOM     58  C   UNL A   1      43.760  31.741  29.180  1.00  0.00     0.029 A 
ATOM     59  C   UNL A   1      44.693  30.857  28.663  1.00  0.00     0.049 A 
ATOM     60  H   UNL A   1      44.442  28.844  28.082  1.00  0.00     0.167 HD
ATOM     61  C   UNL A   1      46.928  30.181  27.829  1.00  0.00     0.074 A 
ATOM     62  C   UNL A   1      48.305  30.457  27.471  1.00  0.00     0.031 C 
ATOM     63  C   UNL A   1      46.082  31.095  28.366  1.00  0.00     0.034 A 
BRANCH  50  64
ATOM     64  C   UNL A   1      40.317  29.029  29.172  1.00  0.00     0.023 A 
ATOM     65  C   UNL A   1      39.371  29.385  28.189  1.00  0.00     0.012 A 
ATOM     66  C   UNL A   1      39.908  28.910  30.514  1.00  0.00     0.148 A 
ATOM     67  C   UNL A   1      38.049  29.655  28.541  1.00  0.00     0.002 A 
ATOM     68  C   UNL A   1      38.578  29.140  30.851  1.00  0.00     0.091 A 
ATOM     69  F   UNL A   1      40.825  28.591  31.439  1.00  0.00    -0.205 F 
ATOM     70  C   UNL A   1      37.650  29.521  29.868  1.00  0.00     0.022 A 
BRANCH  68  71
ATOM     71  S   UNL A   1      37.955  28.920  32.522  1.00  0.00     0.127 S 
ATOM     72  O   UNL A   1      38.841  29.798  33.285  1.00  0.00    -0.237 OA
ATOM     73  O   UNL A   1      36.576  29.398  32.406  1.00  0.00    -0.237 OA
ATOM     74  O   UNL A   1      38.079  27.498  32.807  1.00  0.00    -0.744 OA
ENDBRANCH  68  71
ENDBRANCH  50  64
BRANCH  51  75
ATOM     75  C   UNL A   1      49.482  26.677  25.975  1.00  0.00     0.023 A 
ATOM     76  C   UNL A   1      50.334  25.871  26.754  1.00  0.00     0.012 A 
ATOM     77  C   UNL A   1      49.912  27.099  24.702  1.00  0.00     0.148 A 
ATOM     78  C   UNL A   1      51.600  25.514  26.288  1.00  0.00     0.002 A 
ATOM     79  C   UNL A   1      51.151  26.689  24.218  1.00  0.00     0.091 A 
ATOM     80  F   UNL A   1      49.094  27.876  23.978  1.00  0.00    -0.205 F 
ATOM     81  C   UNL A   1      52.003  25.912  25.017  1.00  0.00     0.022 A 
BRANCH  79  82
ATOM     82  S   UNL A   1      51.685  27.025  22.536  1.00  0.00     0.127 S 
ATOM     83  O   UNL A   1      51.988  28.451  22.595  1.00  0.00    -0.237 OA
ATOM     84  O   UNL A   1      52.850  26.148  22.404  1.00  0.00    -0.237 OA
ATOM     85  O   UNL A   1      50.564  26.646  21.686  1.00  0.00    -0.744 OA
ENDBRANCH  79  82
ENDBRANCH  51  75
BRANCH  63  86
ATOM     86  C   UNL A   1      46.620  32.474  28.635  1.00  0.00     0.023 A 
ATOM     87  C   UNL A   1      47.152  32.777  29.903  1.00  0.00     0.012 A 
ATOM     88  C   UNL A   1      46.685  33.436  27.607  1.00  0.00     0.148 A 
ATOM     89  C   UNL A   1      47.724  34.023  30.151  1.00  0.00     0.002 A 
ATOM     90  C   UNL A   1      47.294  34.661  27.850  1.00  0.00     0.091 A 
ATOM     91  F   UNL A   1      46.154  33.135  26.413  1.00  0.00    -0.205 F 
ATOM     92  C   UNL A   1      47.807  34.960  29.122  1.00  0.00     0.022 A 
BRANCH  90  93
ATOM     93  S   UNL A   1      47.523  35.890  26.558  1.00  0.00     0.127 S 
ATOM     94  O   UNL A   1      48.142  35.096  25.498  1.00  0.00    -0.237 OA
ATOM     95  O   UNL A   1      46.150  36.314  26.281  1.00  0.00    -0.237 OA
ATOM     96  O   UNL A   1      48.365  36.926  27.141  1.00  0.00    -0.744 OA
ENDBRANCH  90  93
ENDBRANCH  63  86
ENDBRANCH  37  38
ENDBRANCH  29  32
ENDBRANCH  27  28
ENDBRANCH  26  27
ENDBRANCH   1  26
TORSDOF 17
ENDMDL
