MODEL 1
REMARK VINA RESULT:     -13.2      0.000      0.000
REMARK SMILES O=C(NCCCNC(=O)c1ccc(-c2c3nc(c(-c4cccc(S(=O)(=O)[O-])c4F)c4ccc([nH]4)c(-c4cccc(S(=O)(=O)[O-])c4F)c4nc(c(-c5cccc(S(=O)(=O)[O-])c5F)c5ccc2[nH]5)C=C4)C=C3)cc1)C1=Cc2cc(S(F)(F)(F)(F)F)ccc2O[C@H]1C(F)(F)F
REMARK SMILES IDX 6 1 5 2 4 3 3 4 1 5 2 6 73 8 74 9 88 10 75 11 87 12 76 13
REMARK SMILES IDX 86 14 77 15 85 16 84 17 89 18 90 19 91 20 92 21 78 22 79 23
REMARK SMILES IDX 80 24 81 25 82 26 83 27 7 28 8 29 9 31 10 32 11 33 72 34
REMARK SMILES IDX 12 35 71 36 13 37 14 38 15 39 65 40 16 41 70 42 64 43 66 44
REMARK SMILES IDX 17 45 69 46 63 47 62 48 18 50 50 51 30 52 49 53 31 54 34 55
REMARK SMILES IDX 48 56 67 57 32 58 33 59 47 61 68 62 35 63 19 64 20 65 28 66
REMARK SMILES IDX 21 67 23 68 29 69 22 70 24 71 25 72 26 73 27 74 51 75 52 76
REMARK SMILES IDX 60 77 53 78 55 79 61 80 54 81 56 82 57 83 58 84 59 85 36 86
REMARK SMILES IDX 37 87 45 88 38 89 40 90 46 91 39 92 41 93 42 94 43 95 44 96
REMARK H PARENT 3 7 7 30 66 49 34 60
REMARK Flexibility Score: inf
ROOT
ATOM      1  C   UNL A   1      34.092  28.420  26.622  1.00  0.00     0.118 C 
ENDROOT
BRANCH   1   2
ATOM      2  C   UNL A   1      33.714  28.005  25.209  1.00  0.00     0.042 C 
BRANCH   2   3
ATOM      3  C   UNL A   1      33.438  26.511  25.176  1.00  0.00     0.118 C 
BRANCH   3   4
ATOM      4  N   UNL A   1      32.470  26.169  26.228  1.00  0.00    -0.352 N 
ATOM      5  O   UNL A   1      30.521  24.956  26.843  1.00  0.00    -0.270 OA
ATOM      6  C   UNL A   1      31.358  25.252  25.934  1.00  0.00     0.251 C 
ATOM      7  H   UNL A   1      32.565  26.554  27.129  1.00  0.00     0.163 HD
BRANCH   6   8
ATOM      8  C   UNL A   1      31.211  24.657  24.543  1.00  0.00     0.067 C 
ATOM      9  C   UNL A   1      31.952  23.575  24.184  1.00  0.00     0.025 C 
ATOM     10  C   UNL A   1      30.236  25.273  23.552  1.00  0.00     0.314 C 
ATOM     11  C   UNL A   1      32.927  22.959  25.175  1.00  0.00     0.019 A 
ATOM     12  O   UNL A   1      31.189  23.280  26.763  1.00  0.00    -0.475 OA
ATOM     13  C   UNL A   1      34.231  22.636  24.836  1.00  0.00     0.036 A 
ATOM     14  C   UNL A   1      32.474  22.791  26.412  1.00  0.00     0.128 A 
ATOM     15  C   UNL A   1      34.902  21.864  25.814  1.00  0.00     0.107 A 
ATOM     16  C   UNL A   1      33.239  22.148  27.355  1.00  0.00     0.048 A 
ATOM     17  C   UNL A   1      34.515  21.747  27.072  1.00  0.00     0.028 A 
BRANCH  10  18
ATOM     18  C   UNL A   1      29.540  26.460  24.198  1.00  0.00     0.429 C 
ATOM     19  F   UNL A   1      28.779  26.965  23.231  1.00  0.00    -0.167 F 
ATOM     20  F   UNL A   1      28.768  26.054  25.202  1.00  0.00    -0.167 F 
ATOM     21  F   UNL A   1      30.380  27.394  24.635  1.00  0.00    -0.167 F 
ENDBRANCH  10  18
BRANCH  15  22
ATOM     22  S   UNL A   1      36.395  20.975  25.306  1.00  0.00     0.310 S 
ATOM     23  F   UNL A   1      36.421  21.696  23.893  1.00  0.00    -0.094 F 
ATOM     24  F   UNL A   1      35.481  19.873  24.649  1.00  0.00    -0.094 F 
ATOM     25  F   UNL A   1      37.677  20.211  24.872  1.00  0.00    -0.094 F 
ATOM     26  F   UNL A   1      37.292  22.157  25.845  1.00  0.00    -0.094 F 
ATOM     27  F   UNL A   1      35.102  21.818  25.653  1.00  0.00    -0.094 F 
ENDBRANCH  15  22
ENDBRANCH   6   8
ENDBRANCH   3   4
ENDBRANCH   2   3
ENDBRANCH   1   2
BRANCH   1  28
ATOM     28  N   UNL A   1      33.697  29.818  26.844  1.00  0.00    -0.352 N 
ATOM     29  C   UNL A   1      34.597  30.730  27.566  1.00  0.00     0.251 C 
ATOM     30  H   UNL A   1      32.831  30.144  26.509  1.00  0.00     0.163 HD
ATOM     31  O   UNL A   1      34.257  31.939  27.757  1.00  0.00    -0.269 OA
BRANCH  29  32
ATOM     32  C   UNL A   1      35.935  30.226  28.082  1.00  0.00     0.039 A 
ATOM     33  C   UNL A   1      37.065  30.377  27.297  1.00  0.00     0.014 A 
ATOM     34  C   UNL A   1      36.001  29.661  29.283  1.00  0.00     0.014 A 
ATOM     35  C   UNL A   1      38.181  29.635  27.749  1.00  0.00     0.010 A 
ATOM     36  C   UNL A   1      37.165  29.073  29.716  1.00  0.00     0.010 A 
ATOM     37  C   UNL A   1      38.305  29.133  28.964  1.00  0.00    -0.014 A 
BRANCH  37  38
ATOM     38  C   UNL A   1      39.643  28.648  29.498  1.00  0.00     0.031 A 
ATOM     39  C   UNL A   1      40.147  27.442  29.010  1.00  0.00     0.074 A 
ATOM     40  C   UNL A   1      40.277  29.421  30.456  1.00  0.00     0.049 A 
ATOM     41  N   UNL A   1      41.299  26.850  29.334  1.00  0.00    -0.248 NA
ATOM     42  C   UNL A   1      39.458  26.601  28.019  1.00  0.00     0.031 C 
ATOM     43  C   UNL A   1      39.780  30.644  30.947  1.00  0.00     0.029 A 
ATOM     44  N   UNL A   1      41.470  29.165  31.095  1.00  0.00    -0.354 N 
ATOM     45  C   UNL A   1      41.444  25.717  28.644  1.00  0.00     0.074 A 
ATOM     46  C   UNL A   1      40.260  25.537  27.793  1.00  0.00     0.031 C 
ATOM     47  C   UNL A   1      40.654  31.111  31.876  1.00  0.00     0.029 A 
ATOM     48  C   UNL A   1      41.712  30.191  31.981  1.00  0.00     0.049 A 
ATOM     49  H   UNL A   1      42.050  28.383  30.943  1.00  0.00     0.167 HD
ATOM     50  C   UNL A   1      42.518  24.827  28.690  1.00  0.00     0.034 A 
ATOM     51  C   UNL A   1      42.789  30.331  32.843  1.00  0.00     0.034 A 
ATOM     52  C   UNL A   1      43.617  24.991  29.520  1.00  0.00     0.049 A 
ATOM     53  C   UNL A   1      43.836  29.411  32.932  1.00  0.00     0.074 A 
ATOM     54  C   UNL A   1      44.712  24.107  29.573  1.00  0.00     0.029 A 
ATOM     55  N   UNL A   1      43.846  26.003  30.425  1.00  0.00    -0.354 N 
ATOM     56  N   UNL A   1      44.001  28.298  32.214  1.00  0.00    -0.248 NA
ATOM     57  C   UNL A   1      44.965  29.533  33.862  1.00  0.00     0.031 C 
ATOM     58  C   UNL A   1      45.586  24.575  30.503  1.00  0.00     0.029 A 
ATOM     59  C   UNL A   1      45.050  25.759  31.048  1.00  0.00     0.049 A 
ATOM     60  H   UNL A   1      43.252  26.770  30.597  1.00  0.00     0.167 HD
ATOM     61  C   UNL A   1      45.133  27.687  32.568  1.00  0.00     0.074 A 
ATOM     62  C   UNL A   1      45.766  28.468  33.639  1.00  0.00     0.031 C 
ATOM     63  C   UNL A   1      45.665  26.510  32.037  1.00  0.00     0.034 A 
BRANCH  50  64
ATOM     64  C   UNL A   1      42.483  23.612  27.778  1.00  0.00     0.023 A 
ATOM     65  C   UNL A   1      41.516  22.650  28.015  1.00  0.00     0.012 A 
ATOM     66  C   UNL A   1      43.349  23.487  26.780  1.00  0.00     0.148 A 
ATOM     67  C   UNL A   1      41.728  21.439  27.314  1.00  0.00     0.002 A 
ATOM     68  C   UNL A   1      43.410  22.326  26.047  1.00  0.00     0.091 A 
ATOM     69  F   UNL A   1      44.166  24.495  26.485  1.00  0.00    -0.205 F 
ATOM     70  C   UNL A   1      42.524  21.309  26.267  1.00  0.00     0.022 A 
BRANCH  68  71
ATOM     71  S   UNL A   1      44.682  22.140  24.774  1.00  0.00     0.127 S 
ATOM     72  O   UNL A   1      44.440  20.846  23.994  1.00  0.00    -0.237 OA
ATOM     73  O   UNL A   1      44.622  23.332  23.815  1.00  0.00    -0.237 OA
ATOM     74  O   UNL A   1      46.224  22.081  25.512  1.00  0.00    -0.744 OA
ENDBRANCH  68  71
ENDBRANCH  50  64
BRANCH  51  75
ATOM     75  C   UNL A   1      42.832  31.555  33.743  1.00  0.00     0.023 A 
ATOM     76  C   UNL A   1      43.459  32.696  33.268  1.00  0.00     0.012 A 
ATOM     77  C   UNL A   1      42.298  31.519  34.958  1.00  0.00     0.148 A 
ATOM     78  C   UNL A   1      43.727  33.661  34.266  1.00  0.00     0.002 A 
ATOM     79  C   UNL A   1      42.486  32.559  35.836  1.00  0.00     0.091 A 
ATOM     80  F   UNL A   1      41.574  30.467  35.328  1.00  0.00    -0.205 F 
ATOM     81  C   UNL A   1      43.148  33.692  35.452  1.00  0.00     0.022 A 
BRANCH  79  82
ATOM     82  S   UNL A   1      41.849  32.426  37.525  1.00  0.00     0.127 S 
ATOM     83  O   UNL A   1      42.091  33.743  38.266  1.00  0.00    -0.237 OA
ATOM     84  O   UNL A   1      40.348  32.133  37.482  1.00  0.00    -0.237 OA
ATOM     85  O   UNL A   1      42.655  31.158  38.341  1.00  0.00    -0.744 OA
ENDBRANCH  79  82
ENDBRANCH  51  75
BRANCH  63  86
ATOM     86  C   UNL A   1      47.000  26.024  32.577  1.00  0.00     0.023 A 
ATOM     87  C   UNL A   1      48.172  26.525  32.035  1.00  0.00     0.012 A 
ATOM     88  C   UNL A   1      47.022  25.144  33.572  1.00  0.00     0.148 A 
ATOM     89  C   UNL A   1      49.333  25.814  32.422  1.00  0.00     0.002 A 
ATOM     90  C   UNL A   1      48.208  24.591  33.991  1.00  0.00     0.091 A 
ATOM     91  F   UNL A   1      45.886  24.797  34.170  1.00  0.00    -0.205 F 
ATOM     92  C   UNL A   1      49.400  24.996  33.457  1.00  0.00     0.022 A 
BRANCH  90  93
ATOM     93  S   UNL A   1      48.193  23.306  35.265  1.00  0.00     0.127 S 
ATOM     94  O   UNL A   1      49.614  22.781  35.479  1.00  0.00    -0.237 OA
ATOM     95  O   UNL A   1      47.663  23.894  36.575  1.00  0.00    -0.237 OA
ATOM     96  O   UNL A   1      47.179  22.022  34.766  1.00  0.00    -0.744 OA
ENDBRANCH  90  93
ENDBRANCH  63  86
ENDBRANCH  37  38
ENDBRANCH  29  32
ENDBRANCH   1  28
TORSDOF 15
ENDMDL
MODEL 2
REMARK VINA RESULT:     -13.1      2.286      7.800
REMARK SMILES O=C(NCCCNC(=O)c1ccc(-c2c3nc(c(-c4cccc(S(=O)(=O)[O-])c4F)c4ccc([nH]4)c(-c4cccc(S(=O)(=O)[O-])c4F)c4nc(c(-c5cccc(S(=O)(=O)[O-])c5F)c5ccc2[nH]5)C=C4)C=C3)cc1)C1=Cc2cc(S(F)(F)(F)(F)F)ccc2O[C@H]1C(F)(F)F
REMARK SMILES IDX 6 1 5 2 4 3 3 4 1 5 2 6 73 8 74 9 88 10 75 11 87 12 76 13
REMARK SMILES IDX 86 14 77 15 85 16 84 17 89 18 90 19 91 20 92 21 78 22 79 23
REMARK SMILES IDX 80 24 81 25 82 26 83 27 7 28 8 29 9 31 10 32 11 33 72 34
REMARK SMILES IDX 12 35 71 36 13 37 14 38 15 39 65 40 16 41 70 42 64 43 66 44
REMARK SMILES IDX 17 45 69 46 63 47 62 48 18 50 50 51 30 52 49 53 31 54 34 55
REMARK SMILES IDX 48 56 67 57 32 58 33 59 47 61 68 62 35 63 19 64 20 65 28 66
REMARK SMILES IDX 21 67 23 68 29 69 22 70 24 71 25 72 26 73 27 74 51 75 52 76
REMARK SMILES IDX 60 77 53 78 55 79 61 80 54 81 56 82 57 83 58 84 59 85 36 86
REMARK SMILES IDX 37 87 45 88 38 89 40 90 46 91 39 92 41 93 42 94 43 95 44 96
REMARK H PARENT 3 7 7 30 66 49 34 60
REMARK Flexibility Score: inf
ROOT
ATOM      1  C   UNL A   1      33.659  29.039  24.834  1.00  0.00     0.118 C 
ENDROOT
BRANCH   1   2
ATOM      2  C   UNL A   1      32.938  27.877  24.170  1.00  0.00     0.042 C 
BRANCH   2   3
ATOM      3  C   UNL A   1      33.255  26.591  24.914  1.00  0.00     0.118 C 
BRANCH   3   4
ATOM      4  N   UNL A   1      32.283  26.401  26.000  1.00  0.00    -0.352 N 
ATOM      5  O   UNL A   1      30.279  25.361  26.740  1.00  0.00    -0.270 OA
ATOM      6  C   UNL A   1      31.120  25.525  25.801  1.00  0.00     0.251 C 
ATOM      7  H   UNL A   1      32.410  26.862  26.862  1.00  0.00     0.163 HD
BRANCH   6   8
ATOM      8  C   UNL A   1      30.923  24.814  24.472  1.00  0.00     0.067 C 
ATOM      9  C   UNL A   1      31.648  23.700  24.182  1.00  0.00     0.025 C 
ATOM     10  C   UNL A   1      29.915  25.347  23.466  1.00  0.00     0.314 C 
ATOM     11  C   UNL A   1      32.656  23.167  25.188  1.00  0.00     0.019 A 
ATOM     12  O   UNL A   1      30.974  23.632  26.801  1.00  0.00    -0.475 OA
ATOM     13  C   UNL A   1      33.946  22.808  24.834  1.00  0.00     0.036 A 
ATOM     14  C   UNL A   1      32.246  23.108  26.450  1.00  0.00     0.128 A 
ATOM     15  C   UNL A   1      34.649  22.120  25.851  1.00  0.00     0.107 A 
ATOM     16  C   UNL A   1      33.041  22.543  27.418  1.00  0.00     0.048 A 
ATOM     17  C   UNL A   1      34.306  22.113  27.126  1.00  0.00     0.028 A 
BRANCH  10  18
ATOM     18  C   UNL A   1      29.245  26.590  24.031  1.00  0.00     0.429 C 
ATOM     19  F   UNL A   1      28.527  26.141  25.057  1.00  0.00    -0.167 F 
ATOM     20  F   UNL A   1      30.161  27.448  24.473  1.00  0.00    -0.167 F 
ATOM     21  F   UNL A   1      28.446  27.202  23.163  1.00  0.00    -0.167 F 
ENDBRANCH  10  18
BRANCH  15  22
ATOM     22  S   UNL A   1      36.121  21.182  25.370  1.00  0.00     0.310 S 
ATOM     23  F   UNL A   1      36.103  21.783  23.902  1.00  0.00    -0.094 F 
ATOM     24  F   UNL A   1      35.182  20.035  24.837  1.00  0.00    -0.094 F 
ATOM     25  F   UNL A   1      37.385  20.377  24.959  1.00  0.00    -0.094 F 
ATOM     26  F   UNL A   1      37.040  22.400  25.779  1.00  0.00    -0.094 F 
ATOM     27  F   UNL A   1      34.844  22.059  25.688  1.00  0.00    -0.094 F 
ENDBRANCH  15  22
ENDBRANCH   6   8
ENDBRANCH   3   4
ENDBRANCH   2   3
ENDBRANCH   1   2
BRANCH   1  28
ATOM     28  N   UNL A   1      32.677  30.046  25.262  1.00  0.00    -0.352 N 
ATOM     29  C   UNL A   1      32.899  30.811  26.498  1.00  0.00     0.251 C 
ATOM     30  H   UNL A   1      31.871  30.207  24.721  1.00  0.00     0.163 HD
ATOM     31  O   UNL A   1      32.051  31.681  26.867  1.00  0.00    -0.269 OA
BRANCH  29  32
ATOM     32  C   UNL A   1      34.144  30.561  27.332  1.00  0.00     0.039 A 
ATOM     33  C   UNL A   1      34.986  31.621  27.629  1.00  0.00     0.014 A 
ATOM     34  C   UNL A   1      34.399  29.334  27.776  1.00  0.00     0.014 A 
ATOM     35  C   UNL A   1      36.235  31.228  28.164  1.00  0.00     0.010 A 
ATOM     36  C   UNL A   1      35.584  29.053  28.412  1.00  0.00     0.010 A 
ATOM     37  C   UNL A   1      36.488  30.041  28.683  1.00  0.00    -0.014 A 
BRANCH  37  38
ATOM     38  C   UNL A   1      37.718  29.787  29.539  1.00  0.00     0.031 A 
ATOM     39  C   UNL A   1      37.805  30.432  30.774  1.00  0.00     0.074 A 
ATOM     40  C   UNL A   1      38.695  28.944  29.037  1.00  0.00     0.049 A 
ATOM     41  N   UNL A   1      38.783  30.337  31.676  1.00  0.00    -0.248 NA
ATOM     42  C   UNL A   1      36.785  31.356  31.294  1.00  0.00     0.031 C 
ATOM     43  C   UNL A   1      38.612  28.282  27.796  1.00  0.00     0.029 A 
ATOM     44  N   UNL A   1      39.893  28.595  29.620  1.00  0.00    -0.354 N 
ATOM     45  C   UNL A   1      38.502  31.088  32.742  1.00  0.00     0.074 A 
ATOM     46  C   UNL A   1      37.216  31.759  32.510  1.00  0.00     0.031 C 
ATOM     47  C   UNL A   1      39.748  27.555  27.630  1.00  0.00     0.029 A 
ATOM     48  C   UNL A   1      40.560  27.750  28.762  1.00  0.00     0.049 A 
ATOM     49  H   UNL A   1      40.217  28.899  30.500  1.00  0.00     0.167 HD
ATOM     50  C   UNL A   1      39.267  31.239  33.900  1.00  0.00     0.034 A 
ATOM     51  C   UNL A   1      41.807  27.172  28.939  1.00  0.00     0.034 A 
ATOM     52  C   UNL A   1      40.495  30.626  34.096  1.00  0.00     0.049 A 
ATOM     53  C   UNL A   1      42.599  27.368  30.073  1.00  0.00     0.074 A 
ATOM     54  C   UNL A   1      41.275  30.762  35.260  1.00  0.00     0.029 A 
ATOM     55  N   UNL A   1      41.172  29.800  33.226  1.00  0.00    -0.354 N 
ATOM     56  N   UNL A   1      42.301  28.089  31.155  1.00  0.00    -0.248 NA
ATOM     57  C   UNL A   1      43.935  26.787  30.257  1.00  0.00     0.031 C 
ATOM     58  C   UNL A   1      42.412  30.034  35.093  1.00  0.00     0.029 A 
ATOM     59  C   UNL A   1      42.360  29.433  33.820  1.00  0.00     0.049 A 
ATOM     60  H   UNL A   1      40.861  29.519  32.335  1.00  0.00     0.167 HD
ATOM     61  C   UNL A   1      43.298  28.025  32.039  1.00  0.00     0.074 A 
ATOM     62  C   UNL A   1      44.367  27.193  31.471  1.00  0.00     0.031 C 
ATOM     63  C   UNL A   1      43.358  28.624  33.299  1.00  0.00     0.034 A 
BRANCH  50  64
ATOM     64  C   UNL A   1      38.723  32.125  35.009  1.00  0.00     0.023 A 
ATOM     65  C   UNL A   1      38.820  33.497  34.851  1.00  0.00     0.012 A 
ATOM     66  C   UNL A   1      38.163  31.594  36.089  1.00  0.00     0.148 A 
ATOM     67  C   UNL A   1      38.553  34.230  36.031  1.00  0.00     0.002 A 
ATOM     68  C   UNL A   1      37.803  32.387  37.152  1.00  0.00     0.091 A 
ATOM     69  F   UNL A   1      37.950  30.282  36.144  1.00  0.00    -0.205 F 
ATOM     70  C   UNL A   1      37.926  33.746  37.089  1.00  0.00     0.022 A 
BRANCH  68  71
ATOM     71  S   UNL A   1      37.156  31.619  38.658  1.00  0.00     0.127 S 
ATOM     72  O   UNL A   1      36.999  30.113  38.437  1.00  0.00    -0.237 OA
ATOM     73  O   UNL A   1      38.127  31.867  39.815  1.00  0.00    -0.237 OA
ATOM     74  O   UNL A   1      35.633  32.301  39.037  1.00  0.00    -0.744 OA
ENDBRANCH  68  71
ENDBRANCH  50  64
BRANCH  51  75
ATOM     75  C   UNL A   1      42.343  26.272  27.837  1.00  0.00     0.023 A 
ATOM     76  C   UNL A   1      43.192  26.827  26.893  1.00  0.00     0.012 A 
ATOM     77  C   UNL A   1      41.986  24.995  27.775  1.00  0.00     0.148 A 
ATOM     78  C   UNL A   1      43.385  26.018  25.749  1.00  0.00     0.002 A 
ATOM     79  C   UNL A   1      42.326  24.225  26.689  1.00  0.00     0.091 A 
ATOM     80  F   UNL A   1      41.295  24.455  28.775  1.00  0.00    -0.205 F 
ATOM     81  C   UNL A   1      43.113  24.727  25.690  1.00  0.00     0.022 A 
BRANCH  79  82
ATOM     82  S   UNL A   1      41.722  22.523  26.579  1.00  0.00     0.127 S 
ATOM     83  O   UNL A   1      40.193  22.527  26.522  1.00  0.00    -0.237 OA
ATOM     84  O   UNL A   1      42.278  21.865  25.314  1.00  0.00    -0.237 OA
ATOM     85  O   UNL A   1      42.238  21.644  27.953  1.00  0.00    -0.744 OA
ENDBRANCH  79  82
ENDBRANCH  51  75
BRANCH  63  86
ATOM     86  C   UNL A   1      44.591  28.373  34.150  1.00  0.00     0.023 A 
ATOM     87  C   UNL A   1      45.660  29.251  34.067  1.00  0.00     0.012 A 
ATOM     88  C   UNL A   1      44.618  27.332  34.974  1.00  0.00     0.148 A 
ATOM     89  C   UNL A   1      46.840  28.779  34.690  1.00  0.00     0.002 A 
ATOM     90  C   UNL A   1      45.766  27.008  35.656  1.00  0.00     0.091 A 
ATOM     91  F   UNL A   1      43.523  26.596  35.142  1.00  0.00    -0.205 F 
ATOM     92  C   UNL A   1      46.879  27.798  35.574  1.00  0.00     0.022 A 
BRANCH  90  93
ATOM     93  S   UNL A   1      45.806  25.514  36.675  1.00  0.00     0.127 S 
ATOM     94  O   UNL A   1      44.743  25.614  37.771  1.00  0.00    -0.237 OA
ATOM     95  O   UNL A   1      45.522  24.291  35.800  1.00  0.00    -0.237 OA
ATOM     96  O   UNL A   1      47.351  25.354  37.391  1.00  0.00    -0.744 OA
ENDBRANCH  90  93
ENDBRANCH  63  86
ENDBRANCH  37  38
ENDBRANCH  29  32
ENDBRANCH   1  28
TORSDOF 15
ENDMDL
MODEL 3
REMARK VINA RESULT:     -13.0      2.268      3.107
REMARK SMILES O=C(NCCCNC(=O)c1ccc(-c2c3nc(c(-c4cccc(S(=O)(=O)[O-])c4F)c4ccc([nH]4)c(-c4cccc(S(=O)(=O)[O-])c4F)c4nc(c(-c5cccc(S(=O)(=O)[O-])c5F)c5ccc2[nH]5)C=C4)C=C3)cc1)C1=Cc2cc(S(F)(F)(F)(F)F)ccc2O[C@H]1C(F)(F)F
REMARK SMILES IDX 6 1 5 2 4 3 3 4 1 5 2 6 73 8 74 9 88 10 75 11 87 12 76 13
REMARK SMILES IDX 86 14 77 15 85 16 84 17 89 18 90 19 91 20 92 21 78 22 79 23
REMARK SMILES IDX 80 24 81 25 82 26 83 27 7 28 8 29 9 31 10 32 11 33 72 34
REMARK SMILES IDX 12 35 71 36 13 37 14 38 15 39 65 40 16 41 70 42 64 43 66 44
REMARK SMILES IDX 17 45 69 46 63 47 62 48 18 50 50 51 30 52 49 53 31 54 34 55
REMARK SMILES IDX 48 56 67 57 32 58 33 59 47 61 68 62 35 63 19 64 20 65 28 66
REMARK SMILES IDX 21 67 23 68 29 69 22 70 24 71 25 72 26 73 27 74 51 75 52 76
REMARK SMILES IDX 60 77 53 78 55 79 61 80 54 81 56 82 57 83 58 84 59 85 36 86
REMARK SMILES IDX 37 87 45 88 38 89 40 90 46 91 39 92 41 93 42 94 43 95 44 96
REMARK H PARENT 3 7 7 30 66 49 34 60
REMARK Flexibility Score: inf
ROOT
ATOM      1  C   UNL A   1      33.650  29.103  24.987  1.00  0.00     0.118 C 
ENDROOT
BRANCH   1   2
ATOM      2  C   UNL A   1      32.885  27.911  24.434  1.00  0.00     0.042 C 
BRANCH   2   3
ATOM      3  C   UNL A   1      33.232  26.669  25.237  1.00  0.00     0.118 C 
BRANCH   3   4
ATOM      4  N   UNL A   1      32.174  26.412  26.224  1.00  0.00    -0.352 N 
ATOM      5  O   UNL A   1      30.129  25.313  26.732  1.00  0.00    -0.270 OA
ATOM      6  C   UNL A   1      31.045  25.535  25.879  1.00  0.00     0.251 C 
ATOM      7  H   UNL A   1      32.220  26.826  27.116  1.00  0.00     0.163 HD
BRANCH   6   8
ATOM      8  C   UNL A   1      30.972  24.895  24.502  1.00  0.00     0.067 C 
ATOM      9  C   UNL A   1      31.772  23.836  24.202  1.00  0.00     0.025 C 
ATOM     10  C   UNL A   1      30.007  25.437  23.461  1.00  0.00     0.314 C 
ATOM     11  C   UNL A   1      32.737  23.294  25.243  1.00  0.00     0.019 A 
ATOM     12  O   UNL A   1      30.932  23.582  26.761  1.00  0.00    -0.475 OA
ATOM     13  C   UNL A   1      34.065  23.019  24.960  1.00  0.00     0.036 A 
ATOM     14  C   UNL A   1      32.249  23.141  26.469  1.00  0.00     0.128 A 
ATOM     15  C   UNL A   1      34.734  22.307  25.983  1.00  0.00     0.107 A 
ATOM     16  C   UNL A   1      33.007  22.560  27.457  1.00  0.00     0.048 A 
ATOM     17  C   UNL A   1      34.309  22.208  27.230  1.00  0.00     0.028 A 
BRANCH  10  18
ATOM     18  C   UNL A   1      29.238  26.611  24.047  1.00  0.00     0.429 C 
ATOM     19  F   UNL A   1      28.712  27.223  22.989  1.00  0.00    -0.167 F 
ATOM     20  F   UNL A   1      28.261  26.175  24.837  1.00  0.00    -0.167 F 
ATOM     21  F   UNL A   1      30.004  27.465  24.719  1.00  0.00    -0.167 F 
ENDBRANCH  10  18
BRANCH  15  22
ATOM     22  S   UNL A   1      36.281  21.470  25.553  1.00  0.00     0.310 S 
ATOM     23  F   UNL A   1      36.192  21.944  24.042  1.00  0.00    -0.094 F 
ATOM     24  F   UNL A   1      35.446  20.202  25.132  1.00  0.00    -0.094 F 
ATOM     25  F   UNL A   1      37.610  20.752  25.186  1.00  0.00    -0.094 F 
ATOM     26  F   UNL A   1      37.088  22.796  25.845  1.00  0.00    -0.094 F 
ATOM     27  F   UNL A   1      34.932  22.250  25.822  1.00  0.00    -0.094 F 
ENDBRANCH  15  22
ENDBRANCH   6   8
ENDBRANCH   3   4
ENDBRANCH   2   3
ENDBRANCH   1   2
BRANCH   1  28
ATOM     28  N   UNL A   1      32.700  30.127  25.444  1.00  0.00    -0.352 N 
ATOM     29  C   UNL A   1      32.983  30.902  26.660  1.00  0.00     0.251 C 
ATOM     30  H   UNL A   1      31.874  30.295  24.934  1.00  0.00     0.163 HD
ATOM     31  O   UNL A   1      32.162  31.788  27.055  1.00  0.00    -0.269 OA
BRANCH  29  32
ATOM     32  C   UNL A   1      34.258  30.644  27.446  1.00  0.00     0.039 A 
ATOM     33  C   UNL A   1      34.478  29.388  27.987  1.00  0.00     0.014 A 
ATOM     34  C   UNL A   1      35.146  31.622  27.590  1.00  0.00     0.014 A 
ATOM     35  C   UNL A   1      35.544  29.343  28.917  1.00  0.00     0.010 A 
ATOM     36  C   UNL A   1      36.237  31.459  28.410  1.00  0.00     0.010 A 
ATOM     37  C   UNL A   1      36.484  30.263  29.024  1.00  0.00    -0.014 A 
BRANCH  37  38
ATOM     38  C   UNL A   1      37.773  30.007  29.787  1.00  0.00     0.031 A 
ATOM     39  C   UNL A   1      38.735  29.187  29.195  1.00  0.00     0.074 A 
ATOM     40  C   UNL A   1      37.912  30.585  31.038  1.00  0.00     0.049 A 
ATOM     41  N   UNL A   1      39.930  28.850  29.685  1.00  0.00    -0.248 NA
ATOM     42  C   UNL A   1      38.575  28.543  27.882  1.00  0.00     0.031 C 
ATOM     43  C   UNL A   1      36.950  31.420  31.638  1.00  0.00     0.029 A 
ATOM     44  N   UNL A   1      38.971  30.468  31.910  1.00  0.00    -0.354 N 
ATOM     45  C   UNL A   1      40.577  28.065  28.821  1.00  0.00     0.074 A 
ATOM     46  C   UNL A   1      39.713  27.852  27.652  1.00  0.00     0.031 C 
ATOM     47  C   UNL A   1      37.417  31.791  32.859  1.00  0.00     0.029 A 
ATOM     48  C   UNL A   1      38.679  31.195  33.042  1.00  0.00     0.049 A 
ATOM     49  H   UNL A   1      39.796  29.952  31.751  1.00  0.00     0.167 HD
ATOM     50  C   UNL A   1      41.854  27.520  28.961  1.00  0.00     0.034 A 
ATOM     51  C   UNL A   1      39.455  31.340  34.182  1.00  0.00     0.034 A 
ATOM     52  C   UNL A   1      42.649  27.702  30.083  1.00  0.00     0.049 A 
ATOM     53  C   UNL A   1      40.709  30.748  34.347  1.00  0.00     0.074 A 
ATOM     54  C   UNL A   1      43.942  27.166  30.236  1.00  0.00     0.029 A 
ATOM     55  N   UNL A   1      42.345  28.409  31.225  1.00  0.00    -0.354 N 
ATOM     56  N   UNL A   1      41.371  29.995  33.467  1.00  0.00    -0.248 NA
ATOM     57  C   UNL A   1      41.525  30.869  35.561  1.00  0.00     0.031 C 
ATOM     58  C   UNL A   1      44.409  27.537  31.458  1.00  0.00     0.029 A 
ATOM     59  C   UNL A   1      43.414  28.310  32.088  1.00  0.00     0.049 A 
ATOM     60  H   UNL A   1      41.509  28.900  31.395  1.00  0.00     0.167 HD
ATOM     61  C   UNL A   1      42.549  29.625  33.974  1.00  0.00     0.074 A 
ATOM     62  C   UNL A   1      42.661  30.175  35.332  1.00  0.00     0.031 C 
ATOM     63  C   UNL A   1      43.536  28.853  33.357  1.00  0.00     0.034 A 
BRANCH  50  64
ATOM     64  C   UNL A   1      42.406  26.681  27.820  1.00  0.00     0.023 A 
ATOM     65  C   UNL A   1      43.217  27.306  26.888  1.00  0.00     0.012 A 
ATOM     66  C   UNL A   1      42.124  25.387  27.731  1.00  0.00     0.148 A 
ATOM     67  C   UNL A   1      43.453  26.534  25.725  1.00  0.00     0.002 A 
ATOM     68  C   UNL A   1      42.503  24.662  26.627  1.00  0.00     0.091 A 
ATOM     69  F   UNL A   1      41.468  24.786  28.720  1.00  0.00    -0.205 F 
ATOM     70  C   UNL A   1      43.256  25.231  25.638  1.00  0.00     0.022 A 
BRANCH  68  71
ATOM     71  S   UNL A   1      41.997  22.931  26.480  1.00  0.00     0.127 S 
ATOM     72  O   UNL A   1      40.470  22.847  26.435  1.00  0.00    -0.237 OA
ATOM     73  O   UNL A   1      42.579  22.337  25.194  1.00  0.00    -0.237 OA
ATOM     74  O   UNL A   1      42.577  22.051  27.827  1.00  0.00    -0.744 OA
ENDBRANCH  68  71
ENDBRANCH  50  64
BRANCH  51  75
ATOM     75  C   UNL A   1      38.910  32.194  35.316  1.00  0.00     0.023 A 
ATOM     76  C   UNL A   1      39.143  33.559  35.279  1.00  0.00     0.012 A 
ATOM     77  C   UNL A   1      38.246  31.636  36.321  1.00  0.00     0.148 A 
ATOM     78  C   UNL A   1      38.884  34.217  36.504  1.00  0.00     0.002 A 
ATOM     79  C   UNL A   1      37.905  32.373  37.429  1.00  0.00     0.091 A 
ATOM     80  F   UNL A   1      37.907  30.351  36.254  1.00  0.00    -0.205 F 
ATOM     81  C   UNL A   1      38.158  33.715  37.486  1.00  0.00     0.022 A 
BRANCH  79  82
ATOM     82  S   UNL A   1      37.108  31.555  38.834  1.00  0.00     0.127 S 
ATOM     83  O   UNL A   1      38.024  31.635  40.057  1.00  0.00    -0.237 OA
ATOM     84  O   UNL A   1      35.781  32.251  39.143  1.00  0.00    -0.237 OA
ATOM     85  O   UNL A   1      36.816  29.915  38.448  1.00  0.00    -0.744 OA
ENDBRANCH  79  82
ENDBRANCH  51  75
BRANCH  63  86
ATOM     86  C   UNL A   1      44.821  28.593  34.125  1.00  0.00     0.023 A 
ATOM     87  C   UNL A   1      45.862  29.502  34.029  1.00  0.00     0.012 A 
ATOM     88  C   UNL A   1      44.919  27.512  34.891  1.00  0.00     0.148 A 
ATOM     89  C   UNL A   1      47.087  29.030  34.560  1.00  0.00     0.002 A 
ATOM     90  C   UNL A   1      46.112  27.185  35.491  1.00  0.00     0.091 A 
ATOM     91  F   UNL A   1      43.853  26.740  35.081  1.00  0.00    -0.205 F 
ATOM     92  C   UNL A   1      47.199  28.008  35.388  1.00  0.00     0.022 A 
BRANCH  90  93
ATOM     93  S   UNL A   1      46.245  25.643  36.428  1.00  0.00     0.127 S 
ATOM     94  O   UNL A   1      45.960  24.457  35.503  1.00  0.00    -0.237 OA
ATOM     95  O   UNL A   1      47.659  25.514  37.000  1.00  0.00    -0.237 OA
ATOM     96  O   UNL A   1      45.112  25.655  37.708  1.00  0.00    -0.744 OA
ENDBRANCH  90  93
ENDBRANCH  63  86
ENDBRANCH  37  38
ENDBRANCH  29  32
ENDBRANCH   1  28
TORSDOF 15
ENDMDL
