MODEL 1
REMARK VINA RESULT:     -11.8      0.000      0.000
REMARK SMILES C[C@H](CC(=O)NCCCNC(=O)c1ccc(-c2c3nc(c(-c4cccc(S(=O)(=O)[O-])c4F)c4ccc([nH]4)c(-c4cccc(S(=O)(=O)[O-])c4F)c4nc(c(-c5cccc(S(=O)(=O)[O-])c5F)c5ccc2[nH]5)C=C4)C=C3)cc1)NC(=O)Cn1nc2ccccn2c1=O
REMARK SMILES IDX 7 1 6 2 4 3 5 4 3 6 2 7 1 8 76 9 77 10 78 12 79 13 80 14
REMARK SMILES IDX 81 15 88 16 82 17 87 18 89 19 83 20 86 21 84 22 85 23 8 24
REMARK SMILES IDX 9 25 10 26 11 27 12 29 13 30 14 31 75 32 15 33 74 34 16 35
REMARK SMILES IDX 17 36 18 37 68 38 19 39 73 40 67 41 69 42 20 43 72 44 66 45
REMARK SMILES IDX 65 46 21 48 53 49 33 50 52 51 34 52 37 53 51 54 70 55 35 56
REMARK SMILES IDX 36 57 50 59 71 60 38 61 22 62 23 63 31 64 24 65 26 66 32 67
REMARK SMILES IDX 25 68 27 69 28 70 29 71 30 72 54 73 55 74 63 75 56 76 58 77
REMARK SMILES IDX 64 78 57 79 59 80 60 81 61 82 62 83 39 84 40 85 48 86 41 87
REMARK SMILES IDX 43 88 49 89 42 90 44 91 45 92 46 93 47 94
REMARK H PARENT 6 5 76 11 10 28 69 47 37 58
REMARK Flexibility Score: inf
ROOT
ATOM      1  C   UNL A   1      32.040  28.122  27.552  1.00  0.00     0.117 C 
ENDROOT
BRANCH   1   2
ATOM      2  N   UNL A   1      31.058  27.081  27.319  1.00  0.00    -0.356 N 
ATOM      3  C   UNL A   1      30.805  26.352  26.196  1.00  0.00     0.222 C 
ATOM      4  O   UNL A   1      29.842  25.582  26.224  1.00  0.00    -0.275 OA
ATOM      5  H   UNL A   1      30.484  26.869  28.090  1.00  0.00     0.163 HD
BRANCH   3   6
ATOM      6  C   UNL A   1      31.689  26.484  24.964  1.00  0.00     0.124 C 
BRANCH   6   7
ATOM      7  C   UNL A   1      32.883  25.510  24.984  1.00  0.00     0.088 C 
ATOM      8  C   UNL A   1      34.220  26.238  25.090  1.00  0.00     0.031 C 
BRANCH   7   9
ATOM      9  N   UNL A   1      32.849  24.608  26.144  1.00  0.00    -0.352 N 
ATOM     10  C   UNL A   1      33.470  23.399  26.333  1.00  0.00     0.242 C 
ATOM     11  H   UNL A   1      32.299  24.918  26.899  1.00  0.00     0.163 HD
ATOM     12  O   UNL A   1      33.430  22.885  27.452  1.00  0.00    -0.273 OA
BRANCH  10  13
ATOM     13  C   UNL A   1      34.076  22.677  25.136  1.00  0.00     0.249 C 
BRANCH  13  14
ATOM     14  N   UNL A   1      33.584  21.313  25.023  1.00  0.00    -0.203 N 
ATOM     15  N   UNL A   1      34.437  20.242  25.293  1.00  0.00    -0.149 NA
ATOM     16  C   UNL A   1      32.565  20.892  24.143  1.00  0.00     0.350 A 
ATOM     17  C   UNL A   1      33.951  19.272  24.584  1.00  0.00     0.161 A 
ATOM     18  N   UNL A   1      32.857  19.588  23.852  1.00  0.00    -0.250 N 
ATOM     19  O   UNL A   1      31.624  21.538  23.705  1.00  0.00    -0.246 OA
ATOM     20  C   UNL A   1      34.488  17.905  24.428  1.00  0.00     0.050 A 
ATOM     21  C   UNL A   1      32.292  18.790  22.897  1.00  0.00     0.098 A 
ATOM     22  C   UNL A   1      34.021  17.177  23.398  1.00  0.00     0.005 A 
ATOM     23  C   UNL A   1      32.875  17.615  22.620  1.00  0.00     0.019 A 
ENDBRANCH  13  14
ENDBRANCH  10  13
ENDBRANCH   7   9
ENDBRANCH   6   7
ENDBRANCH   3   6
ENDBRANCH   1   2
BRANCH   1  24
ATOM     24  C   UNL A   1      31.793  29.321  26.644  1.00  0.00     0.042 C 
BRANCH  24  25
ATOM     25  C   UNL A   1      33.055  30.058  26.234  1.00  0.00     0.118 C 
BRANCH  25  26
ATOM     26  N   UNL A   1      33.033  31.452  26.642  1.00  0.00    -0.352 N 
ATOM     27  C   UNL A   1      33.811  32.136  27.546  1.00  0.00     0.251 C 
ATOM     28  H   UNL A   1      32.345  31.999  26.197  1.00  0.00     0.163 HD
ATOM     29  O   UNL A   1      33.444  33.255  27.902  1.00  0.00    -0.269 OA
BRANCH  27  30
ATOM     30  C   UNL A   1      35.062  31.560  28.098  1.00  0.00     0.039 A 
ATOM     31  C   UNL A   1      35.031  30.260  28.616  1.00  0.00     0.014 A 
ATOM     32  C   UNL A   1      36.242  32.301  28.194  1.00  0.00     0.014 A 
ATOM     33  C   UNL A   1      36.176  29.709  29.203  1.00  0.00     0.010 A 
ATOM     34  C   UNL A   1      37.412  31.708  28.668  1.00  0.00     0.010 A 
ATOM     35  C   UNL A   1      37.383  30.423  29.224  1.00  0.00    -0.014 A 
BRANCH  35  36
ATOM     36  C   UNL A   1      38.598  29.878  29.887  1.00  0.00     0.031 A 
ATOM     37  C   UNL A   1      39.008  30.388  31.250  1.00  0.00     0.074 A 
ATOM     38  C   UNL A   1      39.367  28.970  29.251  1.00  0.00     0.049 A 
ATOM     39  N   UNL A   1      40.051  30.067  31.972  1.00  0.00    -0.248 NA
ATOM     40  C   UNL A   1      38.154  31.416  31.872  1.00  0.00     0.031 C 
ATOM     41  C   UNL A   1      39.131  28.456  27.901  1.00  0.00     0.029 A 
ATOM     42  N   UNL A   1      40.517  28.333  29.650  1.00  0.00    -0.354 N 
ATOM     43  C   UNL A   1      40.005  30.884  33.097  1.00  0.00     0.074 A 
ATOM     44  C   UNL A   1      38.850  31.739  32.951  1.00  0.00     0.031 C 
ATOM     45  C   UNL A   1      40.100  27.581  27.585  1.00  0.00     0.029 A 
ATOM     46  C   UNL A   1      41.042  27.491  28.696  1.00  0.00     0.049 A 
ATOM     47  H   UNL A   1      40.927  28.467  30.534  1.00  0.00     0.167 HD
ATOM     48  C   UNL A   1      40.828  30.900  34.171  1.00  0.00     0.034 A 
ATOM     49  C   UNL A   1      42.160  26.738  28.713  1.00  0.00     0.034 A 
ATOM     50  C   UNL A   1      41.931  29.998  34.351  1.00  0.00     0.049 A 
ATOM     51  C   UNL A   1      43.010  26.720  29.956  1.00  0.00     0.074 A 
ATOM     52  C   UNL A   1      42.758  29.862  35.452  1.00  0.00     0.029 A 
ATOM     53  N   UNL A   1      42.362  29.080  33.409  1.00  0.00    -0.354 N 
ATOM     54  N   UNL A   1      42.849  27.383  31.076  1.00  0.00    -0.248 NA
ATOM     55  C   UNL A   1      44.171  25.819  29.955  1.00  0.00     0.031 C 
ATOM     56  C   UNL A   1      43.708  28.878  35.164  1.00  0.00     0.029 A 
ATOM     57  C   UNL A   1      43.447  28.376  33.900  1.00  0.00     0.049 A 
ATOM     58  H   UNL A   1      41.956  28.947  32.522  1.00  0.00     0.167 HD
ATOM     59  C   UNL A   1      43.856  26.940  31.927  1.00  0.00     0.074 A 
ATOM     60  C   UNL A   1      44.610  25.940  31.200  1.00  0.00     0.031 C 
ATOM     61  C   UNL A   1      44.140  27.335  33.192  1.00  0.00     0.034 A 
BRANCH  48  62
ATOM     62  C   UNL A   1      40.546  31.889  35.273  1.00  0.00     0.023 A 
ATOM     63  C   UNL A   1      41.296  33.079  35.356  1.00  0.00     0.012 A 
ATOM     64  C   UNL A   1      39.471  31.686  36.161  1.00  0.00     0.148 A 
ATOM     65  C   UNL A   1      40.996  34.042  36.319  1.00  0.00     0.002 A 
ATOM     66  C   UNL A   1      39.147  32.671  37.087  1.00  0.00     0.091 A 
ATOM     67  F   UNL A   1      38.782  30.538  36.077  1.00  0.00    -0.205 F 
ATOM     68  C   UNL A   1      39.915  33.844  37.174  1.00  0.00     0.022 A 
BRANCH  66  69
ATOM     69  S   UNL A   1      37.722  32.553  38.173  1.00  0.00     0.127 S 
ATOM     70  O   UNL A   1      38.054  33.540  39.201  1.00  0.00    -0.237 OA
ATOM     71  O   UNL A   1      36.628  32.943  37.284  1.00  0.00    -0.237 OA
ATOM     72  O   UNL A   1      37.675  31.172  38.633  1.00  0.00    -0.744 OA
ENDBRANCH  66  69
ENDBRANCH  48  62
BRANCH  49  73
ATOM     73  C   UNL A   1      42.518  25.890  27.539  1.00  0.00     0.023 A 
ATOM     74  C   UNL A   1      43.256  26.446  26.475  1.00  0.00     0.012 A 
ATOM     75  C   UNL A   1      42.116  24.543  27.463  1.00  0.00     0.148 A 
ATOM     76  C   UNL A   1      43.543  25.691  25.336  1.00  0.00     0.002 A 
ATOM     77  C   UNL A   1      42.459  23.779  26.352  1.00  0.00     0.091 A 
ATOM     78  F   UNL A   1      41.404  24.033  28.477  1.00  0.00    -0.205 F 
ATOM     79  C   UNL A   1      43.151  24.357  25.278  1.00  0.00     0.022 A 
BRANCH  77  80
ATOM     80  S   UNL A   1      42.111  22.020  26.262  1.00  0.00     0.127 S 
ATOM     81  O   UNL A   1      42.518  21.565  27.588  1.00  0.00    -0.237 OA
ATOM     82  O   UNL A   1      40.666  22.008  26.021  1.00  0.00    -0.237 OA
ATOM     83  O   UNL A   1      42.904  21.525  25.144  1.00  0.00    -0.744 OA
ENDBRANCH  77  80
ENDBRANCH  49  73
BRANCH  61  84
ATOM     84  C   UNL A   1      45.267  26.638  33.908  1.00  0.00     0.023 A 
ATOM     85  C   UNL A   1      46.577  27.150  33.836  1.00  0.00     0.012 A 
ATOM     86  C   UNL A   1      45.008  25.510  34.711  1.00  0.00     0.148 A 
ATOM     87  C   UNL A   1      47.619  26.524  34.520  1.00  0.00     0.002 A 
ATOM     88  C   UNL A   1      46.040  24.925  35.433  1.00  0.00     0.091 A 
ATOM     89  F   UNL A   1      43.757  25.027  34.752  1.00  0.00    -0.205 F 
ATOM     90  C   UNL A   1      47.348  25.421  35.327  1.00  0.00     0.022 A 
BRANCH  88  91
ATOM     91  S   UNL A   1      45.758  23.569  36.576  1.00  0.00     0.127 S 
ATOM     92  O   UNL A   1      47.120  23.259  37.011  1.00  0.00    -0.237 OA
ATOM     93  O   UNL A   1      44.920  24.194  37.599  1.00  0.00    -0.237 OA
ATOM     94  O   UNL A   1      45.093  22.528  35.806  1.00  0.00    -0.744 OA
ENDBRANCH  88  91
ENDBRANCH  61  84
ENDBRANCH  35  36
ENDBRANCH  27  30
ENDBRANCH  25  26
ENDBRANCH  24  25
ENDBRANCH   1  24
TORSDOF 17
ENDMDL
MODEL 2
REMARK VINA RESULT:     -11.8      5.460      8.527
REMARK SMILES C[C@H](CC(=O)NCCCNC(=O)c1ccc(-c2c3nc(c(-c4cccc(S(=O)(=O)[O-])c4F)c4ccc([nH]4)c(-c4cccc(S(=O)(=O)[O-])c4F)c4nc(c(-c5cccc(S(=O)(=O)[O-])c5F)c5ccc2[nH]5)C=C4)C=C3)cc1)NC(=O)Cn1nc2ccccn2c1=O
REMARK SMILES IDX 7 1 6 2 4 3 5 4 3 6 2 7 1 8 76 9 77 10 78 12 79 13 80 14
REMARK SMILES IDX 81 15 88 16 82 17 87 18 89 19 83 20 86 21 84 22 85 23 8 24
REMARK SMILES IDX 9 25 10 26 11 27 12 29 13 30 14 31 75 32 15 33 74 34 16 35
REMARK SMILES IDX 17 36 18 37 68 38 19 39 73 40 67 41 69 42 20 43 72 44 66 45
REMARK SMILES IDX 65 46 21 48 53 49 33 50 52 51 34 52 37 53 51 54 70 55 35 56
REMARK SMILES IDX 36 57 50 59 71 60 38 61 22 62 23 63 31 64 24 65 26 66 32 67
REMARK SMILES IDX 25 68 27 69 28 70 29 71 30 72 54 73 55 74 63 75 56 76 58 77
REMARK SMILES IDX 64 78 57 79 59 80 60 81 61 82 62 83 39 84 40 85 48 86 41 87
REMARK SMILES IDX 43 88 49 89 42 90 44 91 45 92 46 93 47 94
REMARK H PARENT 6 5 76 11 10 28 69 47 37 58
REMARK Flexibility Score: inf
ROOT
ATOM      1  C   UNL A   1      36.819  20.771  24.727  1.00  0.00     0.117 C 
ENDROOT
BRANCH   1   2
ATOM      2  N   UNL A   1      35.796  20.725  25.753  1.00  0.00    -0.356 N 
ATOM      3  C   UNL A   1      35.198  21.739  26.439  1.00  0.00     0.222 C 
ATOM      4  O   UNL A   1      34.413  21.430  27.339  1.00  0.00    -0.275 OA
ATOM      5  H   UNL A   1      35.485  19.822  25.992  1.00  0.00     0.163 HD
BRANCH   3   6
ATOM      6  C   UNL A   1      35.488  23.193  26.095  1.00  0.00     0.124 C 
BRANCH   6   7
ATOM      7  C   UNL A   1      34.378  23.832  25.238  1.00  0.00     0.088 C 
ATOM      8  C   UNL A   1      34.355  25.353  25.362  1.00  0.00     0.031 C 
BRANCH   7   9
ATOM      9  N   UNL A   1      34.561  23.572  23.803  1.00  0.00    -0.352 N 
ATOM     10  C   UNL A   1      33.622  23.402  22.816  1.00  0.00     0.242 C 
ATOM     11  H   UNL A   1      35.497  23.510  23.505  1.00  0.00     0.163 HD
ATOM     12  O   UNL A   1      34.003  23.351  21.645  1.00  0.00    -0.273 OA
BRANCH  10  13
ATOM     13  C   UNL A   1      32.169  23.159  23.202  1.00  0.00     0.249 C 
BRANCH  13  14
ATOM     14  N   UNL A   1      31.904  21.750  23.448  1.00  0.00    -0.203 N 
ATOM     15  N   UNL A   1      32.186  21.197  24.697  1.00  0.00    -0.149 NA
ATOM     16  C   UNL A   1      31.942  20.738  22.465  1.00  0.00     0.350 A 
ATOM     17  C   UNL A   1      32.404  19.945  24.440  1.00  0.00     0.161 A 
ATOM     18  N   UNL A   1      32.306  19.602  23.134  1.00  0.00    -0.250 N 
ATOM     19  O   UNL A   1      31.721  20.833  21.267  1.00  0.00    -0.246 OA
ATOM     20  C   UNL A   1      32.812  18.885  25.383  1.00  0.00     0.050 A 
ATOM     21  C   UNL A   1      32.672  18.395  22.610  1.00  0.00     0.098 A 
ATOM     22  C   UNL A   1      33.301  17.749  24.852  1.00  0.00     0.005 A 
ATOM     23  C   UNL A   1      33.210  17.479  23.427  1.00  0.00     0.019 A 
ENDBRANCH  13  14
ENDBRANCH  10  13
ENDBRANCH   7   9
ENDBRANCH   6   7
ENDBRANCH   3   6
ENDBRANCH   1   2
BRANCH   1  24
ATOM     24  C   UNL A   1      37.899  19.727  24.984  1.00  0.00     0.042 C 
BRANCH  24  25
ATOM     25  C   UNL A   1      38.885  20.110  26.073  1.00  0.00     0.118 C 
BRANCH  25  26
ATOM     26  N   UNL A   1      40.035  19.223  26.108  1.00  0.00    -0.352 N 
ATOM     27  C   UNL A   1      41.381  19.498  26.119  1.00  0.00     0.251 C 
ATOM     28  H   UNL A   1      39.812  18.264  26.127  1.00  0.00     0.163 HD
ATOM     29  O   UNL A   1      42.167  18.576  25.903  1.00  0.00    -0.269 OA
BRANCH  27  30
ATOM     30  C   UNL A   1      41.901  20.864  26.376  1.00  0.00     0.039 A 
ATOM     31  C   UNL A   1      42.182  21.237  27.696  1.00  0.00     0.014 A 
ATOM     32  C   UNL A   1      42.039  21.811  25.359  1.00  0.00     0.014 A 
ATOM     33  C   UNL A   1      42.612  22.538  27.983  1.00  0.00     0.010 A 
ATOM     34  C   UNL A   1      42.582  23.066  25.631  1.00  0.00     0.010 A 
ATOM     35  C   UNL A   1      42.829  23.463  26.952  1.00  0.00    -0.014 A 
BRANCH  35  36
ATOM     36  C   UNL A   1      43.237  24.866  27.237  1.00  0.00     0.031 A 
ATOM     37  C   UNL A   1      42.266  25.815  27.899  1.00  0.00     0.074 A 
ATOM     38  C   UNL A   1      44.453  25.307  26.855  1.00  0.00     0.049 A 
ATOM     39  N   UNL A   1      42.419  27.080  28.195  1.00  0.00    -0.248 NA
ATOM     40  C   UNL A   1      40.934  25.286  28.248  1.00  0.00     0.031 C 
ATOM     41  C   UNL A   1      45.455  24.520  26.134  1.00  0.00     0.029 A 
ATOM     42  N   UNL A   1      45.046  26.538  27.003  1.00  0.00    -0.354 N 
ATOM     43  C   UNL A   1      41.199  27.505  28.711  1.00  0.00     0.074 A 
ATOM     44  C   UNL A   1      40.302  26.374  28.661  1.00  0.00     0.031 C 
ATOM     45  C   UNL A   1      46.537  25.282  25.906  1.00  0.00     0.029 A 
ATOM     46  C   UNL A   1      46.299  26.620  26.439  1.00  0.00     0.049 A 
ATOM     47  H   UNL A   1      44.615  27.291  27.467  1.00  0.00     0.167 HD
ATOM     48  C   UNL A   1      40.862  28.716  29.212  1.00  0.00     0.034 A 
ATOM     49  C   UNL A   1      47.156  27.657  26.355  1.00  0.00     0.034 A 
ATOM     50  C   UNL A   1      41.776  29.817  29.333  1.00  0.00     0.049 A 
ATOM     51  C   UNL A   1      46.780  28.968  26.994  1.00  0.00     0.074 A 
ATOM     52  C   UNL A   1      41.563  31.049  29.926  1.00  0.00     0.029 A 
ATOM     53  N   UNL A   1      43.075  29.822  28.852  1.00  0.00    -0.354 N 
ATOM     54  N   UNL A   1      45.678  29.293  27.625  1.00  0.00    -0.248 NA
ATOM     55  C   UNL A   1      47.783  30.042  26.949  1.00  0.00     0.031 C 
ATOM     56  C   UNL A   1      42.726  31.811  29.779  1.00  0.00     0.029 A 
ATOM     57  C   UNL A   1      43.675  31.037  29.131  1.00  0.00     0.049 A 
ATOM     58  H   UNL A   1      43.507  29.072  28.383  1.00  0.00     0.167 HD
ATOM     59  C   UNL A   1      45.876  30.588  28.094  1.00  0.00     0.074 A 
ATOM     60  C   UNL A   1      47.210  30.979  27.690  1.00  0.00     0.031 C 
ATOM     61  C   UNL A   1      45.026  31.385  28.785  1.00  0.00     0.034 A 
BRANCH  48  62
ATOM     62  C   UNL A   1      39.458  28.913  29.725  1.00  0.00     0.023 A 
ATOM     63  C   UNL A   1      39.132  28.525  31.040  1.00  0.00     0.012 A 
ATOM     64  C   UNL A   1      38.494  29.574  28.939  1.00  0.00     0.148 A 
ATOM     65  C   UNL A   1      37.861  28.772  31.558  1.00  0.00     0.002 A 
ATOM     66  C   UNL A   1      37.246  29.861  29.478  1.00  0.00     0.091 A 
ATOM     67  F   UNL A   1      38.820  29.918  27.684  1.00  0.00    -0.205 F 
ATOM     68  C   UNL A   1      36.925  29.452  30.783  1.00  0.00     0.022 A 
BRANCH  66  69
ATOM     69  S   UNL A   1      36.000  30.807  28.596  1.00  0.00     0.127 S 
ATOM     70  O   UNL A   1      35.528  29.829  27.616  1.00  0.00    -0.237 OA
ATOM     71  O   UNL A   1      35.043  31.115  29.658  1.00  0.00    -0.237 OA
ATOM     72  O   UNL A   1      36.688  31.962  28.037  1.00  0.00    -0.744 OA
ENDBRANCH  66  69
ENDBRANCH  48  62
BRANCH  49  73
ATOM     73  C   UNL A   1      48.480  27.491  25.689  1.00  0.00     0.023 A 
ATOM     74  C   UNL A   1      49.629  27.248  26.468  1.00  0.00     0.012 A 
ATOM     75  C   UNL A   1      48.610  27.588  24.291  1.00  0.00     0.148 A 
ATOM     76  C   UNL A   1      50.888  27.157  25.873  1.00  0.00     0.002 A 
ATOM     77  C   UNL A   1      49.859  27.436  23.698  1.00  0.00     0.091 A 
ATOM     78  F   UNL A   1      47.510  27.832  23.565  1.00  0.00    -0.205 F 
ATOM     79  C   UNL A   1      51.002  27.244  24.488  1.00  0.00     0.022 A 
BRANCH  77  80
ATOM     80  S   UNL A   1      50.069  27.397  21.916  1.00  0.00     0.127 S 
ATOM     81  O   UNL A   1      49.098  26.381  21.521  1.00  0.00    -0.237 OA
ATOM     82  O   UNL A   1      49.717  28.767  21.538  1.00  0.00    -0.237 OA
ATOM     83  O   UNL A   1      51.470  27.061  21.698  1.00  0.00    -0.744 OA
ENDBRANCH  77  80
ENDBRANCH  49  73
BRANCH  61  84
ATOM     84  C   UNL A   1      45.529  32.737  29.219  1.00  0.00     0.023 A 
ATOM     85  C   UNL A   1      46.210  32.881  30.443  1.00  0.00     0.012 A 
ATOM     86  C   UNL A   1      45.381  33.853  28.372  1.00  0.00     0.148 A 
ATOM     87  C   UNL A   1      46.701  34.126  30.836  1.00  0.00     0.002 A 
ATOM     88  C   UNL A   1      45.922  35.077  28.745  1.00  0.00     0.091 A 
ATOM     89  F   UNL A   1      44.713  33.699  27.219  1.00  0.00    -0.205 F 
ATOM     90  C   UNL A   1      46.568  35.220  29.982  1.00  0.00     0.022 A 
BRANCH  88  91
ATOM     91  S   UNL A   1      45.887  36.508  27.659  1.00  0.00     0.127 S 
ATOM     92  O   UNL A   1      44.451  36.761  27.546  1.00  0.00    -0.237 OA
ATOM     93  O   UNL A   1      46.621  37.506  28.437  1.00  0.00    -0.237 OA
ATOM     94  O   UNL A   1      46.550  36.095  26.431  1.00  0.00    -0.744 OA
ENDBRANCH  88  91
ENDBRANCH  61  84
ENDBRANCH  35  36
ENDBRANCH  27  30
ENDBRANCH  25  26
ENDBRANCH  24  25
ENDBRANCH   1  24
TORSDOF 17
ENDMDL
MODEL 3
REMARK VINA RESULT:     -11.7      2.712      8.364
REMARK SMILES C[C@H](CC(=O)NCCCNC(=O)c1ccc(-c2c3nc(c(-c4cccc(S(=O)(=O)[O-])c4F)c4ccc([nH]4)c(-c4cccc(S(=O)(=O)[O-])c4F)c4nc(c(-c5cccc(S(=O)(=O)[O-])c5F)c5ccc2[nH]5)C=C4)C=C3)cc1)NC(=O)Cn1nc2ccccn2c1=O
REMARK SMILES IDX 7 1 6 2 4 3 5 4 3 6 2 7 1 8 76 9 77 10 78 12 79 13 80 14
REMARK SMILES IDX 81 15 88 16 82 17 87 18 89 19 83 20 86 21 84 22 85 23 8 24
REMARK SMILES IDX 9 25 10 26 11 27 12 29 13 30 14 31 75 32 15 33 74 34 16 35
REMARK SMILES IDX 17 36 18 37 68 38 19 39 73 40 67 41 69 42 20 43 72 44 66 45
REMARK SMILES IDX 65 46 21 48 53 49 33 50 52 51 34 52 37 53 51 54 70 55 35 56
REMARK SMILES IDX 36 57 50 59 71 60 38 61 22 62 23 63 31 64 24 65 26 66 32 67
REMARK SMILES IDX 25 68 27 69 28 70 29 71 30 72 54 73 55 74 63 75 56 76 58 77
REMARK SMILES IDX 64 78 57 79 59 80 60 81 61 82 62 83 39 84 40 85 48 86 41 87
REMARK SMILES IDX 43 88 49 89 42 90 44 91 45 92 46 93 47 94
REMARK H PARENT 6 5 76 11 10 28 69 47 37 58
REMARK Flexibility Score: inf
ROOT
ATOM      1  C   UNL A   1      31.465  30.760  25.682  1.00  0.00     0.117 C 
ENDROOT
BRANCH   1   2
ATOM      2  N   UNL A   1      32.555  29.845  25.965  1.00  0.00    -0.356 N 
ATOM      3  C   UNL A   1      33.230  29.004  25.132  1.00  0.00     0.222 C 
ATOM      4  O   UNL A   1      34.064  28.251  25.640  1.00  0.00    -0.275 OA
ATOM      5  H   UNL A   1      32.853  29.829  26.903  1.00  0.00     0.163 HD
BRANCH   3   6
ATOM      6  C   UNL A   1      32.963  29.008  23.634  1.00  0.00     0.124 C 
BRANCH   6   7
ATOM      7  C   UNL A   1      32.199  27.755  23.166  1.00  0.00     0.088 C 
ATOM      8  C   UNL A   1      30.753  28.067  22.788  1.00  0.00     0.031 C 
BRANCH   7   9
ATOM      9  N   UNL A   1      32.786  27.160  21.957  1.00  0.00    -0.352 N 
ATOM     10  C   UNL A   1      32.682  25.882  21.468  1.00  0.00     0.242 C 
ATOM     11  H   UNL A   1      33.337  27.771  21.416  1.00  0.00     0.163 HD
ATOM     12  O   UNL A   1      33.131  25.642  20.346  1.00  0.00    -0.273 OA
BRANCH  10  13
ATOM     13  C   UNL A   1      32.132  24.783  22.368  1.00  0.00     0.249 C 
BRANCH  13  14
ATOM     14  N   UNL A   1      33.131  24.307  23.312  1.00  0.00    -0.203 N 
ATOM     15  N   UNL A   1      34.484  24.546  23.070  1.00  0.00    -0.149 NA
ATOM     16  C   UNL A   1      32.993  23.164  24.127  1.00  0.00     0.350 A 
ATOM     17  C   UNL A   1      35.085  23.576  23.686  1.00  0.00     0.161 A 
ATOM     18  N   UNL A   1      34.265  22.699  24.312  1.00  0.00    -0.250 N 
ATOM     19  O   UNL A   1      31.968  22.664  24.569  1.00  0.00    -0.246 OA
ATOM     20  C   UNL A   1      36.532  23.282  23.720  1.00  0.00     0.050 A 
ATOM     21  C   UNL A   1      34.658  21.511  24.860  1.00  0.00     0.098 A 
ATOM     22  C   UNL A   1      36.898  22.056  24.133  1.00  0.00     0.005 A 
ATOM     23  C   UNL A   1      35.943  21.147  24.745  1.00  0.00     0.019 A 
ENDBRANCH  13  14
ENDBRANCH  10  13
ENDBRANCH   7   9
ENDBRANCH   6   7
ENDBRANCH   3   6
ENDBRANCH   1   2
BRANCH   1  24
ATOM     24  C   UNL A   1      31.360  31.834  26.758  1.00  0.00     0.042 C 
BRANCH  24  25
ATOM     25  C   UNL A   1      32.692  32.443  27.158  1.00  0.00     0.118 C 
BRANCH  25  26
ATOM     26  N   UNL A   1      32.574  33.853  27.487  1.00  0.00    -0.352 N 
ATOM     27  C   UNL A   1      33.151  34.592  28.492  1.00  0.00     0.251 C 
ATOM     28  H   UNL A   1      31.980  34.365  26.891  1.00  0.00     0.163 HD
ATOM     29  O   UNL A   1      32.709  35.717  28.716  1.00  0.00    -0.269 OA
BRANCH  27  30
ATOM     30  C   UNL A   1      34.277  34.067  29.304  1.00  0.00     0.039 A 
ATOM     31  C   UNL A   1      35.584  34.421  28.946  1.00  0.00     0.014 A 
ATOM     32  C   UNL A   1      34.081  33.171  30.356  1.00  0.00     0.014 A 
ATOM     33  C   UNL A   1      36.673  33.894  29.650  1.00  0.00     0.010 A 
ATOM     34  C   UNL A   1      35.158  32.743  31.131  1.00  0.00     0.010 A 
ATOM     35  C   UNL A   1      36.471  33.059  30.758  1.00  0.00    -0.014 A 
BRANCH  35  36
ATOM     36  C   UNL A   1      37.613  32.446  31.489  1.00  0.00     0.031 A 
ATOM     37  C   UNL A   1      38.396  31.318  30.859  1.00  0.00     0.074 A 
ATOM     38  C   UNL A   1      37.917  32.858  32.738  1.00  0.00     0.049 A 
ATOM     39  N   UNL A   1      39.396  30.632  31.349  1.00  0.00    -0.248 NA
ATOM     40  C   UNL A   1      37.985  30.879  29.512  1.00  0.00     0.031 C 
ATOM     41  C   UNL A   1      37.190  33.879  33.495  1.00  0.00     0.029 A 
ATOM     42  N   UNL A   1      38.906  32.451  33.600  1.00  0.00    -0.354 N 
ATOM     43  C   UNL A   1      39.694  29.657  30.402  1.00  0.00     0.074 A 
ATOM     44  C   UNL A   1      38.752  29.817  29.320  1.00  0.00     0.031 C 
ATOM     45  C   UNL A   1      37.758  34.023  34.703  1.00  0.00     0.029 A 
ATOM     46  C   UNL A   1      38.872  33.086  34.820  1.00  0.00     0.049 A 
ATOM     47  H   UNL A   1      39.575  31.768  33.367  1.00  0.00     0.167 HD
ATOM     48  C   UNL A   1      40.683  28.733  30.415  1.00  0.00     0.034 A 
ATOM     49  C   UNL A   1      39.647  32.927  35.912  1.00  0.00     0.034 A 
ATOM     50  C   UNL A   1      41.667  28.623  31.455  1.00  0.00     0.049 A 
ATOM     51  C   UNL A   1      40.787  31.945  35.862  1.00  0.00     0.074 A 
ATOM     52  C   UNL A   1      42.772  27.793  31.507  1.00  0.00     0.029 A 
ATOM     53  N   UNL A   1      41.666  29.365  32.624  1.00  0.00    -0.354 N 
ATOM     54  N   UNL A   1      41.150  31.150  34.884  1.00  0.00    -0.248 NA
ATOM     55  C   UNL A   1      41.653  31.870  37.047  1.00  0.00     0.031 C 
ATOM     56  C   UNL A   1      43.425  28.013  32.724  1.00  0.00     0.029 A 
ATOM     57  C   UNL A   1      42.748  29.008  33.408  1.00  0.00     0.049 A 
ATOM     58  H   UNL A   1      40.994  30.045  32.862  1.00  0.00     0.167 HD
ATOM     59  C   UNL A   1      42.311  30.520  35.318  1.00  0.00     0.074 A 
ATOM     60  C   UNL A   1      42.602  31.040  36.638  1.00  0.00     0.031 C 
ATOM     61  C   UNL A   1      43.063  29.586  34.687  1.00  0.00     0.034 A 
BRANCH  48  62
ATOM     62  C   UNL A   1      40.796  27.790  29.243  1.00  0.00     0.023 A 
ATOM     63  C   UNL A   1      39.940  26.674  29.158  1.00  0.00     0.012 A 
ATOM     64  C   UNL A   1      41.677  28.070  28.181  1.00  0.00     0.148 A 
ATOM     65  C   UNL A   1      39.975  25.837  28.043  1.00  0.00     0.002 A 
ATOM     66  C   UNL A   1      41.672  27.260  27.051  1.00  0.00     0.091 A 
ATOM     67  F   UNL A   1      42.495  29.127  28.290  1.00  0.00    -0.205 F 
ATOM     68  C   UNL A   1      40.829  26.138  26.985  1.00  0.00     0.022 A 
BRANCH  66  69
ATOM     69  S   UNL A   1      42.669  27.610  25.599  1.00  0.00     0.127 S 
ATOM     70  O   UNL A   1      42.395  26.440  24.765  1.00  0.00    -0.237 OA
ATOM     71  O   UNL A   1      42.077  28.856  25.115  1.00  0.00    -0.237 OA
ATOM     72  O   UNL A   1      44.043  27.726  26.069  1.00  0.00    -0.744 OA
ENDBRANCH  66  69
ENDBRANCH  48  62
BRANCH  49  73
ATOM     73  C   UNL A   1      39.411  33.753  37.132  1.00  0.00     0.023 A 
ATOM     74  C   UNL A   1      39.908  35.071  37.190  1.00  0.00     0.012 A 
ATOM     75  C   UNL A   1      38.714  33.235  38.239  1.00  0.00     0.148 A 
ATOM     76  C   UNL A   1      39.758  35.838  38.347  1.00  0.00     0.002 A 
ATOM     77  C   UNL A   1      38.515  34.027  39.366  1.00  0.00     0.091 A 
ATOM     78  F   UNL A   1      38.258  31.977  38.173  1.00  0.00    -0.205 F 
ATOM     79  C   UNL A   1      39.057  35.319  39.431  1.00  0.00     0.022 A 
BRANCH  77  80
ATOM     80  S   UNL A   1      37.506  33.482  40.747  1.00  0.00     0.127 S 
ATOM     81  O   UNL A   1      38.360  32.471  41.362  1.00  0.00    -0.237 OA
ATOM     82  O   UNL A   1      37.357  34.717  41.521  1.00  0.00    -0.237 OA
ATOM     83  O   UNL A   1      36.266  32.998  40.155  1.00  0.00    -0.744 OA
ENDBRANCH  77  80
ENDBRANCH  49  73
BRANCH  61  84
ATOM     84  C   UNL A   1      44.317  29.112  35.374  1.00  0.00     0.023 A 
ATOM     85  C   UNL A   1      45.559  29.702  35.069  1.00  0.00     0.012 A 
ATOM     86  C   UNL A   1      44.246  28.124  36.376  1.00  0.00     0.148 A 
ATOM     87  C   UNL A   1      46.718  29.284  35.723  1.00  0.00     0.002 A 
ATOM     88  C   UNL A   1      45.395  27.753  37.061  1.00  0.00     0.091 A 
ATOM     89  F   UNL A   1      43.056  27.561  36.637  1.00  0.00    -0.205 F 
ATOM     90  C   UNL A   1      46.634  28.321  36.727  1.00  0.00     0.022 A 
BRANCH  88  91
ATOM     91  S   UNL A   1      45.358  26.598  38.436  1.00  0.00     0.127 S 
ATOM     92  O   UNL A   1      43.941  26.611  38.798  1.00  0.00    -0.237 OA
ATOM     93  O   UNL A   1      45.815  25.356  37.811  1.00  0.00    -0.237 OA
ATOM     94  O   UNL A   1      46.266  27.138  39.437  1.00  0.00    -0.744 OA
ENDBRANCH  88  91
ENDBRANCH  61  84
ENDBRANCH  35  36
ENDBRANCH  27  30
ENDBRANCH  25  26
ENDBRANCH  24  25
ENDBRANCH   1  24
TORSDOF 17
ENDMDL
