MODEL 1
REMARK VINA RESULT:     -12.5      0.000      0.000
REMARK SMILES CC(C)Cc1ccc(S(=O)(=O)Nc2cnc(N3CCCC3)c(C(=O)NCCCNC(=O)c3ccc(-c4c5nc(c(-c6cccc(S(=O)(=O)[O-])c6F)c6ccc([nH]6)c(-c6cccc(S(=O)(=O)[O-])c6F)c6nc(c(-c7cccc(S(=O)(=O)[O-])c7F)c7ccc4[nH]7)C=C6)C=C5)cc3)c2)cc1
REMARK SMILES IDX 26 1 25 2 23 3 24 4 22 6 13 7 14 8 95 9 15 10 16 11 12 12
REMARK SMILES IDX 9 14 10 15 11 16 8 17 5 18 6 19 97 20 7 21 96 22 4 23 2 24
REMARK SMILES IDX 1 25 3 26 17 27 18 28 21 29 19 30 20 31 27 32 28 33 29 34
REMARK SMILES IDX 30 35 31 37 32 38 33 39 94 40 34 41 93 42 35 43 36 44 37 45
REMARK SMILES IDX 87 46 38 47 92 48 86 49 88 50 39 51 91 52 85 53 84 54 40 56
REMARK SMILES IDX 72 57 52 58 71 59 53 60 56 61 70 62 89 63 54 64 55 65 69 67
REMARK SMILES IDX 90 68 57 69 41 70 42 71 50 72 43 73 45 74 51 75 44 76 46 77
REMARK SMILES IDX 47 78 48 79 49 80 73 81 74 82 82 83 75 84 77 85 83 86 76 87
REMARK SMILES IDX 78 88 79 89 80 90 81 91 58 92 59 93 67 94 60 95 62 96 68 97
REMARK SMILES IDX 61 98 63 99 64 100 65 101 66 102
REMARK H PARENT 25 5 12 13 29 36 88 55 56 66
REMARK Flexibility Score: inf
ROOT
ATOM      1  C   UNL A   1      36.182  21.070  25.098  1.00  0.00     0.118 C 
ENDROOT
BRANCH   1   2
ATOM      2  N   UNL A   1      35.186  20.775  26.102  1.00  0.00    -0.352 N 
ATOM      3  C   UNL A   1      33.816  20.748  26.121  1.00  0.00     0.255 C 
ATOM      4  O   UNL A   1      33.345  20.566  27.241  1.00  0.00    -0.269 OA
ATOM      5  H   UNL A   1      35.581  20.540  26.972  1.00  0.00     0.163 HD
BRANCH   3   6
ATOM      6  C   UNL A   1      32.965  20.860  24.886  1.00  0.00     0.084 A 
ATOM      7  C   UNL A   1      32.084  22.244  23.116  1.00  0.00     0.068 A 
ATOM      8  C   UNL A   1      31.867  21.088  22.388  1.00  0.00     0.140 A 
ATOM      9  C   UNL A   1      32.521  22.112  24.425  1.00  0.00     0.046 A 
ATOM     10  N   UNL A   1      32.173  19.855  22.836  1.00  0.00    -0.236 NA
ATOM     11  C   UNL A   1      32.729  19.728  24.072  1.00  0.00     0.141 A 
BRANCH   7  12
ATOM     12  N   UNL A   1      31.875  23.501  22.462  1.00  0.00    -0.278 N 
ATOM     13  H   UNL A   1      30.958  23.805  22.270  1.00  0.00     0.180 HD
BRANCH  12  14
ATOM     14  S   UNL A   1      33.204  24.480  22.010  1.00  0.00     0.261 S 
ATOM     15  O   UNL A   1      32.695  25.251  20.891  1.00  0.00    -0.201 OA
ATOM     16  O   UNL A   1      34.341  23.606  21.852  1.00  0.00    -0.201 OA
BRANCH  14  17
ATOM     17  C   UNL A   1      33.625  25.671  23.266  1.00  0.00     0.087 A 
ATOM     18  C   UNL A   1      33.803  27.645  25.278  1.00  0.00    -0.048 A 
ATOM     19  C   UNL A   1      33.558  28.003  23.943  1.00  0.00     0.005 A 
ATOM     20  C   UNL A   1      34.022  26.291  25.566  1.00  0.00     0.005 A 
ATOM     21  C   UNL A   1      33.451  27.026  22.946  1.00  0.00     0.022 A 
ATOM     22  C   UNL A   1      33.991  25.317  24.560  1.00  0.00     0.022 A 
BRANCH  18  23
ATOM     23  C   UNL A   1      33.758  28.740  26.327  1.00  0.00     0.038 C 
BRANCH  23  24
ATOM     24  C   UNL A   1      32.471  28.920  27.162  1.00  0.00    -0.013 C 
ATOM     25  C   UNL A   1      31.802  30.275  26.916  1.00  0.00     0.008 C 
ATOM     26  C   UNL A   1      31.469  27.809  26.824  1.00  0.00     0.008 C 
ENDBRANCH  23  24
ENDBRANCH  18  23
ENDBRANCH  14  17
ENDBRANCH  12  14
ENDBRANCH   7  12
BRANCH  11  27
ATOM     27  N   UNL A   1      33.084  18.455  24.412  1.00  0.00    -0.356 N 
ATOM     28  C   UNL A   1      34.413  17.916  24.178  1.00  0.00     0.118 C 
ATOM     29  C   UNL A   1      32.407  17.719  25.467  1.00  0.00     0.118 C 
ATOM     30  C   UNL A   1      34.157  16.428  24.390  1.00  0.00     0.023 C 
ATOM     31  C   UNL A   1      33.229  16.428  25.602  1.00  0.00     0.023 C 
ENDBRANCH  11  27
ENDBRANCH   3   6
ENDBRANCH   1   2
BRANCH   1  32
ATOM     32  C   UNL A   1      36.226  22.563  24.798  1.00  0.00     0.042 C 
BRANCH  32  33
ATOM     33  C   UNL A   1      37.290  23.290  25.609  1.00  0.00     0.118 C 
BRANCH  33  34
ATOM     34  N   UNL A   1      38.309  22.377  26.108  1.00  0.00    -0.352 N 
ATOM     35  C   UNL A   1      39.533  22.663  26.654  1.00  0.00     0.251 C 
ATOM     36  H   UNL A   1      38.088  21.420  26.044  1.00  0.00     0.163 HD
ATOM     37  O   UNL A   1      40.352  21.762  26.812  1.00  0.00    -0.269 OA
BRANCH  35  38
ATOM     38  C   UNL A   1      39.859  24.048  27.048  1.00  0.00     0.039 A 
ATOM     39  C   UNL A   1      40.311  24.941  26.073  1.00  0.00     0.014 A 
ATOM     40  C   UNL A   1      39.755  24.454  28.383  1.00  0.00     0.014 A 
ATOM     41  C   UNL A   1      40.640  26.248  26.434  1.00  0.00     0.010 A 
ATOM     42  C   UNL A   1      40.007  25.777  28.725  1.00  0.00     0.010 A 
ATOM     43  C   UNL A   1      40.484  26.675  27.762  1.00  0.00    -0.014 A 
BRANCH  43  44
ATOM     44  C   UNL A   1      40.868  28.045  28.178  1.00  0.00     0.031 A 
ATOM     45  C   UNL A   1      42.319  28.444  28.185  1.00  0.00     0.074 A 
ATOM     46  C   UNL A   1      39.928  28.891  28.637  1.00  0.00     0.049 A 
ATOM     47  N   UNL A   1      42.861  29.575  28.555  1.00  0.00    -0.248 NA
ATOM     48  C   UNL A   1      43.292  27.425  27.758  1.00  0.00     0.031 C 
ATOM     49  C   UNL A   1      38.507  28.575  28.787  1.00  0.00     0.029 A 
ATOM     50  N   UNL A   1      40.036  30.179  29.093  1.00  0.00    -0.354 N 
ATOM     51  C   UNL A   1      44.233  29.386  28.458  1.00  0.00     0.074 A 
ATOM     52  C   UNL A   1      44.444  28.021  28.028  1.00  0.00     0.031 C 
ATOM     53  C   UNL A   1      37.875  29.641  29.306  1.00  0.00     0.029 A 
ATOM     54  C   UNL A   1      38.845  30.710  29.528  1.00  0.00     0.049 A 
ATOM     55  H   UNL A   1      40.885  30.677  29.109  1.00  0.00     0.167 HD
ATOM     56  C   UNL A   1      45.230  30.277  28.669  1.00  0.00     0.034 A 
ATOM     57  C   UNL A   1      38.565  31.926  30.035  1.00  0.00     0.034 A 
ATOM     58  C   UNL A   1      45.008  31.655  29.011  1.00  0.00     0.049 A 
ATOM     59  C   UNL A   1      39.667  32.947  30.122  1.00  0.00     0.074 A 
ATOM     60  C   UNL A   1      45.934  32.676  29.125  1.00  0.00     0.029 A 
ATOM     61  N   UNL A   1      43.767  32.205  29.285  1.00  0.00    -0.354 N 
ATOM     62  N   UNL A   1      40.940  32.808  29.839  1.00  0.00    -0.248 NA
ATOM     63  C   UNL A   1      39.289  34.302  30.544  1.00  0.00     0.031 C 
ATOM     64  C   UNL A   1      45.248  33.848  29.462  1.00  0.00     0.029 A 
ATOM     65  C   UNL A   1      43.896  33.555  29.559  1.00  0.00     0.049 A 
ATOM     66  H   UNL A   1      42.916  31.709  29.284  1.00  0.00     0.167 HD
ATOM     67  C   UNL A   1      41.511  34.063  30.020  1.00  0.00     0.074 A 
ATOM     68  C   UNL A   1      40.438  34.954  30.415  1.00  0.00     0.031 C 
ATOM     69  C   UNL A   1      42.808  34.439  29.890  1.00  0.00     0.034 A 
BRANCH  56  70
ATOM     70  C   UNL A   1      46.641  29.800  28.450  1.00  0.00     0.023 A 
ATOM     71  C   UNL A   1      47.220  29.922  27.170  1.00  0.00     0.012 A 
ATOM     72  C   UNL A   1      47.398  29.244  29.498  1.00  0.00     0.148 A 
ATOM     73  C   UNL A   1      48.513  29.459  26.926  1.00  0.00     0.002 A 
ATOM     74  C   UNL A   1      48.701  28.822  29.256  1.00  0.00     0.091 A 
ATOM     75  F   UNL A   1      46.826  29.104  30.703  1.00  0.00    -0.205 F 
ATOM     76  C   UNL A   1      49.256  28.918  27.971  1.00  0.00     0.022 A 
BRANCH  74  77
ATOM     77  S   UNL A   1      49.745  28.179  30.571  1.00  0.00     0.127 S 
ATOM     78  O   UNL A   1      49.744  29.288  31.522  1.00  0.00    -0.237 OA
ATOM     79  O   UNL A   1      49.006  26.996  31.016  1.00  0.00    -0.237 OA
ATOM     80  O   UNL A   1      51.022  27.881  29.938  1.00  0.00    -0.744 OA
ENDBRANCH  74  77
ENDBRANCH  56  70
BRANCH  57  81
ATOM     81  C   UNL A   1      37.157  32.262  30.384  1.00  0.00     0.023 A 
ATOM     82  C   UNL A   1      36.704  32.038  31.698  1.00  0.00     0.012 A 
ATOM     83  C   UNL A   1      36.299  32.880  29.454  1.00  0.00     0.148 A 
ATOM     84  C   UNL A   1      35.413  32.407  32.076  1.00  0.00     0.002 A 
ATOM     85  C   UNL A   1      35.031  33.289  29.851  1.00  0.00     0.091 A 
ATOM     86  F   UNL A   1      36.749  33.078  28.207  1.00  0.00    -0.205 F 
ATOM     87  C   UNL A   1      34.582  33.043  31.159  1.00  0.00     0.022 A 
BRANCH  85  88
ATOM     88  S   UNL A   1      33.943  34.235  28.777  1.00  0.00     0.127 S 
ATOM     89  O   UNL A   1      33.572  33.239  27.776  1.00  0.00    -0.237 OA
ATOM     90  O   UNL A   1      32.868  34.616  29.695  1.00  0.00    -0.237 OA
ATOM     91  O   UNL A   1      34.742  35.353  28.295  1.00  0.00    -0.744 OA
ENDBRANCH  85  88
ENDBRANCH  57  81
BRANCH  69  92
ATOM     92  C   UNL A   1      43.146  35.879  30.162  1.00  0.00     0.023 A 
ATOM     93  C   UNL A   1      43.676  36.240  31.416  1.00  0.00     0.012 A 
ATOM     94  C   UNL A   1      43.019  36.856  29.157  1.00  0.00     0.148 A 
ATOM     95  C   UNL A   1      44.056  37.557  31.672  1.00  0.00     0.002 A 
ATOM     96  C   UNL A   1      43.436  38.159  29.406  1.00  0.00     0.091 A 
ATOM     97  F   UNL A   1      42.488  36.499  27.977  1.00  0.00    -0.205 F 
ATOM     98  C   UNL A   1      43.947  38.513  30.663  1.00  0.00     0.022 A 
BRANCH  96  99
ATOM     99  S   UNL A   1      43.407  39.417  28.123  1.00  0.00     0.127 S 
ATOM    100  O   UNL A   1      41.974  39.569  27.884  1.00  0.00    -0.237 OA
ATOM    101  O   UNL A   1      44.038  40.562  28.784  1.00  0.00    -0.237 OA
ATOM    102  O   UNL A   1      44.182  38.866  27.021  1.00  0.00    -0.744 OA
ENDBRANCH  96  99
ENDBRANCH  69  92
ENDBRANCH  43  44
ENDBRANCH  35  38
ENDBRANCH  33  34
ENDBRANCH  32  33
ENDBRANCH   1  32
TORSDOF 19
ENDMDL
MODEL 2
REMARK VINA RESULT:     -12.2      2.082      2.489
REMARK SMILES CC(C)Cc1ccc(S(=O)(=O)Nc2cnc(N3CCCC3)c(C(=O)NCCCNC(=O)c3ccc(-c4c5nc(c(-c6cccc(S(=O)(=O)[O-])c6F)c6ccc([nH]6)c(-c6cccc(S(=O)(=O)[O-])c6F)c6nc(c(-c7cccc(S(=O)(=O)[O-])c7F)c7ccc4[nH]7)C=C6)C=C5)cc3)c2)cc1
REMARK SMILES IDX 26 1 25 2 23 3 24 4 22 6 13 7 14 8 95 9 15 10 16 11 12 12
REMARK SMILES IDX 9 14 10 15 11 16 8 17 5 18 6 19 97 20 7 21 96 22 4 23 2 24
REMARK SMILES IDX 1 25 3 26 17 27 18 28 21 29 19 30 20 31 27 32 28 33 29 34
REMARK SMILES IDX 30 35 31 37 32 38 33 39 94 40 34 41 93 42 35 43 36 44 37 45
REMARK SMILES IDX 87 46 38 47 92 48 86 49 88 50 39 51 91 52 85 53 84 54 40 56
REMARK SMILES IDX 72 57 52 58 71 59 53 60 56 61 70 62 89 63 54 64 55 65 69 67
REMARK SMILES IDX 90 68 57 69 41 70 42 71 50 72 43 73 45 74 51 75 44 76 46 77
REMARK SMILES IDX 47 78 48 79 49 80 73 81 74 82 82 83 75 84 77 85 83 86 76 87
REMARK SMILES IDX 78 88 79 89 80 90 81 91 58 92 59 93 67 94 60 95 62 96 68 97
REMARK SMILES IDX 61 98 63 99 64 100 65 101 66 102
REMARK H PARENT 25 5 12 13 29 36 88 55 56 66
REMARK Flexibility Score: inf
ROOT
ATOM      1  C   UNL A   1      36.127  20.756  25.012  1.00  0.00     0.118 C 
ENDROOT
BRANCH   1   2
ATOM      2  N   UNL A   1      35.106  20.662  26.029  1.00  0.00    -0.352 N 
ATOM      3  C   UNL A   1      33.741  20.791  26.040  1.00  0.00     0.255 C 
ATOM      4  O   UNL A   1      33.255  20.761  27.168  1.00  0.00    -0.269 OA
ATOM      5  H   UNL A   1      35.474  20.460  26.920  1.00  0.00     0.163 HD
BRANCH   3   6
ATOM      6  C   UNL A   1      32.907  20.892  24.794  1.00  0.00     0.084 A 
ATOM      7  C   UNL A   1      32.032  22.265  23.011  1.00  0.00     0.068 A 
ATOM      8  C   UNL A   1      31.840  21.106  22.280  1.00  0.00     0.140 A 
ATOM      9  C   UNL A   1      32.453  22.139  24.325  1.00  0.00     0.046 A 
ATOM     10  N   UNL A   1      32.155  19.877  22.733  1.00  0.00    -0.236 NA
ATOM     11  C   UNL A   1      32.695  19.757  23.977  1.00  0.00     0.141 A 
BRANCH   7  12
ATOM     12  N   UNL A   1      31.817  23.518  22.353  1.00  0.00    -0.278 N 
ATOM     13  H   UNL A   1      30.942  23.711  21.944  1.00  0.00     0.180 HD
BRANCH  12  14
ATOM     14  S   UNL A   1      33.067  24.685  22.270  1.00  0.00     0.261 S 
ATOM     15  O   UNL A   1      32.715  25.479  21.106  1.00  0.00    -0.201 OA
ATOM     16  O   UNL A   1      34.319  23.972  22.330  1.00  0.00    -0.201 OA
BRANCH  14  17
ATOM     17  C   UNL A   1      33.034  25.811  23.650  1.00  0.00     0.087 A 
ATOM     18  C   UNL A   1      32.525  27.415  25.917  1.00  0.00    -0.048 A 
ATOM     19  C   UNL A   1      31.924  27.709  24.683  1.00  0.00     0.005 A 
ATOM     20  C   UNL A   1      33.432  26.348  25.971  1.00  0.00     0.005 A 
ATOM     21  C   UNL A   1      32.160  26.905  23.562  1.00  0.00     0.022 A 
ATOM     22  C   UNL A   1      33.728  25.586  24.833  1.00  0.00     0.022 A 
BRANCH  18  23
ATOM     23  C   UNL A   1      32.110  28.237  27.123  1.00  0.00     0.038 C 
BRANCH  23  24
ATOM     24  C   UNL A   1      32.798  29.599  27.369  1.00  0.00    -0.013 C 
ATOM     25  C   UNL A   1      34.243  29.620  26.864  1.00  0.00     0.008 C 
ATOM     26  C   UNL A   1      32.015  30.714  26.665  1.00  0.00     0.008 C 
ENDBRANCH  23  24
ENDBRANCH  18  23
ENDBRANCH  14  17
ENDBRANCH  12  14
ENDBRANCH   7  12
BRANCH  11  27
ATOM     27  N   UNL A   1      33.061  18.489  24.323  1.00  0.00    -0.356 N 
ATOM     28  C   UNL A   1      32.316  17.683  25.277  1.00  0.00     0.118 C 
ATOM     29  C   UNL A   1      33.855  17.645  23.446  1.00  0.00     0.118 C 
ATOM     30  C   UNL A   1      33.321  16.572  25.555  1.00  0.00     0.023 C 
ATOM     31  C   UNL A   1      33.884  16.288  24.165  1.00  0.00     0.023 C 
ENDBRANCH  11  27
ENDBRANCH   3   6
ENDBRANCH   1   2
BRANCH   1  32
ATOM     32  C   UNL A   1      36.405  22.210  24.653  1.00  0.00     0.042 C 
BRANCH  32  33
ATOM     33  C   UNL A   1      37.577  22.790  25.433  1.00  0.00     0.118 C 
BRANCH  33  34
ATOM     34  N   UNL A   1      38.362  21.750  26.083  1.00  0.00    -0.352 N 
ATOM     35  C   UNL A   1      39.579  21.848  26.706  1.00  0.00     0.251 C 
ATOM     36  H   UNL A   1      37.963  20.851  26.074  1.00  0.00     0.163 HD
ATOM     37  O   UNL A   1      40.193  20.826  27.000  1.00  0.00    -0.269 OA
BRANCH  35  38
ATOM     38  C   UNL A   1      40.142  23.177  27.018  1.00  0.00     0.039 A 
ATOM     39  C   UNL A   1      40.960  23.319  28.142  1.00  0.00     0.014 A 
ATOM     40  C   UNL A   1      39.833  24.287  26.226  1.00  0.00     0.014 A 
ATOM     41  C   UNL A   1      41.485  24.572  28.459  1.00  0.00     0.010 A 
ATOM     42  C   UNL A   1      40.420  25.516  26.498  1.00  0.00     0.010 A 
ATOM     43  C   UNL A   1      41.222  25.678  27.635  1.00  0.00    -0.014 A 
BRANCH  43  44
ATOM     44  C   UNL A   1      41.732  27.027  27.975  1.00  0.00     0.031 A 
ATOM     45  C   UNL A   1      43.159  27.387  27.661  1.00  0.00     0.074 A 
ATOM     46  C   UNL A   1      40.947  27.887  28.648  1.00  0.00     0.049 A 
ATOM     47  N   UNL A   1      43.805  28.494  27.917  1.00  0.00    -0.248 NA
ATOM     48  C   UNL A   1      43.979  26.352  27.009  1.00  0.00     0.031 C 
ATOM     49  C   UNL A   1      39.587  27.606  29.112  1.00  0.00     0.029 A 
ATOM     50  N   UNL A   1      41.194  29.161  29.089  1.00  0.00    -0.354 N 
ATOM     51  C   UNL A   1      45.114  28.271  27.509  1.00  0.00     0.074 A 
ATOM     52  C   UNL A   1      45.180  26.912  27.020  1.00  0.00     0.031 C 
ATOM     53  C   UNL A   1      39.122  28.676  29.776  1.00  0.00     0.029 A 
ATOM     54  C   UNL A   1      40.149  29.714  29.790  1.00  0.00     0.049 A 
ATOM     55  H   UNL A   1      42.040  29.636  28.920  1.00  0.00     0.167 HD
ATOM     56  C   UNL A   1      46.160  29.131  27.502  1.00  0.00     0.034 A 
ATOM     57  C   UNL A   1      40.029  30.925  30.367  1.00  0.00     0.034 A 
ATOM     58  C   UNL A   1      46.063  30.506  27.908  1.00  0.00     0.049 A 
ATOM     59  C   UNL A   1      41.153  31.914  30.219  1.00  0.00     0.074 A 
ATOM     60  C   UNL A   1      47.023  31.499  27.825  1.00  0.00     0.029 A 
ATOM     61  N   UNL A   1      44.934  31.083  28.464  1.00  0.00    -0.354 N 
ATOM     62  N   UNL A   1      42.325  31.748  29.653  1.00  0.00    -0.248 NA
ATOM     63  C   UNL A   1      40.922  33.269  30.736  1.00  0.00     0.031 C 
ATOM     64  C   UNL A   1      46.467  32.681  28.328  1.00  0.00     0.029 A 
ATOM     65  C   UNL A   1      45.163  32.422  28.723  1.00  0.00     0.049 A 
ATOM     66  H   UNL A   1      44.090  30.610  28.648  1.00  0.00     0.167 HD
ATOM     67  C   UNL A   1      42.960  32.983  29.720  1.00  0.00     0.074 A 
ATOM     68  C   UNL A   1      42.032  33.893  30.361  1.00  0.00     0.031 C 
ATOM     69  C   UNL A   1      44.205  33.327  29.306  1.00  0.00     0.034 A 
BRANCH  56  70
ATOM     70  C   UNL A   1      47.470  28.621  26.963  1.00  0.00     0.023 A 
ATOM     71  C   UNL A   1      48.586  28.544  27.822  1.00  0.00     0.012 A 
ATOM     72  C   UNL A   1      47.602  28.211  25.623  1.00  0.00     0.148 A 
ATOM     73  C   UNL A   1      49.823  28.108  27.345  1.00  0.00     0.002 A 
ATOM     74  C   UNL A   1      48.828  27.740  25.166  1.00  0.00     0.091 A 
ATOM     75  F   UNL A   1      46.542  28.319  24.808  1.00  0.00    -0.205 F 
ATOM     76  C   UNL A   1      49.941  27.698  26.021  1.00  0.00     0.022 A 
BRANCH  74  77
ATOM     77  S   UNL A   1      49.039  27.126  23.490  1.00  0.00     0.127 S 
ATOM     78  O   UNL A   1      48.598  28.270  22.695  1.00  0.00    -0.237 OA
ATOM     79  O   UNL A   1      50.478  26.860  23.426  1.00  0.00    -0.237 OA
ATOM     80  O   UNL A   1      48.208  25.933  23.410  1.00  0.00    -0.744 OA
ENDBRANCH  74  77
ENDBRANCH  56  70
BRANCH  57  81
ATOM     81  C   UNL A   1      38.747  31.290  31.030  1.00  0.00     0.023 A 
ATOM     82  C   UNL A   1      38.654  31.210  32.433  1.00  0.00     0.012 A 
ATOM     83  C   UNL A   1      37.660  31.798  30.295  1.00  0.00     0.148 A 
ATOM     84  C   UNL A   1      37.492  31.612  33.091  1.00  0.00     0.002 A 
ATOM     85  C   UNL A   1      36.523  32.242  30.960  1.00  0.00     0.091 A 
ATOM     86  F   UNL A   1      37.768  31.859  28.960  1.00  0.00    -0.205 F 
ATOM     87  C   UNL A   1      36.432  32.139  32.358  1.00  0.00     0.022 A 
BRANCH  85  88
ATOM     88  S   UNL A   1      35.165  33.058  30.111  1.00  0.00     0.127 S 
ATOM     89  O   UNL A   1      34.660  31.986  29.258  1.00  0.00    -0.237 OA
ATOM     90  O   UNL A   1      34.288  33.425  31.224  1.00  0.00    -0.237 OA
ATOM     91  O   UNL A   1      35.760  34.193  29.420  1.00  0.00    -0.744 OA
ENDBRANCH  85  88
ENDBRANCH  57  81
BRANCH  69  92
ATOM     92  C   UNL A   1      44.641  34.751  29.518  1.00  0.00     0.023 A 
ATOM     93  C   UNL A   1      45.241  35.117  30.738  1.00  0.00     0.012 A 
ATOM     94  C   UNL A   1      44.533  35.702  28.486  1.00  0.00     0.148 A 
ATOM     95  C   UNL A   1      45.710  36.415  30.935  1.00  0.00     0.002 A 
ATOM     96  C   UNL A   1      45.037  36.984  28.676  1.00  0.00     0.091 A 
ATOM     97  F   UNL A   1      43.935  35.344  27.339  1.00  0.00    -0.205 F 
ATOM     98  C   UNL A   1      45.619  37.344  29.901  1.00  0.00     0.022 A 
BRANCH  96  99
ATOM     99  S   UNL A   1      45.033  38.203  27.355  1.00  0.00     0.127 S 
ATOM    100  O   UNL A   1      45.932  37.591  26.379  1.00  0.00    -0.237 OA
ATOM    101  O   UNL A   1      43.626  38.233  26.952  1.00  0.00    -0.237 OA
ATOM    102  O   UNL A   1      45.503  39.438  27.966  1.00  0.00    -0.744 OA
ENDBRANCH  96  99
ENDBRANCH  69  92
ENDBRANCH  43  44
ENDBRANCH  35  38
ENDBRANCH  33  34
ENDBRANCH  32  33
ENDBRANCH   1  32
TORSDOF 19
ENDMDL
MODEL 3
REMARK VINA RESULT:     -11.5      2.934      3.896
REMARK SMILES CC(C)Cc1ccc(S(=O)(=O)Nc2cnc(N3CCCC3)c(C(=O)NCCCNC(=O)c3ccc(-c4c5nc(c(-c6cccc(S(=O)(=O)[O-])c6F)c6ccc([nH]6)c(-c6cccc(S(=O)(=O)[O-])c6F)c6nc(c(-c7cccc(S(=O)(=O)[O-])c7F)c7ccc4[nH]7)C=C6)C=C5)cc3)c2)cc1
REMARK SMILES IDX 26 1 25 2 23 3 24 4 22 6 13 7 14 8 95 9 15 10 16 11 12 12
REMARK SMILES IDX 9 14 10 15 11 16 8 17 5 18 6 19 97 20 7 21 96 22 4 23 2 24
REMARK SMILES IDX 1 25 3 26 17 27 18 28 21 29 19 30 20 31 27 32 28 33 29 34
REMARK SMILES IDX 30 35 31 37 32 38 33 39 94 40 34 41 93 42 35 43 36 44 37 45
REMARK SMILES IDX 87 46 38 47 92 48 86 49 88 50 39 51 91 52 85 53 84 54 40 56
REMARK SMILES IDX 72 57 52 58 71 59 53 60 56 61 70 62 89 63 54 64 55 65 69 67
REMARK SMILES IDX 90 68 57 69 41 70 42 71 50 72 43 73 45 74 51 75 44 76 46 77
REMARK SMILES IDX 47 78 48 79 49 80 73 81 74 82 82 83 75 84 77 85 83 86 76 87
REMARK SMILES IDX 78 88 79 89 80 90 81 91 58 92 59 93 67 94 60 95 62 96 68 97
REMARK SMILES IDX 61 98 63 99 64 100 65 101 66 102
REMARK H PARENT 25 5 12 13 29 36 88 55 56 66
REMARK Flexibility Score: inf
ROOT
ATOM      1  C   UNL A   1      34.895  23.725  25.757  1.00  0.00     0.118 C 
ENDROOT
BRANCH   1   2
ATOM      2  N   UNL A   1      33.913  23.354  26.749  1.00  0.00    -0.352 N 
ATOM      3  C   UNL A   1      32.546  23.431  26.829  1.00  0.00     0.255 C 
ATOM      4  O   UNL A   1      32.101  23.113  27.929  1.00  0.00    -0.269 OA
ATOM      5  H   UNL A   1      34.316  22.955  27.553  1.00  0.00     0.163 HD
BRANCH   3   6
ATOM      6  C   UNL A   1      31.666  23.804  25.669  1.00  0.00     0.084 A 
ATOM      7  C   UNL A   1      30.570  25.535  24.392  1.00  0.00     0.068 A 
ATOM      8  C   UNL A   1      30.502  24.643  23.336  1.00  0.00     0.140 A 
ATOM      9  C   UNL A   1      31.045  25.064  25.606  1.00  0.00     0.046 A 
ATOM     10  N   UNL A   1      30.983  23.386  23.388  1.00  0.00    -0.236 NA
ATOM     11  C   UNL A   1      31.573  22.959  24.538  1.00  0.00     0.141 A 
BRANCH   7  12
ATOM     12  N   UNL A   1      30.178  26.892  24.154  1.00  0.00    -0.278 N 
ATOM     13  H   UNL A   1      29.229  27.144  24.220  1.00  0.00     0.180 HD
BRANCH  12  14
ATOM     14  S   UNL A   1      31.345  28.078  23.756  1.00  0.00     0.261 S 
ATOM     15  O   UNL A   1      30.549  29.182  23.249  1.00  0.00    -0.201 OA
ATOM     16  O   UNL A   1      32.337  27.439  22.926  1.00  0.00    -0.201 OA
BRANCH  14  17
ATOM     17  C   UNL A   1      32.186  28.710  25.193  1.00  0.00     0.087 A 
ATOM     18  C   UNL A   1      33.887  29.820  27.155  1.00  0.00    -0.048 A 
ATOM     19  C   UNL A   1      34.142  28.545  26.625  1.00  0.00     0.005 A 
ATOM     20  C   UNL A   1      32.732  30.490  26.732  1.00  0.00     0.005 A 
ATOM     21  C   UNL A   1      33.311  28.000  25.639  1.00  0.00     0.022 A 
ATOM     22  C   UNL A   1      31.856  29.916  25.800  1.00  0.00     0.022 A 
BRANCH  18  23
ATOM     23  C   UNL A   1      34.909  30.410  28.109  1.00  0.00     0.038 C 
BRANCH  23  24
ATOM     24  C   UNL A   1      36.187  29.601  28.425  1.00  0.00    -0.013 C 
ATOM     25  C   UNL A   1      37.425  30.175  27.730  1.00  0.00     0.008 C 
ATOM     26  C   UNL A   1      36.436  29.588  29.939  1.00  0.00     0.008 C 
ENDBRANCH  23  24
ENDBRANCH  18  23
ENDBRANCH  14  17
ENDBRANCH  12  14
ENDBRANCH   7  12
BRANCH  11  27
ATOM     27  N   UNL A   1      32.106  21.705  24.477  1.00  0.00    -0.356 N 
ATOM     28  C   UNL A   1      31.771  20.655  25.425  1.00  0.00     0.118 C 
ATOM     29  C   UNL A   1      32.608  21.137  23.237  1.00  0.00     0.118 C 
ATOM     30  C   UNL A   1      32.873  19.645  25.132  1.00  0.00     0.023 C 
ATOM     31  C   UNL A   1      32.955  19.687  23.608  1.00  0.00     0.023 C 
ENDBRANCH  11  27
ENDBRANCH   3   6
ENDBRANCH   1   2
BRANCH   1  32
ATOM     32  C   UNL A   1      36.291  23.773  26.366  1.00  0.00     0.042 C 
BRANCH  32  33
ATOM     33  C   UNL A   1      37.358  23.238  25.421  1.00  0.00     0.118 C 
BRANCH  33  34
ATOM     34  N   UNL A   1      38.084  22.118  26.003  1.00  0.00    -0.352 N 
ATOM     35  C   UNL A   1      39.334  22.097  26.563  1.00  0.00     0.251 C 
ATOM     36  H   UNL A   1      37.611  21.255  25.993  1.00  0.00     0.163 HD
ATOM     37  O   UNL A   1      39.875  21.020  26.799  1.00  0.00    -0.269 OA
BRANCH  35  38
ATOM     38  C   UNL A   1      40.022  23.366  26.879  1.00  0.00     0.039 A 
ATOM     39  C   UNL A   1      39.822  24.470  26.047  1.00  0.00     0.014 A 
ATOM     40  C   UNL A   1      40.893  23.453  27.970  1.00  0.00     0.014 A 
ATOM     41  C   UNL A   1      40.479  25.669  26.322  1.00  0.00     0.010 A 
ATOM     42  C   UNL A   1      41.483  24.670  28.288  1.00  0.00     0.010 A 
ATOM     43  C   UNL A   1      41.310  25.778  27.448  1.00  0.00    -0.014 A 
BRANCH  43  44
ATOM     44  C   UNL A   1      42.052  27.027  27.736  1.00  0.00     0.031 A 
ATOM     45  C   UNL A   1      43.484  27.164  27.295  1.00  0.00     0.074 A 
ATOM     46  C   UNL A   1      41.473  27.993  28.473  1.00  0.00     0.049 A 
ATOM     47  N   UNL A   1      44.315  28.154  27.489  1.00  0.00    -0.248 NA
ATOM     48  C   UNL A   1      44.072  26.021  26.577  1.00  0.00     0.031 C 
ATOM     49  C   UNL A   1      40.132  27.923  29.056  1.00  0.00     0.029 A 
ATOM     50  N   UNL A   1      41.955  29.209  28.885  1.00  0.00    -0.354 N 
ATOM     51  C   UNL A   1      45.532  27.734  26.968  1.00  0.00     0.074 A 
ATOM     52  C   UNL A   1      45.342  26.385  26.480  1.00  0.00     0.031 C 
ATOM     53  C   UNL A   1      39.900  29.046  29.755  1.00  0.00     0.029 A 
ATOM     54  C   UNL A   1      41.074  29.910  29.674  1.00  0.00     0.049 A 
ATOM     55  H   UNL A   1      42.846  29.547  28.640  1.00  0.00     0.167 HD
ATOM     56  C   UNL A   1      46.695  28.420  26.866  1.00  0.00     0.034 A 
ATOM     57  C   UNL A   1      41.197  31.119  30.255  1.00  0.00     0.034 A 
ATOM     58  C   UNL A   1      46.851  29.788  27.273  1.00  0.00     0.049 A 
ATOM     59  C   UNL A   1      42.444  31.922  30.004  1.00  0.00     0.074 A 
ATOM     60  C   UNL A   1      47.943  30.621  27.102  1.00  0.00     0.029 A 
ATOM     61  N   UNL A   1      45.879  30.529  27.925  1.00  0.00    -0.354 N 
ATOM     62  N   UNL A   1      43.521  31.581  29.337  1.00  0.00    -0.248 NA
ATOM     63  C   UNL A   1      42.474  33.292  30.535  1.00  0.00     0.031 C 
ATOM     64  C   UNL A   1      47.625  31.870  27.648  1.00  0.00     0.029 A 
ATOM     65  C   UNL A   1      46.337  31.813  28.158  1.00  0.00     0.049 A 
ATOM     66  H   UNL A   1      44.991  30.192  28.184  1.00  0.00     0.167 HD
ATOM     67  C   UNL A   1      44.345  32.701  29.343  1.00  0.00     0.074 A 
ATOM     68  C   UNL A   1      43.630  33.738  30.061  1.00  0.00     0.031 C 
ATOM     69  C   UNL A   1      45.587  32.851  28.820  1.00  0.00     0.034 A 
BRANCH  56  70
ATOM     70  C   UNL A   1      47.857  27.717  26.215  1.00  0.00     0.023 A 
ATOM     71  C   UNL A   1      48.071  27.877  24.830  1.00  0.00     0.012 A 
ATOM     72  C   UNL A   1      48.739  26.913  26.960  1.00  0.00     0.148 A 
ATOM     73  C   UNL A   1      49.118  27.214  24.189  1.00  0.00     0.002 A 
ATOM     74  C   UNL A   1      49.804  26.287  26.320  1.00  0.00     0.091 A 
ATOM     75  F   UNL A   1      48.507  26.743  28.269  1.00  0.00    -0.205 F 
ATOM     76  C   UNL A   1      49.989  26.427  24.936  1.00  0.00     0.022 A 
BRANCH  74  77
ATOM     77  S   UNL A   1      51.011  25.314  27.230  1.00  0.00     0.127 S 
ATOM     78  O   UNL A   1      50.174  24.267  27.811  1.00  0.00    -0.237 OA
ATOM     79  O   UNL A   1      51.912  24.853  26.171  1.00  0.00    -0.237 OA
ATOM     80  O   UNL A   1      51.623  26.241  28.172  1.00  0.00    -0.744 OA
ENDBRANCH  74  77
ENDBRANCH  56  70
BRANCH  57  81
ATOM     81  C   UNL A   1      40.051  31.674  31.027  1.00  0.00     0.023 A 
ATOM     82  C   UNL A   1      39.031  32.362  30.343  1.00  0.00     0.012 A 
ATOM     83  C   UNL A   1      39.922  31.448  32.411  1.00  0.00     0.148 A 
ATOM     84  C   UNL A   1      37.909  32.832  31.026  1.00  0.00     0.002 A 
ATOM     85  C   UNL A   1      38.779  31.876  33.077  1.00  0.00     0.091 A 
ATOM     86  F   UNL A   1      40.908  30.796  33.044  1.00  0.00    -0.205 F 
ATOM     87  C   UNL A   1      37.777  32.579  32.388  1.00  0.00     0.022 A 
BRANCH  85  88
ATOM     88  S   UNL A   1      38.461  31.478  34.801  1.00  0.00     0.127 S 
ATOM     89  O   UNL A   1      37.186  32.151  35.032  1.00  0.00    -0.237 OA
ATOM     90  O   UNL A   1      38.389  30.016  34.766  1.00  0.00    -0.237 OA
ATOM     91  O   UNL A   1      39.600  32.003  35.541  1.00  0.00    -0.744 OA
ENDBRANCH  85  88
ENDBRANCH  57  81
BRANCH  69  92
ATOM     92  C   UNL A   1      46.257  34.187  28.986  1.00  0.00     0.023 A 
ATOM     93  C   UNL A   1      47.027  34.436  30.138  1.00  0.00     0.012 A 
ATOM     94  C   UNL A   1      46.194  35.161  27.972  1.00  0.00     0.148 A 
ATOM     95  C   UNL A   1      47.708  35.643  30.288  1.00  0.00     0.002 A 
ATOM     96  C   UNL A   1      46.907  36.346  28.110  1.00  0.00     0.091 A 
ATOM     97  F   UNL A   1      45.434  34.918  26.892  1.00  0.00    -0.205 F 
ATOM     98  C   UNL A   1      47.658  36.592  29.269  1.00  0.00     0.022 A 
BRANCH  96  99
ATOM     99  S   UNL A   1      46.957  37.573  26.797  1.00  0.00     0.127 S 
ATOM    100  O   UNL A   1      47.566  36.819  25.704  1.00  0.00    -0.237 OA
ATOM    101  O   UNL A   1      45.541  37.891  26.602  1.00  0.00    -0.237 OA
ATOM    102  O   UNL A   1      47.747  38.676  27.327  1.00  0.00    -0.744 OA
ENDBRANCH  96  99
ENDBRANCH  69  92
ENDBRANCH  43  44
ENDBRANCH  35  38
ENDBRANCH  33  34
ENDBRANCH  32  33
ENDBRANCH   1  32
TORSDOF 19
ENDMDL
