MODEL 1
REMARK VINA RESULT:     -12.9      0.000      0.000
REMARK SMILES C[C@@H](NC(=O)[C@H]1CC=CC[C@@H]1C(=O)NCCCNC(=O)c1ccc(-c2c3nc(c(-c4cccc(S(=O)(=O)[O-])c4F)c4ccc([nH]4)c(-c4cccc(S(=O)(=O)[O-])c4F)c4nc(c(-c5cccc(S(=O)(=O)[O-])c5F)c5ccc2[nH]5)C=C4)C=C3)cc1)c1ccc(-n2ccnc2)cc1
REMARK SMILES IDX 15 1 14 2 12 3 13 4 11 6 6 7 7 8 8 9 10 10 9 11 4 12 3 13
REMARK SMILES IDX 5 15 2 16 1 17 84 18 85 19 94 20 86 21 93 22 87 23 88 24
REMARK SMILES IDX 89 25 92 26 90 27 91 28 16 29 17 30 18 31 19 32 20 34 21 35
REMARK SMILES IDX 22 36 83 37 23 38 82 39 24 40 25 41 26 42 76 43 27 44 81 45
REMARK SMILES IDX 75 46 77 47 28 48 80 49 74 50 73 51 29 53 61 54 41 55 60 56
REMARK SMILES IDX 42 57 45 58 59 59 78 60 43 61 44 62 58 64 79 65 46 66 30 67
REMARK SMILES IDX 31 68 39 69 32 70 34 71 40 72 33 73 35 74 36 75 37 76 38 77
REMARK SMILES IDX 62 78 63 79 71 80 64 81 66 82 72 83 65 84 67 85 68 86 69 87
REMARK SMILES IDX 70 88 47 89 48 90 56 91 49 92 51 93 57 94 50 95 52 96 53 97
REMARK SMILES IDX 54 98 55 99
REMARK H PARENT 14 5 3 14 18 33 77 52 45 63
REMARK Flexibility Score: inf
ROOT
ATOM      1  C   UNL A   1      34.802  21.941  25.391  1.00  0.00     0.117 C 
ENDROOT
BRANCH   1   2
ATOM      2  N   UNL A   1      35.526  22.025  24.144  1.00  0.00    -0.356 N 
ATOM      3  C   UNL A   1      35.479  22.914  23.133  1.00  0.00     0.224 C 
ATOM      4  O   UNL A   1      36.480  22.946  22.406  1.00  0.00    -0.275 OA
ATOM      5  H   UNL A   1      36.175  21.297  24.009  1.00  0.00     0.163 HD
BRANCH   3   6
ATOM      6  C   UNL A   1      34.295  23.837  22.806  1.00  0.00     0.095 C 
ATOM      7  C   UNL A   1      33.897  25.493  23.755  1.00  0.00     0.095 C 
ATOM      8  C   UNL A   1      32.605  25.451  25.122  1.00  0.00     0.041 C 
ATOM      9  C   UNL A   1      31.228  24.268  25.138  1.00  0.00    -0.030 C 
ATOM     10  C   UNL A   1      32.684  22.631  22.693  1.00  0.00     0.041 C 
ATOM     11  C   UNL A   1      31.155  23.104  24.174  1.00  0.00    -0.030 C 
BRANCH   7  12
ATOM     12  C   UNL A   1      33.181  26.673  22.680  1.00  0.00     0.224 C 
ATOM     13  N   UNL A   1      32.359  27.790  23.068  1.00  0.00    -0.349 N 
ATOM     14  H   UNL A   1      32.239  28.390  22.297  1.00  0.00     0.164 HD
ATOM     15  O   UNL A   1      33.396  26.547  21.467  1.00  0.00    -0.275 OA
BRANCH  13  16
ATOM     16  C   UNL A   1      31.534  28.419  24.395  1.00  0.00     0.109 C 
ATOM     17  C   UNL A   1      30.501  29.395  23.851  1.00  0.00     0.036 C 
BRANCH  16  18
ATOM     18  C   UNL A   1      32.420  29.120  25.420  1.00  0.00    -0.026 A 
ATOM     19  C   UNL A   1      33.939  29.042  26.245  1.00  0.00     0.008 A 
ATOM     20  C   UNL A   1      31.562  30.511  25.665  1.00  0.00     0.008 A 
ATOM     21  C   UNL A   1      34.514  30.328  27.360  1.00  0.00     0.027 A 
ATOM     22  C   UNL A   1      32.002  31.953  26.902  1.00  0.00     0.027 A 
ATOM     23  C   UNL A   1      33.543  31.764  27.762  1.00  0.00     0.046 A 
BRANCH  23  24
ATOM     24  N   UNL A   1      34.022  32.849  28.502  1.00  0.00    -0.306 N 
ATOM     25  C   UNL A   1      34.433  32.811  29.810  1.00  0.00     0.113 A 
ATOM     26  C   UNL A   1      34.050  34.162  28.117  1.00  0.00     0.204 A 
ATOM     27  C   UNL A   1      34.670  34.119  30.159  1.00  0.00     0.131 A 
ATOM     28  N   UNL A   1      34.426  34.954  29.101  1.00  0.00    -0.245 NA
ENDBRANCH  23  24
ENDBRANCH  16  18
ENDBRANCH  13  16
ENDBRANCH   7  12
ENDBRANCH   3   6
ENDBRANCH   1   2
BRANCH   1  29
ATOM     29  C   UNL A   1      35.291  22.911  26.461  1.00  0.00     0.042 C 
BRANCH  29  30
ATOM     30  C   UNL A   1      36.742  23.356  26.303  1.00  0.00     0.118 C 
BRANCH  30  31
ATOM     31  N   UNL A   1      37.663  22.240  26.415  1.00  0.00    -0.352 N 
ATOM     32  C   UNL A   1      39.033  22.229  26.426  1.00  0.00     0.251 C 
ATOM     33  H   UNL A   1      37.238  21.356  26.495  1.00  0.00     0.163 HD
ATOM     34  O   UNL A   1      39.620  21.189  26.137  1.00  0.00    -0.269 OA
BRANCH  32  35
ATOM     35  C   UNL A   1      39.804  23.437  26.796  1.00  0.00     0.039 A 
ATOM     36  C   UNL A   1      39.676  24.581  26.004  1.00  0.00     0.014 A 
ATOM     37  C   UNL A   1      40.717  23.425  27.856  1.00  0.00     0.014 A 
ATOM     38  C   UNL A   1      40.445  25.711  26.285  1.00  0.00     0.010 A 
ATOM     39  C   UNL A   1      41.422  24.583  28.188  1.00  0.00     0.010 A 
ATOM     40  C   UNL A   1      41.311  25.731  27.393  1.00  0.00    -0.014 A 
BRANCH  40  41
ATOM     41  C   UNL A   1      42.087  26.955  27.717  1.00  0.00     0.031 A 
ATOM     42  C   UNL A   1      43.524  27.098  27.288  1.00  0.00     0.074 A 
ATOM     43  C   UNL A   1      41.495  27.934  28.430  1.00  0.00     0.049 A 
ATOM     44  N   UNL A   1      44.336  28.110  27.457  1.00  0.00    -0.248 NA
ATOM     45  C   UNL A   1      44.138  25.951  26.597  1.00  0.00     0.031 C 
ATOM     46  C   UNL A   1      40.138  27.874  28.976  1.00  0.00     0.029 A 
ATOM     47  N   UNL A   1      41.960  29.162  28.828  1.00  0.00    -0.354 N 
ATOM     48  C   UNL A   1      45.554  27.720  26.914  1.00  0.00     0.074 A 
ATOM     49  C   UNL A   1      45.391  26.361  26.447  1.00  0.00     0.031 C 
ATOM     50  C   UNL A   1      39.873  29.019  29.624  1.00  0.00     0.029 A 
ATOM     51  C   UNL A   1      41.049  29.880  29.569  1.00  0.00     0.049 A 
ATOM     52  H   UNL A   1      42.858  29.496  28.606  1.00  0.00     0.167 HD
ATOM     53  C   UNL A   1      46.696  28.437  26.785  1.00  0.00     0.034 A 
ATOM     54  C   UNL A   1      41.153  31.091  30.147  1.00  0.00     0.034 A 
ATOM     55  C   UNL A   1      46.847  29.797  27.233  1.00  0.00     0.049 A 
ATOM     56  C   UNL A   1      42.422  31.878  29.962  1.00  0.00     0.074 A 
ATOM     57  C   UNL A   1      47.940  30.634  27.091  1.00  0.00     0.029 A 
ATOM     58  N   UNL A   1      45.882  30.516  27.921  1.00  0.00    -0.354 N 
ATOM     59  N   UNL A   1      43.510  31.546  29.310  1.00  0.00    -0.248 NA
ATOM     60  C   UNL A   1      42.460  33.219  30.558  1.00  0.00     0.031 C 
ATOM     61  C   UNL A   1      47.647  31.848  27.722  1.00  0.00     0.029 A 
ATOM     62  C   UNL A   1      46.357  31.783  28.222  1.00  0.00     0.049 A 
ATOM     63  H   UNL A   1      44.990  30.177  28.162  1.00  0.00     0.167 HD
ATOM     64  C   UNL A   1      44.353  32.648  29.394  1.00  0.00     0.074 A 
ATOM     65  C   UNL A   1      43.631  33.668  30.128  1.00  0.00     0.031 C 
ATOM     66  C   UNL A   1      45.615  32.798  28.924  1.00  0.00     0.034 A 
BRANCH  53  67
ATOM     67  C   UNL A   1      47.864  27.785  26.088  1.00  0.00     0.023 A 
ATOM     68  C   UNL A   1      48.798  27.043  26.842  1.00  0.00     0.012 A 
ATOM     69  C   UNL A   1      47.999  27.838  24.687  1.00  0.00     0.148 A 
ATOM     70  C   UNL A   1      49.863  26.394  26.219  1.00  0.00     0.002 A 
ATOM     71  C   UNL A   1      49.037  27.149  24.067  1.00  0.00     0.091 A 
ATOM     72  F   UNL A   1      47.112  28.560  23.987  1.00  0.00    -0.205 F 
ATOM     73  C   UNL A   1      49.975  26.438  24.832  1.00  0.00     0.022 A 
BRANCH  71  74
ATOM     74  S   UNL A   1      49.226  27.072  22.283  1.00  0.00     0.127 S 
ATOM     75  O   UNL A   1      48.645  28.349  21.869  1.00  0.00    -0.237 OA
ATOM     76  O   UNL A   1      50.679  26.987  22.133  1.00  0.00    -0.237 OA
ATOM     77  O   UNL A   1      48.496  25.889  21.849  1.00  0.00    -0.744 OA
ENDBRANCH  71  74
ENDBRANCH  53  67
BRANCH  54  78
ATOM     78  C   UNL A   1      40.010  31.649  30.923  1.00  0.00     0.023 A 
ATOM     79  C   UNL A   1      39.056  32.464  30.284  1.00  0.00     0.012 A 
ATOM     80  C   UNL A   1      39.858  31.359  32.292  1.00  0.00     0.148 A 
ATOM     81  C   UNL A   1      37.995  33.016  31.004  1.00  0.00     0.002 A 
ATOM     82  C   UNL A   1      38.766  31.859  32.990  1.00  0.00     0.091 A 
ATOM     83  F   UNL A   1      40.781  30.589  32.885  1.00  0.00    -0.205 F 
ATOM     84  C   UNL A   1      37.845  32.705  32.354  1.00  0.00     0.022 A 
BRANCH  82  85
ATOM     85  S   UNL A   1      38.420  31.396  34.690  1.00  0.00     0.127 S 
ATOM     86  O   UNL A   1      38.297  29.944  34.585  1.00  0.00    -0.237 OA
ATOM     87  O   UNL A   1      39.620  31.867  35.381  1.00  0.00    -0.237 OA
ATOM     88  O   UNL A   1      37.202  32.109  35.051  1.00  0.00    -0.744 OA
ENDBRANCH  82  85
ENDBRANCH  54  78
BRANCH  66  89
ATOM     89  C   UNL A   1      46.288  34.126  29.166  1.00  0.00     0.023 A 
ATOM     90  C   UNL A   1      47.052  34.325  30.334  1.00  0.00     0.012 A 
ATOM     91  C   UNL A   1      46.189  35.165  28.221  1.00  0.00     0.148 A 
ATOM     92  C   UNL A   1      47.662  35.554  30.582  1.00  0.00     0.002 A 
ATOM     93  C   UNL A   1      46.847  36.367  28.447  1.00  0.00     0.091 A 
ATOM     94  F   UNL A   1      45.446  34.963  27.123  1.00  0.00    -0.205 F 
ATOM     95  C   UNL A   1      47.568  36.570  29.634  1.00  0.00     0.022 A 
BRANCH  93  96
ATOM     96  S   UNL A   1      46.864  37.697  27.241  1.00  0.00     0.127 S 
ATOM     97  O   UNL A   1      47.528  37.060  26.105  1.00  0.00    -0.237 OA
ATOM     98  O   UNL A   1      45.436  37.955  27.045  1.00  0.00    -0.237 OA
ATOM     99  O   UNL A   1      47.597  38.793  27.859  1.00  0.00    -0.744 OA
ENDBRANCH  93  96
ENDBRANCH  66  89
ENDBRANCH  40  41
ENDBRANCH  32  35
ENDBRANCH  30  31
ENDBRANCH  29  30
ENDBRANCH   1  29
TORSDOF 17
ENDMDL
MODEL 2
REMARK VINA RESULT:     -12.6      4.167     10.236
REMARK SMILES C[C@@H](NC(=O)[C@H]1CC=CC[C@@H]1C(=O)NCCCNC(=O)c1ccc(-c2c3nc(c(-c4cccc(S(=O)(=O)[O-])c4F)c4ccc([nH]4)c(-c4cccc(S(=O)(=O)[O-])c4F)c4nc(c(-c5cccc(S(=O)(=O)[O-])c5F)c5ccc2[nH]5)C=C4)C=C3)cc1)c1ccc(-n2ccnc2)cc1
REMARK SMILES IDX 15 1 14 2 12 3 13 4 11 6 6 7 7 8 8 9 10 10 9 11 4 12 3 13
REMARK SMILES IDX 5 15 2 16 1 17 84 18 85 19 94 20 86 21 93 22 87 23 88 24
REMARK SMILES IDX 89 25 92 26 90 27 91 28 16 29 17 30 18 31 19 32 20 34 21 35
REMARK SMILES IDX 22 36 83 37 23 38 82 39 24 40 25 41 26 42 76 43 27 44 81 45
REMARK SMILES IDX 75 46 77 47 28 48 80 49 74 50 73 51 29 53 61 54 41 55 60 56
REMARK SMILES IDX 42 57 45 58 59 59 78 60 43 61 44 62 58 64 79 65 46 66 30 67
REMARK SMILES IDX 31 68 39 69 32 70 34 71 40 72 33 73 35 74 36 75 37 76 38 77
REMARK SMILES IDX 62 78 63 79 71 80 64 81 66 82 72 83 65 84 67 85 68 86 69 87
REMARK SMILES IDX 70 88 47 89 48 90 56 91 49 92 51 93 57 94 50 95 52 96 53 97
REMARK SMILES IDX 54 98 55 99
REMARK H PARENT 14 5 3 14 18 33 77 52 45 63
REMARK Flexibility Score: inf
ROOT
ATOM      1  C   UNL A   1      35.360  34.590  32.940  1.00  0.00     0.117 C 
ENDROOT
BRANCH   1   2
ATOM      2  N   UNL A   1      36.623  34.613  32.241  1.00  0.00    -0.356 N 
ATOM      3  C   UNL A   1      37.150  33.802  31.304  1.00  0.00     0.224 C 
ATOM      4  O   UNL A   1      38.056  34.295  30.620  1.00  0.00    -0.275 OA
ATOM      5  H   UNL A   1      37.208  35.364  32.497  1.00  0.00     0.163 HD
BRANCH   3   6
ATOM      6  C   UNL A   1      36.745  32.341  31.055  1.00  0.00     0.095 C 
ATOM      7  C   UNL A   1      37.772  31.083  29.976  1.00  0.00     0.095 C 
ATOM      8  C   UNL A   1      37.261  30.817  28.184  1.00  0.00     0.041 C 
ATOM      9  C   UNL A   1      35.552  31.024  27.609  1.00  0.00    -0.030 C 
ATOM     10  C   UNL A   1      34.810  32.404  30.493  1.00  0.00     0.041 C 
ATOM     11  C   UNL A   1      34.476  31.634  28.481  1.00  0.00    -0.030 C 
BRANCH   7  12
ATOM     12  C   UNL A   1      37.616  29.454  30.594  1.00  0.00     0.224 C 
ATOM     13  N   UNL A   1      38.645  28.447  30.612  1.00  0.00    -0.349 N 
ATOM     14  H   UNL A   1      38.352  27.691  31.170  1.00  0.00     0.164 HD
ATOM     15  O   UNL A   1      36.519  29.124  31.066  1.00  0.00    -0.275 OA
BRANCH  13  16
ATOM     16  C   UNL A   1      40.182  28.126  30.002  1.00  0.00     0.109 C 
ATOM     17  C   UNL A   1      40.628  29.372  29.251  1.00  0.00     0.036 C 
BRANCH  16  18
ATOM     18  C   UNL A   1      40.258  26.911  29.083  1.00  0.00    -0.026 A 
ATOM     19  C   UNL A   1      39.346  25.906  28.010  1.00  0.00     0.008 A 
ATOM     20  C   UNL A   1      41.883  26.608  29.111  1.00  0.00     0.008 A 
ATOM     21  C   UNL A   1      40.078  24.569  27.060  1.00  0.00     0.027 A 
ATOM     22  C   UNL A   1      42.816  25.150  28.213  1.00  0.00     0.027 A 
ATOM     23  C   UNL A   1      41.796  24.122  27.187  1.00  0.00     0.046 A 
BRANCH  23  24
ATOM     24  N   UNL A   1      42.425  23.192  26.354  1.00  0.00    -0.306 N 
ATOM     25  C   UNL A   1      42.783  21.914  26.700  1.00  0.00     0.113 A 
ATOM     26  C   UNL A   1      42.917  23.412  25.096  1.00  0.00     0.204 A 
ATOM     27  C   UNL A   1      43.498  21.430  25.632  1.00  0.00     0.131 A 
ATOM     28  N   UNL A   1      43.582  22.370  24.639  1.00  0.00    -0.245 NA
ENDBRANCH  23  24
ENDBRANCH  16  18
ENDBRANCH  13  16
ENDBRANCH   7  12
ENDBRANCH   3   6
ENDBRANCH   1   2
BRANCH   1  29
ATOM     29  C   UNL A   1      35.461  34.133  34.392  1.00  0.00     0.042 C 
BRANCH  29  30
ATOM     30  C   UNL A   1      36.830  34.343  35.033  1.00  0.00     0.118 C 
BRANCH  30  31
ATOM     31  N   UNL A   1      37.029  33.468  36.174  1.00  0.00    -0.352 N 
ATOM     32  C   UNL A   1      37.721  32.289  36.266  1.00  0.00     0.251 C 
ATOM     33  H   UNL A   1      36.602  33.768  37.009  1.00  0.00     0.163 HD
ATOM     34  O   UNL A   1      37.454  31.516  37.183  1.00  0.00    -0.269 OA
BRANCH  32  35
ATOM     35  C   UNL A   1      38.786  31.950  35.296  1.00  0.00     0.039 A 
ATOM     36  C   UNL A   1      38.434  31.273  34.126  1.00  0.00     0.014 A 
ATOM     37  C   UNL A   1      40.134  32.208  35.571  1.00  0.00     0.014 A 
ATOM     38  C   UNL A   1      39.426  30.876  33.228  1.00  0.00     0.010 A 
ATOM     39  C   UNL A   1      41.115  31.886  34.633  1.00  0.00     0.010 A 
ATOM     40  C   UNL A   1      40.775  31.196  33.462  1.00  0.00    -0.014 A 
BRANCH  40  41
ATOM     41  C   UNL A   1      41.819  30.816  32.475  1.00  0.00     0.031 A 
ATOM     42  C   UNL A   1      42.233  31.765  31.381  1.00  0.00     0.074 A 
ATOM     43  C   UNL A   1      42.376  29.592  32.554  1.00  0.00     0.049 A 
ATOM     44  N   UNL A   1      43.149  31.608  30.460  1.00  0.00    -0.248 NA
ATOM     45  C   UNL A   1      41.515  33.048  31.294  1.00  0.00     0.031 C 
ATOM     46  C   UNL A   1      41.995  28.554  33.515  1.00  0.00     0.029 A 
ATOM     47  N   UNL A   1      43.369  29.007  31.809  1.00  0.00    -0.354 N 
ATOM     48  C   UNL A   1      43.108  32.755  29.677  1.00  0.00     0.074 A 
ATOM     49  C   UNL A   1      42.045  33.585  30.203  1.00  0.00     0.031 C 
ATOM     50  C   UNL A   1      42.756  27.467  33.313  1.00  0.00     0.029 A 
ATOM     51  C   UNL A   1      43.653  27.716  32.190  1.00  0.00     0.049 A 
ATOM     52  H   UNL A   1      43.833  29.467  31.074  1.00  0.00     0.167 HD
ATOM     53  C   UNL A   1      43.901  33.103  28.636  1.00  0.00     0.034 A 
ATOM     54  C   UNL A   1      44.530  26.828  31.685  1.00  0.00     0.034 A 
ATOM     55  C   UNL A   1      44.970  32.283  28.129  1.00  0.00     0.049 A 
ATOM     56  C   UNL A   1      45.419  27.252  30.549  1.00  0.00     0.074 A 
ATOM     57  C   UNL A   1      45.874  32.572  27.123  1.00  0.00     0.029 A 
ATOM     58  N   UNL A   1      45.272  31.008  28.582  1.00  0.00    -0.354 N 
ATOM     59  N   UNL A   1      45.465  28.403  29.923  1.00  0.00    -0.248 NA
ATOM     60  C   UNL A   1      46.403  26.269  30.077  1.00  0.00     0.031 C 
ATOM     61  C   UNL A   1      46.701  31.458  26.944  1.00  0.00     0.029 A 
ATOM     62  C   UNL A   1      46.340  30.490  27.867  1.00  0.00     0.049 A 
ATOM     63  H   UNL A   1      44.797  30.537  29.304  1.00  0.00     0.167 HD
ATOM     64  C   UNL A   1      46.500  28.293  29.001  1.00  0.00     0.074 A 
ATOM     65  C   UNL A   1      47.077  26.976  29.180  1.00  0.00     0.031 C 
ATOM     66  C   UNL A   1      46.924  29.191  28.078  1.00  0.00     0.034 A 
BRANCH  53  67
ATOM     67  C   UNL A   1      43.678  34.453  28.000  1.00  0.00     0.023 A 
ATOM     68  C   UNL A   1      42.903  34.549  26.825  1.00  0.00     0.012 A 
ATOM     69  C   UNL A   1      44.167  35.631  28.599  1.00  0.00     0.148 A 
ATOM     70  C   UNL A   1      42.646  35.788  26.240  1.00  0.00     0.002 A 
ATOM     71  C   UNL A   1      43.868  36.867  28.037  1.00  0.00     0.091 A 
ATOM     72  F   UNL A   1      44.916  35.520  29.707  1.00  0.00    -0.205 F 
ATOM     73  C   UNL A   1      43.118  36.946  26.852  1.00  0.00     0.022 A 
BRANCH  71  74
ATOM     74  S   UNL A   1      44.357  38.423  28.788  1.00  0.00     0.127 S 
ATOM     75  O   UNL A   1      44.265  38.105  30.212  1.00  0.00    -0.237 OA
ATOM     76  O   UNL A   1      45.722  38.589  28.287  1.00  0.00    -0.237 OA
ATOM     77  O   UNL A   1      43.406  39.418  28.312  1.00  0.00    -0.744 OA
ENDBRANCH  71  74
ENDBRANCH  53  67
BRANCH  54  78
ATOM     78  C   UNL A   1      44.636  25.464  32.276  1.00  0.00     0.023 A 
ATOM     79  C   UNL A   1      43.961  24.383  31.676  1.00  0.00     0.012 A 
ATOM     80  C   UNL A   1      45.419  25.234  33.423  1.00  0.00     0.148 A 
ATOM     81  C   UNL A   1      44.029  23.106  32.235  1.00  0.00     0.002 A 
ATOM     82  C   UNL A   1      45.533  23.948  33.937  1.00  0.00     0.091 A 
ATOM     83  F   UNL A   1      46.047  26.276  33.985  1.00  0.00    -0.205 F 
ATOM     84  C   UNL A   1      44.822  22.887  33.358  1.00  0.00     0.022 A 
BRANCH  82  85
ATOM     85  S   UNL A   1      46.642  23.553  35.293  1.00  0.00     0.127 S 
ATOM     86  O   UNL A   1      46.711  22.097  35.209  1.00  0.00    -0.237 OA
ATOM     87  O   UNL A   1      47.864  24.254  34.897  1.00  0.00    -0.237 OA
ATOM     88  O   UNL A   1      46.006  24.088  36.490  1.00  0.00    -0.744 OA
ENDBRANCH  82  85
ENDBRANCH  54  78
BRANCH  66  89
ATOM     89  C   UNL A   1      48.087  28.787  27.207  1.00  0.00     0.023 A 
ATOM     90  C   UNL A   1      49.405  28.906  27.693  1.00  0.00     0.012 A 
ATOM     91  C   UNL A   1      47.871  28.260  25.919  1.00  0.00     0.148 A 
ATOM     92  C   UNL A   1      50.491  28.557  26.891  1.00  0.00     0.002 A 
ATOM     93  C   UNL A   1      48.955  27.860  25.148  1.00  0.00     0.091 A 
ATOM     94  F   UNL A   1      46.611  28.168  25.468  1.00  0.00    -0.205 F 
ATOM     95  C   UNL A   1      50.265  28.025  25.624  1.00  0.00     0.022 A 
BRANCH  93  96
ATOM     96  S   UNL A   1      48.758  27.076  23.545  1.00  0.00     0.127 S 
ATOM     97  O   UNL A   1      47.917  28.043  22.841  1.00  0.00    -0.237 OA
ATOM     98  O   UNL A   1      50.138  27.005  23.063  1.00  0.00    -0.237 OA
ATOM     99  O   UNL A   1      48.140  25.782  23.803  1.00  0.00    -0.744 OA
ENDBRANCH  93  96
ENDBRANCH  66  89
ENDBRANCH  40  41
ENDBRANCH  32  35
ENDBRANCH  30  31
ENDBRANCH  29  30
ENDBRANCH   1  29
TORSDOF 17
ENDMDL
MODEL 3
REMARK VINA RESULT:     -12.1      4.992      8.600
REMARK SMILES C[C@@H](NC(=O)[C@H]1CC=CC[C@@H]1C(=O)NCCCNC(=O)c1ccc(-c2c3nc(c(-c4cccc(S(=O)(=O)[O-])c4F)c4ccc([nH]4)c(-c4cccc(S(=O)(=O)[O-])c4F)c4nc(c(-c5cccc(S(=O)(=O)[O-])c5F)c5ccc2[nH]5)C=C4)C=C3)cc1)c1ccc(-n2ccnc2)cc1
REMARK SMILES IDX 15 1 14 2 12 3 13 4 11 6 6 7 7 8 8 9 10 10 9 11 4 12 3 13
REMARK SMILES IDX 5 15 2 16 1 17 84 18 85 19 94 20 86 21 93 22 87 23 88 24
REMARK SMILES IDX 89 25 92 26 90 27 91 28 16 29 17 30 18 31 19 32 20 34 21 35
REMARK SMILES IDX 22 36 83 37 23 38 82 39 24 40 25 41 26 42 76 43 27 44 81 45
REMARK SMILES IDX 75 46 77 47 28 48 80 49 74 50 73 51 29 53 61 54 41 55 60 56
REMARK SMILES IDX 42 57 45 58 59 59 78 60 43 61 44 62 58 64 79 65 46 66 30 67
REMARK SMILES IDX 31 68 39 69 32 70 34 71 40 72 33 73 35 74 36 75 37 76 38 77
REMARK SMILES IDX 62 78 63 79 71 80 64 81 66 82 72 83 65 84 67 85 68 86 69 87
REMARK SMILES IDX 70 88 47 89 48 90 56 91 49 92 51 93 57 94 50 95 52 96 53 97
REMARK SMILES IDX 54 98 55 99
REMARK H PARENT 14 5 3 14 18 33 77 52 45 63
REMARK Flexibility Score: inf
ROOT
ATOM      1  C   UNL A   1      43.342  23.699  26.343  1.00  0.00     0.117 C 
ENDROOT
BRANCH   1   2
ATOM      2  N   UNL A   1      43.836  23.408  27.668  1.00  0.00    -0.356 N 
ATOM      3  C   UNL A   1      44.581  24.126  28.531  1.00  0.00     0.224 C 
ATOM      4  O   UNL A   1      44.503  23.781  29.717  1.00  0.00    -0.275 OA
ATOM      5  H   UNL A   1      43.579  22.519  28.004  1.00  0.00     0.163 HD
BRANCH   3   6
ATOM      6  C   UNL A   1      45.518  25.284  28.155  1.00  0.00     0.095 C 
ATOM      7  C   UNL A   1      44.987  26.830  27.092  1.00  0.00     0.095 C 
ATOM      8  C   UNL A   1      45.370  26.823  25.250  1.00  0.00     0.041 C 
ATOM      9  C   UNL A   1      46.774  25.916  24.542  1.00  0.00    -0.030 C 
ATOM     10  C   UNL A   1      47.188  24.416  27.432  1.00  0.00     0.041 C 
ATOM     11  C   UNL A   1      47.593  24.936  25.354  1.00  0.00    -0.030 C 
BRANCH   7  12
ATOM     12  C   UNL A   1      45.859  28.262  27.590  1.00  0.00     0.224 C 
ATOM     13  N   UNL A   1      45.279  29.530  27.950  1.00  0.00    -0.349 N 
ATOM     14  H   UNL A   1      45.970  30.100  28.358  1.00  0.00     0.164 HD
ATOM     15  O   UNL A   1      47.094  28.190  27.645  1.00  0.00    -0.275 OA
BRANCH  13  16
ATOM     16  C   UNL A   1      43.818  30.368  27.910  1.00  0.00     0.109 C 
ATOM     17  C   UNL A   1      42.999  29.773  26.774  1.00  0.00     0.036 C 
BRANCH  16  18
ATOM     18  C   UNL A   1      43.957  31.875  27.715  1.00  0.00    -0.026 A 
ATOM     19  C   UNL A   1      44.495  33.103  26.622  1.00  0.00     0.008 A 
ATOM     20  C   UNL A   1      43.151  32.430  29.047  1.00  0.00     0.008 A 
ATOM     21  C   UNL A   1      44.284  34.858  26.939  1.00  0.00     0.027 A 
ATOM     22  C   UNL A   1      42.915  34.291  29.580  1.00  0.00     0.027 A 
ATOM     23  C   UNL A   1      43.559  35.488  28.438  1.00  0.00     0.046 A 
BRANCH  23  24
ATOM     24  N   UNL A   1      43.244  36.834  28.648  1.00  0.00    -0.306 N 
ATOM     25  C   UNL A   1      42.186  37.508  28.093  1.00  0.00     0.113 A 
ATOM     26  C   UNL A   1      43.988  37.759  29.328  1.00  0.00     0.204 A 
ATOM     27  C   UNL A   1      42.359  38.823  28.452  1.00  0.00     0.131 A 
ATOM     28  N   UNL A   1      43.486  38.972  29.218  1.00  0.00    -0.245 NA
ENDBRANCH  23  24
ENDBRANCH  16  18
ENDBRANCH  13  16
ENDBRANCH   7  12
ENDBRANCH   3   6
ENDBRANCH   1   2
BRANCH   1  29
ATOM     29  C   UNL A   1      42.423  22.625  25.771  1.00  0.00     0.042 C 
BRANCH  29  30
ATOM     30  C   UNL A   1      41.204  22.305  26.631  1.00  0.00     0.118 C 
BRANCH  30  31
ATOM     31  N   UNL A   1      39.967  22.685  25.975  1.00  0.00    -0.352 N 
ATOM     32  C   UNL A   1      39.069  23.668  26.297  1.00  0.00     0.251 C 
ATOM     33  H   UNL A   1      39.738  22.156  25.177  1.00  0.00     0.163 HD
ATOM     34  O   UNL A   1      37.919  23.583  25.872  1.00  0.00    -0.269 OA
BRANCH  32  35
ATOM     35  C   UNL A   1      39.469  24.828  27.126  1.00  0.00     0.039 A 
ATOM     36  C   UNL A   1      39.042  24.878  28.455  1.00  0.00     0.014 A 
ATOM     37  C   UNL A   1      40.176  25.905  26.583  1.00  0.00     0.014 A 
ATOM     38  C   UNL A   1      39.342  25.992  29.240  1.00  0.00     0.010 A 
ATOM     39  C   UNL A   1      40.548  26.979  27.391  1.00  0.00     0.010 A 
ATOM     40  C   UNL A   1      40.116  27.046  28.722  1.00  0.00    -0.014 A 
BRANCH  40  41
ATOM     41  C   UNL A   1      40.475  28.205  29.579  1.00  0.00     0.031 A 
ATOM     42  C   UNL A   1      41.859  28.339  30.160  1.00  0.00     0.074 A 
ATOM     43  C   UNL A   1      39.534  29.129  29.857  1.00  0.00     0.049 A 
ATOM     44  N   UNL A   1      42.350  29.301  30.898  1.00  0.00    -0.248 NA
ATOM     45  C   UNL A   1      42.810  27.245  29.898  1.00  0.00     0.031 C 
ATOM     46  C   UNL A   1      38.136  29.062  29.424  1.00  0.00     0.029 A 
ATOM     47  N   UNL A   1      39.604  30.294  30.576  1.00  0.00    -0.354 N 
ATOM     48  C   UNL A   1      43.653  28.925  31.202  1.00  0.00     0.074 A 
ATOM     49  C   UNL A   1      43.865  27.624  30.606  1.00  0.00     0.031 C 
ATOM     50  C   UNL A   1      37.485  30.146  29.872  1.00  0.00     0.029 A 
ATOM     51  C   UNL A   1      38.406  30.967  30.650  1.00  0.00     0.049 A 
ATOM     52  H   UNL A   1      40.431  30.618  30.999  1.00  0.00     0.167 HD
ATOM     53  C   UNL A   1      44.599  29.611  31.888  1.00  0.00     0.034 A 
ATOM     54  C   UNL A   1      38.083  32.112  31.281  1.00  0.00     0.034 A 
ATOM     55  C   UNL A   1      44.389  30.915  32.463  1.00  0.00     0.049 A 
ATOM     56  C   UNL A   1      39.160  32.868  32.009  1.00  0.00     0.074 A 
ATOM     57  C   UNL A   1      45.300  31.723  33.119  1.00  0.00     0.029 A 
ATOM     58  N   UNL A   1      43.181  31.595  32.462  1.00  0.00    -0.354 N 
ATOM     59  N   UNL A   1      40.427  32.565  32.153  1.00  0.00    -0.248 NA
ATOM     60  C   UNL A   1      38.770  34.142  32.626  1.00  0.00     0.031 C 
ATOM     61  C   UNL A   1      44.634  32.878  33.543  1.00  0.00     0.029 A 
ATOM     62  C   UNL A   1      43.319  32.808  33.116  1.00  0.00     0.049 A 
ATOM     63  H   UNL A   1      42.347  31.265  32.056  1.00  0.00     0.167 HD
ATOM     64  C   UNL A   1      40.993  33.624  32.854  1.00  0.00     0.074 A 
ATOM     65  C   UNL A   1      39.936  34.591  33.070  1.00  0.00     0.031 C 
ATOM     66  C   UNL A   1      42.266  33.775  33.295  1.00  0.00     0.034 A 
BRANCH  53  67
ATOM     67  C   UNL A   1      45.967  28.990  32.016  1.00  0.00     0.023 A 
ATOM     68  C   UNL A   1      46.961  29.295  31.062  1.00  0.00     0.012 A 
ATOM     69  C   UNL A   1      46.296  28.169  33.113  1.00  0.00     0.148 A 
ATOM     70  C   UNL A   1      48.247  28.769  31.179  1.00  0.00     0.002 A 
ATOM     71  C   UNL A   1      47.593  27.687  33.249  1.00  0.00     0.091 A 
ATOM     72  F   UNL A   1      45.335  27.877  34.002  1.00  0.00    -0.205 F 
ATOM     73  C   UNL A   1      48.565  27.975  32.277  1.00  0.00     0.022 A 
BRANCH  71  74
ATOM     74  S   UNL A   1      48.130  26.723  34.667  1.00  0.00     0.127 S 
ATOM     75  O   UNL A   1      47.317  25.516  34.529  1.00  0.00    -0.237 OA
ATOM     76  O   UNL A   1      49.554  26.534  34.386  1.00  0.00    -0.237 OA
ATOM     77  O   UNL A   1      47.841  27.536  35.840  1.00  0.00    -0.744 OA
ENDBRANCH  71  74
ENDBRANCH  53  67
BRANCH  54  78
ATOM     78  C   UNL A   1      36.687  32.629  31.221  1.00  0.00     0.023 A 
ATOM     79  C   UNL A   1      35.866  32.574  32.363  1.00  0.00     0.012 A 
ATOM     80  C   UNL A   1      36.177  33.192  30.034  1.00  0.00     0.148 A 
ATOM     81  C   UNL A   1      34.548  33.030  32.313  1.00  0.00     0.002 A 
ATOM     82  C   UNL A   1      34.885  33.701  30.009  1.00  0.00     0.091 A 
ATOM     83  F   UNL A   1      36.971  33.227  28.955  1.00  0.00    -0.205 F 
ATOM     84  C   UNL A   1      34.061  33.602  31.140  1.00  0.00     0.022 A 
BRANCH  82  85
ATOM     85  S   UNL A   1      34.229  34.579  28.587  1.00  0.00     0.127 S 
ATOM     86  O   UNL A   1      32.813  34.687  28.929  1.00  0.00    -0.237 OA
ATOM     87  O   UNL A   1      34.974  35.837  28.638  1.00  0.00    -0.237 OA
ATOM     88  O   UNL A   1      34.539  33.746  27.433  1.00  0.00    -0.744 OA
ENDBRANCH  82  85
ENDBRANCH  54  78
BRANCH  66  89
ATOM     89  C   UNL A   1      42.592  35.048  34.034  1.00  0.00     0.023 A 
ATOM     90  C   UNL A   1      42.931  36.213  33.315  1.00  0.00     0.012 A 
ATOM     91  C   UNL A   1      42.532  35.098  35.440  1.00  0.00     0.148 A 
ATOM     92  C   UNL A   1      43.255  37.391  33.986  1.00  0.00     0.002 A 
ATOM     93  C   UNL A   1      42.801  36.291  36.099  1.00  0.00     0.091 A 
ATOM     94  F   UNL A   1      42.223  33.977  36.108  1.00  0.00    -0.205 F 
ATOM     95  C   UNL A   1      43.180  37.433  35.376  1.00  0.00     0.022 A 
BRANCH  93  96
ATOM     96  S   UNL A   1      42.635  36.466  37.879  1.00  0.00     0.127 S 
ATOM     97  O   UNL A   1      41.235  36.098  38.085  1.00  0.00    -0.237 OA
ATOM     98  O   UNL A   1      43.602  35.487  38.377  1.00  0.00    -0.237 OA
ATOM     99  O   UNL A   1      42.968  37.851  38.180  1.00  0.00    -0.744 OA
ENDBRANCH  93  96
ENDBRANCH  66  89
ENDBRANCH  40  41
ENDBRANCH  32  35
ENDBRANCH  30  31
ENDBRANCH  29  30
ENDBRANCH   1  29
TORSDOF 17
ENDMDL
