MODEL 1
REMARK VINA RESULT:     -12.0      0.000      0.000
REMARK SMILES O=C(NCCCNC(=O)[C@H](CO)NC(=O)[C@H](Cc1ccc(O)cc1)NC(=O)c1ccc(F)cc1)c1ccc(-c2c3nc(c(-c4cccc(S(=O)(=O)[O-])c4F)c4ccc([nH]4)c(-c4cccc(S(=O)(=O)[O-])c4F)c4nc(c(-c5cccc(S(=O)(=O)[O-])c5F)c5ccc2[nH]5)C=C4)C=C3)cc1
REMARK SMILES IDX 6 1 5 2 4 3 3 4 1 5 2 6 35 8 36 9 97 10 37 11 96 12 38 13
REMARK SMILES IDX 39 14 40 15 90 16 41 17 95 18 89 19 91 20 42 21 94 22 88 23
REMARK SMILES IDX 87 24 43 26 75 27 55 28 74 29 56 30 59 31 73 32 92 33 57 34
REMARK SMILES IDX 58 35 72 37 93 38 60 39 44 40 45 41 53 42 46 43 48 44 54 45
REMARK SMILES IDX 47 46 49 47 50 48 51 49 52 50 76 51 77 52 85 53 78 54 80 55
REMARK SMILES IDX 86 56 79 57 81 58 82 59 83 60 84 61 61 62 62 63 70 64 63 65
REMARK SMILES IDX 65 66 71 67 64 68 66 69 67 70 68 71 69 72 7 73 8 74 9 76
REMARK SMILES IDX 10 77 13 78 14 79 15 81 16 82 25 83 26 84 27 86 28 87 29 88
REMARK SMILES IDX 34 89 30 90 33 91 31 92 32 93 17 94 18 95 19 96 24 97 20 98
REMARK SMILES IDX 23 99 21 100 22 101 11 103 12 104
REMARK H PARENT 3 7 91 25 59 36 7 75 13 80 25 85 22 102 12 105
REMARK Flexibility Score: inf
ROOT
ATOM      1  C   UNL A   1      31.038  31.188  25.487  1.00  0.00     0.117 C 
ENDROOT
BRANCH   1   2
ATOM      2  C   UNL A   1      31.084  32.392  26.421  1.00  0.00     0.042 C 
BRANCH   2   3
ATOM      3  C   UNL A   1      32.467  32.630  27.024  1.00  0.00     0.118 C 
BRANCH   3   4
ATOM      4  N   UNL A   1      32.650  34.027  27.393  1.00  0.00    -0.352 N 
ATOM      5  O   UNL A   1      33.180  35.690  28.812  1.00  0.00    -0.269 OA
ATOM      6  C   UNL A   1      33.419  34.557  28.401  1.00  0.00     0.251 C 
ATOM      7  H   UNL A   1      32.157  34.680  26.846  1.00  0.00     0.163 HD
BRANCH   6   8
ATOM      8  C   UNL A   1      34.525  33.763  28.973  1.00  0.00     0.039 A 
ATOM      9  C   UNL A   1      35.848  34.142  28.737  1.00  0.00     0.014 A 
ATOM     10  C   UNL A   1      34.245  32.665  29.792  1.00  0.00     0.014 A 
ATOM     11  C   UNL A   1      36.890  33.354  29.208  1.00  0.00     0.010 A 
ATOM     12  C   UNL A   1      35.297  31.930  30.346  1.00  0.00     0.010 A 
ATOM     13  C   UNL A   1      36.628  32.260  30.047  1.00  0.00    -0.014 A 
BRANCH  13  14
ATOM     14  C   UNL A   1      37.770  31.557  30.684  1.00  0.00     0.031 A 
ATOM     15  C   UNL A   1      38.570  30.526  29.941  1.00  0.00     0.074 A 
ATOM     16  C   UNL A   1      38.080  31.875  31.957  1.00  0.00     0.049 A 
ATOM     17  N   UNL A   1      39.597  29.834  30.359  1.00  0.00    -0.248 NA
ATOM     18  C   UNL A   1      38.166  30.224  28.559  1.00  0.00     0.031 C 
ATOM     19  C   UNL A   1      37.344  32.837  32.784  1.00  0.00     0.029 A 
ATOM     20  N   UNL A   1      39.089  31.441  32.777  1.00  0.00    -0.354 N 
ATOM     21  C   UNL A   1      39.942  28.989  29.313  1.00  0.00     0.074 A 
ATOM     22  C   UNL A   1      39.008  29.249  28.238  1.00  0.00     0.031 C 
ATOM     23  C   UNL A   1      37.949  32.951  33.973  1.00  0.00     0.029 A 
ATOM     24  C   UNL A   1      39.073  32.023  34.023  1.00  0.00     0.049 A 
ATOM     25  H   UNL A   1      39.762  30.776  32.501  1.00  0.00     0.167 HD
ATOM     26  C   UNL A   1      40.954  28.091  29.253  1.00  0.00     0.034 A 
ATOM     27  C   UNL A   1      39.858  31.823  35.099  1.00  0.00     0.034 A 
ATOM     28  C   UNL A   1      41.902  27.874  30.316  1.00  0.00     0.049 A 
ATOM     29  C   UNL A   1      40.982  30.834  34.995  1.00  0.00     0.074 A 
ATOM     30  C   UNL A   1      42.996  27.029  30.328  1.00  0.00     0.029 A 
ATOM     31  N   UNL A   1      41.869  28.503  31.551  1.00  0.00    -0.354 N 
ATOM     32  N   UNL A   1      41.353  30.120  33.961  1.00  0.00    -0.248 NA
ATOM     33  C   UNL A   1      41.807  30.636  36.193  1.00  0.00     0.031 C 
ATOM     34  C   UNL A   1      43.611  27.126  31.579  1.00  0.00     0.029 A 
ATOM     35  C   UNL A   1      42.916  28.054  32.338  1.00  0.00     0.049 A 
ATOM     36  H   UNL A   1      41.200  29.170  31.829  1.00  0.00     0.167 HD
ATOM     37  C   UNL A   1      42.463  29.397  34.376  1.00  0.00     0.074 A 
ATOM     38  C   UNL A   1      42.722  29.784  35.748  1.00  0.00     0.031 C 
ATOM     39  C   UNL A   1      43.187  28.482  33.688  1.00  0.00     0.034 A 
BRANCH  26  40
ATOM     40  C   UNL A   1      41.129  27.294  27.986  1.00  0.00     0.023 A 
ATOM     41  C   UNL A   1      41.711  27.902  26.857  1.00  0.00     0.012 A 
ATOM     42  C   UNL A   1      40.821  25.918  27.949  1.00  0.00     0.148 A 
ATOM     43  C   UNL A   1      41.969  27.160  25.704  1.00  0.00     0.002 A 
ATOM     44  C   UNL A   1      41.119  25.175  26.811  1.00  0.00     0.091 A 
ATOM     45  F   UNL A   1      40.251  25.361  29.027  1.00  0.00    -0.205 F 
ATOM     46  C   UNL A   1      41.685  25.797  25.686  1.00  0.00     0.022 A 
BRANCH  44  47
ATOM     47  S   UNL A   1      40.869  23.398  26.716  1.00  0.00     0.127 S 
ATOM     48  O   UNL A   1      39.434  23.316  26.448  1.00  0.00    -0.237 OA
ATOM     49  O   UNL A   1      41.722  23.028  25.585  1.00  0.00    -0.237 OA
ATOM     50  O   UNL A   1      41.294  22.861  28.000  1.00  0.00    -0.744 OA
ENDBRANCH  44  47
ENDBRANCH  26  40
BRANCH  27  51
ATOM     51  C   UNL A   1      39.619  32.616  36.336  1.00  0.00     0.023 A 
ATOM     52  C   UNL A   1      40.217  33.884  36.474  1.00  0.00     0.012 A 
ATOM     53  C   UNL A   1      38.732  32.164  37.335  1.00  0.00     0.148 A 
ATOM     54  C   UNL A   1      39.944  34.681  37.586  1.00  0.00     0.002 A 
ATOM     55  C   UNL A   1      38.415  32.989  38.407  1.00  0.00     0.091 A 
ATOM     56  F   UNL A   1      38.185  30.948  37.193  1.00  0.00    -0.205 F 
ATOM     57  C   UNL A   1      39.032  34.242  38.542  1.00  0.00     0.022 A 
BRANCH  55  58
ATOM     58  S   UNL A   1      37.134  32.572  39.595  1.00  0.00     0.127 S 
ATOM     59  O   UNL A   1      37.263  33.655  40.566  1.00  0.00    -0.237 OA
ATOM     60  O   UNL A   1      35.927  32.624  38.769  1.00  0.00    -0.237 OA
ATOM     61  O   UNL A   1      37.468  31.240  40.083  1.00  0.00    -0.744 OA
ENDBRANCH  55  58
ENDBRANCH  27  51
BRANCH  39  62
ATOM     62  C   UNL A   1      44.345  27.831  34.398  1.00  0.00     0.023 A 
ATOM     63  C   UNL A   1      45.604  28.463  34.393  1.00  0.00     0.012 A 
ATOM     64  C   UNL A   1      44.159  26.658  35.153  1.00  0.00     0.148 A 
ATOM     65  C   UNL A   1      46.668  27.925  35.116  1.00  0.00     0.002 A 
ATOM     66  C   UNL A   1      45.210  26.154  35.910  1.00  0.00     0.091 A 
ATOM     67  F   UNL A   1      42.957  26.063  35.127  1.00  0.00    -0.205 F 
ATOM     68  C   UNL A   1      46.467  26.780  35.884  1.00  0.00     0.022 A 
BRANCH  66  69
ATOM     69  S   UNL A   1      45.020  24.745  37.008  1.00  0.00     0.127 S 
ATOM     70  O   UNL A   1      44.044  25.249  37.973  1.00  0.00    -0.237 OA
ATOM     71  O   UNL A   1      44.508  23.715  36.105  1.00  0.00    -0.237 OA
ATOM     72  O   UNL A   1      46.345  24.473  37.547  1.00  0.00    -0.744 OA
ENDBRANCH  66  69
ENDBRANCH  39  62
ENDBRANCH  13  14
ENDBRANCH   6   8
ENDBRANCH   3   4
ENDBRANCH   2   3
ENDBRANCH   1   2
BRANCH   1  73
ATOM     73  N   UNL A   1      30.045  31.334  24.436  1.00  0.00    -0.354 N 
ATOM     74  C   UNL A   1      29.460  30.482  23.560  1.00  0.00     0.244 C 
ATOM     75  H   UNL A   1      29.725  32.260  24.339  1.00  0.00     0.163 HD
ATOM     76  O   UNL A   1      28.573  30.976  22.851  1.00  0.00    -0.273 OA
BRANCH  74  77
ATOM     77  C   UNL A   1      29.897  29.021  23.322  1.00  0.00     0.197 C 
BRANCH  77  78
ATOM     78  N   UNL A   1      28.911  27.941  23.405  1.00  0.00    -0.340 N 
ATOM     79  C   UNL A   1      29.079  26.630  23.753  1.00  0.00     0.243 C 
ATOM     80  H   UNL A   1      27.988  28.199  23.177  1.00  0.00     0.164 HD
ATOM     81  O   UNL A   1      28.082  25.911  23.826  1.00  0.00    -0.273 OA
BRANCH  79  82
ATOM     82  C   UNL A   1      30.496  26.087  24.003  1.00  0.00     0.176 C 
BRANCH  82  83
ATOM     83  N   UNL A   1      30.502  25.250  25.206  1.00  0.00    -0.340 N 
ATOM     84  C   UNL A   1      31.262  25.401  26.342  1.00  0.00     0.251 C 
ATOM     85  H   UNL A   1      29.886  24.483  25.201  1.00  0.00     0.164 HD
ATOM     86  O   UNL A   1      31.309  24.512  27.190  1.00  0.00    -0.269 OA
BRANCH  84  87
ATOM     87  C   UNL A   1      32.065  26.632  26.538  1.00  0.00     0.040 A 
ATOM     88  C   UNL A   1      33.378  26.726  26.053  1.00  0.00     0.017 A 
ATOM     89  C   UNL A   1      31.502  27.705  27.238  1.00  0.00     0.017 A 
ATOM     90  C   UNL A   1      34.159  27.844  26.350  1.00  0.00     0.040 A 
ATOM     91  C   UNL A   1      32.280  28.832  27.519  1.00  0.00     0.040 A 
ATOM     92  C   UNL A   1      33.604  28.883  27.090  1.00  0.00     0.123 A 
ATOM     93  F   UNL A   1      34.364  29.939  27.409  1.00  0.00    -0.207 F 
ENDBRANCH  84  87
ENDBRANCH  82  83
BRANCH  82  94
ATOM     94  C   UNL A   1      31.011  25.321  22.759  1.00  0.00     0.070 C 
BRANCH  94  95
ATOM     95  C   UNL A   1      32.215  24.436  23.041  1.00  0.00    -0.045 A 
ATOM     96  C   UNL A   1      33.501  24.977  23.161  1.00  0.00     0.007 A 
ATOM     97  C   UNL A   1      32.068  23.049  23.179  1.00  0.00     0.007 A 
ATOM     98  C   UNL A   1      34.584  24.159  23.513  1.00  0.00     0.046 A 
ATOM     99  C   UNL A   1      33.129  22.239  23.570  1.00  0.00     0.046 A 
ATOM    100  C   UNL A   1      34.379  22.803  23.749  1.00  0.00     0.115 A 
BRANCH 100 101
ATOM    101  O   UNL A   1      35.384  21.981  24.159  1.00  0.00    -0.508 OA
ATOM    102  H   UNL A   1      36.165  22.345  24.530  1.00  0.00     0.293 HD
ENDBRANCH 100 101
ENDBRANCH  94  95
ENDBRANCH  82  94
ENDBRANCH  79  82
ENDBRANCH  77  78
BRANCH  77 103
ATOM    103  C   UNL A   1      30.690  28.919  22.008  1.00  0.00     0.191 C 
BRANCH 103 104
ATOM    104  O   UNL A   1      30.674  30.161  21.300  1.00  0.00    -0.394 OA
ATOM    105  H   UNL A   1      29.865  30.219  20.768  1.00  0.00     0.210 HD
ENDBRANCH 103 104
ENDBRANCH  77 103
ENDBRANCH  74  77
ENDBRANCH   1  73
TORSDOF 22
ENDMDL
MODEL 2
REMARK VINA RESULT:     -11.8      2.221      7.889
REMARK SMILES O=C(NCCCNC(=O)[C@H](CO)NC(=O)[C@H](Cc1ccc(O)cc1)NC(=O)c1ccc(F)cc1)c1ccc(-c2c3nc(c(-c4cccc(S(=O)(=O)[O-])c4F)c4ccc([nH]4)c(-c4cccc(S(=O)(=O)[O-])c4F)c4nc(c(-c5cccc(S(=O)(=O)[O-])c5F)c5ccc2[nH]5)C=C4)C=C3)cc1
REMARK SMILES IDX 6 1 5 2 4 3 3 4 1 5 2 6 35 8 36 9 97 10 37 11 96 12 38 13
REMARK SMILES IDX 39 14 40 15 90 16 41 17 95 18 89 19 91 20 42 21 94 22 88 23
REMARK SMILES IDX 87 24 43 26 75 27 55 28 74 29 56 30 59 31 73 32 92 33 57 34
REMARK SMILES IDX 58 35 72 37 93 38 60 39 44 40 45 41 53 42 46 43 48 44 54 45
REMARK SMILES IDX 47 46 49 47 50 48 51 49 52 50 76 51 77 52 85 53 78 54 80 55
REMARK SMILES IDX 86 56 79 57 81 58 82 59 83 60 84 61 61 62 62 63 70 64 63 65
REMARK SMILES IDX 65 66 71 67 64 68 66 69 67 70 68 71 69 72 7 73 8 74 9 76
REMARK SMILES IDX 10 77 13 78 14 79 15 81 16 82 25 83 26 84 27 86 28 87 29 88
REMARK SMILES IDX 34 89 30 90 33 91 31 92 32 93 17 94 18 95 19 96 24 97 20 98
REMARK SMILES IDX 23 99 21 100 22 101 11 103 12 104
REMARK H PARENT 3 7 91 25 59 36 7 75 13 80 25 85 22 102 12 105
REMARK Flexibility Score: inf
ROOT
ATOM      1  C   UNL A   1      31.535  30.728  26.679  1.00  0.00     0.117 C 
ENDROOT
BRANCH   1   2
ATOM      2  C   UNL A   1      31.605  32.250  26.635  1.00  0.00     0.042 C 
BRANCH   2   3
ATOM      3  C   UNL A   1      32.856  32.812  27.308  1.00  0.00     0.118 C 
BRANCH   3   4
ATOM      4  N   UNL A   1      32.657  34.193  27.727  1.00  0.00    -0.352 N 
ATOM      5  O   UNL A   1      32.591  35.857  29.240  1.00  0.00    -0.269 OA
ATOM      6  C   UNL A   1      33.141  34.831  28.844  1.00  0.00     0.251 C 
ATOM      7  H   UNL A   1      32.101  34.743  27.130  1.00  0.00     0.163 HD
BRANCH   6   8
ATOM      8  C   UNL A   1      34.317  34.282  29.549  1.00  0.00     0.039 A 
ATOM      9  C   UNL A   1      34.137  33.445  30.652  1.00  0.00     0.014 A 
ATOM     10  C   UNL A   1      35.604  34.560  29.081  1.00  0.00     0.014 A 
ATOM     11  C   UNL A   1      35.238  32.990  31.365  1.00  0.00     0.010 A 
ATOM     12  C   UNL A   1      36.712  34.020  29.742  1.00  0.00     0.010 A 
ATOM     13  C   UNL A   1      36.539  33.243  30.898  1.00  0.00    -0.014 A 
BRANCH  13  14
ATOM     14  C   UNL A   1      37.682  32.583  31.575  1.00  0.00     0.031 A 
ATOM     15  C   UNL A   1      38.158  33.032  32.927  1.00  0.00     0.074 A 
ATOM     16  C   UNL A   1      38.288  31.556  30.946  1.00  0.00     0.049 A 
ATOM     17  N   UNL A   1      39.137  32.551  33.649  1.00  0.00    -0.248 NA
ATOM     18  C   UNL A   1      37.457  34.166  33.550  1.00  0.00     0.031 C 
ATOM     19  C   UNL A   1      37.929  31.063  29.612  1.00  0.00     0.029 A 
ATOM     20  N   UNL A   1      39.316  30.737  31.333  1.00  0.00    -0.354 N 
ATOM     21  C   UNL A   1      39.197  33.342  34.789  1.00  0.00     0.074 A 
ATOM     22  C   UNL A   1      38.158  34.341  34.662  1.00  0.00     0.031 C 
ATOM     23  C   UNL A   1      38.692  30.004  29.312  1.00  0.00     0.029 A 
ATOM     24  C   UNL A   1      39.641  29.783  30.396  1.00  0.00     0.049 A 
ATOM     25  H   UNL A   1      39.777  30.822  32.199  1.00  0.00     0.167 HD
ATOM     26  C   UNL A   1      40.034  33.231  35.848  1.00  0.00     0.034 A 
ATOM     27  C   UNL A   1      40.607  28.845  30.394  1.00  0.00     0.034 A 
ATOM     28  C   UNL A   1      41.036  32.204  35.978  1.00  0.00     0.049 A 
ATOM     29  C   UNL A   1      41.507  28.736  31.590  1.00  0.00     0.074 A 
ATOM     30  C   UNL A   1      41.893  31.974  37.039  1.00  0.00     0.029 A 
ATOM     31  N   UNL A   1      41.316  31.240  35.022  1.00  0.00    -0.354 N 
ATOM     32  N   UNL A   1      41.480  29.429  32.702  1.00  0.00    -0.248 NA
ATOM     33  C   UNL A   1      42.555  27.710  31.543  1.00  0.00     0.031 C 
ATOM     34  C   UNL A   1      42.709  30.887  36.714  1.00  0.00     0.029 A 
ATOM     35  C   UNL A   1      42.342  30.421  35.462  1.00  0.00     0.049 A 
ATOM     36  H   UNL A   1      40.855  31.151  34.156  1.00  0.00     0.167 HD
ATOM     37  C   UNL A   1      42.496  28.914  33.496  1.00  0.00     0.074 A 
ATOM     38  C   UNL A   1      43.100  27.830  32.747  1.00  0.00     0.031 C 
ATOM     39  C   UNL A   1      42.904  29.318  34.723  1.00  0.00     0.034 A 
BRANCH  26  40
ATOM     40  C   UNL A   1      39.890  34.216  36.979  1.00  0.00     0.023 A 
ATOM     41  C   UNL A   1      40.212  35.571  36.767  1.00  0.00     0.012 A 
ATOM     42  C   UNL A   1      39.334  33.823  38.214  1.00  0.00     0.148 A 
ATOM     43  C   UNL A   1      39.998  36.517  37.769  1.00  0.00     0.002 A 
ATOM     44  C   UNL A   1      39.085  34.778  39.194  1.00  0.00     0.091 A 
ATOM     45  F   UNL A   1      39.052  32.526  38.404  1.00  0.00    -0.205 F 
ATOM     46  C   UNL A   1      39.424  36.124  38.975  1.00  0.00     0.022 A 
BRANCH  44  47
ATOM     47  S   UNL A   1      38.274  34.389  40.749  1.00  0.00     0.127 S 
ATOM     48  O   UNL A   1      37.935  35.721  41.246  1.00  0.00    -0.237 OA
ATOM     49  O   UNL A   1      37.127  33.594  40.307  1.00  0.00    -0.237 OA
ATOM     50  O   UNL A   1      39.251  33.658  41.543  1.00  0.00    -0.744 OA
ENDBRANCH  44  47
ENDBRANCH  26  40
BRANCH  27  51
ATOM     51  C   UNL A   1      40.724  27.920  29.233  1.00  0.00     0.023 A 
ATOM     52  C   UNL A   1      39.847  26.823  29.130  1.00  0.00     0.012 A 
ATOM     53  C   UNL A   1      41.636  28.170  28.188  1.00  0.00     0.148 A 
ATOM     54  C   UNL A   1      39.882  25.988  28.013  1.00  0.00     0.002 A 
ATOM     55  C   UNL A   1      41.622  27.373  27.050  1.00  0.00     0.091 A 
ATOM     56  F   UNL A   1      42.474  29.210  28.313  1.00  0.00    -0.205 F 
ATOM     57  C   UNL A   1      40.756  26.272  26.966  1.00  0.00     0.022 A 
BRANCH  55  58
ATOM     58  S   UNL A   1      42.597  27.762  25.592  1.00  0.00     0.127 S 
ATOM     59  O   UNL A   1      43.946  27.839  26.147  1.00  0.00    -0.237 OA
ATOM     60  O   UNL A   1      42.345  26.599  24.740  1.00  0.00    -0.237 OA
ATOM     61  O   UNL A   1      42.052  29.011  25.075  1.00  0.00    -0.744 OA
ENDBRANCH  55  58
ENDBRANCH  27  51
BRANCH  39  62
ATOM     62  C   UNL A   1      44.056  28.581  35.354  1.00  0.00     0.023 A 
ATOM     63  C   UNL A   1      45.375  28.975  35.056  1.00  0.00     0.012 A 
ATOM     64  C   UNL A   1      43.829  27.579  36.316  1.00  0.00     0.148 A 
ATOM     65  C   UNL A   1      46.455  28.366  35.695  1.00  0.00     0.002 A 
ATOM     66  C   UNL A   1      44.908  27.012  36.984  1.00  0.00     0.091 A 
ATOM     67  F   UNL A   1      42.565  27.209  36.570  1.00  0.00    -0.205 F 
ATOM     68  C   UNL A   1      46.221  27.396  36.667  1.00  0.00     0.022 A 
BRANCH  66  69
ATOM     69  S   UNL A   1      44.700  25.830  38.322  1.00  0.00     0.127 S 
ATOM     70  O   UNL A   1      43.839  26.570  39.243  1.00  0.00    -0.237 OA
ATOM     71  O   UNL A   1      44.048  24.709  37.646  1.00  0.00    -0.237 OA
ATOM     72  O   UNL A   1      46.040  25.543  38.817  1.00  0.00    -0.744 OA
ENDBRANCH  66  69
ENDBRANCH  39  62
ENDBRANCH  13  14
ENDBRANCH   6   8
ENDBRANCH   3   4
ENDBRANCH   2   3
ENDBRANCH   1   2
BRANCH   1  73
ATOM     73  N   UNL A   1      32.741  30.129  27.223  1.00  0.00    -0.354 N 
ATOM     74  C   UNL A   1      33.387  28.954  27.028  1.00  0.00     0.244 C 
ATOM     75  H   UNL A   1      33.191  30.707  27.882  1.00  0.00     0.163 HD
ATOM     76  O   UNL A   1      34.463  28.834  27.631  1.00  0.00    -0.273 OA
BRANCH  74  77
ATOM     77  C   UNL A   1      32.829  27.761  26.224  1.00  0.00     0.197 C 
BRANCH  77  78
ATOM     78  N   UNL A   1      31.436  27.346  26.407  1.00  0.00    -0.340 N 
ATOM     79  C   UNL A   1      30.885  26.096  26.362  1.00  0.00     0.243 C 
ATOM     80  H   UNL A   1      30.801  28.077  26.589  1.00  0.00     0.164 HD
ATOM     81  O   UNL A   1      29.687  25.975  26.622  1.00  0.00    -0.273 OA
BRANCH  79  82
ATOM     82  C   UNL A   1      31.757  24.896  25.957  1.00  0.00     0.176 C 
BRANCH  82  83
ATOM     83  N   UNL A   1      32.001  24.043  27.123  1.00  0.00    -0.340 N 
ATOM     84  C   UNL A   1      32.904  23.014  27.249  1.00  0.00     0.251 C 
ATOM     85  H   UNL A   1      31.448  24.229  27.916  1.00  0.00     0.164 HD
ATOM     86  O   UNL A   1      32.861  22.255  28.216  1.00  0.00    -0.269 OA
BRANCH  84  87
ATOM     87  C   UNL A   1      33.921  22.788  26.194  1.00  0.00     0.040 A 
ATOM     88  C   UNL A   1      33.948  21.594  25.457  1.00  0.00     0.017 A 
ATOM     89  C   UNL A   1      34.878  23.779  25.952  1.00  0.00     0.017 A 
ATOM     90  C   UNL A   1      34.982  21.350  24.553  1.00  0.00     0.040 A 
ATOM     91  C   UNL A   1      35.904  23.539  25.032  1.00  0.00     0.040 A 
ATOM     92  C   UNL A   1      35.957  22.322  24.357  1.00  0.00     0.123 A 
ATOM     93  F   UNL A   1      36.972  22.074  23.519  1.00  0.00    -0.207 F 
ENDBRANCH  84  87
ENDBRANCH  82  83
BRANCH  82  94
ATOM     94  C   UNL A   1      31.099  24.115  24.793  1.00  0.00     0.070 C 
BRANCH  94  95
ATOM     95  C   UNL A   1      31.563  24.562  23.416  1.00  0.00    -0.045 A 
ATOM     96  C   UNL A   1      31.000  25.679  22.787  1.00  0.00     0.007 A 
ATOM     97  C   UNL A   1      32.566  23.858  22.735  1.00  0.00     0.007 A 
ATOM     98  C   UNL A   1      31.505  26.131  21.559  1.00  0.00     0.046 A 
ATOM     99  C   UNL A   1      33.100  24.325  21.538  1.00  0.00     0.046 A 
ATOM    100  C   UNL A   1      32.574  25.469  20.965  1.00  0.00     0.115 A 
BRANCH 100 101
ATOM    101  O   UNL A   1      33.145  25.909  19.810  1.00  0.00    -0.508 OA
ATOM    102  H   UNL A   1      34.053  25.746  19.644  1.00  0.00     0.293 HD
ENDBRANCH 100 101
ENDBRANCH  94  95
ENDBRANCH  82  94
ENDBRANCH  79  82
ENDBRANCH  77  78
BRANCH  77 103
ATOM    103  C   UNL A   1      33.139  27.947  24.729  1.00  0.00     0.191 C 
BRANCH 103 104
ATOM    104  O   UNL A   1      34.056  29.024  24.524  1.00  0.00    -0.394 OA
ATOM    105  H   UNL A   1      33.562  29.847  24.385  1.00  0.00     0.210 HD
ENDBRANCH 103 104
ENDBRANCH  77 103
ENDBRANCH  74  77
ENDBRANCH   1  73
TORSDOF 22
ENDMDL
MODEL 3
REMARK VINA RESULT:     -11.7      3.157      8.139
REMARK SMILES O=C(NCCCNC(=O)[C@H](CO)NC(=O)[C@H](Cc1ccc(O)cc1)NC(=O)c1ccc(F)cc1)c1ccc(-c2c3nc(c(-c4cccc(S(=O)(=O)[O-])c4F)c4ccc([nH]4)c(-c4cccc(S(=O)(=O)[O-])c4F)c4nc(c(-c5cccc(S(=O)(=O)[O-])c5F)c5ccc2[nH]5)C=C4)C=C3)cc1
REMARK SMILES IDX 6 1 5 2 4 3 3 4 1 5 2 6 35 8 36 9 97 10 37 11 96 12 38 13
REMARK SMILES IDX 39 14 40 15 90 16 41 17 95 18 89 19 91 20 42 21 94 22 88 23
REMARK SMILES IDX 87 24 43 26 75 27 55 28 74 29 56 30 59 31 73 32 92 33 57 34
REMARK SMILES IDX 58 35 72 37 93 38 60 39 44 40 45 41 53 42 46 43 48 44 54 45
REMARK SMILES IDX 47 46 49 47 50 48 51 49 52 50 76 51 77 52 85 53 78 54 80 55
REMARK SMILES IDX 86 56 79 57 81 58 82 59 83 60 84 61 61 62 62 63 70 64 63 65
REMARK SMILES IDX 65 66 71 67 64 68 66 69 67 70 68 71 69 72 7 73 8 74 9 76
REMARK SMILES IDX 10 77 13 78 14 79 15 81 16 82 25 83 26 84 27 86 28 87 29 88
REMARK SMILES IDX 34 89 30 90 33 91 31 92 32 93 17 94 18 95 19 96 24 97 20 98
REMARK SMILES IDX 23 99 21 100 22 101 11 103 12 104
REMARK H PARENT 3 7 91 25 59 36 7 75 13 80 25 85 22 102 12 105
REMARK Flexibility Score: inf
ROOT
ATOM      1  C   UNL A   1      31.573  29.738  25.261  1.00  0.00     0.117 C 
ENDROOT
BRANCH   1   2
ATOM      2  C   UNL A   1      32.174  28.630  26.118  1.00  0.00     0.042 C 
BRANCH   2   3
ATOM      3  C   UNL A   1      33.514  29.015  26.742  1.00  0.00     0.118 C 
BRANCH   3   4
ATOM      4  N   UNL A   1      33.652  30.461  26.852  1.00  0.00    -0.352 N 
ATOM      5  O   UNL A   1      34.259  32.360  27.894  1.00  0.00    -0.269 OA
ATOM      6  C   UNL A   1      34.515  31.185  27.638  1.00  0.00     0.251 C 
ATOM      7  H   UNL A   1      33.046  30.991  26.286  1.00  0.00     0.163 HD
BRANCH   6   8
ATOM      8  C   UNL A   1      35.740  30.547  28.161  1.00  0.00     0.039 A 
ATOM      9  C   UNL A   1      36.956  30.730  27.499  1.00  0.00     0.014 A 
ATOM     10  C   UNL A   1      35.690  29.806  29.345  1.00  0.00     0.014 A 
ATOM     11  C   UNL A   1      38.093  30.069  27.942  1.00  0.00     0.010 A 
ATOM     12  C   UNL A   1      36.859  29.222  29.845  1.00  0.00     0.010 A 
ATOM     13  C   UNL A   1      38.066  29.336  29.140  1.00  0.00    -0.014 A 
BRANCH  13  14
ATOM     14  C   UNL A   1      39.341  28.803  29.681  1.00  0.00     0.031 A 
ATOM     15  C   UNL A   1      39.960  29.367  30.928  1.00  0.00     0.074 A 
ATOM     16  C   UNL A   1      39.934  27.786  29.025  1.00  0.00     0.049 A 
ATOM     17  N   UNL A   1      41.065  29.003  31.527  1.00  0.00    -0.248 NA
ATOM     18  C   UNL A   1      39.263  30.483  31.585  1.00  0.00     0.031 C 
ATOM     19  C   UNL A   1      39.436  27.188  27.782  1.00  0.00     0.029 A 
ATOM     20  N   UNL A   1      41.068  27.068  29.304  1.00  0.00    -0.354 N 
ATOM     21  C   UNL A   1      41.218  29.864  32.605  1.00  0.00     0.074 A 
ATOM     22  C   UNL A   1      40.094  30.777  32.577  1.00  0.00     0.031 C 
ATOM     23  C   UNL A   1      40.233  26.170  27.431  1.00  0.00     0.029 A 
ATOM     24  C   UNL A   1      41.336  26.085  28.380  1.00  0.00     0.049 A 
ATOM     25  H   UNL A   1      41.636  27.239  30.090  1.00  0.00     0.167 HD
ATOM     26  C   UNL A   1      42.199  29.879  33.539  1.00  0.00     0.034 A 
ATOM     27  C   UNL A   1      42.365  25.220  28.288  1.00  0.00     0.034 A 
ATOM     28  C   UNL A   1      43.287  28.937  33.578  1.00  0.00     0.049 A 
ATOM     29  C   UNL A   1      43.427  25.250  29.348  1.00  0.00     0.074 A 
ATOM     30  C   UNL A   1      44.298  28.834  34.517  1.00  0.00     0.029 A 
ATOM     31  N   UNL A   1      43.510  27.939  32.641  1.00  0.00    -0.354 N 
ATOM     32  N   UNL A   1      43.498  26.006  30.416  1.00  0.00    -0.248 NA
ATOM     33  C   UNL A   1      44.537  24.301  29.205  1.00  0.00     0.031 C 
ATOM     34  C   UNL A   1      45.145  27.791  34.135  1.00  0.00     0.029 A 
ATOM     35  C   UNL A   1      44.648  27.224  32.973  1.00  0.00     0.049 A 
ATOM     36  H   UNL A   1      42.943  27.764  31.856  1.00  0.00     0.167 HD
ATOM     37  C   UNL A   1      44.651  25.615  31.083  1.00  0.00     0.074 A 
ATOM     38  C   UNL A   1      45.231  24.534  30.312  1.00  0.00     0.031 C 
ATOM     39  C   UNL A   1      45.190  26.121  32.218  1.00  0.00     0.034 A 
BRANCH  26  40
ATOM     40  C   UNL A   1      42.133  30.918  34.629  1.00  0.00     0.023 A 
ATOM     41  C   UNL A   1      41.549  30.589  35.868  1.00  0.00     0.012 A 
ATOM     42  C   UNL A   1      42.746  32.177  34.466  1.00  0.00     0.148 A 
ATOM     43  C   UNL A   1      41.560  31.502  36.923  1.00  0.00     0.002 A 
ATOM     44  C   UNL A   1      42.789  33.066  35.535  1.00  0.00     0.091 A 
ATOM     45  F   UNL A   1      43.279  32.479  33.274  1.00  0.00    -0.205 F 
ATOM     46  C   UNL A   1      42.190  32.733  36.761  1.00  0.00     0.022 A 
BRANCH  44  47
ATOM     47  S   UNL A   1      43.648  34.643  35.455  1.00  0.00     0.127 S 
ATOM     48  O   UNL A   1      43.127  35.200  34.207  1.00  0.00    -0.237 OA
ATOM     49  O   UNL A   1      43.174  35.313  36.666  1.00  0.00    -0.237 OA
ATOM     50  O   UNL A   1      45.069  34.329  35.450  1.00  0.00    -0.744 OA
ENDBRANCH  44  47
ENDBRANCH  26  40
BRANCH  27  51
ATOM     51  C   UNL A   1      42.395  24.237  27.170  1.00  0.00     0.023 A 
ATOM     52  C   UNL A   1      43.129  24.534  26.005  1.00  0.00     0.012 A 
ATOM     53  C   UNL A   1      41.778  22.975  27.290  1.00  0.00     0.148 A 
ATOM     54  C   UNL A   1      43.240  23.597  24.978  1.00  0.00     0.002 A 
ATOM     55  C   UNL A   1      41.947  22.023  26.291  1.00  0.00     0.091 A 
ATOM     56  F   UNL A   1      41.072  22.717  28.400  1.00  0.00    -0.205 F 
ATOM     57  C   UNL A   1      42.665  22.337  25.127  1.00  0.00     0.022 A 
BRANCH  55  58
ATOM     58  S   UNL A   1      41.379  20.329  26.473  1.00  0.00     0.127 S 
ATOM     59  O   UNL A   1      41.883  19.985  27.800  1.00  0.00    -0.237 OA
ATOM     60  O   UNL A   1      39.926  20.486  26.386  1.00  0.00    -0.237 OA
ATOM     61  O   UNL A   1      41.968  19.594  25.361  1.00  0.00    -0.744 OA
ENDBRANCH  55  58
ENDBRANCH  27  51
BRANCH  39  62
ATOM     62  C   UNL A   1      46.473  25.510  32.716  1.00  0.00     0.023 A 
ATOM     63  C   UNL A   1      47.704  25.989  32.227  1.00  0.00     0.012 A 
ATOM     64  C   UNL A   1      46.460  24.542  33.739  1.00  0.00     0.148 A 
ATOM     65  C   UNL A   1      48.905  25.500  32.737  1.00  0.00     0.002 A 
ATOM     66  C   UNL A   1      47.661  24.096  34.277  1.00  0.00     0.091 A 
ATOM     67  F   UNL A   1      45.276  24.088  34.175  1.00  0.00    -0.205 F 
ATOM     68  C   UNL A   1      48.884  24.565  33.769  1.00  0.00     0.022 A 
BRANCH  66  69
ATOM     69  S   UNL A   1      47.732  22.970  35.675  1.00  0.00     0.127 S 
ATOM     70  O   UNL A   1      46.967  23.701  36.685  1.00  0.00    -0.237 OA
ATOM     71  O   UNL A   1      47.065  21.780  35.149  1.00  0.00    -0.237 OA
ATOM     72  O   UNL A   1      49.145  22.789  35.975  1.00  0.00    -0.744 OA
ENDBRANCH  66  69
ENDBRANCH  39  62
ENDBRANCH  13  14
ENDBRANCH   6   8
ENDBRANCH   3   4
ENDBRANCH   2   3
ENDBRANCH   1   2
BRANCH   1  73
ATOM     73  N   UNL A   1      30.839  29.223  24.117  1.00  0.00    -0.354 N 
ATOM     74  C   UNL A   1      31.151  28.408  23.080  1.00  0.00     0.244 C 
ATOM     75  H   UNL A   1      29.906  29.537  24.089  1.00  0.00     0.163 HD
ATOM     76  O   UNL A   1      30.209  28.125  22.327  1.00  0.00    -0.273 OA
BRANCH  74  77
ATOM     77  C   UNL A   1      32.575  27.927  22.730  1.00  0.00     0.197 C 
BRANCH  77  78
ATOM     78  N   UNL A   1      32.791  27.082  21.554  1.00  0.00    -0.340 N 
ATOM     79  C   UNL A   1      32.970  25.729  21.472  1.00  0.00     0.243 C 
ATOM     80  H   UNL A   1      32.811  27.559  20.692  1.00  0.00     0.164 HD
ATOM     81  O   UNL A   1      33.062  25.217  20.356  1.00  0.00    -0.273 OA
BRANCH  79  82
ATOM     82  C   UNL A   1      33.087  24.900  22.762  1.00  0.00     0.176 C 
BRANCH  82  83
ATOM     83  N   UNL A   1      33.605  25.739  23.847  1.00  0.00    -0.340 N 
ATOM     84  C   UNL A   1      34.380  25.361  24.917  1.00  0.00     0.251 C 
ATOM     85  H   UNL A   1      33.367  26.693  23.804  1.00  0.00     0.164 HD
ATOM     86  O   UNL A   1      34.574  26.131  25.856  1.00  0.00    -0.269 OA
BRANCH  84  87
ATOM     87  C   UNL A   1      34.963  23.998  24.965  1.00  0.00     0.040 A 
ATOM     88  C   UNL A   1      35.641  23.460  23.861  1.00  0.00     0.017 A 
ATOM     89  C   UNL A   1      34.808  23.236  26.128  1.00  0.00     0.017 A 
ATOM     90  C   UNL A   1      36.078  22.135  23.882  1.00  0.00     0.040 A 
ATOM     91  C   UNL A   1      35.263  21.914  26.153  1.00  0.00     0.040 A 
ATOM     92  C   UNL A   1      35.874  21.371  25.026  1.00  0.00     0.123 A 
ATOM     93  F   UNL A   1      36.257  20.087  25.034  1.00  0.00    -0.207 F 
ENDBRANCH  84  87
ENDBRANCH  82  83
BRANCH  82  94
ATOM     94  C   UNL A   1      31.723  24.260  23.122  1.00  0.00     0.070 C 
BRANCH  94  95
ATOM     95  C   UNL A   1      31.841  22.885  23.759  1.00  0.00    -0.045 A 
ATOM     96  C   UNL A   1      32.368  21.799  23.049  1.00  0.00     0.007 A 
ATOM     97  C   UNL A   1      31.415  22.666  25.076  1.00  0.00     0.007 A 
ATOM     98  C   UNL A   1      32.555  20.562  23.682  1.00  0.00     0.046 A 
ATOM     99  C   UNL A   1      31.636  21.455  25.722  1.00  0.00     0.046 A 
ATOM    100  C   UNL A   1      32.220  20.414  25.024  1.00  0.00     0.115 A 
BRANCH 100 101
ATOM    101  O   UNL A   1      32.447  19.254  25.701  1.00  0.00    -0.508 OA
ATOM    102  H   UNL A   1      31.829  18.551  25.645  1.00  0.00     0.293 HD
ENDBRANCH 100 101
ENDBRANCH  94  95
ENDBRANCH  82  94
ENDBRANCH  79  82
ENDBRANCH  77  78
BRANCH  77 103
ATOM    103  C   UNL A   1      33.542  29.123  22.713  1.00  0.00     0.191 C 
BRANCH 103 104
ATOM    104  O   UNL A   1      34.724  28.840  23.467  1.00  0.00    -0.394 OA
ATOM    105  H   UNL A   1      35.014  29.643  23.926  1.00  0.00     0.210 HD
ENDBRANCH 103 104
ENDBRANCH  77 103
ENDBRANCH  74  77
ENDBRANCH   1  73
TORSDOF 22
ENDMDL
