MODEL 1
REMARK VINA RESULT:     -12.4      0.000      0.000
REMARK SMILES O=C(NCCCNC(=O)c1cc(F)ccc1NS(=O)(=O)c1ccc(Cl)s1)c1ccc(-c2c3nc(c(-c4cccc(S(=O)(=O)[O-])c4F)c4ccc([nH]4)c(-c4cccc(S(=O)(=O)[O-])c4F)c4nc(c(-c5cccc(S(=O)(=O)[O-])c5F)c5ccc2[nH]5)C=C4)C=C3)cc1
REMARK SMILES IDX 5 1 4 2 3 3 1 4 2 5 27 7 28 8 89 9 29 10 88 11 30 12 31 13
REMARK SMILES IDX 32 14 82 15 33 16 87 17 81 18 83 19 34 20 86 21 80 22 79 23
REMARK SMILES IDX 35 25 67 26 47 27 66 28 48 29 51 30 65 31 84 32 49 33 50 34
REMARK SMILES IDX 64 36 85 37 52 38 36 39 37 40 45 41 38 42 40 43 46 44 39 45
REMARK SMILES IDX 41 46 42 47 43 48 44 49 68 50 69 51 77 52 70 53 72 54 78 55
REMARK SMILES IDX 71 56 73 57 74 58 75 59 76 60 53 61 54 62 62 63 55 64 57 65
REMARK SMILES IDX 63 66 56 67 58 68 59 69 60 70 61 71 6 72 7 73 8 74 9 76
REMARK SMILES IDX 10 77 11 78 16 79 12 80 15 81 13 82 14 83 17 84 18 86 19 87
REMARK SMILES IDX 20 88 21 89 22 90 26 91 23 92 24 93 25 94
REMARK H PARENT 3 6 83 24 51 35 7 75 17 85
REMARK Flexibility Score: inf
ROOT
ATOM      1  C   UNL A   1      32.810  29.316  24.173  1.00  0.00     0.042 C 
ENDROOT
BRANCH   1   2
ATOM      2  C   UNL A   1      32.390  29.477  25.629  1.00  0.00     0.118 C 
BRANCH   2   3
ATOM      3  N   UNL A   1      32.056  30.852  25.964  1.00  0.00    -0.352 N 
ATOM      4  O   UNL A   1      32.016  32.749  27.160  1.00  0.00    -0.269 OA
ATOM      5  C   UNL A   1      32.594  31.694  26.907  1.00  0.00     0.251 C 
ATOM      6  H   UNL A   1      31.327  31.242  25.429  1.00  0.00     0.163 HD
BRANCH   5   7
ATOM      7  C   UNL A   1      33.836  31.334  27.628  1.00  0.00     0.039 A 
ATOM      8  C   UNL A   1      34.141  30.004  27.933  1.00  0.00     0.014 A 
ATOM      9  C   UNL A   1      34.740  32.347  27.961  1.00  0.00     0.014 A 
ATOM     10  C   UNL A   1      35.275  29.702  28.684  1.00  0.00     0.010 A 
ATOM     11  C   UNL A   1      35.918  32.033  28.645  1.00  0.00     0.010 A 
ATOM     12  C   UNL A   1      36.184  30.711  29.034  1.00  0.00    -0.014 A 
BRANCH  12  13
ATOM     13  C   UNL A   1      37.447  30.375  29.744  1.00  0.00     0.031 A 
ATOM     14  C   UNL A   1      38.464  29.460  29.116  1.00  0.00     0.074 A 
ATOM     15  C   UNL A   1      37.655  30.869  30.981  1.00  0.00     0.049 A 
ATOM     16  N   UNL A   1      39.564  28.975  29.633  1.00  0.00    -0.248 NA
ATOM     17  C   UNL A   1      38.219  29.034  27.728  1.00  0.00     0.031 C 
ATOM     18  C   UNL A   1      36.740  31.760  31.699  1.00  0.00     0.029 A 
ATOM     19  N   UNL A   1      38.688  30.678  31.863  1.00  0.00    -0.354 N 
ATOM     20  C   UNL A   1      40.124  28.163  28.654  1.00  0.00     0.074 A 
ATOM     21  C   UNL A   1      39.241  28.216  27.509  1.00  0.00     0.031 C 
ATOM     22  C   UNL A   1      37.251  32.038  32.907  1.00  0.00     0.029 A 
ATOM     23  C   UNL A   1      38.496  31.299  33.076  1.00  0.00     0.049 A 
ATOM     24  H   UNL A   1      39.489  30.147  31.649  1.00  0.00     0.167 HD
ATOM     25  C   UNL A   1      41.275  27.452  28.704  1.00  0.00     0.034 A 
ATOM     26  C   UNL A   1      39.220  31.253  34.210  1.00  0.00     0.034 A 
ATOM     27  C   UNL A   1      42.164  27.425  29.837  1.00  0.00     0.049 A 
ATOM     28  C   UNL A   1      40.477  30.428  34.238  1.00  0.00     0.074 A 
ATOM     29  C   UNL A   1      43.367  26.751  29.967  1.00  0.00     0.029 A 
ATOM     30  N   UNL A   1      41.954  28.096  31.030  1.00  0.00    -0.354 N 
ATOM     31  N   UNL A   1      41.032  29.733  33.275  1.00  0.00    -0.248 NA
ATOM     32  C   UNL A   1      41.223  30.401  35.504  1.00  0.00     0.031 C 
ATOM     33  C   UNL A   1      43.873  26.998  31.245  1.00  0.00     0.029 A 
ATOM     34  C   UNL A   1      43.003  27.851  31.902  1.00  0.00     0.049 A 
ATOM     35  H   UNL A   1      41.175  28.663  31.230  1.00  0.00     0.167 HD
ATOM     36  C   UNL A   1      42.206  29.215  33.808  1.00  0.00     0.074 A 
ATOM     37  C   UNL A   1      42.300  29.704  35.167  1.00  0.00     0.031 C 
ATOM     38  C   UNL A   1      43.114  28.389  33.232  1.00  0.00     0.034 A 
BRANCH  25  39
ATOM     39  C   UNL A   1      41.692  26.671  27.483  1.00  0.00     0.023 A 
ATOM     40  C   UNL A   1      42.433  27.315  26.474  1.00  0.00     0.012 A 
ATOM     41  C   UNL A   1      41.481  25.279  27.410  1.00  0.00     0.148 A 
ATOM     42  C   UNL A   1      42.957  26.586  25.406  1.00  0.00     0.002 A 
ATOM     43  C   UNL A   1      42.043  24.553  26.365  1.00  0.00     0.091 A 
ATOM     44  F   UNL A   1      40.764  24.690  28.376  1.00  0.00    -0.205 F 
ATOM     45  C   UNL A   1      42.775  25.207  25.359  1.00  0.00     0.022 A 
BRANCH  43  46
ATOM     46  S   UNL A   1      41.940  22.763  26.252  1.00  0.00     0.127 S 
ATOM     47  O   UNL A   1      42.653  22.505  25.001  1.00  0.00    -0.237 OA
ATOM     48  O   UNL A   1      42.652  22.342  27.458  1.00  0.00    -0.237 OA
ATOM     49  O   UNL A   1      40.521  22.439  26.229  1.00  0.00    -0.744 OA
ENDBRANCH  43  46
ENDBRANCH  25  39
BRANCH  26  50
ATOM     50  C   UNL A   1      38.794  32.032  35.407  1.00  0.00     0.023 A 
ATOM     51  C   UNL A   1      38.992  33.426  35.429  1.00  0.00     0.012 A 
ATOM     52  C   UNL A   1      38.190  31.409  36.518  1.00  0.00     0.148 A 
ATOM     53  C   UNL A   1      38.634  34.179  36.547  1.00  0.00     0.002 A 
ATOM     54  C   UNL A   1      37.778  32.173  37.602  1.00  0.00     0.091 A 
ATOM     55  F   UNL A   1      38.025  30.078  36.488  1.00  0.00    -0.205 F 
ATOM     56  C   UNL A   1      38.019  33.556  37.628  1.00  0.00     0.022 A 
BRANCH  54  57
ATOM     57  S   UNL A   1      36.850  31.476  38.973  1.00  0.00     0.127 S 
ATOM     58  O   UNL A   1      36.598  30.116  38.501  1.00  0.00    -0.237 OA
ATOM     59  O   UNL A   1      37.810  31.581  40.072  1.00  0.00    -0.237 OA
ATOM     60  O   UNL A   1      35.676  32.325  39.121  1.00  0.00    -0.744 OA
ENDBRANCH  54  57
ENDBRANCH  26  50
BRANCH  38  61
ATOM     61  C   UNL A   1      44.311  27.987  34.055  1.00  0.00     0.023 A 
ATOM     62  C   UNL A   1      45.457  28.807  34.073  1.00  0.00     0.012 A 
ATOM     63  C   UNL A   1      44.278  26.830  34.860  1.00  0.00     0.148 A 
ATOM     64  C   UNL A   1      46.567  28.460  34.842  1.00  0.00     0.002 A 
ATOM     65  C   UNL A   1      45.366  26.521  35.667  1.00  0.00     0.091 A 
ATOM     66  F   UNL A   1      43.188  26.051  34.818  1.00  0.00    -0.205 F 
ATOM     67  C   UNL A   1      46.517  27.326  35.648  1.00  0.00     0.022 A 
BRANCH  65  68
ATOM     68  S   UNL A   1      45.348  25.139  36.816  1.00  0.00     0.127 S 
ATOM     69  O   UNL A   1      46.631  25.303  37.498  1.00  0.00    -0.237 OA
ATOM     70  O   UNL A   1      44.176  25.435  37.641  1.00  0.00    -0.237 OA
ATOM     71  O   UNL A   1      45.221  23.942  35.997  1.00  0.00    -0.744 OA
ENDBRANCH  65  68
ENDBRANCH  38  61
ENDBRANCH  12  13
ENDBRANCH   5   7
ENDBRANCH   2   3
ENDBRANCH   1   2
BRANCH   1  72
ATOM     72  C   UNL A   1      34.023  28.415  23.968  1.00  0.00     0.118 C 
BRANCH  72  73
ATOM     73  N   UNL A   1      33.874  27.538  22.810  1.00  0.00    -0.352 N 
ATOM     74  C   UNL A   1      33.455  26.230  22.760  1.00  0.00     0.253 C 
ATOM     75  H   UNL A   1      34.105  27.941  21.942  1.00  0.00     0.163 HD
ATOM     76  O   UNL A   1      33.653  25.545  21.762  1.00  0.00    -0.269 OA
BRANCH  74  77
ATOM     77  C   UNL A   1      32.825  25.621  23.943  1.00  0.00     0.066 A 
ATOM     78  C   UNL A   1      31.446  25.807  24.136  1.00  0.00     0.055 A 
ATOM     79  C   UNL A   1      33.603  24.937  24.893  1.00  0.00     0.062 A 
ATOM     80  C   UNL A   1      30.870  25.424  25.336  1.00  0.00     0.124 A 
ATOM     81  C   UNL A   1      33.008  24.658  26.127  1.00  0.00     0.030 A 
ATOM     82  F   UNL A   1      29.570  25.653  25.550  1.00  0.00    -0.207 F 
ATOM     83  C   UNL A   1      31.645  24.875  26.345  1.00  0.00     0.041 A 
BRANCH  79  84
ATOM     84  N   UNL A   1      35.016  24.693  24.704  1.00  0.00    -0.278 N 
ATOM     85  H   UNL A   1      35.674  25.396  24.906  1.00  0.00     0.180 HD
BRANCH  84  86
ATOM     86  S   UNL A   1      35.531  23.167  24.124  1.00  0.00     0.271 S 
ATOM     87  O   UNL A   1      35.965  23.328  22.750  1.00  0.00    -0.200 OA
ATOM     88  O   UNL A   1      36.421  22.627  25.126  1.00  0.00    -0.200 OA
BRANCH  86  89
ATOM     89  C   UNL A   1      34.167  22.018  24.101  1.00  0.00     0.141 A 
ATOM     90  C   UNL A   1      32.964  22.028  23.411  1.00  0.00     0.036 A 
ATOM     91  S   UNL A   1      34.342  20.580  25.025  1.00  0.00    -0.110 S 
ATOM     92  C   UNL A   1      32.263  20.789  23.533  1.00  0.00     0.034 A 
ATOM     93  C   UNL A   1      32.935  19.923  24.357  1.00  0.00     0.094 A 
ATOM     94  Cl  UNL A   1      32.497  18.306  24.727  1.00  0.00    -0.072 Cl
ENDBRANCH  86  89
ENDBRANCH  84  86
ENDBRANCH  79  84
ENDBRANCH  74  77
ENDBRANCH  72  73
ENDBRANCH   1  72
TORSDOF 16
ENDMDL
MODEL 2
REMARK VINA RESULT:     -12.3      2.929      4.105
REMARK SMILES O=C(NCCCNC(=O)c1cc(F)ccc1NS(=O)(=O)c1ccc(Cl)s1)c1ccc(-c2c3nc(c(-c4cccc(S(=O)(=O)[O-])c4F)c4ccc([nH]4)c(-c4cccc(S(=O)(=O)[O-])c4F)c4nc(c(-c5cccc(S(=O)(=O)[O-])c5F)c5ccc2[nH]5)C=C4)C=C3)cc1
REMARK SMILES IDX 5 1 4 2 3 3 1 4 2 5 27 7 28 8 89 9 29 10 88 11 30 12 31 13
REMARK SMILES IDX 32 14 82 15 33 16 87 17 81 18 83 19 34 20 86 21 80 22 79 23
REMARK SMILES IDX 35 25 67 26 47 27 66 28 48 29 51 30 65 31 84 32 49 33 50 34
REMARK SMILES IDX 64 36 85 37 52 38 36 39 37 40 45 41 38 42 40 43 46 44 39 45
REMARK SMILES IDX 41 46 42 47 43 48 44 49 68 50 69 51 77 52 70 53 72 54 78 55
REMARK SMILES IDX 71 56 73 57 74 58 75 59 76 60 53 61 54 62 62 63 55 64 57 65
REMARK SMILES IDX 63 66 56 67 58 68 59 69 60 70 61 71 6 72 7 73 8 74 9 76
REMARK SMILES IDX 10 77 11 78 16 79 12 80 15 81 13 82 14 83 17 84 18 86 19 87
REMARK SMILES IDX 20 88 21 89 22 90 26 91 23 92 24 93 25 94
REMARK H PARENT 3 6 83 24 51 35 7 75 17 85
REMARK Flexibility Score: inf
ROOT
ATOM      1  C   UNL A   1      31.865  29.650  27.190  1.00  0.00     0.042 C 
ENDROOT
BRANCH   1   2
ATOM      2  C   UNL A   1      32.943  30.470  26.492  1.00  0.00     0.118 C 
BRANCH   2   3
ATOM      3  N   UNL A   1      32.837  31.891  26.781  1.00  0.00    -0.352 N 
ATOM      4  O   UNL A   1      33.176  33.822  27.871  1.00  0.00    -0.269 OA
ATOM      5  C   UNL A   1      33.575  32.685  27.625  1.00  0.00     0.251 C 
ATOM      6  H   UNL A   1      32.122  32.360  26.293  1.00  0.00     0.163 HD
BRANCH   5   7
ATOM      7  C   UNL A   1      34.819  32.181  28.251  1.00  0.00     0.039 A 
ATOM      8  C   UNL A   1      36.003  32.921  28.216  1.00  0.00     0.014 A 
ATOM      9  C   UNL A   1      34.784  30.959  28.930  1.00  0.00     0.014 A 
ATOM     10  C   UNL A   1      37.178  32.386  28.740  1.00  0.00     0.010 A 
ATOM     11  C   UNL A   1      35.946  30.459  29.526  1.00  0.00     0.010 A 
ATOM     12  C   UNL A   1      37.159  31.157  29.415  1.00  0.00    -0.014 A 
BRANCH  12  13
ATOM     13  C   UNL A   1      38.390  30.635  30.065  1.00  0.00     0.031 A 
ATOM     14  C   UNL A   1      39.250  29.610  29.378  1.00  0.00     0.074 A 
ATOM     15  C   UNL A   1      38.707  31.062  31.304  1.00  0.00     0.049 A 
ATOM     16  N   UNL A   1      40.292  28.967  29.840  1.00  0.00    -0.248 NA
ATOM     17  C   UNL A   1      38.899  29.258  27.991  1.00  0.00     0.031 C 
ATOM     18  C   UNL A   1      37.948  32.048  32.078  1.00  0.00     0.029 A 
ATOM     19  N   UNL A   1      39.737  30.710  32.140  1.00  0.00    -0.354 N 
ATOM     20  C   UNL A   1      40.702  28.115  28.821  1.00  0.00     0.074 A 
ATOM     21  C   UNL A   1      39.793  28.317  27.713  1.00  0.00     0.031 C 
ATOM     22  C   UNL A   1      38.536  32.222  33.270  1.00  0.00     0.029 A 
ATOM     23  C   UNL A   1      39.675  31.318  33.373  1.00  0.00     0.049 A 
ATOM     24  H   UNL A   1      40.450  30.083  31.883  1.00  0.00     0.167 HD
ATOM     25  C   UNL A   1      41.747  27.254  28.809  1.00  0.00     0.034 A 
ATOM     26  C   UNL A   1      40.427  31.144  34.476  1.00  0.00     0.034 A 
ATOM     27  C   UNL A   1      42.665  27.077  29.905  1.00  0.00     0.049 A 
ATOM     28  C   UNL A   1      41.561  30.157  34.436  1.00  0.00     0.074 A 
ATOM     29  C   UNL A   1      43.769  26.244  29.972  1.00  0.00     0.029 A 
ATOM     30  N   UNL A   1      42.591  27.737  31.121  1.00  0.00    -0.354 N 
ATOM     31  N   UNL A   1      41.981  29.421  33.436  1.00  0.00    -0.248 NA
ATOM     32  C   UNL A   1      42.342  29.996  35.670  1.00  0.00     0.031 C 
ATOM     33  C   UNL A   1      44.350  26.386  31.234  1.00  0.00     0.029 A 
ATOM     34  C   UNL A   1      43.628  27.330  31.944  1.00  0.00     0.049 A 
ATOM     35  H   UNL A   1      41.904  28.399  31.363  1.00  0.00     0.167 HD
ATOM     36  C   UNL A   1      43.094  28.736  33.910  1.00  0.00     0.074 A 
ATOM     37  C   UNL A   1      43.302  29.171  35.275  1.00  0.00     0.031 C 
ATOM     38  C   UNL A   1      43.860  27.811  33.280  1.00  0.00     0.034 A 
BRANCH  25  39
ATOM     39  C   UNL A   1      42.010  26.458  27.556  1.00  0.00     0.023 A 
ATOM     40  C   UNL A   1      42.681  27.070  26.479  1.00  0.00     0.012 A 
ATOM     41  C   UNL A   1      41.730  25.078  27.505  1.00  0.00     0.148 A 
ATOM     42  C   UNL A   1      43.067  26.321  25.367  1.00  0.00     0.002 A 
ATOM     43  C   UNL A   1      42.155  24.330  26.412  1.00  0.00     0.091 A 
ATOM     44  F   UNL A   1      41.081  24.519  28.536  1.00  0.00    -0.205 F 
ATOM     45  C   UNL A   1      42.818  24.952  25.341  1.00  0.00     0.022 A 
BRANCH  43  46
ATOM     46  S   UNL A   1      41.960  22.547  26.314  1.00  0.00     0.127 S 
ATOM     47  O   UNL A   1      40.504  22.411  26.269  1.00  0.00    -0.237 OA
ATOM     48  O   UNL A   1      42.640  22.236  25.057  1.00  0.00    -0.237 OA
ATOM     49  O   UNL A   1      42.592  22.003  27.507  1.00  0.00    -0.744 OA
ENDBRANCH  43  46
ENDBRANCH  25  39
BRANCH  26  50
ATOM     50  C   UNL A   1      40.154  31.941  35.706  1.00  0.00     0.023 A 
ATOM     51  C   UNL A   1      41.042  32.970  36.073  1.00  0.00     0.012 A 
ATOM     52  C   UNL A   1      39.023  31.693  36.510  1.00  0.00     0.148 A 
ATOM     53  C   UNL A   1      40.832  33.711  37.235  1.00  0.00     0.002 A 
ATOM     54  C   UNL A   1      38.786  32.477  37.632  1.00  0.00     0.091 A 
ATOM     55  F   UNL A   1      38.197  30.697  36.157  1.00  0.00    -0.205 F 
ATOM     56  C   UNL A   1      39.701  33.473  38.009  1.00  0.00     0.022 A 
BRANCH  54  57
ATOM     57  S   UNL A   1      37.281  32.335  38.604  1.00  0.00     0.127 S 
ATOM     58  O   UNL A   1      37.668  32.991  39.850  1.00  0.00    -0.237 OA
ATOM     59  O   UNL A   1      36.322  33.079  37.786  1.00  0.00    -0.237 OA
ATOM     60  O   UNL A   1      37.009  30.907  38.695  1.00  0.00    -0.744 OA
ENDBRANCH  54  57
ENDBRANCH  26  50
BRANCH  38  61
ATOM     61  C   UNL A   1      45.021  27.230  34.046  1.00  0.00     0.023 A 
ATOM     62  C   UNL A   1      46.277  27.868  34.006  1.00  0.00     0.012 A 
ATOM     63  C   UNL A   1      44.852  26.088  34.854  1.00  0.00     0.148 A 
ATOM     64  C   UNL A   1      47.357  27.355  34.722  1.00  0.00     0.002 A 
ATOM     65  C   UNL A   1      45.919  25.614  35.609  1.00  0.00     0.091 A 
ATOM     66  F   UNL A   1      43.657  25.482  34.867  1.00  0.00    -0.205 F 
ATOM     67  C   UNL A   1      47.176  26.237  35.533  1.00  0.00     0.022 A 
BRANCH  65  68
ATOM     68  S   UNL A   1      45.749  24.246  36.761  1.00  0.00     0.127 S 
ATOM     69  O   UNL A   1      44.763  24.771  37.704  1.00  0.00    -0.237 OA
ATOM     70  O   UNL A   1      45.254  23.173  35.898  1.00  0.00    -0.237 OA
ATOM     71  O   UNL A   1      47.079  24.015  37.306  1.00  0.00    -0.744 OA
ENDBRANCH  65  68
ENDBRANCH  38  61
ENDBRANCH  12  13
ENDBRANCH   5   7
ENDBRANCH   2   3
ENDBRANCH   1   2
BRANCH   1  72
ATOM     72  C   UNL A   1      32.321  28.262  27.627  1.00  0.00     0.118 C 
BRANCH  72  73
ATOM     73  N   UNL A   1      31.272  27.258  27.469  1.00  0.00    -0.352 N 
ATOM     74  C   UNL A   1      30.980  26.473  26.380  1.00  0.00     0.253 C 
ATOM     75  H   UNL A   1      30.694  27.124  28.254  1.00  0.00     0.163 HD
ATOM     76  O   UNL A   1      29.905  25.888  26.297  1.00  0.00    -0.269 OA
BRANCH  74  77
ATOM     77  C   UNL A   1      31.938  26.387  25.265  1.00  0.00     0.066 A 
ATOM     78  C   UNL A   1      32.880  25.346  25.272  1.00  0.00     0.055 A 
ATOM     79  C   UNL A   1      31.954  27.372  24.262  1.00  0.00     0.062 A 
ATOM     80  C   UNL A   1      33.916  25.361  24.352  1.00  0.00     0.124 A 
ATOM     81  C   UNL A   1      33.068  27.408  23.418  1.00  0.00     0.030 A 
ATOM     82  F   UNL A   1      34.851  24.406  24.391  1.00  0.00    -0.207 F 
ATOM     83  C   UNL A   1      34.033  26.399  23.441  1.00  0.00     0.041 A 
BRANCH  79  84
ATOM     84  N   UNL A   1      30.972  28.432  24.203  1.00  0.00    -0.278 N 
ATOM     85  H   UNL A   1      31.033  29.201  24.814  1.00  0.00     0.180 HD
BRANCH  84  86
ATOM     86  S   UNL A   1      29.701  28.334  23.060  1.00  0.00     0.271 S 
ATOM     87  O   UNL A   1      30.272  27.962  21.780  1.00  0.00    -0.200 OA
ATOM     88  O   UNL A   1      28.662  27.537  23.670  1.00  0.00    -0.200 OA
BRANCH  86  89
ATOM     89  C   UNL A   1      28.940  29.931  22.839  1.00  0.00     0.141 A 
ATOM     90  C   UNL A   1      28.720  30.980  23.720  1.00  0.00     0.036 A 
ATOM     91  S   UNL A   1      28.426  30.337  21.250  1.00  0.00    -0.110 S 
ATOM     92  C   UNL A   1      28.267  32.159  23.051  1.00  0.00     0.034 A 
ATOM     93  C   UNL A   1      28.106  31.932  21.709  1.00  0.00     0.094 A 
ATOM     94  Cl  UNL A   1      27.650  33.082  20.520  1.00  0.00    -0.072 Cl
ENDBRANCH  86  89
ENDBRANCH  84  86
ENDBRANCH  79  84
ENDBRANCH  74  77
ENDBRANCH  72  73
ENDBRANCH   1  72
TORSDOF 16
ENDMDL
MODEL 3
REMARK VINA RESULT:     -12.2      2.515      3.413
REMARK SMILES O=C(NCCCNC(=O)c1cc(F)ccc1NS(=O)(=O)c1ccc(Cl)s1)c1ccc(-c2c3nc(c(-c4cccc(S(=O)(=O)[O-])c4F)c4ccc([nH]4)c(-c4cccc(S(=O)(=O)[O-])c4F)c4nc(c(-c5cccc(S(=O)(=O)[O-])c5F)c5ccc2[nH]5)C=C4)C=C3)cc1
REMARK SMILES IDX 5 1 4 2 3 3 1 4 2 5 27 7 28 8 89 9 29 10 88 11 30 12 31 13
REMARK SMILES IDX 32 14 82 15 33 16 87 17 81 18 83 19 34 20 86 21 80 22 79 23
REMARK SMILES IDX 35 25 67 26 47 27 66 28 48 29 51 30 65 31 84 32 49 33 50 34
REMARK SMILES IDX 64 36 85 37 52 38 36 39 37 40 45 41 38 42 40 43 46 44 39 45
REMARK SMILES IDX 41 46 42 47 43 48 44 49 68 50 69 51 77 52 70 53 72 54 78 55
REMARK SMILES IDX 71 56 73 57 74 58 75 59 76 60 53 61 54 62 62 63 55 64 57 65
REMARK SMILES IDX 63 66 56 67 58 68 59 69 60 70 61 71 6 72 7 73 8 74 9 76
REMARK SMILES IDX 10 77 11 78 16 79 12 80 15 81 13 82 14 83 17 84 18 86 19 87
REMARK SMILES IDX 20 88 21 89 22 90 26 91 23 92 24 93 25 94
REMARK H PARENT 3 6 83 24 51 35 7 75 17 85
REMARK Flexibility Score: inf
ROOT
ATOM      1  C   UNL A   1      31.772  28.479  26.281  1.00  0.00     0.042 C 
ENDROOT
BRANCH   1   2
ATOM      2  C   UNL A   1      32.674  29.505  25.606  1.00  0.00     0.118 C 
BRANCH   2   3
ATOM      3  N   UNL A   1      32.332  30.871  25.966  1.00  0.00    -0.352 N 
ATOM      4  O   UNL A   1      32.285  32.748  27.193  1.00  0.00    -0.269 OA
ATOM      5  C   UNL A   1      32.869  31.702  26.919  1.00  0.00     0.251 C 
ATOM      6  H   UNL A   1      31.597  31.264  25.442  1.00  0.00     0.163 HD
BRANCH   5   7
ATOM      7  C   UNL A   1      34.119  31.340  27.627  1.00  0.00     0.039 A 
ATOM      8  C   UNL A   1      34.378  30.024  28.020  1.00  0.00     0.014 A 
ATOM      9  C   UNL A   1      35.075  32.333  27.857  1.00  0.00     0.014 A 
ATOM     10  C   UNL A   1      35.523  29.726  28.755  1.00  0.00     0.010 A 
ATOM     11  C   UNL A   1      36.261  32.017  28.526  1.00  0.00     0.010 A 
ATOM     12  C   UNL A   1      36.485  30.716  29.003  1.00  0.00    -0.014 A 
BRANCH  12  13
ATOM     13  C   UNL A   1      37.755  30.376  29.696  1.00  0.00     0.031 A 
ATOM     14  C   UNL A   1      38.748  29.436  29.068  1.00  0.00     0.074 A 
ATOM     15  C   UNL A   1      37.992  30.891  30.919  1.00  0.00     0.049 A 
ATOM     16  N   UNL A   1      39.850  28.946  29.575  1.00  0.00    -0.248 NA
ATOM     17  C   UNL A   1      38.472  28.987  27.693  1.00  0.00     0.031 C 
ATOM     18  C   UNL A   1      37.102  31.808  31.637  1.00  0.00     0.029 A 
ATOM     19  N   UNL A   1      39.038  30.703  31.787  1.00  0.00    -0.354 N 
ATOM     20  C   UNL A   1      40.382  28.108  28.602  1.00  0.00     0.074 A 
ATOM     21  C   UNL A   1      39.480  28.151  27.472  1.00  0.00     0.031 C 
ATOM     22  C   UNL A   1      37.638  32.102  32.830  1.00  0.00     0.029 A 
ATOM     23  C   UNL A   1      38.876  31.349  32.991  1.00  0.00     0.049 A 
ATOM     24  H   UNL A   1      39.827  30.157  31.570  1.00  0.00     0.167 HD
ATOM     25  C   UNL A   1      41.525  27.382  28.645  1.00  0.00     0.034 A 
ATOM     26  C   UNL A   1      39.620  31.315  34.113  1.00  0.00     0.034 A 
ATOM     27  C   UNL A   1      42.433  27.364  29.763  1.00  0.00     0.049 A 
ATOM     28  C   UNL A   1      40.866  30.473  34.135  1.00  0.00     0.074 A 
ATOM     29  C   UNL A   1      43.628  26.676  29.884  1.00  0.00     0.029 A 
ATOM     30  N   UNL A   1      42.253  28.061  30.947  1.00  0.00    -0.354 N 
ATOM     31  N   UNL A   1      41.394  29.752  33.175  1.00  0.00    -0.248 NA
ATOM     32  C   UNL A   1      41.634  30.461  35.388  1.00  0.00     0.031 C 
ATOM     33  C   UNL A   1      44.161  26.940  31.148  1.00  0.00     0.029 A 
ATOM     34  C   UNL A   1      43.314  27.818  31.804  1.00  0.00     0.049 A 
ATOM     35  H   UNL A   1      41.486  28.642  31.149  1.00  0.00     0.167 HD
ATOM     36  C   UNL A   1      42.570  29.229  33.697  1.00  0.00     0.074 A 
ATOM     37  C   UNL A   1      42.695  29.743  35.045  1.00  0.00     0.031 C 
ATOM     38  C   UNL A   1      43.457  28.379  33.121  1.00  0.00     0.034 A 
BRANCH  25  39
ATOM     39  C   UNL A   1      41.909  26.572  27.433  1.00  0.00     0.023 A 
ATOM     40  C   UNL A   1      42.656  27.181  26.406  1.00  0.00     0.012 A 
ATOM     41  C   UNL A   1      41.662  25.185  27.383  1.00  0.00     0.148 A 
ATOM     42  C   UNL A   1      43.150  26.424  25.344  1.00  0.00     0.002 A 
ATOM     43  C   UNL A   1      42.194  24.429  26.344  1.00  0.00     0.091 A 
ATOM     44  F   UNL A   1      40.940  24.629  28.365  1.00  0.00    -0.205 F 
ATOM     45  C   UNL A   1      42.932  25.049  25.321  1.00  0.00     0.022 A 
BRANCH  43  46
ATOM     46  S   UNL A   1      42.045  22.641  26.260  1.00  0.00     0.127 S 
ATOM     47  O   UNL A   1      40.592  22.467  26.237  1.00  0.00    -0.237 OA
ATOM     48  O   UNL A   1      42.715  22.339  24.996  1.00  0.00    -0.237 OA
ATOM     49  O   UNL A   1      42.707  22.123  27.448  1.00  0.00    -0.744 OA
ENDBRANCH  43  46
ENDBRANCH  25  39
BRANCH  26  50
ATOM     50  C   UNL A   1      39.225  32.123  35.302  1.00  0.00     0.023 A 
ATOM     51  C   UNL A   1      38.373  31.555  36.269  1.00  0.00     0.012 A 
ATOM     52  C   UNL A   1      39.689  33.441  35.486  1.00  0.00     0.148 A 
ATOM     53  C   UNL A   1      37.959  32.296  37.376  1.00  0.00     0.002 A 
ATOM     54  C   UNL A   1      39.325  34.151  36.623  1.00  0.00     0.091 A 
ATOM     55  F   UNL A   1      40.486  33.972  34.547  1.00  0.00    -0.205 F 
ATOM     56  C   UNL A   1      38.442  33.588  37.558  1.00  0.00     0.022 A 
BRANCH  54  57
ATOM     57  S   UNL A   1      40.012  35.765  37.010  1.00  0.00     0.127 S 
ATOM     58  O   UNL A   1      39.331  36.086  38.262  1.00  0.00    -0.237 OA
ATOM     59  O   UNL A   1      41.438  35.462  37.142  1.00  0.00    -0.237 OA
ATOM     60  O   UNL A   1      39.683  36.612  35.872  1.00  0.00    -0.744 OA
ENDBRANCH  54  57
ENDBRANCH  26  50
BRANCH  38  61
ATOM     61  C   UNL A   1      44.663  27.977  33.931  1.00  0.00     0.023 A 
ATOM     62  C   UNL A   1      45.798  28.811  33.961  1.00  0.00     0.012 A 
ATOM     63  C   UNL A   1      44.649  26.803  34.712  1.00  0.00     0.148 A 
ATOM     64  C   UNL A   1      46.916  28.464  34.718  1.00  0.00     0.002 A 
ATOM     65  C   UNL A   1      45.744  26.492  35.508  1.00  0.00     0.091 A 
ATOM     66  F   UNL A   1      43.569  26.011  34.659  1.00  0.00    -0.205 F 
ATOM     67  C   UNL A   1      46.885  27.313  35.500  1.00  0.00     0.022 A 
BRANCH  65  68
ATOM     68  S   UNL A   1      45.750  25.087  36.628  1.00  0.00     0.127 S 
ATOM     69  O   UNL A   1      45.675  23.963  35.697  1.00  0.00    -0.237 OA
ATOM     70  O   UNL A   1      47.040  25.234  37.304  1.00  0.00    -0.237 OA
ATOM     71  O   UNL A   1      44.594  25.263  37.495  1.00  0.00    -0.744 OA
ENDBRANCH  65  68
ENDBRANCH  38  61
ENDBRANCH  12  13
ENDBRANCH   5   7
ENDBRANCH   2   3
ENDBRANCH   1   2
BRANCH   1  72
ATOM     72  C   UNL A   1      32.416  27.111  26.475  1.00  0.00     0.118 C 
BRANCH  72  73
ATOM     73  N   UNL A   1      31.437  26.077  26.799  1.00  0.00    -0.352 N 
ATOM     74  C   UNL A   1      31.381  24.772  26.373  1.00  0.00     0.253 C 
ATOM     75  H   UNL A   1      30.717  26.353  27.409  1.00  0.00     0.163 HD
ATOM     76  O   UNL A   1      30.354  24.113  26.499  1.00  0.00    -0.269 OA
BRANCH  74  77
ATOM     77  C   UNL A   1      32.543  24.177  25.691  1.00  0.00     0.066 A 
ATOM     78  C   UNL A   1      33.553  23.597  26.477  1.00  0.00     0.055 A 
ATOM     79  C   UNL A   1      32.670  24.258  24.294  1.00  0.00     0.062 A 
ATOM     80  C   UNL A   1      34.745  23.219  25.880  1.00  0.00     0.124 A 
ATOM     81  C   UNL A   1      33.920  23.959  23.745  1.00  0.00     0.030 A 
ATOM     82  F   UNL A   1      35.734  22.722  26.630  1.00  0.00    -0.207 F 
ATOM     83  C   UNL A   1      34.947  23.419  24.523  1.00  0.00     0.041 A 
BRANCH  79  84
ATOM     84  N   UNL A   1      31.629  24.811  23.455  1.00  0.00    -0.278 N 
ATOM     85  H   UNL A   1      30.754  24.366  23.389  1.00  0.00     0.180 HD
BRANCH  84  86
ATOM     86  S   UNL A   1      31.937  26.247  22.575  1.00  0.00     0.271 S 
ATOM     87  O   UNL A   1      33.131  26.863  23.120  1.00  0.00    -0.200 OA
ATOM     88  O   UNL A   1      31.853  25.897  21.176  1.00  0.00    -0.200 OA
BRANCH  86  89
ATOM     89  C   UNL A   1      30.607  27.413  22.804  1.00  0.00     0.141 A 
ATOM     90  C   UNL A   1      30.458  28.734  22.407  1.00  0.00     0.036 A 
ATOM     91  S   UNL A   1      29.192  26.838  23.591  1.00  0.00    -0.110 S 
ATOM     92  C   UNL A   1      29.130  29.214  22.622  1.00  0.00     0.034 A 
ATOM     93  C   UNL A   1      28.354  28.260  23.227  1.00  0.00     0.094 A 
ATOM     94  Cl  UNL A   1      26.684  28.381  23.605  1.00  0.00    -0.072 Cl
ENDBRANCH  86  89
ENDBRANCH  84  86
ENDBRANCH  79  84
ENDBRANCH  74  77
ENDBRANCH  72  73
ENDBRANCH   1  72
TORSDOF 16
ENDMDL
