MODEL 1
REMARK VINA RESULT:     -12.8      0.000      0.000
REMARK SMILES CC(C)C(=O)Nc1ccc(NC(=O)[C@@H]2[C@@H](C(=O)NCCCNC(=O)c3ccc(-c4c5nc(c(-c6cccc(S(=O)(=O)[O-])c6F)c6ccc([nH]6)c(-c6cccc(S(=O)(=O)[O-])c6F)c6nc(c(-c7cccc(S(=O)(=O)[O-])c7F)c7ccc4[nH]7)C=C6)C=C5)cc3)C2(C)C)cc1Cl
REMARK SMILES IDX 19 1 18 2 16 3 17 4 15 6 14 7 88 8 89 9 90 10 12 11 11 12
REMARK SMILES IDX 13 14 10 15 7 16 8 17 92 18 9 19 91 20 93 21 6 22 4 23 5 24
REMARK SMILES IDX 2 26 1 27 3 28 20 29 21 30 22 31 23 32 24 34 25 35 26 36
REMARK SMILES IDX 87 37 27 38 86 39 28 40 29 41 30 42 80 43 31 44 85 45 79 46
REMARK SMILES IDX 81 47 32 48 84 49 78 50 77 51 33 53 65 54 45 55 64 56 46 57
REMARK SMILES IDX 49 58 63 59 82 60 47 61 48 62 62 64 83 65 50 66 34 67 35 68
REMARK SMILES IDX 43 69 36 70 38 71 44 72 37 73 39 74 40 75 41 76 42 77 66 78
REMARK SMILES IDX 67 79 75 80 68 81 70 82 76 83 69 84 71 85 72 86 73 87 74 88
REMARK SMILES IDX 51 89 52 90 60 91 53 92 55 93 61 94 54 95 56 96 57 97 58 98
REMARK SMILES IDX 59 99
REMARK H PARENT 18 5 11 13 6 25 22 33 81 52 49 63
REMARK Flexibility Score: inf
ROOT
ATOM      1  C   UNL A   1      31.725  30.763  26.083  1.00  0.00     0.117 C 
ENDROOT
BRANCH   1   2
ATOM      2  N   UNL A   1      31.777  29.783  27.151  1.00  0.00    -0.356 N 
ATOM      3  C   UNL A   1      31.613  28.433  27.253  1.00  0.00     0.224 C 
ATOM      4  O   UNL A   1      31.669  27.962  28.391  1.00  0.00    -0.275 OA
ATOM      5  H   UNL A   1      31.983  30.196  28.021  1.00  0.00     0.163 HD
BRANCH   3   6
ATOM      6  C   UNL A   1      31.391  27.479  26.139  1.00  0.00     0.098 C 
ATOM      7  C   UNL A   1      31.473  25.981  26.118  1.00  0.00     0.098 C 
ATOM      8  C   UNL A   1      32.549  26.818  25.401  1.00  0.00    -0.011 C 
ATOM      9  C   UNL A   1      33.939  26.848  25.998  1.00  0.00     0.013 C 
ATOM     10  C   UNL A   1      32.552  26.942  23.895  1.00  0.00     0.013 C 
BRANCH   7  11
ATOM     11  C   UNL A   1      30.435  25.189  25.412  1.00  0.00     0.228 C 
ATOM     12  N   UNL A   1      30.489  23.814  25.377  1.00  0.00    -0.326 N 
ATOM     13  H   UNL A   1      29.687  23.385  25.000  1.00  0.00     0.169 HD
ATOM     14  O   UNL A   1      29.487  25.769  24.880  1.00  0.00    -0.274 OA
BRANCH  12  15
ATOM     15  C   UNL A   1      31.492  22.918  25.783  1.00  0.00     0.042 A 
ATOM     16  C   UNL A   1      33.940  21.608  26.108  1.00  0.00     0.060 A 
ATOM     17  C   UNL A   1      33.417  22.374  27.144  1.00  0.00     0.030 A 
ATOM     18  C   UNL A   1      33.066  21.225  25.090  1.00  0.00     0.066 A 
ATOM     19  C   UNL A   1      32.174  22.988  26.992  1.00  0.00     0.028 A 
ATOM     20  C   UNL A   1      31.872  21.923  24.887  1.00  0.00     0.048 A 
ATOM     21  Cl  UNL A   1      33.261  19.725  24.250  1.00  0.00    -0.082 Cl
BRANCH  16  22
ATOM     22  N   UNL A   1      35.288  21.245  26.207  1.00  0.00    -0.325 N 
ATOM     23  C   UNL A   1      36.404  21.715  25.575  1.00  0.00     0.226 C 
ATOM     24  O   UNL A   1      37.465  21.127  25.825  1.00  0.00    -0.274 OA
ATOM     25  H   UNL A   1      35.464  20.520  26.849  1.00  0.00     0.169 HD
BRANCH  23  26
ATOM     26  C   UNL A   1      36.468  22.977  24.699  1.00  0.00     0.072 C 
ATOM     27  C   UNL A   1      35.998  22.826  23.264  1.00  0.00     0.018 C 
ATOM     28  C   UNL A   1      35.905  24.233  25.356  1.00  0.00     0.018 C 
ENDBRANCH  23  26
ENDBRANCH  16  22
ENDBRANCH  12  15
ENDBRANCH   7  11
ENDBRANCH   3   6
ENDBRANCH   1   2
BRANCH   1  29
ATOM     29  C   UNL A   1      31.523  32.182  26.607  1.00  0.00     0.042 C 
BRANCH  29  30
ATOM     30  C   UNL A   1      32.759  32.776  27.263  1.00  0.00     0.118 C 
BRANCH  30  31
ATOM     31  N   UNL A   1      32.553  34.159  27.667  1.00  0.00    -0.352 N 
ATOM     32  C   UNL A   1      33.108  34.865  28.706  1.00  0.00     0.251 C 
ATOM     33  H   UNL A   1      31.918  34.667  27.109  1.00  0.00     0.163 HD
ATOM     34  O   UNL A   1      32.624  35.950  29.021  1.00  0.00    -0.269 OA
BRANCH  32  35
ATOM     35  C   UNL A   1      34.267  34.323  29.449  1.00  0.00     0.039 A 
ATOM     36  C   UNL A   1      34.040  33.595  30.620  1.00  0.00     0.014 A 
ATOM     37  C   UNL A   1      35.575  34.549  29.013  1.00  0.00     0.014 A 
ATOM     38  C   UNL A   1      35.120  33.049  31.317  1.00  0.00     0.010 A 
ATOM     39  C   UNL A   1      36.640  33.919  29.649  1.00  0.00     0.010 A 
ATOM     40  C   UNL A   1      36.427  33.177  30.819  1.00  0.00    -0.014 A 
BRANCH  40  41
ATOM     41  C   UNL A   1      37.584  32.548  31.509  1.00  0.00     0.031 A 
ATOM     42  C   UNL A   1      38.324  31.404  30.866  1.00  0.00     0.074 A 
ATOM     43  C   UNL A   1      37.920  32.953  32.750  1.00  0.00     0.049 A 
ATOM     44  N   UNL A   1      39.318  30.698  31.336  1.00  0.00    -0.248 NA
ATOM     45  C   UNL A   1      37.868  30.980  29.531  1.00  0.00     0.031 C 
ATOM     46  C   UNL A   1      37.234  33.996  33.515  1.00  0.00     0.029 A 
ATOM     47  N   UNL A   1      38.908  32.517  33.598  1.00  0.00    -0.354 N 
ATOM     48  C   UNL A   1      39.581  29.725  30.378  1.00  0.00     0.074 A 
ATOM     49  C   UNL A   1      38.615  29.907  29.317  1.00  0.00     0.031 C 
ATOM     50  C   UNL A   1      37.825  34.125  34.712  1.00  0.00     0.029 A 
ATOM     51  C   UNL A   1      38.907  33.151  34.819  1.00  0.00     0.049 A 
ATOM     52  H   UNL A   1      39.556  31.817  33.355  1.00  0.00     0.167 HD
ATOM     53  C   UNL A   1      40.556  28.785  30.363  1.00  0.00     0.034 A 
ATOM     54  C   UNL A   1      39.679  32.963  35.906  1.00  0.00     0.034 A 
ATOM     55  C   UNL A   1      41.537  28.630  31.404  1.00  0.00     0.049 A 
ATOM     56  C   UNL A   1      40.773  31.931  35.857  1.00  0.00     0.074 A 
ATOM     57  C   UNL A   1      42.617  27.767  31.444  1.00  0.00     0.029 A 
ATOM     58  N   UNL A   1      41.551  29.344  32.592  1.00  0.00    -0.354 N 
ATOM     59  N   UNL A   1      41.104  31.126  34.876  1.00  0.00    -0.248 NA
ATOM     60  C   UNL A   1      41.625  31.808  37.048  1.00  0.00     0.031 C 
ATOM     61  C   UNL A   1      43.263  27.933  32.674  1.00  0.00     0.029 A 
ATOM     62  C   UNL A   1      42.611  28.931  33.380  1.00  0.00     0.049 A 
ATOM     63  H   UNL A   1      40.901  30.042  32.840  1.00  0.00     0.167 HD
ATOM     64  C   UNL A   1      42.222  30.428  35.317  1.00  0.00     0.074 A 
ATOM     65  C   UNL A   1      42.523  30.920  36.645  1.00  0.00     0.031 C 
ATOM     66  C   UNL A   1      42.929  29.460  34.682  1.00  0.00     0.034 A 
BRANCH  53  67
ATOM     67  C   UNL A   1      40.634  27.875  29.164  1.00  0.00     0.023 A 
ATOM     68  C   UNL A   1      39.774  26.760  29.074  1.00  0.00     0.012 A 
ATOM     69  C   UNL A   1      41.523  28.147  28.105  1.00  0.00     0.148 A 
ATOM     70  C   UNL A   1      39.827  25.908  27.972  1.00  0.00     0.002 A 
ATOM     71  C   UNL A   1      41.534  27.321  26.987  1.00  0.00     0.091 A 
ATOM     72  F   UNL A   1      42.347  29.198  28.215  1.00  0.00    -0.205 F 
ATOM     73  C   UNL A   1      40.699  26.194  26.925  1.00  0.00     0.022 A 
BRANCH  71  74
ATOM     74  S   UNL A   1      42.559  27.651  25.549  1.00  0.00     0.127 S 
ATOM     75  O   UNL A   1      42.298  26.471  24.726  1.00  0.00    -0.237 OA
ATOM     76  O   UNL A   1      41.978  28.892  25.036  1.00  0.00    -0.237 OA
ATOM     77  O   UNL A   1      43.921  27.777  26.046  1.00  0.00    -0.744 OA
ENDBRANCH  71  74
ENDBRANCH  53  67
BRANCH  54  78
ATOM     78  C   UNL A   1      39.476  33.807  37.117  1.00  0.00     0.023 A 
ATOM     79  C   UNL A   1      39.916  35.145  37.115  1.00  0.00     0.012 A 
ATOM     80  C   UNL A   1      38.820  33.302  38.256  1.00  0.00     0.148 A 
ATOM     81  C   UNL A   1      39.738  35.954  38.237  1.00  0.00     0.002 A 
ATOM     82  C   UNL A   1      38.592  34.131  39.348  1.00  0.00     0.091 A 
ATOM     83  F   UNL A   1      38.416  32.024  38.241  1.00  0.00    -0.205 F 
ATOM     84  C   UNL A   1      39.066  35.451  39.349  1.00  0.00     0.022 A 
BRANCH  82  85
ATOM     85  S   UNL A   1      37.613  33.612  40.761  1.00  0.00     0.127 S 
ATOM     86  O   UNL A   1      38.543  32.727  41.458  1.00  0.00    -0.237 OA
ATOM     87  O   UNL A   1      37.354  34.888  41.431  1.00  0.00    -0.237 OA
ATOM     88  O   UNL A   1      36.426  32.974  40.208  1.00  0.00    -0.744 OA
ENDBRANCH  82  85
ENDBRANCH  54  78
BRANCH  66  89
ATOM     89  C   UNL A   1      44.132  28.894  35.390  1.00  0.00     0.023 A 
ATOM     90  C   UNL A   1      45.403  29.469  35.197  1.00  0.00     0.012 A 
ATOM     91  C   UNL A   1      43.986  27.832  36.306  1.00  0.00     0.148 A 
ATOM     92  C   UNL A   1      46.516  28.975  35.877  1.00  0.00     0.002 A 
ATOM     93  C   UNL A   1      45.088  27.381  37.020  1.00  0.00     0.091 A 
ATOM     94  F   UNL A   1      42.771  27.287  36.463  1.00  0.00    -0.205 F 
ATOM     95  C   UNL A   1      46.357  27.941  36.797  1.00  0.00     0.022 A 
BRANCH  93  96
ATOM     96  S   UNL A   1      44.962  26.123  38.296  1.00  0.00     0.127 S 
ATOM     97  O   UNL A   1      44.082  26.771  39.267  1.00  0.00    -0.237 OA
ATOM     98  O   UNL A   1      44.354  25.007  37.570  1.00  0.00    -0.237 OA
ATOM     99  O   UNL A   1      46.322  25.877  38.755  1.00  0.00    -0.744 OA
ENDBRANCH  93  96
ENDBRANCH  66  89
ENDBRANCH  40  41
ENDBRANCH  32  35
ENDBRANCH  30  31
ENDBRANCH  29  30
ENDBRANCH   1  29
TORSDOF 17
ENDMDL
MODEL 2
REMARK VINA RESULT:     -12.7      2.649      8.201
REMARK SMILES CC(C)C(=O)Nc1ccc(NC(=O)[C@@H]2[C@@H](C(=O)NCCCNC(=O)c3ccc(-c4c5nc(c(-c6cccc(S(=O)(=O)[O-])c6F)c6ccc([nH]6)c(-c6cccc(S(=O)(=O)[O-])c6F)c6nc(c(-c7cccc(S(=O)(=O)[O-])c7F)c7ccc4[nH]7)C=C6)C=C5)cc3)C2(C)C)cc1Cl
REMARK SMILES IDX 19 1 18 2 16 3 17 4 15 6 14 7 88 8 89 9 90 10 12 11 11 12
REMARK SMILES IDX 13 14 10 15 7 16 8 17 92 18 9 19 91 20 93 21 6 22 4 23 5 24
REMARK SMILES IDX 2 26 1 27 3 28 20 29 21 30 22 31 23 32 24 34 25 35 26 36
REMARK SMILES IDX 87 37 27 38 86 39 28 40 29 41 30 42 80 43 31 44 85 45 79 46
REMARK SMILES IDX 81 47 32 48 84 49 78 50 77 51 33 53 65 54 45 55 64 56 46 57
REMARK SMILES IDX 49 58 63 59 82 60 47 61 48 62 62 64 83 65 50 66 34 67 35 68
REMARK SMILES IDX 43 69 36 70 38 71 44 72 37 73 39 74 40 75 41 76 42 77 66 78
REMARK SMILES IDX 67 79 75 80 68 81 70 82 76 83 69 84 71 85 72 86 73 87 74 88
REMARK SMILES IDX 51 89 52 90 60 91 53 92 55 93 61 94 54 95 56 96 57 97 58 98
REMARK SMILES IDX 59 99
REMARK H PARENT 18 5 11 13 6 25 22 33 81 52 49 63
REMARK Flexibility Score: inf
ROOT
ATOM      1  C   UNL A   1      31.527  27.536  26.623  1.00  0.00     0.117 C 
ENDROOT
BRANCH   1   2
ATOM      2  N   UNL A   1      32.802  26.900  26.344  1.00  0.00    -0.356 N 
ATOM      3  C   UNL A   1      33.398  26.334  25.257  1.00  0.00     0.224 C 
ATOM      4  O   UNL A   1      34.502  25.821  25.447  1.00  0.00    -0.275 OA
ATOM      5  H   UNL A   1      33.381  26.871  27.140  1.00  0.00     0.163 HD
BRANCH   3   6
ATOM      6  C   UNL A   1      32.863  26.288  23.874  1.00  0.00     0.098 C 
ATOM      7  C   UNL A   1      33.582  26.162  22.563  1.00  0.00     0.098 C 
ATOM      8  C   UNL A   1      32.918  27.497  22.947  1.00  0.00    -0.011 C 
ATOM      9  C   UNL A   1      33.819  28.665  23.285  1.00  0.00     0.013 C 
ATOM     10  C   UNL A   1      31.616  27.922  22.309  1.00  0.00     0.013 C 
BRANCH   7  11
ATOM     11  C   UNL A   1      33.060  25.251  21.513  1.00  0.00     0.228 C 
ATOM     12  N   UNL A   1      32.643  23.975  21.819  1.00  0.00    -0.326 N 
ATOM     13  H   UNL A   1      32.194  23.506  21.079  1.00  0.00     0.169 HD
ATOM     14  O   UNL A   1      32.963  25.655  20.353  1.00  0.00    -0.274 OA
BRANCH  12  15
ATOM     15  C   UNL A   1      32.749  23.228  23.004  1.00  0.00     0.042 A 
ATOM     16  C   UNL A   1      32.565  21.188  24.907  1.00  0.00     0.060 A 
ATOM     17  C   UNL A   1      33.789  21.481  24.317  1.00  0.00     0.030 A 
ATOM     18  C   UNL A   1      31.557  22.147  24.803  1.00  0.00     0.066 A 
ATOM     19  C   UNL A   1      33.883  22.530  23.401  1.00  0.00     0.028 A 
ATOM     20  C   UNL A   1      31.617  23.128  23.808  1.00  0.00     0.048 A 
ATOM     21  Cl  UNL A   1      30.376  22.354  26.050  1.00  0.00    -0.082 Cl
BRANCH  16  22
ATOM     22  N   UNL A   1      32.470  19.975  25.599  1.00  0.00    -0.325 N 
ATOM     23  C   UNL A   1      32.693  18.686  25.206  1.00  0.00     0.226 C 
ATOM     24  O   UNL A   1      32.446  17.808  26.044  1.00  0.00    -0.274 OA
ATOM     25  H   UNL A   1      32.193  20.068  26.538  1.00  0.00     0.169 HD
BRANCH  23  26
ATOM     26  C   UNL A   1      33.342  18.256  23.881  1.00  0.00     0.072 C 
ATOM     27  C   UNL A   1      34.254  17.045  23.940  1.00  0.00     0.018 C 
ATOM     28  C   UNL A   1      32.383  18.191  22.697  1.00  0.00     0.018 C 
ENDBRANCH  23  26
ENDBRANCH  16  22
ENDBRANCH  12  15
ENDBRANCH   7  11
ENDBRANCH   3   6
ENDBRANCH   1   2
BRANCH   1  29
ATOM     29  C   UNL A   1      31.530  29.020  26.269  1.00  0.00     0.042 C 
BRANCH  29  30
ATOM     30  C   UNL A   1      32.906  29.663  26.321  1.00  0.00     0.118 C 
BRANCH  30  31
ATOM     31  N   UNL A   1      32.834  31.087  26.614  1.00  0.00    -0.352 N 
ATOM     32  C   UNL A   1      33.599  31.851  27.461  1.00  0.00     0.251 C 
ATOM     33  H   UNL A   1      32.130  31.577  26.130  1.00  0.00     0.163 HD
ATOM     34  O   UNL A   1      33.226  32.987  27.747  1.00  0.00    -0.269 OA
BRANCH  32  35
ATOM     35  C   UNL A   1      34.851  31.312  28.037  1.00  0.00     0.039 A 
ATOM     36  C   UNL A   1      35.973  32.141  28.114  1.00  0.00     0.014 A 
ATOM     37  C   UNL A   1      34.932  29.989  28.479  1.00  0.00     0.014 A 
ATOM     38  C   UNL A   1      37.153  31.660  28.684  1.00  0.00     0.010 A 
ATOM     39  C   UNL A   1      36.074  29.544  29.138  1.00  0.00     0.010 A 
ATOM     40  C   UNL A   1      37.204  30.368  29.232  1.00  0.00    -0.014 A 
BRANCH  40  41
ATOM     41  C   UNL A   1      38.430  29.857  29.902  1.00  0.00     0.031 A 
ATOM     42  C   UNL A   1      38.841  30.396  31.247  1.00  0.00     0.074 A 
ATOM     43  C   UNL A   1      39.216  28.968  29.264  1.00  0.00     0.049 A 
ATOM     44  N   UNL A   1      39.901  30.114  31.958  1.00  0.00    -0.248 NA
ATOM     45  C   UNL A   1      37.962  31.405  31.861  1.00  0.00     0.031 C 
ATOM     46  C   UNL A   1      38.971  28.428  27.925  1.00  0.00     0.029 A 
ATOM     47  N   UNL A   1      40.396  28.380  29.646  1.00  0.00    -0.354 N 
ATOM     48  C   UNL A   1      39.837  30.934  33.079  1.00  0.00     0.074 A 
ATOM     49  C   UNL A   1      38.655  31.754  32.935  1.00  0.00     0.031 C 
ATOM     50  C   UNL A   1      39.963  27.585  27.602  1.00  0.00     0.029 A 
ATOM     51  C   UNL A   1      40.934  27.550  28.691  1.00  0.00     0.049 A 
ATOM     52  H   UNL A   1      40.818  28.538  30.522  1.00  0.00     0.167 HD
ATOM     53  C   UNL A   1      40.667  30.981  34.148  1.00  0.00     0.034 A 
ATOM     54  C   UNL A   1      42.084  26.849  28.683  1.00  0.00     0.034 A 
ATOM     55  C   UNL A   1      41.823  30.138  34.305  1.00  0.00     0.049 A 
ATOM     56  C   UNL A   1      42.977  26.896  29.893  1.00  0.00     0.074 A 
ATOM     57  C   UNL A   1      42.679  30.047  35.388  1.00  0.00     0.029 A 
ATOM     58  N   UNL A   1      42.293  29.253  33.348  1.00  0.00    -0.354 N 
ATOM     59  N   UNL A   1      42.817  27.562  31.012  1.00  0.00    -0.248 NA
ATOM     60  C   UNL A   1      44.190  26.066  29.858  1.00  0.00     0.031 C 
ATOM     61  C   UNL A   1      43.688  29.133  35.071  1.00  0.00     0.029 A 
ATOM     62  C   UNL A   1      43.436  28.622  33.808  1.00  0.00     0.049 A 
ATOM     63  H   UNL A   1      41.876  29.096  32.470  1.00  0.00     0.167 HD
ATOM     64  C   UNL A   1      43.884  27.204  31.825  1.00  0.00     0.074 A 
ATOM     65  C   UNL A   1      44.675  26.248  31.078  1.00  0.00     0.031 C 
ATOM     66  C   UNL A   1      44.189  27.637  33.074  1.00  0.00     0.034 A 
BRANCH  53  67
ATOM     67  C   UNL A   1      40.332  31.950  35.254  1.00  0.00     0.023 A 
ATOM     68  C   UNL A   1      41.072  33.144  35.386  1.00  0.00     0.012 A 
ATOM     69  C   UNL A   1      39.258  31.705  36.131  1.00  0.00     0.148 A 
ATOM     70  C   UNL A   1      40.778  34.056  36.398  1.00  0.00     0.002 A 
ATOM     71  C   UNL A   1      38.937  32.643  37.106  1.00  0.00     0.091 A 
ATOM     72  F   UNL A   1      38.577  30.557  36.005  1.00  0.00    -0.205 F 
ATOM     73  C   UNL A   1      39.705  33.810  37.250  1.00  0.00     0.022 A 
BRANCH  71  74
ATOM     74  S   UNL A   1      37.523  32.461  38.198  1.00  0.00     0.127 S 
ATOM     75  O   UNL A   1      37.947  33.242  39.359  1.00  0.00    -0.237 OA
ATOM     76  O   UNL A   1      36.449  33.069  37.413  1.00  0.00    -0.237 OA
ATOM     77  O   UNL A   1      37.374  31.031  38.428  1.00  0.00    -0.744 OA
ENDBRANCH  71  74
ENDBRANCH  53  67
BRANCH  54  78
ATOM     78  C   UNL A   1      42.431  26.002  27.508  1.00  0.00     0.023 A 
ATOM     79  C   UNL A   1      43.173  26.553  26.446  1.00  0.00     0.012 A 
ATOM     80  C   UNL A   1      42.057  24.645  27.453  1.00  0.00     0.148 A 
ATOM     81  C   UNL A   1      43.508  25.780  25.335  1.00  0.00     0.002 A 
ATOM     82  C   UNL A   1      42.446  23.864  26.371  1.00  0.00     0.091 A 
ATOM     83  F   UNL A   1      41.345  24.141  28.470  1.00  0.00    -0.205 F 
ATOM     84  C   UNL A   1      43.155  24.433  25.302  1.00  0.00     0.022 A 
BRANCH  82  85
ATOM     85  S   UNL A   1      42.160  22.092  26.312  1.00  0.00     0.127 S 
ATOM     86  O   UNL A   1      40.725  22.031  26.043  1.00  0.00    -0.237 OA
ATOM     87  O   UNL A   1      43.016  21.687  25.196  1.00  0.00    -0.237 OA
ATOM     88  O   UNL A   1      42.582  21.579  27.609  1.00  0.00    -0.744 OA
ENDBRANCH  82  85
ENDBRANCH  54  78
BRANCH  66  89
ATOM     89  C   UNL A   1      45.404  27.048  33.742  1.00  0.00     0.023 A 
ATOM     90  C   UNL A   1      46.647  27.707  33.659  1.00  0.00     0.012 A 
ATOM     91  C   UNL A   1      45.295  25.875  34.515  1.00  0.00     0.148 A 
ATOM     92  C   UNL A   1      47.768  27.190  34.306  1.00  0.00     0.002 A 
ATOM     93  C   UNL A   1      46.403  25.395  35.201  1.00  0.00     0.091 A 
ATOM     94  F   UNL A   1      44.108  25.252  34.567  1.00  0.00    -0.205 F 
ATOM     95  C   UNL A   1      47.644  26.042  35.086  1.00  0.00     0.022 A 
BRANCH  93  96
ATOM     96  S   UNL A   1      46.316  23.982  36.307  1.00  0.00     0.127 S 
ATOM     97  O   UNL A   1      46.197  22.872  35.364  1.00  0.00    -0.237 OA
ATOM     98  O   UNL A   1      47.600  24.057  37.005  1.00  0.00    -0.237 OA
ATOM     99  O   UNL A   1      45.153  24.206  37.156  1.00  0.00    -0.744 OA
ENDBRANCH  93  96
ENDBRANCH  66  89
ENDBRANCH  40  41
ENDBRANCH  32  35
ENDBRANCH  30  31
ENDBRANCH  29  30
ENDBRANCH   1  29
TORSDOF 17
ENDMDL
MODEL 3
REMARK VINA RESULT:     -12.6      6.296     11.549
REMARK SMILES CC(C)C(=O)Nc1ccc(NC(=O)[C@@H]2[C@@H](C(=O)NCCCNC(=O)c3ccc(-c4c5nc(c(-c6cccc(S(=O)(=O)[O-])c6F)c6ccc([nH]6)c(-c6cccc(S(=O)(=O)[O-])c6F)c6nc(c(-c7cccc(S(=O)(=O)[O-])c7F)c7ccc4[nH]7)C=C6)C=C5)cc3)C2(C)C)cc1Cl
REMARK SMILES IDX 19 1 18 2 16 3 17 4 15 6 14 7 88 8 89 9 90 10 12 11 11 12
REMARK SMILES IDX 13 14 10 15 7 16 8 17 92 18 9 19 91 20 93 21 6 22 4 23 5 24
REMARK SMILES IDX 2 26 1 27 3 28 20 29 21 30 22 31 23 32 24 34 25 35 26 36
REMARK SMILES IDX 87 37 27 38 86 39 28 40 29 41 30 42 80 43 31 44 85 45 79 46
REMARK SMILES IDX 81 47 32 48 84 49 78 50 77 51 33 53 65 54 45 55 64 56 46 57
REMARK SMILES IDX 49 58 63 59 82 60 47 61 48 62 62 64 83 65 50 66 34 67 35 68
REMARK SMILES IDX 43 69 36 70 38 71 44 72 37 73 39 74 40 75 41 76 42 77 66 78
REMARK SMILES IDX 67 79 75 80 68 81 70 82 76 83 69 84 71 85 72 86 73 87 74 88
REMARK SMILES IDX 51 89 52 90 60 91 53 92 55 93 61 94 54 95 56 96 57 97 58 98
REMARK SMILES IDX 59 99
REMARK H PARENT 18 5 11 13 6 25 22 33 81 52 49 63
REMARK Flexibility Score: inf
ROOT
ATOM      1  C   UNL A   1      36.810  21.758  24.549  1.00  0.00     0.117 C 
ENDROOT
BRANCH   1   2
ATOM      2  N   UNL A   1      35.490  21.460  24.024  1.00  0.00    -0.356 N 
ATOM      3  C   UNL A   1      34.217  21.879  24.276  1.00  0.00     0.224 C 
ATOM      4  O   UNL A   1      33.323  21.315  23.641  1.00  0.00    -0.275 OA
ATOM      5  H   UNL A   1      35.522  20.787  23.306  1.00  0.00     0.163 HD
BRANCH   3   6
ATOM      6  C   UNL A   1      33.804  22.948  25.216  1.00  0.00     0.098 C 
ATOM      7  C   UNL A   1      32.487  23.653  25.360  1.00  0.00     0.098 C 
ATOM      8  C   UNL A   1      33.701  24.407  24.785  1.00  0.00    -0.011 C 
ATOM      9  C   UNL A   1      33.685  24.759  23.314  1.00  0.00     0.013 C 
ATOM     10  C   UNL A   1      34.450  25.416  25.625  1.00  0.00     0.013 C 
BRANCH   7  11
ATOM     11  C   UNL A   1      31.921  23.905  26.710  1.00  0.00     0.228 C 
ATOM     12  N   UNL A   1      31.032  24.932  26.930  1.00  0.00    -0.326 N 
ATOM     13  H   UNL A   1      30.618  24.927  27.823  1.00  0.00     0.169 HD
ATOM     14  O   UNL A   1      32.224  23.158  27.643  1.00  0.00    -0.274 OA
BRANCH  12  15
ATOM     15  C   UNL A   1      30.613  25.985  26.100  1.00  0.00     0.042 A 
ATOM     16  C   UNL A   1      30.442  27.857  24.031  1.00  0.00     0.060 A 
ATOM     17  C   UNL A   1      29.549  26.794  24.083  1.00  0.00     0.030 A 
ATOM     18  C   UNL A   1      31.150  28.157  25.195  1.00  0.00     0.066 A 
ATOM     19  C   UNL A   1      29.610  25.888  25.143  1.00  0.00     0.028 A 
ATOM     20  C   UNL A   1      31.290  27.197  26.202  1.00  0.00     0.048 A 
ATOM     21  Cl  UNL A   1      31.614  29.780  25.577  1.00  0.00    -0.082 Cl
BRANCH  16  22
ATOM     22  N   UNL A   1      30.513  28.567  22.826  1.00  0.00    -0.325 N 
ATOM     23  C   UNL A   1      29.787  29.620  22.349  1.00  0.00     0.226 C 
ATOM     24  O   UNL A   1      30.044  29.984  21.193  1.00  0.00    -0.274 OA
ATOM     25  H   UNL A   1      31.213  28.248  22.212  1.00  0.00     0.169 HD
BRANCH  23  26
ATOM     26  C   UNL A   1      28.791  30.461  23.164  1.00  0.00     0.072 C 
ATOM     27  C   UNL A   1      28.864  31.964  22.972  1.00  0.00     0.018 C 
ATOM     28  C   UNL A   1      27.354  29.949  23.131  1.00  0.00     0.018 C 
ENDBRANCH  23  26
ENDBRANCH  16  22
ENDBRANCH  12  15
ENDBRANCH   7  11
ENDBRANCH   3   6
ENDBRANCH   1   2
BRANCH   1  29
ATOM     29  C   UNL A   1      37.639  20.499  24.783  1.00  0.00     0.042 C 
BRANCH  29  30
ATOM     30  C   UNL A   1      38.431  20.516  26.080  1.00  0.00     0.118 C 
BRANCH  30  31
ATOM     31  N   UNL A   1      39.519  19.550  26.070  1.00  0.00    -0.352 N 
ATOM     32  C   UNL A   1      40.877  19.753  26.098  1.00  0.00     0.251 C 
ATOM     33  H   UNL A   1      39.239  18.606  26.038  1.00  0.00     0.163 HD
ATOM     34  O   UNL A   1      41.630  18.816  25.842  1.00  0.00    -0.269 OA
BRANCH  32  35
ATOM     35  C   UNL A   1      41.432  21.087  26.418  1.00  0.00     0.039 A 
ATOM     36  C   UNL A   1      41.779  21.945  25.372  1.00  0.00     0.014 A 
ATOM     37  C   UNL A   1      41.636  21.486  27.741  1.00  0.00     0.014 A 
ATOM     38  C   UNL A   1      42.273  23.220  25.655  1.00  0.00     0.010 A 
ATOM     39  C   UNL A   1      42.031  22.790  28.022  1.00  0.00     0.010 A 
ATOM     40  C   UNL A   1      42.372  23.667  26.983  1.00  0.00    -0.014 A 
BRANCH  40  41
ATOM     41  C   UNL A   1      42.835  25.042  27.306  1.00  0.00     0.031 A 
ATOM     42  C   UNL A   1      41.899  26.025  27.958  1.00  0.00     0.074 A 
ATOM     43  C   UNL A   1      44.072  25.433  26.939  1.00  0.00     0.049 A 
ATOM     44  N   UNL A   1      42.104  27.279  28.266  1.00  0.00    -0.248 NA
ATOM     45  C   UNL A   1      40.545  25.545  28.284  1.00  0.00     0.031 C 
ATOM     46  C   UNL A   1      45.046  24.601  26.229  1.00  0.00     0.029 A 
ATOM     47  N   UNL A   1      44.711  26.638  27.088  1.00  0.00    -0.354 N 
ATOM     48  C   UNL A   1      40.901  27.748  28.782  1.00  0.00     0.074 A 
ATOM     49  C   UNL A   1      39.958  26.654  28.709  1.00  0.00     0.031 C 
ATOM     50  C   UNL A   1      46.160  25.317  26.013  1.00  0.00     0.029 A 
ATOM     51  C   UNL A   1      45.969  26.667  26.532  1.00  0.00     0.049 A 
ATOM     52  H   UNL A   1      44.308  27.408  27.549  1.00  0.00     0.167 HD
ATOM     53  C   UNL A   1      40.613  28.965  29.298  1.00  0.00     0.034 A 
ATOM     54  C   UNL A   1      46.864  27.669  26.439  1.00  0.00     0.034 A 
ATOM     55  C   UNL A   1      41.564  30.040  29.402  1.00  0.00     0.049 A 
ATOM     56  C   UNL A   1      46.532  29.006  27.044  1.00  0.00     0.074 A 
ATOM     57  C   UNL A   1      41.397  31.282  29.986  1.00  0.00     0.029 A 
ATOM     58  N   UNL A   1      42.855  30.006  28.897  1.00  0.00    -0.354 N 
ATOM     59  N   UNL A   1      45.441  29.380  27.668  1.00  0.00    -0.248 NA
ATOM     60  C   UNL A   1      47.567  30.047  26.968  1.00  0.00     0.031 C 
ATOM     61  C   UNL A   1      42.574  32.013  29.803  1.00  0.00     0.029 A 
ATOM     62  C   UNL A   1      43.491  31.210  29.143  1.00  0.00     0.049 A 
ATOM     63  H   UNL A   1      43.259  29.238  28.431  1.00  0.00     0.167 HD
ATOM     64  C   UNL A   1      45.672  30.684  28.090  1.00  0.00     0.074 A 
ATOM     65  C   UNL A   1      47.014  31.028  27.667  1.00  0.00     0.031 C 
ATOM     66  C   UNL A   1      44.843  31.524  28.758  1.00  0.00     0.034 A 
BRANCH  53  67
ATOM     67  C   UNL A   1      39.220  29.189  29.830  1.00  0.00     0.023 A 
ATOM     68  C   UNL A   1      38.915  28.843  31.164  1.00  0.00     0.012 A 
ATOM     69  C   UNL A   1      38.225  29.784  29.029  1.00  0.00     0.148 A 
ATOM     70  C   UNL A   1      37.635  29.044  31.677  1.00  0.00     0.002 A 
ATOM     71  C   UNL A   1      36.965  30.028  29.563  1.00  0.00     0.091 A 
ATOM     72  F   UNL A   1      38.524  30.088  27.758  1.00  0.00    -0.205 F 
ATOM     73  C   UNL A   1      36.664  29.645  30.881  1.00  0.00     0.022 A 
BRANCH  71  74
ATOM     74  S   UNL A   1      35.672  30.874  28.648  1.00  0.00     0.127 S 
ATOM     75  O   UNL A   1      35.012  29.757  27.973  1.00  0.00    -0.237 OA
ATOM     76  O   UNL A   1      34.888  31.486  29.721  1.00  0.00    -0.237 OA
ATOM     77  O   UNL A   1      36.350  31.820  27.774  1.00  0.00    -0.744 OA
ENDBRANCH  71  74
ENDBRANCH  53  67
BRANCH  54  78
ATOM     78  C   UNL A   1      48.183  27.429  25.788  1.00  0.00     0.023 A 
ATOM     79  C   UNL A   1      49.278  27.010  26.567  1.00  0.00     0.012 A 
ATOM     80  C   UNL A   1      48.348  27.583  24.398  1.00  0.00     0.148 A 
ATOM     81  C   UNL A   1      50.523  26.780  25.980  1.00  0.00     0.002 A 
ATOM     82  C   UNL A   1      49.574  27.294  23.811  1.00  0.00     0.091 A 
ATOM     83  F   UNL A   1      47.296  27.991  23.675  1.00  0.00    -0.205 F 
ATOM     84  C   UNL A   1      50.668  26.911  24.601  1.00  0.00     0.022 A 
BRANCH  82  85
ATOM     85  S   UNL A   1      49.813  27.298  22.031  1.00  0.00     0.127 S 
ATOM     86  O   UNL A   1      48.797  26.344  21.592  1.00  0.00    -0.237 OA
ATOM     87  O   UNL A   1      49.535  28.695  21.695  1.00  0.00    -0.237 OA
ATOM     88  O   UNL A   1      51.195  26.893  21.816  1.00  0.00    -0.744 OA
ENDBRANCH  82  85
ENDBRANCH  54  78
BRANCH  66  89
ATOM     89  C   UNL A   1      45.372  32.888  29.121  1.00  0.00     0.023 A 
ATOM     90  C   UNL A   1      46.094  33.071  30.318  1.00  0.00     0.012 A 
ATOM     91  C   UNL A   1      45.214  33.973  28.236  1.00  0.00     0.148 A 
ATOM     92  C   UNL A   1      46.619  34.321  30.644  1.00  0.00     0.002 A 
ATOM     93  C   UNL A   1      45.787  35.201  28.542  1.00  0.00     0.091 A 
ATOM     94  F   UNL A   1      44.510  33.782  27.111  1.00  0.00    -0.205 F 
ATOM     95  C   UNL A   1      46.478  35.381  29.751  1.00  0.00     0.022 A 
BRANCH  93  96
ATOM     96  S   UNL A   1      45.742  36.594  27.409  1.00  0.00     0.127 S 
ATOM     97  O   UNL A   1      46.414  37.633  28.188  1.00  0.00    -0.237 OA
ATOM     98  O   UNL A   1      46.510  36.091  26.270  1.00  0.00    -0.237 OA
ATOM     99  O   UNL A   1      44.333  36.840  27.128  1.00  0.00    -0.744 OA
ENDBRANCH  93  96
ENDBRANCH  66  89
ENDBRANCH  40  41
ENDBRANCH  32  35
ENDBRANCH  30  31
ENDBRANCH  29  30
ENDBRANCH   1  29
TORSDOF 17
ENDMDL
