MODEL 1
REMARK VINA RESULT:     -11.6      0.000      0.000
REMARK SMILES C[C@H](CC(=O)N1CCC2(CC1)CN(CCCC(=O)NCCCNC(=O)c1ccc(-c3c4nc(c(-c5cccc(S(=O)(=O)[O-])c5F)c5ccc([nH]5)c(-c5cccc(S(=O)(=O)[O-])c5F)c5nc(c(-c6cccc(S(=O)(=O)[O-])c6F)c6ccc3[nH]6)C=C5)C=C4)cc1)C(=O)O2)n1ccnc1
REMARK SMILES IDX 17 1 18 2 19 3 16 5 15 6 14 7 13 8 4 9 5 10 6 11 7 12 11 13
REMARK SMILES IDX 8 14 10 15 9 16 12 17 91 18 89 19 90 20 3 21 2 22 1 23 92 24
REMARK SMILES IDX 93 25 96 26 94 27 95 28 20 29 21 30 22 31 23 32 24 33 25 35
REMARK SMILES IDX 26 36 27 37 88 38 28 39 87 40 29 41 30 42 31 43 81 44 32 45
REMARK SMILES IDX 86 46 80 47 82 48 33 49 85 50 79 51 78 52 34 54 66 55 46 56
REMARK SMILES IDX 65 57 47 58 50 59 64 60 83 61 48 62 49 63 63 65 84 66 51 67
REMARK SMILES IDX 35 68 36 69 44 70 37 71 39 72 45 73 38 74 40 75 41 76 42 77
REMARK SMILES IDX 43 78 67 79 68 80 76 81 69 82 71 83 77 84 70 85 72 86 73 87
REMARK SMILES IDX 74 88 75 89 52 90 53 91 61 92 54 93 56 94 62 95 55 96 57 97
REMARK SMILES IDX 58 98 59 99 60 100
REMARK H PARENT 19 4 23 34 82 53 50 64
REMARK Flexibility Score: inf
ROOT
ATOM      1  C   UNL A   1      32.750  28.222  26.668  1.00  0.00     0.220 C 
ATOM      2  O   UNL A   1      32.269  27.153  27.050  1.00  0.00    -0.275 OA
ATOM      3  N   UNL A   1      33.059  29.137  27.623  1.00  0.00    -0.356 N 
ATOM      4  H   UNL A   1      32.845  28.853  28.541  1.00  0.00     0.163 HD
ENDROOT
BRANCH   1   5
ATOM      5  C   UNL A   1      33.095  28.423  25.204  1.00  0.00     0.102 C 
BRANCH   5   6
ATOM      6  C   UNL A   1      31.989  28.683  24.184  1.00  0.00     0.031 C 
BRANCH   6   7
ATOM      7  C   UNL A   1      30.950  27.618  23.827  1.00  0.00     0.124 C 
BRANCH   7   8
ATOM      8  N   UNL A   1      31.322  26.214  23.692  1.00  0.00    -0.304 N 
ATOM      9  C   UNL A   1      34.997  21.040  24.733  1.00  0.00     0.224 C 
ATOM     10  O   UNL A   1      34.883  19.817  24.635  1.00  0.00    -0.275 OA
ATOM     11  N   UNL A   1      34.080  21.917  24.164  1.00  0.00    -0.342 N 
ATOM     12  C   UNL A   1      32.689  21.566  23.905  1.00  0.00     0.123 C 
ATOM     13  C   UNL A   1      34.454  23.170  23.557  1.00  0.00     0.123 C 
ATOM     14  C   UNL A   1      31.761  22.683  24.435  1.00  0.00     0.072 C 
ATOM     15  C   UNL A   1      33.706  24.306  24.210  1.00  0.00     0.072 C 
ATOM     16  C   UNL A   1      32.193  24.101  24.006  1.00  0.00     0.135 C 
ATOM     17  C   UNL A   1      31.406  25.204  24.708  1.00  0.00     0.172 C 
ATOM     18  O   UNL A   1      31.892  24.320  22.618  1.00  0.00    -0.441 OA
ATOM     19  C   UNL A   1      31.569  25.644  22.460  1.00  0.00     0.410 C 
ATOM     20  O   UNL A   1      31.522  26.201  21.375  1.00  0.00    -0.224 OA
BRANCH   9  21
ATOM     21  C   UNL A   1      36.004  21.634  25.736  1.00  0.00     0.125 C 
BRANCH  21  22
ATOM     22  C   UNL A   1      37.403  22.143  25.330  1.00  0.00     0.094 C 
ATOM     23  C   UNL A   1      37.662  23.620  25.625  1.00  0.00     0.032 C 
BRANCH  22  24
ATOM     24  N   UNL A   1      38.493  21.276  25.743  1.00  0.00    -0.334 N 
ATOM     25  C   UNL A   1      39.590  21.681  26.463  1.00  0.00     0.107 A 
ATOM     26  C   UNL A   1      38.693  19.973  25.382  1.00  0.00     0.199 A 
ATOM     27  C   UNL A   1      40.471  20.631  26.358  1.00  0.00     0.130 A 
ATOM     28  N   UNL A   1      39.903  19.577  25.696  1.00  0.00    -0.245 NA
ENDBRANCH  22  24
ENDBRANCH  21  22
ENDBRANCH   9  21
ENDBRANCH   7   8
ENDBRANCH   6   7
ENDBRANCH   5   6
ENDBRANCH   1   5
BRANCH   3  29
ATOM     29  C   UNL A   1      33.646  30.454  27.524  1.00  0.00     0.117 C 
BRANCH  29  30
ATOM     30  C   UNL A   1      32.585  31.541  27.417  1.00  0.00     0.042 C 
BRANCH  30  31
ATOM     31  C   UNL A   1      33.129  32.878  26.945  1.00  0.00     0.118 C 
BRANCH  31  32
ATOM     32  N   UNL A   1      32.643  34.010  27.727  1.00  0.00    -0.352 N 
ATOM     33  C   UNL A   1      33.168  34.555  28.879  1.00  0.00     0.251 C 
ATOM     34  H   UNL A   1      31.828  34.443  27.385  1.00  0.00     0.163 HD
ATOM     35  O   UNL A   1      32.615  35.495  29.439  1.00  0.00    -0.269 OA
BRANCH  33  36
ATOM     36  C   UNL A   1      34.422  34.020  29.423  1.00  0.00     0.039 A 
ATOM     37  C   UNL A   1      35.656  34.481  28.957  1.00  0.00     0.014 A 
ATOM     38  C   UNL A   1      34.343  33.044  30.413  1.00  0.00     0.014 A 
ATOM     39  C   UNL A   1      36.827  33.983  29.532  1.00  0.00     0.010 A 
ATOM     40  C   UNL A   1      35.496  32.639  31.056  1.00  0.00     0.010 A 
ATOM     41  C   UNL A   1      36.750  33.078  30.602  1.00  0.00    -0.014 A 
BRANCH  41  42
ATOM     42  C   UNL A   1      37.948  32.517  31.267  1.00  0.00     0.031 A 
ATOM     43  C   UNL A   1      38.664  31.361  30.620  1.00  0.00     0.074 A 
ATOM     44  C   UNL A   1      38.289  32.939  32.499  1.00  0.00     0.049 A 
ATOM     45  N   UNL A   1      39.606  30.598  31.104  1.00  0.00    -0.248 NA
ATOM     46  C   UNL A   1      38.222  30.982  29.265  1.00  0.00     0.031 C 
ATOM     47  C   UNL A   1      37.625  34.008  33.247  1.00  0.00     0.029 A 
ATOM     48  N   UNL A   1      39.260  32.486  33.357  1.00  0.00    -0.354 N 
ATOM     49  C   UNL A   1      39.824  29.616  30.144  1.00  0.00     0.074 A 
ATOM     50  C   UNL A   1      38.891  29.856  29.068  1.00  0.00     0.031 C 
ATOM     51  C   UNL A   1      38.210  34.133  34.448  1.00  0.00     0.029 A 
ATOM     52  C   UNL A   1      39.255  33.124  34.576  1.00  0.00     0.049 A 
ATOM     53  H   UNL A   1      39.897  31.775  33.123  1.00  0.00     0.167 HD
ATOM     54  C   UNL A   1      40.736  28.616  30.150  1.00  0.00     0.034 A 
ATOM     55  C   UNL A   1      39.998  32.902  35.676  1.00  0.00     0.034 A 
ATOM     56  C   UNL A   1      41.689  28.422  31.207  1.00  0.00     0.049 A 
ATOM     57  C   UNL A   1      41.027  31.805  35.644  1.00  0.00     0.074 A 
ATOM     58  C   UNL A   1      42.726  27.511  31.271  1.00  0.00     0.029 A 
ATOM     59  N   UNL A   1      41.712  29.144  32.390  1.00  0.00    -0.354 N 
ATOM     60  N   UNL A   1      41.320  30.974  34.672  1.00  0.00    -0.248 NA
ATOM     61  C   UNL A   1      41.849  31.630  36.850  1.00  0.00     0.031 C 
ATOM     62  C   UNL A   1      43.349  27.653  32.514  1.00  0.00     0.029 A 
ATOM     63  C   UNL A   1      42.734  28.688  33.201  1.00  0.00     0.049 A 
ATOM     64  H   UNL A   1      41.093  29.875  32.619  1.00  0.00     0.167 HD
ATOM     65  C   UNL A   1      42.390  30.213  35.128  1.00  0.00     0.074 A 
ATOM     66  C   UNL A   1      42.698  30.688  36.462  1.00  0.00     0.031 C 
ATOM     67  C   UNL A   1      43.055  29.211  34.505  1.00  0.00     0.034 A 
BRANCH  54  68
ATOM     68  C   UNL A   1      40.760  27.678  28.971  1.00  0.00     0.023 A 
ATOM     69  C   UNL A   1      39.814  26.636  28.876  1.00  0.00     0.012 A 
ATOM     70  C   UNL A   1      41.699  27.853  27.935  1.00  0.00     0.148 A 
ATOM     71  C   UNL A   1      39.829  25.758  27.793  1.00  0.00     0.002 A 
ATOM     72  C   UNL A   1      41.673  27.008  26.833  1.00  0.00     0.091 A 
ATOM     73  F   UNL A   1      42.605  28.834  28.052  1.00  0.00    -0.205 F 
ATOM     74  C   UNL A   1      40.751  25.951  26.768  1.00  0.00     0.022 A 
BRANCH  72  75
ATOM     75  S   UNL A   1      42.760  27.226  25.421  1.00  0.00     0.127 S 
ATOM     76  O   UNL A   1      44.056  27.415  26.072  1.00  0.00    -0.237 OA
ATOM     77  O   UNL A   1      42.612  25.950  24.720  1.00  0.00    -0.237 OA
ATOM     78  O   UNL A   1      42.253  28.381  24.695  1.00  0.00    -0.744 OA
ENDBRANCH  72  75
ENDBRANCH  54  68
BRANCH  55  79
ATOM     79  C   UNL A   1      39.844  33.775  36.873  1.00  0.00     0.023 A 
ATOM     80  C   UNL A   1      40.379  35.079  36.843  1.00  0.00     0.012 A 
ATOM     81  C   UNL A   1      39.159  33.341  38.024  1.00  0.00     0.148 A 
ATOM     82  C   UNL A   1      40.266  35.920  37.950  1.00  0.00     0.002 A 
ATOM     83  C   UNL A   1      39.006  34.202  39.104  1.00  0.00     0.091 A 
ATOM     84  F   UNL A   1      38.660  32.097  38.033  1.00  0.00    -0.205 F 
ATOM     85  C   UNL A   1      39.574  35.485  39.076  1.00  0.00     0.022 A 
BRANCH  83  86
ATOM     86  S   UNL A   1      38.035  33.773  40.554  1.00  0.00     0.127 S 
ATOM     87  O   UNL A   1      36.822  33.227  39.950  1.00  0.00    -0.237 OA
ATOM     88  O   UNL A   1      38.895  32.787  41.209  1.00  0.00    -0.237 OA
ATOM     89  O   UNL A   1      37.863  35.014  41.297  1.00  0.00    -0.744 OA
ENDBRANCH  83  86
ENDBRANCH  55  79
BRANCH  67  90
ATOM     90  C   UNL A   1      44.226  28.593  35.222  1.00  0.00     0.023 A 
ATOM     91  C   UNL A   1      45.526  29.099  35.025  1.00  0.00     0.012 A 
ATOM     92  C   UNL A   1      44.015  27.569  36.167  1.00  0.00     0.148 A 
ATOM     93  C   UNL A   1      46.603  28.572  35.736  1.00  0.00     0.002 A 
ATOM     94  C   UNL A   1      45.083  27.089  36.912  1.00  0.00     0.091 A 
ATOM     95  F   UNL A   1      42.771  27.094  36.325  1.00  0.00    -0.205 F 
ATOM     96  C   UNL A   1      46.379  27.579  36.688  1.00  0.00     0.022 A 
BRANCH  94  97
ATOM     97  S   UNL A   1      44.874  25.891  38.233  1.00  0.00     0.127 S 
ATOM     98  O   UNL A   1      46.217  25.848  38.809  1.00  0.00    -0.237 OA
ATOM     99  O   UNL A   1      43.868  26.538  39.077  1.00  0.00    -0.237 OA
ATOM    100  O   UNL A   1      44.431  24.659  37.598  1.00  0.00    -0.744 OA
ENDBRANCH  94  97
ENDBRANCH  67  90
ENDBRANCH  41  42
ENDBRANCH  33  36
ENDBRANCH  31  32
ENDBRANCH  30  31
ENDBRANCH  29  30
ENDBRANCH   3  29
TORSDOF 19
ENDMDL
MODEL 2
REMARK VINA RESULT:     -10.2      6.456      8.074
REMARK SMILES C[C@H](CC(=O)N1CCC2(CC1)CN(CCCC(=O)NCCCNC(=O)c1ccc(-c3c4nc(c(-c5cccc(S(=O)(=O)[O-])c5F)c5ccc([nH]5)c(-c5cccc(S(=O)(=O)[O-])c5F)c5nc(c(-c6cccc(S(=O)(=O)[O-])c6F)c6ccc3[nH]6)C=C5)C=C4)cc1)C(=O)O2)n1ccnc1
REMARK SMILES IDX 17 1 18 2 19 3 16 5 15 6 14 7 13 8 4 9 5 10 6 11 7 12 11 13
REMARK SMILES IDX 8 14 10 15 9 16 12 17 91 18 89 19 90 20 3 21 2 22 1 23 92 24
REMARK SMILES IDX 93 25 96 26 94 27 95 28 20 29 21 30 22 31 23 32 24 33 25 35
REMARK SMILES IDX 26 36 27 37 88 38 28 39 87 40 29 41 30 42 31 43 81 44 32 45
REMARK SMILES IDX 86 46 80 47 82 48 33 49 85 50 79 51 78 52 34 54 66 55 46 56
REMARK SMILES IDX 65 57 47 58 50 59 64 60 83 61 48 62 49 63 63 65 84 66 51 67
REMARK SMILES IDX 35 68 36 69 44 70 37 71 39 72 45 73 38 74 40 75 41 76 42 77
REMARK SMILES IDX 43 78 67 79 68 80 76 81 69 82 71 83 77 84 70 85 72 86 73 87
REMARK SMILES IDX 74 88 75 89 52 90 53 91 61 92 54 93 56 94 62 95 55 96 57 97
REMARK SMILES IDX 58 98 59 99 60 100
REMARK H PARENT 19 4 23 34 82 53 50 64
REMARK Flexibility Score: inf
ROOT
ATOM      1  C   UNL A   1      34.017  32.318  28.120  1.00  0.00     0.220 C 
ATOM      2  O   UNL A   1      33.057  32.934  27.652  1.00  0.00    -0.275 OA
ATOM      3  N   UNL A   1      34.432  32.671  29.363  1.00  0.00    -0.356 N 
ATOM      4  H   UNL A   1      33.925  33.413  29.765  1.00  0.00     0.163 HD
ENDROOT
BRANCH   1   5
ATOM      5  C   UNL A   1      34.599  31.132  27.373  1.00  0.00     0.102 C 
BRANCH   5   6
ATOM      6  C   UNL A   1      33.978  29.746  27.531  1.00  0.00     0.031 C 
BRANCH   6   7
ATOM      7  C   UNL A   1      32.522  29.464  27.153  1.00  0.00     0.124 C 
BRANCH   7   8
ATOM      8  N   UNL A   1      32.168  28.347  26.284  1.00  0.00    -0.304 N 
ATOM      9  C   UNL A   1      33.396  23.186  22.648  1.00  0.00     0.224 C 
ATOM     10  O   UNL A   1      32.762  22.238  22.182  1.00  0.00    -0.275 OA
ATOM     11  N   UNL A   1      32.768  24.303  23.188  1.00  0.00    -0.342 N 
ATOM     12  C   UNL A   1      31.428  24.271  23.762  1.00  0.00     0.123 C 
ATOM     13  C   UNL A   1      33.267  25.646  23.029  1.00  0.00     0.123 C 
ATOM     14  C   UNL A   1      31.433  24.977  25.137  1.00  0.00     0.072 C 
ATOM     15  C   UNL A   1      33.478  26.285  24.380  1.00  0.00     0.072 C 
ATOM     16  C   UNL A   1      32.132  26.352  25.124  1.00  0.00     0.135 C 
ATOM     17  C   UNL A   1      32.323  26.940  26.520  1.00  0.00     0.172 C 
ATOM     18  O   UNL A   1      31.304  27.330  24.472  1.00  0.00    -0.441 OA
ATOM     19  C   UNL A   1      31.518  28.540  25.082  1.00  0.00     0.410 C 
ATOM     20  O   UNL A   1      31.174  29.608  24.602  1.00  0.00    -0.224 OA
BRANCH   9  21
ATOM     21  C   UNL A   1      34.907  23.037  22.909  1.00  0.00     0.125 C 
BRANCH  21  22
ATOM     22  C   UNL A   1      35.494  22.618  24.273  1.00  0.00     0.094 C 
ATOM     23  C   UNL A   1      36.007  23.769  25.136  1.00  0.00     0.032 C 
BRANCH  22  24
ATOM     24  N   UNL A   1      34.670  21.673  25.008  1.00  0.00    -0.334 N 
ATOM     25  C   UNL A   1      34.551  20.337  24.711  1.00  0.00     0.107 A 
ATOM     26  C   UNL A   1      33.781  21.956  26.007  1.00  0.00     0.199 A 
ATOM     27  C   UNL A   1      33.471  19.921  25.452  1.00  0.00     0.130 A 
ATOM     28  N   UNL A   1      33.008  20.927  26.255  1.00  0.00    -0.245 NA
ENDBRANCH  22  24
ENDBRANCH  21  22
ENDBRANCH   9  21
ENDBRANCH   7   8
ENDBRANCH   6   7
ENDBRANCH   5   6
ENDBRANCH   1   5
BRANCH   3  29
ATOM     29  C   UNL A   1      35.490  32.148  30.198  1.00  0.00     0.117 C 
BRANCH  29  30
ATOM     30  C   UNL A   1      35.170  32.299  31.680  1.00  0.00     0.042 C 
BRANCH  30  31
ATOM     31  C   UNL A   1      36.344  31.986  32.591  1.00  0.00     0.118 C 
BRANCH  31  32
ATOM     32  N   UNL A   1      36.444  30.573  32.942  1.00  0.00    -0.352 N 
ATOM     33  C   UNL A   1      37.416  29.661  32.596  1.00  0.00     0.251 C 
ATOM     34  H   UNL A   1      35.715  30.224  33.505  1.00  0.00     0.163 HD
ATOM     35  O   UNL A   1      37.336  28.490  32.948  1.00  0.00    -0.269 OA
BRANCH  33  36
ATOM     36  C   UNL A   1      38.579  30.107  31.818  1.00  0.00     0.039 A 
ATOM     37  C   UNL A   1      38.523  30.169  30.423  1.00  0.00     0.014 A 
ATOM     38  C   UNL A   1      39.733  30.465  32.511  1.00  0.00     0.014 A 
ATOM     39  C   UNL A   1      39.632  30.644  29.721  1.00  0.00     0.010 A 
ATOM     40  C   UNL A   1      40.784  31.038  31.823  1.00  0.00     0.010 A 
ATOM     41  C   UNL A   1      40.759  31.104  30.422  1.00  0.00    -0.014 A 
BRANCH  41  42
ATOM     42  C   UNL A   1      41.966  31.630  29.744  1.00  0.00     0.031 A 
ATOM     43  C   UNL A   1      43.043  30.665  29.326  1.00  0.00     0.074 A 
ATOM     44  C   UNL A   1      42.154  32.959  29.648  1.00  0.00     0.049 A 
ATOM     45  N   UNL A   1      44.251  30.911  28.895  1.00  0.00    -0.248 NA
ATOM     46  C   UNL A   1      42.736  29.229  29.461  1.00  0.00     0.031 C 
ATOM     47  C   UNL A   1      41.204  33.987  30.080  1.00  0.00     0.029 A 
ATOM     48  N   UNL A   1      43.232  33.674  29.191  1.00  0.00    -0.354 N 
ATOM     49  C   UNL A   1      44.865  29.670  28.769  1.00  0.00     0.074 A 
ATOM     50  C   UNL A   1      43.912  28.675  29.205  1.00  0.00     0.031 C 
ATOM     51  C   UNL A   1      41.738  35.199  29.862  1.00  0.00     0.029 A 
ATOM     52  C   UNL A   1      43.083  35.035  29.323  1.00  0.00     0.049 A 
ATOM     53  H   UNL A   1      44.034  33.254  28.806  1.00  0.00     0.167 HD
ATOM     54  C   UNL A   1      46.105  29.384  28.311  1.00  0.00     0.034 A 
ATOM     55  C   UNL A   1      43.947  36.034  29.058  1.00  0.00     0.034 A 
ATOM     56  C   UNL A   1      47.022  30.382  27.836  1.00  0.00     0.049 A 
ATOM     57  C   UNL A   1      45.308  35.689  28.518  1.00  0.00     0.074 A 
ATOM     58  C   UNL A   1      48.261  30.201  27.251  1.00  0.00     0.029 A 
ATOM     59  N   UNL A   1      46.803  31.749  27.903  1.00  0.00    -0.354 N 
ATOM     60  N   UNL A   1      45.823  34.509  28.268  1.00  0.00    -0.248 NA
ATOM     61  C   UNL A   1      46.199  36.812  28.197  1.00  0.00     0.031 C 
ATOM     62  C   UNL A   1      48.811  31.462  27.006  1.00  0.00     0.029 A 
ATOM     63  C   UNL A   1      47.892  32.427  27.388  1.00  0.00     0.049 A 
ATOM     64  H   UNL A   1      45.992  32.175  28.263  1.00  0.00     0.167 HD
ATOM     65  C   UNL A   1      47.075  34.748  27.715  1.00  0.00     0.074 A 
ATOM     66  C   UNL A   1      47.237  36.186  27.660  1.00  0.00     0.031 C 
ATOM     67  C   UNL A   1      48.009  33.860  27.295  1.00  0.00     0.034 A 
BRANCH  54  68
ATOM     68  C   UNL A   1      46.528  27.938  28.278  1.00  0.00     0.023 A 
ATOM     69  C   UNL A   1      47.234  27.382  29.365  1.00  0.00     0.012 A 
ATOM     70  C   UNL A   1      46.189  27.117  27.185  1.00  0.00     0.148 A 
ATOM     71  C   UNL A   1      47.636  26.047  29.344  1.00  0.00     0.002 A 
ATOM     72  C   UNL A   1      46.545  25.774  27.196  1.00  0.00     0.091 A 
ATOM     73  F   UNL A   1      45.537  27.666  26.150  1.00  0.00    -0.205 F 
ATOM     74  C   UNL A   1      47.282  25.242  28.266  1.00  0.00     0.022 A 
BRANCH  72  75
ATOM     75  S   UNL A   1      46.061  24.633  25.896  1.00  0.00     0.127 S 
ATOM     76  O   UNL A   1      46.723  25.217  24.730  1.00  0.00    -0.237 OA
ATOM     77  O   UNL A   1      46.645  23.374  26.361  1.00  0.00    -0.237 OA
ATOM     78  O   UNL A   1      44.606  24.653  25.862  1.00  0.00    -0.744 OA
ENDBRANCH  72  75
ENDBRANCH  54  68
BRANCH  55  79
ATOM     79  C   UNL A   1      43.527  37.453  29.234  1.00  0.00     0.023 A 
ATOM     80  C   UNL A   1      42.751  38.067  28.231  1.00  0.00     0.012 A 
ATOM     81  C   UNL A   1      43.867  38.188  30.386  1.00  0.00     0.148 A 
ATOM     82  C   UNL A   1      42.353  39.398  28.355  1.00  0.00     0.002 A 
ATOM     83  C   UNL A   1      43.424  39.498  30.526  1.00  0.00     0.091 A 
ATOM     84  F   UNL A   1      44.609  37.586  31.326  1.00  0.00    -0.205 F 
ATOM     85  C   UNL A   1      42.681  40.110  29.504  1.00  0.00     0.022 A 
BRANCH  83  86
ATOM     86  S   UNL A   1      43.702  40.459  32.018  1.00  0.00     0.127 S 
ATOM     87  O   UNL A   1      45.161  40.516  32.068  1.00  0.00    -0.237 OA
ATOM     88  O   UNL A   1      43.047  41.725  31.685  1.00  0.00    -0.237 OA
ATOM     89  O   UNL A   1      43.064  39.714  33.094  1.00  0.00    -0.744 OA
ENDBRANCH  83  86
ENDBRANCH  55  79
BRANCH  67  90
ATOM     90  C   UNL A   1      49.269  34.406  26.677  1.00  0.00     0.023 A 
ATOM     91  C   UNL A   1      49.280  34.810  25.328  1.00  0.00     0.012 A 
ATOM     92  C   UNL A   1      50.416  34.605  27.471  1.00  0.00     0.148 A 
ATOM     93  C   UNL A   1      50.425  35.377  24.770  1.00  0.00     0.002 A 
ATOM     94  C   UNL A   1      51.533  35.222  26.925  1.00  0.00     0.091 A 
ATOM     95  F   UNL A   1      50.386  34.198  28.749  1.00  0.00    -0.205 F 
ATOM     96  C   UNL A   1      51.544  35.595  25.571  1.00  0.00     0.022 A 
BRANCH  94  97
ATOM     97  S   UNL A   1      52.978  35.642  27.905  1.00  0.00     0.127 S 
ATOM     98  O   UNL A   1      52.414  36.577  28.878  1.00  0.00    -0.237 OA
ATOM     99  O   UNL A   1      53.361  34.342  28.459  1.00  0.00    -0.237 OA
ATOM    100  O   UNL A   1      53.944  36.216  26.980  1.00  0.00    -0.744 OA
ENDBRANCH  94  97
ENDBRANCH  67  90
ENDBRANCH  41  42
ENDBRANCH  33  36
ENDBRANCH  31  32
ENDBRANCH  30  31
ENDBRANCH  29  30
ENDBRANCH   3  29
TORSDOF 19
ENDMDL
MODEL 3
REMARK VINA RESULT:     -10.0      1.729      7.734
REMARK SMILES C[C@H](CC(=O)N1CCC2(CC1)CN(CCCC(=O)NCCCNC(=O)c1ccc(-c3c4nc(c(-c5cccc(S(=O)(=O)[O-])c5F)c5ccc([nH]5)c(-c5cccc(S(=O)(=O)[O-])c5F)c5nc(c(-c6cccc(S(=O)(=O)[O-])c6F)c6ccc3[nH]6)C=C5)C=C4)cc1)C(=O)O2)n1ccnc1
REMARK SMILES IDX 17 1 18 2 19 3 16 5 15 6 14 7 13 8 4 9 5 10 6 11 7 12 11 13
REMARK SMILES IDX 8 14 10 15 9 16 12 17 91 18 89 19 90 20 3 21 2 22 1 23 92 24
REMARK SMILES IDX 93 25 96 26 94 27 95 28 20 29 21 30 22 31 23 32 24 33 25 35
REMARK SMILES IDX 26 36 27 37 88 38 28 39 87 40 29 41 30 42 31 43 81 44 32 45
REMARK SMILES IDX 86 46 80 47 82 48 33 49 85 50 79 51 78 52 34 54 66 55 46 56
REMARK SMILES IDX 65 57 47 58 50 59 64 60 83 61 48 62 49 63 63 65 84 66 51 67
REMARK SMILES IDX 35 68 36 69 44 70 37 71 39 72 45 73 38 74 40 75 41 76 42 77
REMARK SMILES IDX 43 78 67 79 68 80 76 81 69 82 71 83 77 84 70 85 72 86 73 87
REMARK SMILES IDX 74 88 75 89 52 90 53 91 61 92 54 93 56 94 62 95 55 96 57 97
REMARK SMILES IDX 58 98 59 99 60 100
REMARK H PARENT 19 4 23 34 82 53 50 64
REMARK Flexibility Score: inf
ROOT
ATOM      1  C   UNL A   1      33.489  28.950  26.872  1.00  0.00     0.220 C 
ATOM      2  O   UNL A   1      33.185  27.828  27.282  1.00  0.00    -0.275 OA
ATOM      3  N   UNL A   1      33.928  29.847  27.792  1.00  0.00    -0.356 N 
ATOM      4  H   UNL A   1      33.940  29.508  28.716  1.00  0.00     0.163 HD
ENDROOT
BRANCH   1   5
ATOM      5  C   UNL A   1      33.493  29.242  25.383  1.00  0.00     0.102 C 
BRANCH   5   6
ATOM      6  C   UNL A   1      32.175  29.431  24.635  1.00  0.00     0.031 C 
BRANCH   6   7
ATOM      7  C   UNL A   1      30.998  28.468  24.814  1.00  0.00     0.124 C 
BRANCH   7   8
ATOM      8  N   UNL A   1      31.144  27.039  24.563  1.00  0.00    -0.304 N 
ATOM      9  C   UNL A   1      34.261  21.413  24.596  1.00  0.00     0.224 C 
ATOM     10  O   UNL A   1      33.971  20.220  24.499  1.00  0.00    -0.275 OA
ATOM     11  N   UNL A   1      33.359  22.423  24.278  1.00  0.00    -0.342 N 
ATOM     12  C   UNL A   1      31.912  22.256  24.344  1.00  0.00     0.123 C 
ATOM     13  C   UNL A   1      33.742  23.652  23.628  1.00  0.00     0.123 C 
ATOM     14  C   UNL A   1      31.283  23.447  25.101  1.00  0.00     0.072 C 
ATOM     15  C   UNL A   1      33.317  24.834  24.464  1.00  0.00     0.072 C 
ATOM     16  C   UNL A   1      31.785  24.823  24.616  1.00  0.00     0.135 C 
ATOM     17  C   UNL A   1      31.328  25.975  25.508  1.00  0.00     0.172 C 
ATOM     18  O   UNL A   1      31.203  25.149  23.343  1.00  0.00    -0.441 OA
ATOM     19  C   UNL A   1      31.026  26.509  23.295  1.00  0.00     0.410 C 
ATOM     20  O   UNL A   1      30.804  27.124  22.264  1.00  0.00    -0.224 OA
BRANCH   9  21
ATOM     21  C   UNL A   1      35.540  21.829  25.348  1.00  0.00     0.125 C 
BRANCH  21  22
ATOM     22  C   UNL A   1      36.917  21.965  24.666  1.00  0.00     0.094 C 
ATOM     23  C   UNL A   1      36.881  22.536  23.249  1.00  0.00     0.032 C 
BRANCH  22  24
ATOM     24  N   UNL A   1      37.936  22.573  25.504  1.00  0.00    -0.334 N 
ATOM     25  C   UNL A   1      39.045  21.923  25.988  1.00  0.00     0.107 A 
ATOM     26  C   UNL A   1      37.909  23.819  26.064  1.00  0.00     0.199 A 
ATOM     27  C   UNL A   1      39.543  22.773  26.947  1.00  0.00     0.130 A 
ATOM     28  N   UNL A   1      38.839  23.946  26.980  1.00  0.00    -0.245 NA
ENDBRANCH  22  24
ENDBRANCH  21  22
ENDBRANCH   9  21
ENDBRANCH   7   8
ENDBRANCH   6   7
ENDBRANCH   5   6
ENDBRANCH   1   5
BRANCH   3  29
ATOM     29  C   UNL A   1      34.378  31.213  27.650  1.00  0.00     0.117 C 
BRANCH  29  30
ATOM     30  C   UNL A   1      33.217  32.199  27.679  1.00  0.00     0.042 C 
BRANCH  30  31
ATOM     31  C   UNL A   1      33.653  33.653  27.637  1.00  0.00     0.118 C 
BRANCH  31  32
ATOM     32  N   UNL A   1      32.988  34.486  28.634  1.00  0.00    -0.352 N 
ATOM     33  C   UNL A   1      33.314  34.675  29.959  1.00  0.00     0.251 C 
ATOM     34  H   UNL A   1      32.199  34.981  28.315  1.00  0.00     0.163 HD
ATOM     35  O   UNL A   1      32.627  35.390  30.680  1.00  0.00    -0.269 OA
BRANCH  33  36
ATOM     36  C   UNL A   1      34.517  34.035  30.504  1.00  0.00     0.039 A 
ATOM     37  C   UNL A   1      35.769  34.643  30.379  1.00  0.00     0.014 A 
ATOM     38  C   UNL A   1      34.372  32.808  31.148  1.00  0.00     0.014 A 
ATOM     39  C   UNL A   1      36.882  34.026  30.952  1.00  0.00     0.010 A 
ATOM     40  C   UNL A   1      35.453  32.259  31.809  1.00  0.00     0.010 A 
ATOM     41  C   UNL A   1      36.724  32.843  31.691  1.00  0.00    -0.014 A 
BRANCH  41  42
ATOM     42  C   UNL A   1      37.857  32.141  32.335  1.00  0.00     0.031 A 
ATOM     43  C   UNL A   1      38.298  32.579  33.707  1.00  0.00     0.074 A 
ATOM     44  C   UNL A   1      38.569  31.238  31.637  1.00  0.00     0.049 A 
ATOM     45  N   UNL A   1      39.367  32.245  34.377  1.00  0.00    -0.248 NA
ATOM     46  C   UNL A   1      37.445  33.567  34.394  1.00  0.00     0.031 C 
ATOM     47  C   UNL A   1      38.270  30.787  30.276  1.00  0.00     0.029 A 
ATOM     48  N   UNL A   1      39.719  30.566  31.965  1.00  0.00    -0.354 N 
ATOM     49  C   UNL A   1      39.348  33.022  35.529  1.00  0.00     0.074 A 
ATOM     50  C   UNL A   1      38.183  33.874  35.450  1.00  0.00     0.031 C 
ATOM     51  C   UNL A   1      39.208  29.909  29.887  1.00  0.00     0.029 A 
ATOM     52  C   UNL A   1      40.199  29.772  30.948  1.00  0.00     0.049 A 
ATOM     53  H   UNL A   1      40.158  30.643  32.841  1.00  0.00     0.167 HD
ATOM     54  C   UNL A   1      40.213  33.013  36.570  1.00  0.00     0.034 A 
ATOM     55  C   UNL A   1      41.325  29.036  30.878  1.00  0.00     0.034 A 
ATOM     56  C   UNL A   1      41.338  32.125  36.654  1.00  0.00     0.049 A 
ATOM     57  C   UNL A   1      42.252  29.018  32.062  1.00  0.00     0.074 A 
ATOM     58  C   UNL A   1      42.219  31.952  37.705  1.00  0.00     0.029 A 
ATOM     59  N   UNL A   1      41.745  31.270  35.641  1.00  0.00    -0.354 N 
ATOM     60  N   UNL A   1      42.145  29.651  33.206  1.00  0.00    -0.248 NA
ATOM     61  C   UNL A   1      43.443  28.163  31.960  1.00  0.00     0.031 C 
ATOM     62  C   UNL A   1      43.186  31.024  37.309  1.00  0.00     0.029 A 
ATOM     63  C   UNL A   1      42.876  30.580  36.033  1.00  0.00     0.049 A 
ATOM     64  H   UNL A   1      41.295  31.169  34.771  1.00  0.00     0.167 HD
ATOM     65  C   UNL A   1      43.223  29.234  33.977  1.00  0.00     0.074 A 
ATOM     66  C   UNL A   1      43.968  28.287  33.171  1.00  0.00     0.031 C 
ATOM     67  C   UNL A   1      43.571  29.603  35.234  1.00  0.00     0.034 A 
BRANCH  54  68
ATOM     68  C   UNL A   1      39.958  33.970  37.705  1.00  0.00     0.023 A 
ATOM     69  C   UNL A   1      40.434  35.296  37.634  1.00  0.00     0.012 A 
ATOM     70  C   UNL A   1      39.211  33.566  38.829  1.00  0.00     0.148 A 
ATOM     71  C   UNL A   1      40.210  36.189  38.681  1.00  0.00     0.002 A 
ATOM     72  C   UNL A   1      38.946  34.478  39.843  1.00  0.00     0.091 A 
ATOM     73  F   UNL A   1      38.785  32.296  38.892  1.00  0.00    -0.205 F 
ATOM     74  C   UNL A   1      39.458  35.783  39.779  1.00  0.00     0.022 A 
BRANCH  72  75
ATOM     75  S   UNL A   1      37.913  34.079  41.257  1.00  0.00     0.127 S 
ATOM     76  O   UNL A   1      38.769  33.150  41.995  1.00  0.00    -0.237 OA
ATOM     77  O   UNL A   1      37.745  35.387  41.892  1.00  0.00    -0.237 OA
ATOM     78  O   UNL A   1      36.691  33.505  40.716  1.00  0.00    -0.744 OA
ENDBRANCH  72  75
ENDBRANCH  54  68
BRANCH  55  79
ATOM     79  C   UNL A   1      41.602  28.206  29.673  1.00  0.00     0.023 A 
ATOM     80  C   UNL A   1      41.111  26.885  29.623  1.00  0.00     0.012 A 
ATOM     81  C   UNL A   1      42.322  28.712  28.574  1.00  0.00     0.148 A 
ATOM     82  C   UNL A   1      41.364  26.074  28.517  1.00  0.00     0.002 A 
ATOM     83  C   UNL A   1      42.526  27.915  27.453  1.00  0.00     0.091 A 
ATOM     84  F   UNL A   1      42.782  29.969  28.643  1.00  0.00    -0.205 F 
ATOM     85  C   UNL A   1      42.063  26.590  27.430  1.00  0.00     0.022 A 
BRANCH  83  86
ATOM     86  S   UNL A   1      43.317  28.526  25.961  1.00  0.00     0.127 S 
ATOM     87  O   UNL A   1      44.550  27.742  25.935  1.00  0.00    -0.237 OA
ATOM     88  O   UNL A   1      42.338  28.168  24.935  1.00  0.00    -0.237 OA
ATOM     89  O   UNL A   1      43.487  29.958  26.161  1.00  0.00    -0.744 OA
ENDBRANCH  83  86
ENDBRANCH  55  79
BRANCH  67  90
ATOM     90  C   UNL A   1      44.772  28.940  35.853  1.00  0.00     0.023 A 
ATOM     91  C   UNL A   1      44.629  27.734  36.566  1.00  0.00     0.012 A 
ATOM     92  C   UNL A   1      46.061  29.471  35.639  1.00  0.00     0.148 A 
ATOM     93  C   UNL A   1      45.748  27.083  37.085  1.00  0.00     0.002 A 
ATOM     94  C   UNL A   1      47.174  28.789  36.109  1.00  0.00     0.091 A 
ATOM     95  F   UNL A   1      46.170  30.628  34.970  1.00  0.00    -0.205 F 
ATOM     96  C   UNL A   1      47.018  27.602  36.844  1.00  0.00     0.022 A 
BRANCH  94  97
ATOM     97  S   UNL A   1      48.851  29.322  35.755  1.00  0.00     0.127 S 
ATOM     98  O   UNL A   1      48.722  29.814  34.384  1.00  0.00    -0.237 OA
ATOM     99  O   UNL A   1      49.060  30.365  36.760  1.00  0.00    -0.237 OA
ATOM    100  O   UNL A   1      49.694  28.146  35.916  1.00  0.00    -0.744 OA
ENDBRANCH  94  97
ENDBRANCH  67  90
ENDBRANCH  41  42
ENDBRANCH  33  36
ENDBRANCH  31  32
ENDBRANCH  30  31
ENDBRANCH  29  30
ENDBRANCH   3  29
TORSDOF 19
ENDMDL
