MODEL 1
REMARK VINA RESULT:     -11.9      0.000      0.000
REMARK SMILES C[C@@H]1CCC[C@](CCSc2ccccc2)(C(=O)NCCCNC(=O)c2ccc(-c3c4nc(c(-c5cccc(S(=O)(=O)[O-])c5F)c5ccc([nH]5)c(-c5cccc(S(=O)(=O)[O-])c5F)c5nc(c(-c6cccc(S(=O)(=O)[O-])c6F)c6ccc3[nH]6)C=C5)C=C4)cc2)C1
REMARK SMILES IDX 19 1 18 2 16 3 17 4 6 6 1 7 2 8 3 9 88 10 4 11 5 12 7 13
REMARK SMILES IDX 8 14 9 15 10 16 11 17 15 18 12 19 14 20 13 21 20 22 21 23
REMARK SMILES IDX 22 24 23 25 24 27 25 28 26 29 87 30 27 31 86 32 28 33 29 34
REMARK SMILES IDX 30 35 80 36 31 37 85 38 79 39 81 40 32 41 84 42 78 43 77 44
REMARK SMILES IDX 33 46 65 47 45 48 64 49 46 50 49 51 63 52 82 53 47 54 48 55
REMARK SMILES IDX 62 57 83 58 50 59 34 60 35 61 43 62 36 63 38 64 44 65 37 66
REMARK SMILES IDX 39 67 40 68 41 69 42 70 66 71 67 72 75 73 68 74 70 75 76 76
REMARK SMILES IDX 69 77 71 78 72 79 73 80 74 81 51 82 52 83 60 84 53 85 55 86
REMARK SMILES IDX 61 87 54 88 56 89 57 90 58 91 59 92
REMARK H PARENT 18 5 22 26 81 45 49 56
REMARK Flexibility Score: inf
ROOT
ATOM      1  C   UNL A   1      31.423  29.664  25.165  1.00  0.00     0.117 C 
ENDROOT
BRANCH   1   2
ATOM      2  N   UNL A   1      31.469  28.728  26.254  1.00  0.00    -0.356 N 
ATOM      3  C   UNL A   1      31.582  27.388  26.319  1.00  0.00     0.226 C 
ATOM      4  O   UNL A   1      31.354  26.940  27.452  1.00  0.00    -0.274 OA
ATOM      5  H   UNL A   1      31.405  29.156  27.138  1.00  0.00     0.163 HD
BRANCH   3   6
ATOM      6  C   UNL A   1      31.876  26.431  25.127  1.00  0.00     0.050 C 
ATOM      7  C   UNL A   1      33.291  28.743  22.412  1.00  0.00     0.007 C 
ATOM      8  C   UNL A   1      32.514  27.445  22.709  1.00  0.00    -0.013 C 
ATOM      9  C   UNL A   1      31.019  27.532  22.376  1.00  0.00     0.003 C 
ATOM     10  C   UNL A   1      32.918  26.860  24.074  1.00  0.00     0.020 C 
ATOM     11  C   UNL A   1      30.022  27.097  23.450  1.00  0.00     0.001 C 
ATOM     12  C   UNL A   1      30.543  26.063  24.439  1.00  0.00     0.017 C 
BRANCH   6  13
ATOM     13  C   UNL A   1      32.439  25.115  25.822  1.00  0.00     0.028 C 
BRANCH  13  14
ATOM     14  C   UNL A   1      33.973  24.932  25.956  1.00  0.00     0.076 C 
BRANCH  14  15
ATOM     15  S   UNL A   1      34.727  23.284  25.673  1.00  0.00    -0.126 SA
BRANCH  15  16
ATOM     16  C   UNL A   1      33.719  22.573  24.382  1.00  0.00     0.007 A 
ATOM     17  C   UNL A   1      33.068  21.360  24.638  1.00  0.00     0.015 A 
ATOM     18  C   UNL A   1      33.527  23.188  23.140  1.00  0.00     0.015 A 
ATOM     19  C   UNL A   1      32.312  20.728  23.646  1.00  0.00     0.001 A 
ATOM     20  C   UNL A   1      32.778  22.553  22.143  1.00  0.00     0.001 A 
ATOM     21  C   UNL A   1      32.184  21.317  22.391  1.00  0.00     0.000 A 
ENDBRANCH  15  16
ENDBRANCH  14  15
ENDBRANCH  13  14
ENDBRANCH   6  13
ENDBRANCH   3   6
ENDBRANCH   1   2
BRANCH   1  22
ATOM     22  C   UNL A   1      31.197  31.078  25.671  1.00  0.00     0.042 C 
BRANCH  22  23
ATOM     23  C   UNL A   1      32.170  31.436  26.780  1.00  0.00     0.118 C 
BRANCH  23  24
ATOM     24  N   UNL A   1      32.146  32.866  27.079  1.00  0.00    -0.352 N 
ATOM     25  C   UNL A   1      33.006  33.606  27.857  1.00  0.00     0.251 C 
ATOM     26  H   UNL A   1      31.410  33.372  26.664  1.00  0.00     0.163 HD
ATOM     27  O   UNL A   1      32.706  34.746  28.199  1.00  0.00    -0.269 OA
BRANCH  25  28
ATOM     28  C   UNL A   1      34.282  33.002  28.291  1.00  0.00     0.039 A 
ATOM     29  C   UNL A   1      35.453  33.763  28.274  1.00  0.00     0.014 A 
ATOM     30  C   UNL A   1      34.299  31.694  28.775  1.00  0.00     0.014 A 
ATOM     31  C   UNL A   1      36.620  33.238  28.836  1.00  0.00     0.010 A 
ATOM     32  C   UNL A   1      35.423  31.223  29.438  1.00  0.00     0.010 A 
ATOM     33  C   UNL A   1      36.600  31.986  29.471  1.00  0.00    -0.014 A 
BRANCH  33  34
ATOM     34  C   UNL A   1      37.778  31.444  30.197  1.00  0.00     0.031 A 
ATOM     35  C   UNL A   1      38.659  30.418  29.531  1.00  0.00     0.074 A 
ATOM     36  C   UNL A   1      37.968  31.761  31.495  1.00  0.00     0.049 A 
ATOM     37  N   UNL A   1      39.641  29.720  30.039  1.00  0.00    -0.248 NA
ATOM     38  C   UNL A   1      38.367  30.095  28.122  1.00  0.00     0.031 C 
ATOM     39  C   UNL A   1      37.118  32.656  32.285  1.00  0.00     0.029 A 
ATOM     40  N   UNL A   1      38.913  31.332  32.394  1.00  0.00    -0.354 N 
ATOM     41  C   UNL A   1      40.033  28.835  29.041  1.00  0.00     0.074 A 
ATOM     42  C   UNL A   1      39.168  29.062  27.906  1.00  0.00     0.031 C 
ATOM     43  C   UNL A   1      37.577  32.707  33.544  1.00  0.00     0.029 A 
ATOM     44  C   UNL A   1      38.730  31.824  33.667  1.00  0.00     0.049 A 
ATOM     45  H   UNL A   1      39.652  30.727  32.152  1.00  0.00     0.167 HD
ATOM     46  C   UNL A   1      41.043  27.935  29.057  1.00  0.00     0.034 A 
ATOM     47  C   UNL A   1      39.406  31.578  34.808  1.00  0.00     0.034 A 
ATOM     48  C   UNL A   1      41.957  27.783  30.153  1.00  0.00     0.049 A 
ATOM     49  C   UNL A   1      40.583  30.640  34.767  1.00  0.00     0.074 A 
ATOM     50  C   UNL A   1      43.111  27.022  30.209  1.00  0.00     0.029 A 
ATOM     51  N   UNL A   1      41.819  28.397  31.387  1.00  0.00    -0.354 N 
ATOM     52  N   UNL A   1      41.068  29.971  33.749  1.00  0.00    -0.248 NA
ATOM     53  C   UNL A   1      41.326  30.447  36.021  1.00  0.00     0.031 C 
ATOM     54  C   UNL A   1      43.657  27.156  31.489  1.00  0.00     0.029 A 
ATOM     55  C   UNL A   1      42.855  28.017  32.220  1.00  0.00     0.049 A 
ATOM     56  H   UNL A   1      41.092  29.013  31.634  1.00  0.00     0.167 HD
ATOM     57  C   UNL A   1      42.184  29.298  34.233  1.00  0.00     0.074 A 
ATOM     58  C   UNL A   1      42.323  29.666  35.626  1.00  0.00     0.031 C 
ATOM     59  C   UNL A   1      43.008  28.436  33.589  1.00  0.00     0.034 A 
BRANCH  46  60
ATOM     60  C   UNL A   1      41.261  27.087  27.833  1.00  0.00     0.023 A 
ATOM     61  C   UNL A   1      41.881  27.646  26.697  1.00  0.00     0.012 A 
ATOM     62  C   UNL A   1      40.928  25.719  27.837  1.00  0.00     0.148 A 
ATOM     63  C   UNL A   1      42.142  26.862  25.574  1.00  0.00     0.002 A 
ATOM     64  C   UNL A   1      41.233  24.933  26.732  1.00  0.00     0.091 A 
ATOM     65  F   UNL A   1      40.320  25.212  28.920  1.00  0.00    -0.205 F 
ATOM     66  C   UNL A   1      41.829  25.506  25.595  1.00  0.00     0.022 A 
BRANCH  64  67
ATOM     67  S   UNL A   1      40.947  23.161  26.688  1.00  0.00     0.127 S 
ATOM     68  O   UNL A   1      39.510  23.101  26.422  1.00  0.00    -0.237 OA
ATOM     69  O   UNL A   1      41.792  22.742  25.569  1.00  0.00    -0.237 OA
ATOM     70  O   UNL A   1      41.361  22.653  27.989  1.00  0.00    -0.744 OA
ENDBRANCH  64  67
ENDBRANCH  46  60
BRANCH  47  71
ATOM     71  C   UNL A   1      39.020  32.266  36.074  1.00  0.00     0.023 A 
ATOM     72  C   UNL A   1      39.494  33.569  36.325  1.00  0.00     0.012 A 
ATOM     73  C   UNL A   1      38.183  31.649  37.023  1.00  0.00     0.148 A 
ATOM     74  C   UNL A   1      39.173  34.228  37.512  1.00  0.00     0.002 A 
ATOM     75  C   UNL A   1      37.820  32.334  38.178  1.00  0.00     0.091 A 
ATOM     76  F   UNL A   1      37.752  30.403  36.778  1.00  0.00    -0.205 F 
ATOM     77  C   UNL A   1      38.329  33.616  38.434  1.00  0.00     0.022 A 
BRANCH  75  78
ATOM     78  S   UNL A   1      36.627  31.672  39.346  1.00  0.00     0.127 S 
ATOM     79  O   UNL A   1      37.405  31.634  40.582  1.00  0.00    -0.237 OA
ATOM     80  O   UNL A   1      35.570  32.684  39.314  1.00  0.00    -0.237 OA
ATOM     81  O   UNL A   1      36.229  30.380  38.801  1.00  0.00    -0.744 OA
ENDBRANCH  75  78
ENDBRANCH  47  71
BRANCH  59  82
ATOM     82  C   UNL A   1      44.148  27.840  34.369  1.00  0.00     0.023 A 
ATOM     83  C   UNL A   1      45.354  28.557  34.491  1.00  0.00     0.012 A 
ATOM     84  C   UNL A   1      43.990  26.624  35.059  1.00  0.00     0.148 A 
ATOM     85  C   UNL A   1      46.397  28.059  35.271  1.00  0.00     0.002 A 
ATOM     86  C   UNL A   1      45.013  26.157  35.873  1.00  0.00     0.091 A 
ATOM     87  F   UNL A   1      42.838  25.953  34.914  1.00  0.00    -0.205 F 
ATOM     88  C   UNL A   1      46.221  26.868  35.972  1.00  0.00     0.022 A 
BRANCH  86  89
ATOM     89  S   UNL A   1      44.843  24.687  36.891  1.00  0.00     0.127 S 
ATOM     90  O   UNL A   1      46.152  24.618  37.535  1.00  0.00    -0.237 OA
ATOM     91  O   UNL A   1      43.742  25.054  37.782  1.00  0.00    -0.237 OA
ATOM     92  O   UNL A   1      44.541  23.595  35.974  1.00  0.00    -0.744 OA
ENDBRANCH  86  89
ENDBRANCH  59  82
ENDBRANCH  33  34
ENDBRANCH  25  28
ENDBRANCH  23  24
ENDBRANCH  22  23
ENDBRANCH   1  22
TORSDOF 17
ENDMDL
MODEL 2
REMARK VINA RESULT:     -11.7      3.063      8.265
REMARK SMILES C[C@@H]1CCC[C@](CCSc2ccccc2)(C(=O)NCCCNC(=O)c2ccc(-c3c4nc(c(-c5cccc(S(=O)(=O)[O-])c5F)c5ccc([nH]5)c(-c5cccc(S(=O)(=O)[O-])c5F)c5nc(c(-c6cccc(S(=O)(=O)[O-])c6F)c6ccc3[nH]6)C=C5)C=C4)cc2)C1
REMARK SMILES IDX 19 1 18 2 16 3 17 4 6 6 1 7 2 8 3 9 88 10 4 11 5 12 7 13
REMARK SMILES IDX 8 14 9 15 10 16 11 17 15 18 12 19 14 20 13 21 20 22 21 23
REMARK SMILES IDX 22 24 23 25 24 27 25 28 26 29 87 30 27 31 86 32 28 33 29 34
REMARK SMILES IDX 30 35 80 36 31 37 85 38 79 39 81 40 32 41 84 42 78 43 77 44
REMARK SMILES IDX 33 46 65 47 45 48 64 49 46 50 49 51 63 52 82 53 47 54 48 55
REMARK SMILES IDX 62 57 83 58 50 59 34 60 35 61 43 62 36 63 38 64 44 65 37 66
REMARK SMILES IDX 39 67 40 68 41 69 42 70 66 71 67 72 75 73 68 74 70 75 76 76
REMARK SMILES IDX 69 77 71 78 72 79 73 80 74 81 51 82 52 83 60 84 53 85 55 86
REMARK SMILES IDX 61 87 54 88 56 89 57 90 58 91 59 92
REMARK H PARENT 18 5 22 26 81 45 49 56
REMARK Flexibility Score: inf
ROOT
ATOM      1  C   UNL A   1      32.945  26.908  26.370  1.00  0.00     0.117 C 
ENDROOT
BRANCH   1   2
ATOM      2  N   UNL A   1      31.689  26.267  26.645  1.00  0.00    -0.356 N 
ATOM      3  C   UNL A   1      30.717  25.760  25.863  1.00  0.00     0.226 C 
ATOM      4  O   UNL A   1      29.682  25.495  26.492  1.00  0.00    -0.274 OA
ATOM      5  H   UNL A   1      31.499  26.179  27.607  1.00  0.00     0.163 HD
BRANCH   3   6
ATOM      6  C   UNL A   1      30.779  25.581  24.317  1.00  0.00     0.050 C 
ATOM      7  C   UNL A   1      33.165  28.353  23.161  1.00  0.00     0.007 C 
ATOM      8  C   UNL A   1      31.963  27.463  22.789  1.00  0.00    -0.013 C 
ATOM      9  C   UNL A   1      30.630  28.220  22.729  1.00  0.00     0.003 C 
ATOM     10  C   UNL A   1      32.003  26.131  23.558  1.00  0.00     0.020 C 
ATOM     11  C   UNL A   1      29.444  27.639  23.497  1.00  0.00     0.001 C 
ATOM     12  C   UNL A   1      29.476  26.130  23.697  1.00  0.00     0.017 C 
BRANCH   6  13
ATOM     13  C   UNL A   1      30.782  24.003  24.114  1.00  0.00     0.028 C 
BRANCH  13  14
ATOM     14  C   UNL A   1      31.897  23.160  24.787  1.00  0.00     0.076 C 
BRANCH  14  15
ATOM     15  S   UNL A   1      32.584  21.696  23.923  1.00  0.00    -0.126 SA
BRANCH  15  16
ATOM     16  C   UNL A   1      34.349  21.873  24.127  1.00  0.00     0.007 A 
ATOM     17  C   UNL A   1      35.002  22.890  23.419  1.00  0.00     0.015 A 
ATOM     18  C   UNL A   1      35.102  21.064  24.985  1.00  0.00     0.015 A 
ATOM     19  C   UNL A   1      36.390  23.039  23.496  1.00  0.00     0.001 A 
ATOM     20  C   UNL A   1      36.492  21.207  25.056  1.00  0.00     0.001 A 
ATOM     21  C   UNL A   1      37.138  22.184  24.300  1.00  0.00     0.000 A 
ENDBRANCH  15  16
ENDBRANCH  14  15
ENDBRANCH  13  14
ENDBRANCH   6  13
ENDBRANCH   3   6
ENDBRANCH   1   2
BRANCH   1  22
ATOM     22  C   UNL A   1      33.039  28.248  27.077  1.00  0.00     0.042 C 
BRANCH  22  23
ATOM     23  C   UNL A   1      34.314  28.985  26.708  1.00  0.00     0.118 C 
BRANCH  23  24
ATOM     24  N   UNL A   1      34.154  30.433  26.827  1.00  0.00    -0.352 N 
ATOM     25  C   UNL A   1      34.785  31.310  27.677  1.00  0.00     0.251 C 
ATOM     26  H   UNL A   1      33.502  30.839  26.210  1.00  0.00     0.163 HD
ATOM     27  O   UNL A   1      34.361  32.454  27.815  1.00  0.00    -0.269 OA
BRANCH  25  28
ATOM     28  C   UNL A   1      35.964  30.850  28.438  1.00  0.00     0.039 A 
ATOM     29  C   UNL A   1      35.827  29.833  29.385  1.00  0.00     0.014 A 
ATOM     30  C   UNL A   1      37.220  31.393  28.163  1.00  0.00     0.014 A 
ATOM     31  C   UNL A   1      36.971  29.295  29.983  1.00  0.00     0.010 A 
ATOM     32  C   UNL A   1      38.356  30.777  28.666  1.00  0.00     0.010 A 
ATOM     33  C   UNL A   1      38.247  29.725  29.587  1.00  0.00    -0.014 A 
BRANCH  33  34
ATOM     34  C   UNL A   1      39.492  29.092  30.095  1.00  0.00     0.031 A 
ATOM     35  C   UNL A   1      40.237  29.724  31.244  1.00  0.00     0.074 A 
ATOM     36  C   UNL A   1      40.027  28.043  29.436  1.00  0.00     0.049 A 
ATOM     37  N   UNL A   1      41.407  29.415  31.738  1.00  0.00    -0.248 NA
ATOM     38  C   UNL A   1      39.608  30.890  31.891  1.00  0.00     0.031 C 
ATOM     39  C   UNL A   1      39.459  27.411  28.242  1.00  0.00     0.029 A 
ATOM     40  N   UNL A   1      41.193  27.349  29.649  1.00  0.00    -0.354 N 
ATOM     41  C   UNL A   1      41.681  30.382  32.697  1.00  0.00     0.074 A 
ATOM     42  C   UNL A   1      40.570  31.306  32.701  1.00  0.00     0.031 C 
ATOM     43  C   UNL A   1      40.275  26.428  27.830  1.00  0.00     0.029 A 
ATOM     44  C   UNL A   1      41.441  26.380  28.703  1.00  0.00     0.049 A 
ATOM     45  H   UNL A   1      41.796  27.528  30.407  1.00  0.00     0.167 HD
ATOM     46  C   UNL A   1      42.749  30.476  33.524  1.00  0.00     0.034 A 
ATOM     47  C   UNL A   1      42.498  25.556  28.548  1.00  0.00     0.034 A 
ATOM     48  C   UNL A   1      43.801  29.501  33.579  1.00  0.00     0.049 A 
ATOM     49  C   UNL A   1      43.626  25.627  29.543  1.00  0.00     0.074 A 
ATOM     50  C   UNL A   1      44.839  29.411  34.489  1.00  0.00     0.029 A 
ATOM     51  N   UNL A   1      43.953  28.453  32.687  1.00  0.00    -0.354 N 
ATOM     52  N   UNL A   1      43.762  26.419  30.578  1.00  0.00    -0.248 NA
ATOM     53  C   UNL A   1      44.730  24.671  29.369  1.00  0.00     0.031 C 
ATOM     54  C   UNL A   1      45.636  28.320  34.130  1.00  0.00     0.029 A 
ATOM     55  C   UNL A   1      45.081  27.721  33.011  1.00  0.00     0.049 A 
ATOM     56  H   UNL A   1      43.349  28.257  31.935  1.00  0.00     0.167 HD
ATOM     57  C   UNL A   1      44.951  26.042  31.192  1.00  0.00     0.074 A 
ATOM     58  C   UNL A   1      45.480  24.930  30.431  1.00  0.00     0.031 C 
ATOM     59  C   UNL A   1      45.563  26.582  32.275  1.00  0.00     0.034 A 
BRANCH  46  60
ATOM     60  C   UNL A   1      42.807  31.634  34.483  1.00  0.00     0.023 A 
ATOM     61  C   UNL A   1      43.413  32.843  34.084  1.00  0.00     0.012 A 
ATOM     62  C   UNL A   1      42.189  31.554  35.746  1.00  0.00     0.148 A 
ATOM     63  C   UNL A   1      43.427  33.945  34.937  1.00  0.00     0.002 A 
ATOM     64  C   UNL A   1      42.167  32.670  36.573  1.00  0.00     0.091 A 
ATOM     65  F   UNL A   1      41.636  30.389  36.114  1.00  0.00    -0.205 F 
ATOM     66  C   UNL A   1      42.795  33.863  36.175  1.00  0.00     0.022 A 
BRANCH  64  67
ATOM     67  S   UNL A   1      41.310  32.696  38.151  1.00  0.00     0.127 S 
ATOM     68  O   UNL A   1      42.071  31.708  38.916  1.00  0.00    -0.237 OA
ATOM     69  O   UNL A   1      41.504  34.081  38.582  1.00  0.00    -0.237 OA
ATOM     70  O   UNL A   1      39.929  32.334  37.867  1.00  0.00    -0.744 OA
ENDBRANCH  64  67
ENDBRANCH  46  60
BRANCH  47  71
ATOM     71  C   UNL A   1      42.519  24.561  27.437  1.00  0.00     0.023 A 
ATOM     72  C   UNL A   1      43.131  24.902  26.215  1.00  0.00     0.012 A 
ATOM     73  C   UNL A   1      41.952  23.281  27.583  1.00  0.00     0.148 A 
ATOM     74  C   UNL A   1      43.143  24.004  25.148  1.00  0.00     0.002 A 
ATOM     75  C   UNL A   1      42.018  22.368  26.534  1.00  0.00     0.091 A 
ATOM     76  F   UNL A   1      41.359  22.975  28.746  1.00  0.00    -0.205 F 
ATOM     77  C   UNL A   1      42.596  22.734  25.310  1.00  0.00     0.022 A 
BRANCH  75  78
ATOM     78  S   UNL A   1      41.463  20.669  26.710  1.00  0.00     0.127 S 
ATOM     79  O   UNL A   1      42.182  20.241  27.907  1.00  0.00    -0.237 OA
ATOM     80  O   UNL A   1      40.019  20.833  26.884  1.00  0.00    -0.237 OA
ATOM     81  O   UNL A   1      41.841  20.009  25.466  1.00  0.00    -0.744 OA
ENDBRANCH  75  78
ENDBRANCH  47  71
BRANCH  59  82
ATOM     82  C   UNL A   1      46.863  25.972  32.722  1.00  0.00     0.023 A 
ATOM     83  C   UNL A   1      46.856  24.979  33.721  1.00  0.00     0.012 A 
ATOM     84  C   UNL A   1      48.073  26.309  32.086  1.00  0.00     0.148 A 
ATOM     85  C   UNL A   1      48.040  24.346  34.097  1.00  0.00     0.002 A 
ATOM     86  C   UNL A   1      49.240  25.641  32.431  1.00  0.00     0.091 A 
ATOM     87  F   UNL A   1      48.056  27.268  31.149  1.00  0.00    -0.205 F 
ATOM     88  C   UNL A   1      49.228  24.667  33.444  1.00  0.00     0.022 A 
BRANCH  86  89
ATOM     89  S   UNL A   1      50.797  25.915  31.578  1.00  0.00     0.127 S 
ATOM     90  O   UNL A   1      51.185  27.231  32.082  1.00  0.00    -0.237 OA
ATOM     91  O   UNL A   1      51.617  24.807  32.067  1.00  0.00    -0.237 OA
ATOM     92  O   UNL A   1      50.491  25.860  30.154  1.00  0.00    -0.744 OA
ENDBRANCH  86  89
ENDBRANCH  59  82
ENDBRANCH  33  34
ENDBRANCH  25  28
ENDBRANCH  23  24
ENDBRANCH  22  23
ENDBRANCH   1  22
TORSDOF 17
ENDMDL
MODEL 3
REMARK VINA RESULT:     -11.7      5.571     10.554
REMARK SMILES C[C@@H]1CCC[C@](CCSc2ccccc2)(C(=O)NCCCNC(=O)c2ccc(-c3c4nc(c(-c5cccc(S(=O)(=O)[O-])c5F)c5ccc([nH]5)c(-c5cccc(S(=O)(=O)[O-])c5F)c5nc(c(-c6cccc(S(=O)(=O)[O-])c6F)c6ccc3[nH]6)C=C5)C=C4)cc2)C1
REMARK SMILES IDX 19 1 18 2 16 3 17 4 6 6 1 7 2 8 3 9 88 10 4 11 5 12 7 13
REMARK SMILES IDX 8 14 9 15 10 16 11 17 15 18 12 19 14 20 13 21 20 22 21 23
REMARK SMILES IDX 22 24 23 25 24 27 25 28 26 29 87 30 27 31 86 32 28 33 29 34
REMARK SMILES IDX 30 35 80 36 31 37 85 38 79 39 81 40 32 41 84 42 78 43 77 44
REMARK SMILES IDX 33 46 65 47 45 48 64 49 46 50 49 51 63 52 82 53 47 54 48 55
REMARK SMILES IDX 62 57 83 58 50 59 34 60 35 61 43 62 36 63 38 64 44 65 37 66
REMARK SMILES IDX 39 67 40 68 41 69 42 70 66 71 67 72 75 73 68 74 70 75 76 76
REMARK SMILES IDX 69 77 71 78 72 79 73 80 74 81 51 82 52 83 60 84 53 85 55 86
REMARK SMILES IDX 61 87 54 88 56 89 57 90 58 91 59 92
REMARK H PARENT 18 5 22 26 81 45 49 56
REMARK Flexibility Score: inf
ROOT
ATOM      1  C   UNL A   1      34.830  22.744  24.024  1.00  0.00     0.117 C 
ENDROOT
BRANCH   1   2
ATOM      2  N   UNL A   1      34.390  22.957  22.673  1.00  0.00    -0.356 N 
ATOM      3  C   UNL A   1      33.567  23.854  22.098  1.00  0.00     0.226 C 
ATOM      4  O   UNL A   1      33.270  23.556  20.932  1.00  0.00    -0.274 OA
ATOM      5  H   UNL A   1      34.770  22.312  22.034  1.00  0.00     0.163 HD
BRANCH   3   6
ATOM      6  C   UNL A   1      32.944  25.104  22.786  1.00  0.00     0.050 C 
ATOM      7  C   UNL A   1      33.431  24.437  26.532  1.00  0.00     0.007 C 
ATOM      8  C   UNL A   1      32.566  25.125  25.457  1.00  0.00    -0.013 C 
ATOM      9  C   UNL A   1      31.200  24.460  25.246  1.00  0.00     0.003 C 
ATOM     10  C   UNL A   1      33.402  25.469  24.212  1.00  0.00     0.020 C 
ATOM     11  C   UNL A   1      30.787  24.116  23.816  1.00  0.00     0.001 C 
ATOM     12  C   UNL A   1      31.404  24.989  22.733  1.00  0.00     0.017 C 
BRANCH   6  13
ATOM     13  C   UNL A   1      33.369  26.313  21.842  1.00  0.00     0.028 C 
BRANCH  13  14
ATOM     14  C   UNL A   1      33.697  27.687  22.482  1.00  0.00     0.076 C 
BRANCH  14  15
ATOM     15  S   UNL A   1      32.347  28.728  23.157  1.00  0.00    -0.126 SA
BRANCH  15  16
ATOM     16  C   UNL A   1      32.610  28.670  24.922  1.00  0.00     0.007 A 
ATOM     17  C   UNL A   1      31.493  28.547  25.758  1.00  0.00     0.015 A 
ATOM     18  C   UNL A   1      33.881  28.713  25.504  1.00  0.00     0.015 A 
ATOM     19  C   UNL A   1      31.633  28.555  27.149  1.00  0.00     0.001 A 
ATOM     20  C   UNL A   1      34.023  28.729  26.897  1.00  0.00     0.001 A 
ATOM     21  C   UNL A   1      32.899  28.666  27.718  1.00  0.00     0.000 A 
ENDBRANCH  15  16
ENDBRANCH  14  15
ENDBRANCH  13  14
ENDBRANCH   6  13
ENDBRANCH   3   6
ENDBRANCH   1   2
BRANCH   1  22
ATOM     22  C   UNL A   1      36.077  21.879  24.060  1.00  0.00     0.042 C 
BRANCH  22  23
ATOM     23  C   UNL A   1      36.814  22.016  25.381  1.00  0.00     0.118 C 
BRANCH  23  24
ATOM     24  N   UNL A   1      37.771  20.929  25.581  1.00  0.00    -0.352 N 
ATOM     25  C   UNL A   1      39.073  20.988  26.018  1.00  0.00     0.251 C 
ATOM     26  H   UNL A   1      37.435  20.027  25.374  1.00  0.00     0.163 HD
ATOM     27  O   UNL A   1      39.811  20.014  25.898  1.00  0.00    -0.269 OA
BRANCH  25  28
ATOM     28  C   UNL A   1      39.577  22.243  26.610  1.00  0.00     0.039 A 
ATOM     29  C   UNL A   1      40.587  22.202  27.573  1.00  0.00     0.014 A 
ATOM     30  C   UNL A   1      39.083  23.468  26.158  1.00  0.00     0.014 A 
ATOM     31  C   UNL A   1      41.168  23.396  28.009  1.00  0.00     0.010 A 
ATOM     32  C   UNL A   1      39.741  24.639  26.502  1.00  0.00     0.010 A 
ATOM     33  C   UNL A   1      40.787  24.620  27.436  1.00  0.00    -0.014 A 
BRANCH  33  34
ATOM     34  C   UNL A   1      41.466  25.900  27.770  1.00  0.00     0.031 A 
ATOM     35  C   UNL A   1      40.737  26.946  28.574  1.00  0.00     0.074 A 
ATOM     36  C   UNL A   1      42.672  26.178  27.230  1.00  0.00     0.049 A 
ATOM     37  N   UNL A   1      41.094  28.173  28.847  1.00  0.00    -0.248 NA
ATOM     38  C   UNL A   1      39.408  26.582  29.100  1.00  0.00     0.031 C 
ATOM     39  C   UNL A   1      43.431  25.292  26.343  1.00  0.00     0.029 A 
ATOM     40  N   UNL A   1      43.453  27.304  27.312  1.00  0.00    -0.354 N 
ATOM     41  C   UNL A   1      40.013  28.744  29.508  1.00  0.00     0.074 A 
ATOM     42  C   UNL A   1      38.976  27.740  29.575  1.00  0.00     0.031 C 
ATOM     43  C   UNL A   1      44.561  25.906  25.964  1.00  0.00     0.029 A 
ATOM     44  C   UNL A   1      44.596  27.242  26.547  1.00  0.00     0.049 A 
ATOM     45  H   UNL A   1      43.217  28.084  27.866  1.00  0.00     0.167 HD
ATOM     46  C   UNL A   1      39.905  29.983  30.041  1.00  0.00     0.034 A 
ATOM     47  C   UNL A   1      45.555  28.164  26.328  1.00  0.00     0.034 A 
ATOM     48  C   UNL A   1      40.975  30.940  30.054  1.00  0.00     0.049 A 
ATOM     49  C   UNL A   1      45.448  29.501  27.012  1.00  0.00     0.074 A 
ATOM     50  C   UNL A   1      41.029  32.157  30.709  1.00  0.00     0.029 A 
ATOM     51  N   UNL A   1      42.174  30.792  29.377  1.00  0.00    -0.354 N 
ATOM     52  N   UNL A   1      44.508  29.944  27.812  1.00  0.00    -0.248 NA
ATOM     53  C   UNL A   1      46.546  30.454  26.790  1.00  0.00     0.031 C 
ATOM     54  C   UNL A   1      42.254  32.759  30.405  1.00  0.00     0.029 A 
ATOM     55  C   UNL A   1      42.968  31.906  29.580  1.00  0.00     0.049 A 
ATOM     56  H   UNL A   1      42.424  30.011  28.833  1.00  0.00     0.167 HD
ATOM     57  C   UNL A   1      44.912  31.213  28.208  1.00  0.00     0.074 A 
ATOM     58  C   UNL A   1      46.197  31.457  27.585  1.00  0.00     0.031 C 
ATOM     59  C   UNL A   1      44.269  32.108  28.998  1.00  0.00     0.034 A 
BRANCH  46  60
ATOM     60  C   UNL A   1      38.612  30.360  30.713  1.00  0.00     0.023 A 
ATOM     61  C   UNL A   1      38.427  30.077  32.082  1.00  0.00     0.012 A 
ATOM     62  C   UNL A   1      37.616  31.067  30.011  1.00  0.00     0.148 A 
ATOM     63  C   UNL A   1      37.259  30.467  32.735  1.00  0.00     0.002 A 
ATOM     64  C   UNL A   1      36.475  31.493  30.681  1.00  0.00     0.091 A 
ATOM     65  F   UNL A   1      37.803  31.308  28.706  1.00  0.00    -0.205 F 
ATOM     66  C   UNL A   1      36.290  31.184  32.039  1.00  0.00     0.022 A 
BRANCH  64  67
ATOM     67  S   UNL A   1      35.205  32.493  29.899  1.00  0.00     0.127 S 
ATOM     68  O   UNL A   1      34.281  32.718  31.011  1.00  0.00    -0.237 OA
ATOM     69  O   UNL A   1      35.959  33.677  29.484  1.00  0.00    -0.237 OA
ATOM     70  O   UNL A   1      34.676  31.692  28.804  1.00  0.00    -0.744 OA
ENDBRANCH  64  67
ENDBRANCH  46  60
BRANCH  47  71
ATOM     71  C   UNL A   1      46.726  27.840  25.461  1.00  0.00     0.023 A 
ATOM     72  C   UNL A   1      46.631  28.041  24.070  1.00  0.00     0.012 A 
ATOM     73  C   UNL A   1      47.930  27.350  26.001  1.00  0.00     0.148 A 
ATOM     74  C   UNL A   1      47.699  27.722  23.230  1.00  0.00     0.002 A 
ATOM     75  C   UNL A   1      49.010  27.088  25.164  1.00  0.00     0.091 A 
ATOM     76  F   UNL A   1      48.000  27.150  27.325  1.00  0.00    -0.205 F 
ATOM     77  C   UNL A   1      48.890  27.255  23.776  1.00  0.00     0.022 A 
BRANCH  75  78
ATOM     78  S   UNL A   1      50.622  26.620  25.803  1.00  0.00     0.127 S 
ATOM     79  O   UNL A   1      50.960  27.769  26.638  1.00  0.00    -0.237 OA
ATOM     80  O   UNL A   1      50.317  25.392  26.538  1.00  0.00    -0.237 OA
ATOM     81  O   UNL A   1      51.459  26.415  24.627  1.00  0.00    -0.744 OA
ENDBRANCH  75  78
ENDBRANCH  47  71
BRANCH  59  82
ATOM     82  C   UNL A   1      44.943  33.427  29.256  1.00  0.00     0.023 A 
ATOM     83  C   UNL A   1      45.769  33.574  30.388  1.00  0.00     0.012 A 
ATOM     84  C   UNL A   1      44.839  34.482  28.331  1.00  0.00     0.148 A 
ATOM     85  C   UNL A   1      46.463  34.763  30.607  1.00  0.00     0.002 A 
ATOM     86  C   UNL A   1      45.571  35.646  28.529  1.00  0.00     0.091 A 
ATOM     87  F   UNL A   1      44.035  34.324  27.269  1.00  0.00    -0.205 F 
ATOM     88  C   UNL A   1      46.375  35.792  29.672  1.00  0.00     0.022 A 
BRANCH  86  89
ATOM     89  S   UNL A   1      45.600  36.984  27.331  1.00  0.00     0.127 S 
ATOM     90  O   UNL A   1      44.188  37.355  27.266  1.00  0.00    -0.237 OA
ATOM     91  O   UNL A   1      46.460  37.968  27.987  1.00  0.00    -0.237 OA
ATOM     92  O   UNL A   1      46.152  36.417  26.107  1.00  0.00    -0.744 OA
ENDBRANCH  86  89
ENDBRANCH  59  82
ENDBRANCH  33  34
ENDBRANCH  25  28
ENDBRANCH  23  24
ENDBRANCH  22  23
ENDBRANCH   1  22
TORSDOF 17
ENDMDL
