MODEL 1
REMARK VINA RESULT:     -12.1      0.000      0.000
REMARK SMILES C[C@H](O)[C@@H](NC(=O)c1ccc(Cl)c(S(C)(=O)=O)c1)C(=O)NCCCNC(=O)c1ccc(-c2c3nc(c(-c4cccc(S(=O)(=O)[O-])c4F)c4ccc([nH]4)c(-c4cccc(S(=O)(=O)[O-])c4F)c4nc(c(-c5cccc(S(=O)(=O)[O-])c5F)c5ccc2[nH]5)C=C4)C=C3)cc1
REMARK SMILES IDX 23 1 22 2 21 3 19 4 20 5 4 7 2 8 1 9 3 10 5 12 6 13 7 15
REMARK SMILES IDX 8 16 9 17 18 18 10 19 13 20 11 21 12 22 14 23 15 24 16 25
REMARK SMILES IDX 17 26 24 27 25 28 26 29 27 31 28 32 29 33 90 34 30 35 89 36
REMARK SMILES IDX 31 37 32 38 33 39 83 40 34 41 88 42 82 43 84 44 35 45 87 46
REMARK SMILES IDX 81 47 80 48 36 50 68 51 48 52 67 53 49 54 52 55 66 56 85 57
REMARK SMILES IDX 50 58 51 59 65 61 86 62 53 63 37 64 38 65 46 66 39 67 41 68
REMARK SMILES IDX 47 69 40 70 42 71 43 72 44 73 45 74 69 75 70 76 78 77 71 78
REMARK SMILES IDX 73 79 79 80 72 81 74 82 75 83 76 84 77 85 54 86 55 87 63 88
REMARK SMILES IDX 56 89 58 90 64 91 57 92 59 93 60 94 61 95 62 96
REMARK H PARENT 21 6 3 11 5 14 25 30 84 49 52 60
REMARK Flexibility Score: inf
ROOT
ATOM      1  C   UNL A   1      37.387  20.771  24.872  1.00  0.00     0.042 C 
ENDROOT
BRANCH   1   2
ATOM      2  C   UNL A   1      36.308  21.822  25.046  1.00  0.00     0.117 C 
BRANCH   2   3
ATOM      3  N   UNL A   1      35.731  21.779  26.379  1.00  0.00    -0.354 N 
ATOM      4  C   UNL A   1      34.466  21.470  26.766  1.00  0.00     0.245 C 
ATOM      5  O   UNL A   1      34.183  21.576  27.963  1.00  0.00    -0.273 OA
ATOM      6  H   UNL A   1      36.349  22.008  27.111  1.00  0.00     0.163 HD
BRANCH   4   7
ATOM      7  C   UNL A   1      33.379  21.110  25.742  1.00  0.00     0.200 C 
BRANCH   7   8
ATOM      8  C   UNL A   1      33.405  19.573  25.509  1.00  0.00     0.143 C 
ATOM      9  C   UNL A   1      32.536  19.101  24.346  1.00  0.00     0.041 C 
BRANCH   8  10
ATOM     10  O   UNL A   1      32.962  18.916  26.708  1.00  0.00    -0.391 OA
ATOM     11  H   UNL A   1      33.562  18.182  26.915  1.00  0.00     0.211 HD
ENDBRANCH   8  10
ENDBRANCH   7   8
BRANCH   7  12
ATOM     12  N   UNL A   1      32.007  21.544  26.101  1.00  0.00    -0.338 N 
ATOM     13  C   UNL A   1      31.348  22.727  25.877  1.00  0.00     0.252 C 
ATOM     14  H   UNL A   1      31.478  20.867  26.581  1.00  0.00     0.164 HD
ATOM     15  O   UNL A   1      30.147  22.833  26.107  1.00  0.00    -0.269 OA
BRANCH  13  16
ATOM     16  C   UNL A   1      32.101  23.942  25.507  1.00  0.00     0.041 A 
ATOM     17  C   UNL A   1      32.439  24.914  26.442  1.00  0.00     0.015 A 
ATOM     18  C   UNL A   1      32.406  24.135  24.154  1.00  0.00     0.035 A 
ATOM     19  C   UNL A   1      32.990  26.120  26.001  1.00  0.00     0.023 A 
ATOM     20  C   UNL A   1      32.960  25.351  23.712  1.00  0.00     0.086 A 
ATOM     21  C   UNL A   1      33.230  26.361  24.638  1.00  0.00     0.059 A 
ATOM     22  Cl  UNL A   1      33.796  27.941  24.254  1.00  0.00    -0.083 Cl
BRANCH  20  23
ATOM     23  S   UNL A   1      33.059  25.563  21.951  1.00  0.00     0.177 S 
ATOM     24  C   UNL A   1      31.513  26.285  21.474  1.00  0.00     0.164 C 
ATOM     25  O   UNL A   1      34.095  26.565  21.773  1.00  0.00    -0.224 OA
ATOM     26  O   UNL A   1      33.132  24.284  21.285  1.00  0.00    -0.224 OA
ENDBRANCH  20  23
ENDBRANCH  13  16
ENDBRANCH   7  12
ENDBRANCH   4   7
ENDBRANCH   2   3
ENDBRANCH   1   2
BRANCH   1  27
ATOM     27  C   UNL A   1      38.614  21.025  25.734  1.00  0.00     0.118 C 
BRANCH  27  28
ATOM     28  N   UNL A   1      39.450  19.843  25.903  1.00  0.00    -0.352 N 
ATOM     29  C   UNL A   1      40.803  19.766  26.129  1.00  0.00     0.251 C 
ATOM     30  H   UNL A   1      38.981  18.980  25.846  1.00  0.00     0.163 HD
ATOM     31  O   UNL A   1      41.401  18.696  26.068  1.00  0.00    -0.269 OA
BRANCH  29  32
ATOM     32  C   UNL A   1      41.529  21.009  26.437  1.00  0.00     0.039 A 
ATOM     33  C   UNL A   1      42.124  21.722  25.397  1.00  0.00     0.014 A 
ATOM     34  C   UNL A   1      41.555  21.493  27.748  1.00  0.00     0.014 A 
ATOM     35  C   UNL A   1      42.661  22.978  25.661  1.00  0.00     0.010 A 
ATOM     36  C   UNL A   1      41.994  22.783  27.988  1.00  0.00     0.010 A 
ATOM     37  C   UNL A   1      42.546  23.537  26.945  1.00  0.00    -0.014 A 
BRANCH  37  38
ATOM     38  C   UNL A   1      42.957  24.934  27.206  1.00  0.00     0.031 A 
ATOM     39  C   UNL A   1      41.997  25.894  27.846  1.00  0.00     0.074 A 
ATOM     40  C   UNL A   1      44.161  25.347  26.764  1.00  0.00     0.049 A 
ATOM     41  N   UNL A   1      42.170  27.156  28.132  1.00  0.00    -0.248 NA
ATOM     42  C   UNL A   1      40.656  25.382  28.178  1.00  0.00     0.031 C 
ATOM     43  C   UNL A   1      45.118  24.522  26.020  1.00  0.00     0.029 A 
ATOM     44  N   UNL A   1      44.780  26.565  26.857  1.00  0.00    -0.354 N 
ATOM     45  C   UNL A   1      40.955  27.597  28.640  1.00  0.00     0.074 A 
ATOM     46  C   UNL A   1      40.038  26.481  28.584  1.00  0.00     0.031 C 
ATOM     47  C   UNL A   1      46.210  25.251  25.747  1.00  0.00     0.029 A 
ATOM     48  C   UNL A   1      46.025  26.598  26.275  1.00  0.00     0.049 A 
ATOM     49  H   UNL A   1      44.372  27.345  27.300  1.00  0.00     0.167 HD
ATOM     50  C   UNL A   1      40.645  28.813  29.146  1.00  0.00     0.034 A 
ATOM     51  C   UNL A   1      46.920  27.600  26.192  1.00  0.00     0.034 A 
ATOM     52  C   UNL A   1      41.589  29.892  29.250  1.00  0.00     0.049 A 
ATOM     53  C   UNL A   1      46.587  28.910  26.849  1.00  0.00     0.074 A 
ATOM     54  C   UNL A   1      41.419  31.132  29.836  1.00  0.00     0.029 A 
ATOM     55  N   UNL A   1      42.884  29.852  28.755  1.00  0.00    -0.354 N 
ATOM     56  N   UNL A   1      45.495  29.254  27.490  1.00  0.00    -0.248 NA
ATOM     57  C   UNL A   1      47.617  29.955  26.811  1.00  0.00     0.031 C 
ATOM     58  C   UNL A   1      42.614  31.846  29.690  1.00  0.00     0.029 A 
ATOM     59  C   UNL A   1      43.528  31.046  29.023  1.00  0.00     0.049 A 
ATOM     60  H   UNL A   1      43.286  29.088  28.284  1.00  0.00     0.167 HD
ATOM     61  C   UNL A   1      45.718  30.543  27.958  1.00  0.00     0.074 A 
ATOM     62  C   UNL A   1      47.059  30.908  27.546  1.00  0.00     0.031 C 
ATOM     63  C   UNL A   1      44.884  31.359  28.648  1.00  0.00     0.034 A 
BRANCH  50  64
ATOM     64  C   UNL A   1      39.256  29.007  29.693  1.00  0.00     0.023 A 
ATOM     65  C   UNL A   1      38.968  28.591  31.009  1.00  0.00     0.012 A 
ATOM     66  C   UNL A   1      38.249  29.623  28.928  1.00  0.00     0.148 A 
ATOM     67  C   UNL A   1      37.691  28.752  31.544  1.00  0.00     0.002 A 
ATOM     68  C   UNL A   1      36.988  29.820  29.483  1.00  0.00     0.091 A 
ATOM     69  F   UNL A   1      38.532  29.988  27.669  1.00  0.00    -0.205 F 
ATOM     70  C   UNL A   1      36.705  29.376  30.785  1.00  0.00     0.022 A 
BRANCH  68  71
ATOM     71  S   UNL A   1      35.671  30.677  28.612  1.00  0.00     0.127 S 
ATOM     72  O   UNL A   1      34.972  29.567  27.966  1.00  0.00    -0.237 OA
ATOM     73  O   UNL A   1      34.934  31.306  29.709  1.00  0.00    -0.237 OA
ATOM     74  O   UNL A   1      36.330  31.613  27.713  1.00  0.00    -0.744 OA
ENDBRANCH  68  71
ENDBRANCH  50  64
BRANCH  51  75
ATOM     75  C   UNL A   1      48.247  27.360  25.557  1.00  0.00     0.023 A 
ATOM     76  C   UNL A   1      49.314  26.897  26.353  1.00  0.00     0.012 A 
ATOM     77  C   UNL A   1      48.448  27.530  24.174  1.00  0.00     0.148 A 
ATOM     78  C   UNL A   1      50.562  26.634  25.787  1.00  0.00     0.002 A 
ATOM     79  C   UNL A   1      49.680  27.218  23.608  1.00  0.00     0.091 A 
ATOM     80  F   UNL A   1      47.426  27.982  23.434  1.00  0.00    -0.205 F 
ATOM     81  C   UNL A   1      50.743  26.784  24.415  1.00  0.00     0.022 A 
BRANCH  79  82
ATOM     82  S   UNL A   1      49.951  27.252  21.832  1.00  0.00     0.127 S 
ATOM     83  O   UNL A   1      49.029  26.219  21.368  1.00  0.00    -0.237 OA
ATOM     84  O   UNL A   1      49.566  28.622  21.486  1.00  0.00    -0.237 OA
ATOM     85  O   UNL A   1      51.369  26.971  21.652  1.00  0.00    -0.744 OA
ENDBRANCH  79  82
ENDBRANCH  51  75
BRANCH  63  86
ATOM     86  C   UNL A   1      45.401  32.721  29.018  1.00  0.00     0.023 A 
ATOM     87  C   UNL A   1      46.031  32.908  30.264  1.00  0.00     0.012 A 
ATOM     88  C   UNL A   1      45.342  33.788  28.101  1.00  0.00     0.148 A 
ATOM     89  C   UNL A   1      46.573  34.146  30.602  1.00  0.00     0.002 A 
ATOM     90  C   UNL A   1      45.924  35.006  28.428  1.00  0.00     0.091 A 
ATOM     91  F   UNL A   1      44.718  33.594  26.929  1.00  0.00    -0.205 F 
ATOM     92  C   UNL A   1      46.531  35.190  29.681  1.00  0.00     0.022 A 
BRANCH  90  93
ATOM     93  S   UNL A   1      45.998  36.372  27.264  1.00  0.00     0.127 S 
ATOM     94  O   UNL A   1      46.735  35.775  26.151  1.00  0.00    -0.237 OA
ATOM     95  O   UNL A   1      44.584  36.629  26.992  1.00  0.00    -0.237 OA
ATOM     96  O   UNL A   1      46.681  37.453  27.962  1.00  0.00    -0.744 OA
ENDBRANCH  90  93
ENDBRANCH  63  86
ENDBRANCH  37  38
ENDBRANCH  29  32
ENDBRANCH  27  28
ENDBRANCH   1  27
TORSDOF 18
ENDMDL
MODEL 2
REMARK VINA RESULT:     -12.1      2.033      8.149
REMARK SMILES C[C@H](O)[C@@H](NC(=O)c1ccc(Cl)c(S(C)(=O)=O)c1)C(=O)NCCCNC(=O)c1ccc(-c2c3nc(c(-c4cccc(S(=O)(=O)[O-])c4F)c4ccc([nH]4)c(-c4cccc(S(=O)(=O)[O-])c4F)c4nc(c(-c5cccc(S(=O)(=O)[O-])c5F)c5ccc2[nH]5)C=C4)C=C3)cc1
REMARK SMILES IDX 23 1 22 2 21 3 19 4 20 5 4 7 2 8 1 9 3 10 5 12 6 13 7 15
REMARK SMILES IDX 8 16 9 17 18 18 10 19 13 20 11 21 12 22 14 23 15 24 16 25
REMARK SMILES IDX 17 26 24 27 25 28 26 29 27 31 28 32 29 33 90 34 30 35 89 36
REMARK SMILES IDX 31 37 32 38 33 39 83 40 34 41 88 42 82 43 84 44 35 45 87 46
REMARK SMILES IDX 81 47 80 48 36 50 68 51 48 52 67 53 49 54 52 55 66 56 85 57
REMARK SMILES IDX 50 58 51 59 65 61 86 62 53 63 37 64 38 65 46 66 39 67 41 68
REMARK SMILES IDX 47 69 40 70 42 71 43 72 44 73 45 74 69 75 70 76 78 77 71 78
REMARK SMILES IDX 73 79 79 80 72 81 74 82 75 83 76 84 77 85 54 86 55 87 63 88
REMARK SMILES IDX 56 89 58 90 64 91 57 92 59 93 60 94 61 95 62 96
REMARK H PARENT 21 6 3 11 5 14 25 30 84 49 52 60
REMARK Flexibility Score: inf
ROOT
ATOM      1  C   UNL A   1      36.679  22.846  24.306  1.00  0.00     0.042 C 
ENDROOT
BRANCH   1   2
ATOM      2  C   UNL A   1      35.457  23.737  24.193  1.00  0.00     0.117 C 
BRANCH   2   3
ATOM      3  N   UNL A   1      34.754  23.523  22.940  1.00  0.00    -0.354 N 
ATOM      4  C   UNL A   1      33.789  24.275  22.348  1.00  0.00     0.245 C 
ATOM      5  O   UNL A   1      33.278  23.849  21.308  1.00  0.00    -0.273 OA
ATOM      6  H   UNL A   1      35.017  22.713  22.445  1.00  0.00     0.163 HD
BRANCH   4   7
ATOM      7  C   UNL A   1      33.257  25.558  23.004  1.00  0.00     0.200 C 
BRANCH   7   8
ATOM      8  C   UNL A   1      33.654  26.770  22.115  1.00  0.00     0.143 C 
ATOM      9  C   UNL A   1      33.387  28.130  22.756  1.00  0.00     0.041 C 
BRANCH   8  10
ATOM     10  O   UNL A   1      32.925  26.696  20.879  1.00  0.00    -0.391 OA
ATOM     11  H   UNL A   1      32.144  27.269  20.929  1.00  0.00     0.211 HD
ENDBRANCH   8  10
ENDBRANCH   7   8
BRANCH   7  12
ATOM     12  N   UNL A   1      31.797  25.576  23.261  1.00  0.00    -0.338 N 
ATOM     13  C   UNL A   1      31.057  25.055  24.293  1.00  0.00     0.252 C 
ATOM     14  H   UNL A   1      31.268  26.041  22.574  1.00  0.00     0.164 HD
ATOM     15  O   UNL A   1      29.865  25.322  24.412  1.00  0.00    -0.269 OA
BRANCH  13  16
ATOM     16  C   UNL A   1      31.640  24.036  25.189  1.00  0.00     0.041 A 
ATOM     17  C   UNL A   1      32.097  24.350  26.463  1.00  0.00     0.015 A 
ATOM     18  C   UNL A   1      31.795  22.738  24.688  1.00  0.00     0.035 A 
ATOM     19  C   UNL A   1      32.800  23.385  27.191  1.00  0.00     0.023 A 
ATOM     20  C   UNL A   1      32.505  21.768  25.421  1.00  0.00     0.086 A 
ATOM     21  C   UNL A   1      33.034  22.101  26.670  1.00  0.00     0.059 A 
ATOM     22  Cl  UNL A   1      34.020  21.077  27.641  1.00  0.00    -0.083 Cl
BRANCH  20  23
ATOM     23  S   UNL A   1      32.849  20.249  24.568  1.00  0.00     0.177 S 
ATOM     24  C   UNL A   1      32.155  20.448  22.950  1.00  0.00     0.164 C 
ATOM     25  O   UNL A   1      34.295  20.237  24.437  1.00  0.00    -0.224 OA
ATOM     26  O   UNL A   1      32.143  19.148  25.179  1.00  0.00    -0.224 OA
ENDBRANCH  20  23
ENDBRANCH  13  16
ENDBRANCH   7  12
ENDBRANCH   4   7
ENDBRANCH   2   3
ENDBRANCH   1   2
BRANCH   1  27
ATOM     27  C   UNL A   1      36.865  22.258  25.696  1.00  0.00     0.118 C 
BRANCH  27  28
ATOM     28  N   UNL A   1      37.939  21.275  25.763  1.00  0.00    -0.352 N 
ATOM     29  C   UNL A   1      39.252  21.453  26.126  1.00  0.00     0.251 C 
ATOM     30  H   UNL A   1      37.690  20.356  25.513  1.00  0.00     0.163 HD
ATOM     31  O   UNL A   1      40.086  20.568  25.959  1.00  0.00    -0.269 OA
BRANCH  29  32
ATOM     32  C   UNL A   1      39.643  22.744  26.713  1.00  0.00     0.039 A 
ATOM     33  C   UNL A   1      40.624  22.770  27.703  1.00  0.00     0.014 A 
ATOM     34  C   UNL A   1      39.081  23.928  26.226  1.00  0.00     0.014 A 
ATOM     35  C   UNL A   1      41.114  23.998  28.135  1.00  0.00     0.010 A 
ATOM     36  C   UNL A   1      39.642  25.143  26.579  1.00  0.00     0.010 A 
ATOM     37  C   UNL A   1      40.666  25.187  27.533  1.00  0.00    -0.014 A 
BRANCH  37  38
ATOM     38  C   UNL A   1      41.294  26.486  27.857  1.00  0.00     0.031 A 
ATOM     39  C   UNL A   1      42.708  26.764  27.438  1.00  0.00     0.074 A 
ATOM     40  C   UNL A   1      40.611  27.363  28.618  1.00  0.00     0.049 A 
ATOM     41  N   UNL A   1      43.431  27.831  27.650  1.00  0.00    -0.248 NA
ATOM     42  C   UNL A   1      43.419  25.692  26.719  1.00  0.00     0.031 C 
ATOM     43  C   UNL A   1      39.275  27.136  29.179  1.00  0.00     0.029 A 
ATOM     44  N   UNL A   1      40.948  28.611  29.069  1.00  0.00    -0.354 N 
ATOM     45  C   UNL A   1      44.685  27.547  27.126  1.00  0.00     0.074 A 
ATOM     46  C   UNL A   1      44.642  26.192  26.625  1.00  0.00     0.031 C 
ATOM     47  C   UNL A   1      38.900  28.217  29.878  1.00  0.00     0.029 A 
ATOM     48  C   UNL A   1      39.971  29.205  29.834  1.00  0.00     0.049 A 
ATOM     49  H   UNL A   1      41.809  29.044  28.866  1.00  0.00     0.167 HD
ATOM     50  C   UNL A   1      45.763  28.360  27.034  1.00  0.00     0.034 A 
ATOM     51  C   UNL A   1      39.941  30.417  30.419  1.00  0.00     0.034 A 
ATOM     52  C   UNL A   1      45.767  29.725  27.483  1.00  0.00     0.049 A 
ATOM     53  C   UNL A   1      41.115  31.335  30.217  1.00  0.00     0.074 A 
ATOM     54  C   UNL A   1      46.764  30.673  27.351  1.00  0.00     0.029 A 
ATOM     55  N   UNL A   1      44.715  30.334  28.150  1.00  0.00    -0.354 N 
ATOM     56  N   UNL A   1      42.228  31.115  29.558  1.00  0.00    -0.248 NA
ATOM     57  C   UNL A   1      41.016  32.679  30.799  1.00  0.00     0.031 C 
ATOM     58  C   UNL A   1      46.315  31.858  27.944  1.00  0.00     0.029 A 
ATOM     59  C   UNL A   1      45.036  31.649  28.436  1.00  0.00     0.049 A 
ATOM     60  H   UNL A   1      43.865  29.898  28.384  1.00  0.00     0.167 HD
ATOM     61  C   UNL A   1      42.949  32.300  29.620  1.00  0.00     0.074 A 
ATOM     62  C   UNL A   1      42.135  33.243  30.361  1.00  0.00     0.031 C 
ATOM     63  C   UNL A   1      44.181  32.580  29.128  1.00  0.00     0.034 A 
BRANCH  50  64
ATOM     64  C   UNL A   1      46.991  27.813  26.357  1.00  0.00     0.023 A 
ATOM     65  C   UNL A   1      47.951  27.120  27.124  1.00  0.00     0.012 A 
ATOM     66  C   UNL A   1      47.185  27.952  24.970  1.00  0.00     0.148 A 
ATOM     67  C   UNL A   1      49.101  26.604  26.529  1.00  0.00     0.002 A 
ATOM     68  C   UNL A   1      48.315  27.398  24.376  1.00  0.00     0.091 A 
ATOM     69  F   UNL A   1      46.277  28.637  24.261  1.00  0.00    -0.205 F 
ATOM     70  C   UNL A   1      49.277  26.734  25.154  1.00  0.00     0.022 A 
BRANCH  68  71
ATOM     71  S   UNL A   1      48.598  27.449  22.603  1.00  0.00     0.127 S 
ATOM     72  O   UNL A   1      49.880  28.148  22.528  1.00  0.00    -0.237 OA
ATOM     73  O   UNL A   1      48.657  26.028  22.258  1.00  0.00    -0.237 OA
ATOM     74  O   UNL A   1      47.461  28.161  22.037  1.00  0.00    -0.744 OA
ENDBRANCH  68  71
ENDBRANCH  50  64
BRANCH  51  75
ATOM     75  C   UNL A   1      38.721  30.860  31.149  1.00  0.00     0.023 A 
ATOM     76  C   UNL A   1      38.668  30.713  32.549  1.00  0.00     0.012 A 
ATOM     77  C   UNL A   1      37.642  31.474  30.484  1.00  0.00     0.148 A 
ATOM     78  C   UNL A   1      37.553  31.143  33.269  1.00  0.00     0.002 A 
ATOM     79  C   UNL A   1      36.555  31.946  31.213  1.00  0.00     0.091 A 
ATOM     80  F   UNL A   1      37.703  31.597  29.151  1.00  0.00    -0.205 F 
ATOM     81  C   UNL A   1      36.502  31.769  32.604  1.00  0.00     0.022 A 
BRANCH  79  82
ATOM     82  S   UNL A   1      35.228  32.886  30.448  1.00  0.00     0.127 S 
ATOM     83  O   UNL A   1      34.730  31.944  29.449  1.00  0.00    -0.237 OA
ATOM     84  O   UNL A   1      34.326  33.122  31.577  1.00  0.00    -0.237 OA
ATOM     85  O   UNL A   1      35.858  34.094  29.930  1.00  0.00    -0.744 OA
ENDBRANCH  79  82
ENDBRANCH  51  75
BRANCH  63  86
ATOM     86  C   UNL A   1      44.717  33.966  29.357  1.00  0.00     0.023 A 
ATOM     87  C   UNL A   1      45.381  34.260  30.563  1.00  0.00     0.012 A 
ATOM     88  C   UNL A   1      44.640  34.944  28.347  1.00  0.00     0.148 A 
ATOM     89  C   UNL A   1      45.941  35.519  30.771  1.00  0.00     0.002 A 
ATOM     90  C   UNL A   1      45.238  36.181  28.545  1.00  0.00     0.091 A 
ATOM     91  F   UNL A   1      43.983  34.648  27.215  1.00  0.00    -0.205 F 
ATOM     92  C   UNL A   1      45.880  36.474  29.759  1.00  0.00     0.022 A 
BRANCH  90  93
ATOM     93  S   UNL A   1      45.290  37.433  27.258  1.00  0.00     0.127 S 
ATOM     94  O   UNL A   1      45.960  38.537  27.943  1.00  0.00    -0.237 OA
ATOM     95  O   UNL A   1      46.090  36.784  26.220  1.00  0.00    -0.237 OA
ATOM     96  O   UNL A   1      43.903  37.676  26.883  1.00  0.00    -0.744 OA
ENDBRANCH  90  93
ENDBRANCH  63  86
ENDBRANCH  37  38
ENDBRANCH  29  32
ENDBRANCH  27  28
ENDBRANCH   1  27
TORSDOF 18
ENDMDL
MODEL 3
REMARK VINA RESULT:     -12.0      5.929      9.489
REMARK SMILES C[C@H](O)[C@@H](NC(=O)c1ccc(Cl)c(S(C)(=O)=O)c1)C(=O)NCCCNC(=O)c1ccc(-c2c3nc(c(-c4cccc(S(=O)(=O)[O-])c4F)c4ccc([nH]4)c(-c4cccc(S(=O)(=O)[O-])c4F)c4nc(c(-c5cccc(S(=O)(=O)[O-])c5F)c5ccc2[nH]5)C=C4)C=C3)cc1
REMARK SMILES IDX 23 1 22 2 21 3 19 4 20 5 4 7 2 8 1 9 3 10 5 12 6 13 7 15
REMARK SMILES IDX 8 16 9 17 18 18 10 19 13 20 11 21 12 22 14 23 15 24 16 25
REMARK SMILES IDX 17 26 24 27 25 28 26 29 27 31 28 32 29 33 90 34 30 35 89 36
REMARK SMILES IDX 31 37 32 38 33 39 83 40 34 41 88 42 82 43 84 44 35 45 87 46
REMARK SMILES IDX 81 47 80 48 36 50 68 51 48 52 67 53 49 54 52 55 66 56 85 57
REMARK SMILES IDX 50 58 51 59 65 61 86 62 53 63 37 64 38 65 46 66 39 67 41 68
REMARK SMILES IDX 47 69 40 70 42 71 43 72 44 73 45 74 69 75 70 76 78 77 71 78
REMARK SMILES IDX 73 79 79 80 72 81 74 82 75 83 76 84 77 85 54 86 55 87 63 88
REMARK SMILES IDX 56 89 58 90 64 91 57 92 59 93 60 94 61 95 62 96
REMARK H PARENT 21 6 3 11 5 14 25 30 84 49 52 60
REMARK Flexibility Score: inf
ROOT
ATOM      1  C   UNL A   1      32.020  30.386  26.474  1.00  0.00     0.042 C 
ENDROOT
BRANCH   1   2
ATOM      2  C   UNL A   1      32.501  29.058  25.920  1.00  0.00     0.117 C 
BRANCH   2   3
ATOM      3  N   UNL A   1      33.539  29.241  24.921  1.00  0.00    -0.354 N 
ATOM      4  C   UNL A   1      33.588  28.809  23.633  1.00  0.00     0.245 C 
ATOM      5  O   UNL A   1      34.620  29.022  22.989  1.00  0.00    -0.273 OA
ATOM      6  H   UNL A   1      34.324  29.754  25.221  1.00  0.00     0.163 HD
BRANCH   4   7
ATOM      7  C   UNL A   1      32.450  27.979  23.021  1.00  0.00     0.200 C 
BRANCH   7   8
ATOM      8  C   UNL A   1      31.219  28.904  22.810  1.00  0.00     0.143 C 
ATOM      9  C   UNL A   1      29.893  28.159  22.670  1.00  0.00     0.041 C 
BRANCH   8  10
ATOM     10  O   UNL A   1      31.429  29.691  21.626  1.00  0.00    -0.391 OA
ATOM     11  H   UNL A   1      32.304  30.109  21.667  1.00  0.00     0.211 HD
ENDBRANCH   8  10
ENDBRANCH   7   8
BRANCH   7  12
ATOM     12  N   UNL A   1      32.786  27.286  21.754  1.00  0.00    -0.338 N 
ATOM     13  C   UNL A   1      32.676  25.967  21.391  1.00  0.00     0.252 C 
ATOM     14  H   UNL A   1      33.151  27.873  21.053  1.00  0.00     0.164 HD
ATOM     15  O   UNL A   1      32.853  25.616  20.228  1.00  0.00    -0.269 OA
BRANCH  13  16
ATOM     16  C   UNL A   1      32.500  24.922  22.418  1.00  0.00     0.041 A 
ATOM     17  C   UNL A   1      31.265  24.656  22.996  1.00  0.00     0.015 A 
ATOM     18  C   UNL A   1      33.643  24.245  22.863  1.00  0.00     0.035 A 
ATOM     19  C   UNL A   1      31.196  23.785  24.087  1.00  0.00     0.023 A 
ATOM     20  C   UNL A   1      33.572  23.369  23.962  1.00  0.00     0.086 A 
ATOM     21  C   UNL A   1      32.345  23.157  24.596  1.00  0.00     0.059 A 
ATOM     22  Cl  UNL A   1      32.105  22.214  26.016  1.00  0.00    -0.083 Cl
BRANCH  20  23
ATOM     23  S   UNL A   1      35.127  22.775  24.583  1.00  0.00     0.177 S 
ATOM     24  C   UNL A   1      36.271  22.959  23.242  1.00  0.00     0.164 C 
ATOM     25  O   UNL A   1      35.486  23.734  25.613  1.00  0.00    -0.224 OA
ATOM     26  O   UNL A   1      35.059  21.362  24.866  1.00  0.00    -0.224 OA
ENDBRANCH  20  23
ENDBRANCH  13  16
ENDBRANCH   7  12
ENDBRANCH   4   7
ENDBRANCH   2   3
ENDBRANCH   1   2
BRANCH   1  27
ATOM     27  C   UNL A   1      33.118  31.179  27.164  1.00  0.00     0.118 C 
BRANCH  27  28
ATOM     28  N   UNL A   1      32.817  32.602  27.272  1.00  0.00    -0.352 N 
ATOM     29  C   UNL A   1      33.375  33.543  28.101  1.00  0.00     0.251 C 
ATOM     30  H   UNL A   1      32.115  32.933  26.666  1.00  0.00     0.163 HD
ATOM     31  O   UNL A   1      32.893  34.666  28.209  1.00  0.00    -0.269 OA
BRANCH  29  32
ATOM     32  C   UNL A   1      34.569  33.167  28.876  1.00  0.00     0.039 A 
ATOM     33  C   UNL A   1      34.411  32.451  30.062  1.00  0.00     0.014 A 
ATOM     34  C   UNL A   1      35.842  33.471  28.384  1.00  0.00     0.014 A 
ATOM     35  C   UNL A   1      35.539  31.951  30.703  1.00  0.00     0.010 A 
ATOM     36  C   UNL A   1      36.954  32.885  28.963  1.00  0.00     0.010 A 
ATOM     37  C   UNL A   1      36.809  32.116  30.125  1.00  0.00    -0.014 A 
BRANCH  37  38
ATOM     38  C   UNL A   1      37.998  31.450  30.699  1.00  0.00     0.031 A 
ATOM     39  C   UNL A   1      38.542  31.891  32.027  1.00  0.00     0.074 A 
ATOM     40  C   UNL A   1      38.637  30.519  29.963  1.00  0.00     0.049 A 
ATOM     41  N   UNL A   1      39.582  31.443  32.676  1.00  0.00    -0.248 NA
ATOM     42  C   UNL A   1      37.850  33.005  32.699  1.00  0.00     0.031 C 
ATOM     43  C   UNL A   1      38.259  30.106  28.608  1.00  0.00     0.029 A 
ATOM     44  N   UNL A   1      39.747  29.765  30.238  1.00  0.00    -0.354 N 
ATOM     45  C   UNL A   1      39.692  32.240  33.808  1.00  0.00     0.074 A 
ATOM     46  C   UNL A   1      38.640  33.228  33.739  1.00  0.00     0.031 C 
ATOM     47  C   UNL A   1      39.107  29.159  28.181  1.00  0.00     0.029 A 
ATOM     48  C   UNL A   1      40.100  28.911  29.220  1.00  0.00     0.049 A 
ATOM     49  H   UNL A   1      40.245  29.828  31.085  1.00  0.00     0.167 HD
ATOM     50  C   UNL A   1      40.567  32.130  34.834  1.00  0.00     0.034 A 
ATOM     51  C   UNL A   1      41.105  28.018  29.144  1.00  0.00     0.034 A 
ATOM     52  C   UNL A   1      41.568  31.102  34.915  1.00  0.00     0.049 A 
ATOM     53  C   UNL A   1      42.002  27.850  30.339  1.00  0.00     0.074 A 
ATOM     54  C   UNL A   1      42.441  30.829  35.951  1.00  0.00     0.029 A 
ATOM     55  N   UNL A   1      41.822  30.174  33.916  1.00  0.00    -0.354 N 
ATOM     56  N   UNL A   1      41.977  28.491  31.482  1.00  0.00    -0.248 NA
ATOM     57  C   UNL A   1      43.036  26.811  30.253  1.00  0.00     0.031 C 
ATOM     58  C   UNL A   1      43.230  29.736  35.574  1.00  0.00     0.029 A 
ATOM     59  C   UNL A   1      42.840  29.324  34.309  1.00  0.00     0.049 A 
ATOM     60  H   UNL A   1      41.349  30.127  33.055  1.00  0.00     0.167 HD
ATOM     61  C   UNL A   1      42.970  27.916  32.265  1.00  0.00     0.074 A 
ATOM     62  C   UNL A   1      43.561  26.856  31.471  1.00  0.00     0.031 C 
ATOM     63  C   UNL A   1      43.370  28.244  33.517  1.00  0.00     0.034 A 
BRANCH  50  64
ATOM     64  C   UNL A   1      40.424  33.097  35.979  1.00  0.00     0.023 A 
ATOM     65  C   UNL A   1      41.058  34.355  35.903  1.00  0.00     0.012 A 
ATOM     66  C   UNL A   1      39.643  32.784  37.107  1.00  0.00     0.148 A 
ATOM     67  C   UNL A   1      40.948  35.272  36.946  1.00  0.00     0.002 A 
ATOM     68  C   UNL A   1      39.503  33.722  38.126  1.00  0.00     0.091 A 
ATOM     69  F   UNL A   1      39.070  31.575  37.175  1.00  0.00    -0.205 F 
ATOM     70  C   UNL A   1      40.163  34.959  38.053  1.00  0.00     0.022 A 
BRANCH  68  71
ATOM     71  S   UNL A   1      38.457  33.443  39.559  1.00  0.00     0.127 S 
ATOM     72  O   UNL A   1      38.526  34.738  40.234  1.00  0.00    -0.237 OA
ATOM     73  O   UNL A   1      37.163  33.145  38.943  1.00  0.00    -0.237 OA
ATOM     74  O   UNL A   1      39.053  32.327  40.279  1.00  0.00    -0.744 OA
ENDBRANCH  68  71
ENDBRANCH  50  64
BRANCH  51  75
ATOM     75  C   UNL A   1      41.238  27.151  27.939  1.00  0.00     0.023 A 
ATOM     76  C   UNL A   1      41.871  27.665  26.791  1.00  0.00     0.012 A 
ATOM     77  C   UNL A   1      40.800  25.813  27.939  1.00  0.00     0.148 A 
ATOM     78  C   UNL A   1      42.040  26.872  25.655  1.00  0.00     0.002 A 
ATOM     79  C   UNL A   1      41.016  25.012  26.822  1.00  0.00     0.091 A 
ATOM     80  F   UNL A   1      40.191  25.342  29.036  1.00  0.00    -0.205 F 
ATOM     81  C   UNL A   1      41.623  25.544  25.673  1.00  0.00     0.022 A 
BRANCH  79  82
ATOM     82  S   UNL A   1      40.634  23.256  26.817  1.00  0.00     0.127 S 
ATOM     83  O   UNL A   1      39.209  23.259  26.497  1.00  0.00    -0.237 OA
ATOM     84  O   UNL A   1      41.503  22.753  25.752  1.00  0.00    -0.237 OA
ATOM     85  O   UNL A   1      40.990  22.779  28.147  1.00  0.00    -0.744 OA
ENDBRANCH  79  82
ENDBRANCH  51  75
BRANCH  63  86
ATOM     86  C   UNL A   1      44.490  27.438  34.117  1.00  0.00     0.023 A 
ATOM     87  C   UNL A   1      45.822  27.852  33.922  1.00  0.00     0.012 A 
ATOM     88  C   UNL A   1      44.219  26.329  34.940  1.00  0.00     0.148 A 
ATOM     89  C   UNL A   1      46.871  27.157  34.519  1.00  0.00     0.002 A 
ATOM     90  C   UNL A   1      45.267  25.669  35.568  1.00  0.00     0.091 A 
ATOM     91  F   UNL A   1      42.944  25.940  35.094  1.00  0.00    -0.205 F 
ATOM     92  C   UNL A   1      46.593  26.075  35.351  1.00  0.00     0.022 A 
BRANCH  90  93
ATOM     93  S   UNL A   1      44.991  24.327  36.729  1.00  0.00     0.127 S 
ATOM     94  O   UNL A   1      44.498  23.268  35.850  1.00  0.00    -0.237 OA
ATOM     95  O   UNL A   1      46.333  24.097  37.268  1.00  0.00    -0.237 OA
ATOM     96  O   UNL A   1      44.033  24.833  37.702  1.00  0.00    -0.744 OA
ENDBRANCH  90  93
ENDBRANCH  63  86
ENDBRANCH  37  38
ENDBRANCH  29  32
ENDBRANCH  27  28
ENDBRANCH   1  27
TORSDOF 18
ENDMDL
