MODEL 1
REMARK VINA RESULT:     -12.0      0.000      0.000
REMARK SMILES O=C1N[C@H](C(=O)N[C@H]2C=C[C@@H](C(=O)NCCCNC(=O)c3ccc(-c4c5nc(c(-c6cccc(S(=O)(=O)[O-])c6F)c6ccc([nH]6)c(-c6cccc(S(=O)(=O)[O-])c6F)c6nc(c(-c7cccc(S(=O)(=O)[O-])c7F)c7ccc4[nH]7)C=C6)C=C5)cc3)C2)CS1
REMARK SMILES IDX 16 1 15 2 14 3 12 4 13 5 11 7 8 8 9 9 84 10 10 11 7 12 5 13
REMARK SMILES IDX 6 14 4 16 1 17 2 18 3 19 86 20 85 22 17 23 18 24 19 25 20 27
REMARK SMILES IDX 21 28 22 29 83 30 23 31 82 32 24 33 25 34 26 35 76 36 27 37
REMARK SMILES IDX 81 38 75 39 77 40 28 41 80 42 74 43 73 44 29 46 61 47 41 48
REMARK SMILES IDX 60 49 42 50 45 51 59 52 78 53 43 54 44 55 58 57 79 58 46 59
REMARK SMILES IDX 30 60 31 61 39 62 32 63 34 64 40 65 33 66 35 67 36 68 37 69
REMARK SMILES IDX 38 70 62 71 63 72 71 73 64 74 66 75 72 76 65 77 67 78 68 79
REMARK SMILES IDX 69 80 70 81 47 82 48 83 56 84 49 85 51 86 57 87 50 88 52 89
REMARK SMILES IDX 53 90 54 91 55 92
REMARK H PARENT 14 6 7 15 3 21 18 26 77 45 45 56
REMARK Flexibility Score: inf
ROOT
ATOM      1  C   UNL A   1      31.550  31.863  26.606  1.00  0.00     0.042 C 
ENDROOT
BRANCH   1   2
ATOM      2  C   UNL A   1      31.700  30.365  26.384  1.00  0.00     0.117 C 
BRANCH   2   3
ATOM      3  N   UNL A   1      32.091  30.022  25.028  1.00  0.00    -0.356 N 
ATOM      4  C   UNL A   1      31.887  28.895  24.296  1.00  0.00     0.227 C 
ATOM      5  O   UNL A   1      32.199  28.939  23.101  1.00  0.00    -0.274 OA
ATOM      6  H   UNL A   1      32.589  30.729  24.558  1.00  0.00     0.163 HD
BRANCH   4   7
ATOM      7  C   UNL A   1      31.351  27.589  24.895  1.00  0.00     0.103 C 
ATOM      8  C   UNL A   1      31.595  25.218  24.227  1.00  0.00     0.106 C 
ATOM      9  C   UNL A   1      32.364  25.554  25.471  1.00  0.00    -0.006 C 
ATOM     10  C   UNL A   1      30.972  26.562  23.827  1.00  0.00     0.047 C 
ATOM     11  C   UNL A   1      32.256  26.842  25.819  1.00  0.00    -0.016 C 
BRANCH   8  12
ATOM     12  N   UNL A   1      32.541  24.707  23.255  1.00  0.00    -0.348 N 
ATOM     13  C   UNL A   1      33.418  23.667  23.290  1.00  0.00     0.243 C 
ATOM     14  O   UNL A   1      34.007  23.431  22.230  1.00  0.00    -0.273 OA
ATOM     15  H   UNL A   1      32.550  25.207  22.407  1.00  0.00     0.164 HD
BRANCH  13  16
ATOM     16  C   UNL A   1      33.554  22.703  24.483  1.00  0.00     0.182 C 
ATOM     17  O   UNL A   1      32.186  19.463  24.991  1.00  0.00    -0.262 OA
ATOM     18  C   UNL A   1      32.936  20.408  24.866  1.00  0.00     0.279 C 
ATOM     19  N   UNL A   1      32.545  21.675  24.558  1.00  0.00    -0.334 N 
ATOM     20  S   UNL A   1      34.671  20.329  25.001  1.00  0.00    -0.062 SA
ATOM     21  H   UNL A   1      31.597  21.885  24.392  1.00  0.00     0.165 HD
ATOM     22  C   UNL A   1      34.933  22.054  24.495  1.00  0.00     0.115 C 
ENDBRANCH  13  16
ENDBRANCH   8  12
ENDBRANCH   4   7
ENDBRANCH   2   3
ENDBRANCH   1   2
BRANCH   1  23
ATOM     23  C   UNL A   1      32.760  32.532  27.247  1.00  0.00     0.118 C 
BRANCH  23  24
ATOM     24  N   UNL A   1      32.504  33.917  27.623  1.00  0.00    -0.352 N 
ATOM     25  C   UNL A   1      33.053  34.682  28.624  1.00  0.00     0.251 C 
ATOM     26  H   UNL A   1      31.830  34.377  27.073  1.00  0.00     0.163 HD
ATOM     27  O   UNL A   1      32.546  35.769  28.894  1.00  0.00    -0.269 OA
BRANCH  25  28
ATOM     28  C   UNL A   1      34.231  34.206  29.383  1.00  0.00     0.039 A 
ATOM     29  C   UNL A   1      34.030  33.539  30.594  1.00  0.00     0.014 A 
ATOM     30  C   UNL A   1      35.529  34.439  28.924  1.00  0.00     0.014 A 
ATOM     31  C   UNL A   1      35.126  33.042  31.306  1.00  0.00     0.010 A 
ATOM     32  C   UNL A   1      36.614  33.873  29.590  1.00  0.00     0.010 A 
ATOM     33  C   UNL A   1      36.426  33.170  30.789  1.00  0.00    -0.014 A 
BRANCH  33  34
ATOM     34  C   UNL A   1      37.597  32.561  31.472  1.00  0.00     0.031 A 
ATOM     35  C   UNL A   1      38.344  31.420  30.832  1.00  0.00     0.074 A 
ATOM     36  C   UNL A   1      37.929  32.969  32.713  1.00  0.00     0.049 A 
ATOM     37  N   UNL A   1      39.332  30.709  31.311  1.00  0.00    -0.248 NA
ATOM     38  C   UNL A   1      37.907  31.006  29.488  1.00  0.00     0.031 C 
ATOM     39  C   UNL A   1      37.240  34.016  33.471  1.00  0.00     0.029 A 
ATOM     40  N   UNL A   1      38.910  32.532  33.569  1.00  0.00    -0.354 N 
ATOM     41  C   UNL A   1      39.609  29.745  30.350  1.00  0.00     0.074 A 
ATOM     42  C   UNL A   1      38.665  29.942  29.271  1.00  0.00     0.031 C 
ATOM     43  C   UNL A   1      37.820  34.140  34.676  1.00  0.00     0.029 A 
ATOM     44  C   UNL A   1      38.893  33.159  34.793  1.00  0.00     0.049 A 
ATOM     45  H   UNL A   1      39.564  31.835  33.330  1.00  0.00     0.167 HD
ATOM     46  C   UNL A   1      40.578  28.799  30.349  1.00  0.00     0.034 A 
ATOM     47  C   UNL A   1      39.643  32.957  35.895  1.00  0.00     0.034 A 
ATOM     48  C   UNL A   1      41.539  28.629  31.407  1.00  0.00     0.049 A 
ATOM     49  C   UNL A   1      40.726  31.912  35.861  1.00  0.00     0.074 A 
ATOM     50  C   UNL A   1      42.612  27.757  31.461  1.00  0.00     0.029 A 
ATOM     51  N   UNL A   1      41.538  29.335  32.600  1.00  0.00    -0.354 N 
ATOM     52  N   UNL A   1      41.071  31.113  34.881  1.00  0.00    -0.248 NA
ATOM     53  C   UNL A   1      41.542  31.760  37.074  1.00  0.00     0.031 C 
ATOM     54  C   UNL A   1      43.240  27.913  32.701  1.00  0.00     0.029 A 
ATOM     55  C   UNL A   1      42.580  28.908  33.404  1.00  0.00     0.049 A 
ATOM     56  H   UNL A   1      40.890  30.037  32.840  1.00  0.00     0.167 HD
ATOM     57  C   UNL A   1      42.166  30.392  35.344  1.00  0.00     0.074 A 
ATOM     58  C   UNL A   1      42.437  30.862  36.686  1.00  0.00     0.031 C 
ATOM     59  C   UNL A   1      42.872  29.419  34.719  1.00  0.00     0.034 A 
BRANCH  46  60
ATOM     60  C   UNL A   1      40.680  27.896  29.146  1.00  0.00     0.023 A 
ATOM     61  C   UNL A   1      39.863  26.748  29.066  1.00  0.00     0.012 A 
ATOM     62  C   UNL A   1      41.533  28.213  28.071  1.00  0.00     0.148 A 
ATOM     63  C   UNL A   1      39.921  25.912  27.952  1.00  0.00     0.002 A 
ATOM     64  C   UNL A   1      41.550  27.400  26.943  1.00  0.00     0.091 A 
ATOM     65  F   UNL A   1      42.314  29.297  28.173  1.00  0.00    -0.205 F 
ATOM     66  C   UNL A   1      40.756  26.242  26.888  1.00  0.00     0.022 A 
BRANCH  64  67
ATOM     67  S   UNL A   1      42.527  27.783  25.486  1.00  0.00     0.127 S 
ATOM     68  O   UNL A   1      42.292  26.603  24.655  1.00  0.00    -0.237 OA
ATOM     69  O   UNL A   1      41.889  29.006  25.001  1.00  0.00    -0.237 OA
ATOM     70  O   UNL A   1      43.896  27.955  25.953  1.00  0.00    -0.744 OA
ENDBRANCH  64  67
ENDBRANCH  46  60
BRANCH  47  71
ATOM     71  C   UNL A   1      39.432  33.799  37.106  1.00  0.00     0.023 A 
ATOM     72  C   UNL A   1      39.870  35.138  37.103  1.00  0.00     0.012 A 
ATOM     73  C   UNL A   1      38.782  33.292  38.248  1.00  0.00     0.148 A 
ATOM     74  C   UNL A   1      39.695  35.946  38.227  1.00  0.00     0.002 A 
ATOM     75  C   UNL A   1      38.560  34.119  39.344  1.00  0.00     0.091 A 
ATOM     76  F   UNL A   1      38.382  32.013  38.235  1.00  0.00    -0.205 F 
ATOM     77  C   UNL A   1      39.033  35.440  39.343  1.00  0.00     0.022 A 
BRANCH  75  78
ATOM     78  S   UNL A   1      37.607  33.593  40.772  1.00  0.00     0.127 S 
ATOM     79  O   UNL A   1      38.514  32.638  41.404  1.00  0.00    -0.237 OA
ATOM     80  O   UNL A   1      37.431  34.851  41.498  1.00  0.00    -0.237 OA
ATOM     81  O   UNL A   1      36.372  33.032  40.240  1.00  0.00    -0.744 OA
ENDBRANCH  75  78
ENDBRANCH  47  71
BRANCH  59  82
ATOM     82  C   UNL A   1      44.040  28.815  35.457  1.00  0.00     0.023 A 
ATOM     83  C   UNL A   1      45.329  29.363  35.301  1.00  0.00     0.012 A 
ATOM     84  C   UNL A   1      43.842  27.759  36.368  1.00  0.00     0.148 A 
ATOM     85  C   UNL A   1      46.408  28.847  36.018  1.00  0.00     0.002 A 
ATOM     86  C   UNL A   1      44.913  27.285  37.118  1.00  0.00     0.091 A 
ATOM     87  F   UNL A   1      42.611  27.241  36.489  1.00  0.00    -0.205 F 
ATOM     88  C   UNL A   1      46.198  27.819  36.934  1.00  0.00     0.022 A 
BRANCH  86  89
ATOM     89  S   UNL A   1      44.722  26.032  38.391  1.00  0.00     0.127 S 
ATOM     90  O   UNL A   1      44.227  24.895  37.616  1.00  0.00    -0.237 OA
ATOM     91  O   UNL A   1      46.090  25.885  38.886  1.00  0.00    -0.237 OA
ATOM     92  O   UNL A   1      43.781  26.581  39.358  1.00  0.00    -0.744 OA
ENDBRANCH  86  89
ENDBRANCH  59  82
ENDBRANCH  33  34
ENDBRANCH  25  28
ENDBRANCH  23  24
ENDBRANCH   1  23
TORSDOF 15
ENDMDL
MODEL 2
REMARK VINA RESULT:     -11.9      0.604      7.922
REMARK SMILES O=C1N[C@H](C(=O)N[C@H]2C=C[C@@H](C(=O)NCCCNC(=O)c3ccc(-c4c5nc(c(-c6cccc(S(=O)(=O)[O-])c6F)c6ccc([nH]6)c(-c6cccc(S(=O)(=O)[O-])c6F)c6nc(c(-c7cccc(S(=O)(=O)[O-])c7F)c7ccc4[nH]7)C=C6)C=C5)cc3)C2)CS1
REMARK SMILES IDX 16 1 15 2 14 3 12 4 13 5 11 7 8 8 9 9 84 10 10 11 7 12 5 13
REMARK SMILES IDX 6 14 4 16 1 17 2 18 3 19 86 20 85 22 17 23 18 24 19 25 20 27
REMARK SMILES IDX 21 28 22 29 83 30 23 31 82 32 24 33 25 34 26 35 76 36 27 37
REMARK SMILES IDX 81 38 75 39 77 40 28 41 80 42 74 43 73 44 29 46 61 47 41 48
REMARK SMILES IDX 60 49 42 50 45 51 59 52 78 53 43 54 44 55 58 57 79 58 46 59
REMARK SMILES IDX 30 60 31 61 39 62 32 63 34 64 40 65 33 66 35 67 36 68 37 69
REMARK SMILES IDX 38 70 62 71 63 72 71 73 64 74 66 75 72 76 65 77 67 78 68 79
REMARK SMILES IDX 69 80 70 81 47 82 48 83 56 84 49 85 51 86 57 87 50 88 52 89
REMARK SMILES IDX 53 90 54 91 55 92
REMARK H PARENT 14 6 7 15 3 21 18 26 77 45 45 56
REMARK Flexibility Score: inf
ROOT
ATOM      1  C   UNL A   1      31.488  32.465  26.708  1.00  0.00     0.042 C 
ENDROOT
BRANCH   1   2
ATOM      2  C   UNL A   1      31.461  30.943  26.697  1.00  0.00     0.117 C 
BRANCH   2   3
ATOM      3  N   UNL A   1      31.545  30.377  25.363  1.00  0.00    -0.356 N 
ATOM      4  C   UNL A   1      31.757  29.100  24.945  1.00  0.00     0.227 C 
ATOM      5  O   UNL A   1      31.623  28.878  23.737  1.00  0.00    -0.274 OA
ATOM      6  H   UNL A   1      31.427  31.029  24.636  1.00  0.00     0.163 HD
BRANCH   4   7
ATOM      7  C   UNL A   1      32.201  27.971  25.883  1.00  0.00     0.103 C 
ATOM      8  C   UNL A   1      32.539  25.544  25.536  1.00  0.00     0.106 C 
ATOM      9  C   UNL A   1      33.828  26.292  25.714  1.00  0.00    -0.006 C 
ATOM     10  C   UNL A   1      31.480  26.652  25.599  1.00  0.00     0.047 C 
ATOM     11  C   UNL A   1      33.649  27.608  25.875  1.00  0.00    -0.016 C 
BRANCH   8  12
ATOM     12  N   UNL A   1      32.599  24.874  24.252  1.00  0.00    -0.348 N 
ATOM     13  C   UNL A   1      32.896  23.593  23.900  1.00  0.00     0.243 C 
ATOM     14  O   UNL A   1      32.741  23.320  22.706  1.00  0.00    -0.273 OA
ATOM     15  H   UNL A   1      32.384  25.457  23.488  1.00  0.00     0.164 HD
BRANCH  13  16
ATOM     16  C   UNL A   1      33.215  22.480  24.915  1.00  0.00     0.182 C 
ATOM     17  O   UNL A   1      31.996  19.148  25.134  1.00  0.00    -0.262 OA
ATOM     18  C   UNL A   1      32.703  20.131  25.046  1.00  0.00     0.279 C 
ATOM     19  N   UNL A   1      32.246  21.411  24.976  1.00  0.00    -0.334 N 
ATOM     20  S   UNL A   1      34.441  20.103  24.936  1.00  0.00    -0.062 SA
ATOM     21  H   UNL A   1      31.281  21.604  24.969  1.00  0.00     0.165 HD
ATOM     22  C   UNL A   1      34.595  21.891  24.650  1.00  0.00     0.115 C 
ENDBRANCH  13  16
ENDBRANCH   8  12
ENDBRANCH   4   7
ENDBRANCH   2   3
ENDBRANCH   1   2
BRANCH   1  23
ATOM     23  C   UNL A   1      32.750  33.071  27.309  1.00  0.00     0.118 C 
BRANCH  23  24
ATOM     24  N   UNL A   1      32.540  34.423  27.814  1.00  0.00    -0.352 N 
ATOM     25  C   UNL A   1      33.097  35.065  28.893  1.00  0.00     0.251 C 
ATOM     26  H   UNL A   1      31.896  34.961  27.299  1.00  0.00     0.163 HD
ATOM     27  O   UNL A   1      32.627  36.141  29.258  1.00  0.00    -0.269 OA
BRANCH  25  28
ATOM     28  C   UNL A   1      34.239  34.471  29.623  1.00  0.00     0.039 A 
ATOM     29  C   UNL A   1      34.008  33.858  30.857  1.00  0.00     0.014 A 
ATOM     30  C   UNL A   1      35.538  34.541  29.113  1.00  0.00     0.014 A 
ATOM     31  C   UNL A   1      35.065  33.253  31.543  1.00  0.00     0.010 A 
ATOM     32  C   UNL A   1      36.573  33.866  29.755  1.00  0.00     0.010 A 
ATOM     33  C   UNL A   1      36.350  33.216  30.978  1.00  0.00    -0.014 A 
BRANCH  33  34
ATOM     34  C   UNL A   1      37.468  32.488  31.635  1.00  0.00     0.031 A 
ATOM     35  C   UNL A   1      38.003  32.952  32.964  1.00  0.00     0.074 A 
ATOM     36  C   UNL A   1      38.066  31.468  30.988  1.00  0.00     0.049 A 
ATOM     37  N   UNL A   1      39.022  32.497  33.646  1.00  0.00    -0.248 NA
ATOM     38  C   UNL A   1      37.319  34.091  33.598  1.00  0.00     0.031 C 
ATOM     39  C   UNL A   1      37.689  30.968  29.664  1.00  0.00     0.029 A 
ATOM     40  N   UNL A   1      39.139  30.688  31.342  1.00  0.00    -0.354 N 
ATOM     41  C   UNL A   1      39.125  33.315  34.765  1.00  0.00     0.074 A 
ATOM     42  C   UNL A   1      38.084  34.313  34.656  1.00  0.00     0.031 C 
ATOM     43  C   UNL A   1      38.515  29.967  29.320  1.00  0.00     0.029 A 
ATOM     44  C   UNL A   1      39.503  29.779  30.376  1.00  0.00     0.049 A 
ATOM     45  H   UNL A   1      39.605  30.771  32.206  1.00  0.00     0.167 HD
ATOM     46  C   UNL A   1      39.991  33.228  35.804  1.00  0.00     0.034 A 
ATOM     47  C   UNL A   1      40.528  28.903  30.334  1.00  0.00     0.034 A 
ATOM     48  C   UNL A   1      41.002  32.212  35.928  1.00  0.00     0.049 A 
ATOM     49  C   UNL A   1      41.463  28.814  31.509  1.00  0.00     0.074 A 
ATOM     50  C   UNL A   1      41.869  31.987  36.982  1.00  0.00     0.029 A 
ATOM     51  N   UNL A   1      41.291  31.260  34.963  1.00  0.00    -0.354 N 
ATOM     52  N   UNL A   1      41.448  29.496  32.629  1.00  0.00    -0.248 NA
ATOM     53  C   UNL A   1      42.538  27.815  31.430  1.00  0.00     0.031 C 
ATOM     54  C   UNL A   1      42.706  30.920  36.640  1.00  0.00     0.029 A 
ATOM     55  C   UNL A   1      42.334  30.456  35.388  1.00  0.00     0.049 A 
ATOM     56  H   UNL A   1      40.824  31.170  34.101  1.00  0.00     0.167 HD
ATOM     57  C   UNL A   1      42.485  28.984  33.401  1.00  0.00     0.074 A 
ATOM     58  C   UNL A   1      43.095  27.922  32.629  1.00  0.00     0.031 C 
ATOM     59  C   UNL A   1      42.902  29.368  34.632  1.00  0.00     0.034 A 
BRANCH  46  60
ATOM     60  C   UNL A   1      39.855  34.235  36.919  1.00  0.00     0.023 A 
ATOM     61  C   UNL A   1      40.209  35.581  36.688  1.00  0.00     0.012 A 
ATOM     62  C   UNL A   1      39.323  33.865  38.169  1.00  0.00     0.148 A 
ATOM     63  C   UNL A   1      40.069  36.534  37.695  1.00  0.00     0.002 A 
ATOM     64  C   UNL A   1      39.141  34.831  39.152  1.00  0.00     0.091 A 
ATOM     65  F   UNL A   1      39.009  32.578  38.376  1.00  0.00    -0.205 F 
ATOM     66  C   UNL A   1      39.527  36.162  38.922  1.00  0.00     0.022 A 
BRANCH  64  67
ATOM     67  S   UNL A   1      38.375  34.472  40.736  1.00  0.00     0.127 S 
ATOM     68  O   UNL A   1      39.468  33.815  41.450  1.00  0.00    -0.237 OA
ATOM     69  O   UNL A   1      38.044  35.809  41.228  1.00  0.00    -0.237 OA
ATOM     70  O   UNL A   1      37.224  33.628  40.445  1.00  0.00    -0.744 OA
ENDBRANCH  64  67
ENDBRANCH  46  60
BRANCH  47  71
ATOM     71  C   UNL A   1      40.691  28.002  29.158  1.00  0.00     0.023 A 
ATOM     72  C   UNL A   1      39.962  26.799  29.101  1.00  0.00     0.012 A 
ATOM     73  C   UNL A   1      41.543  28.340  28.088  1.00  0.00     0.148 A 
ATOM     74  C   UNL A   1      40.104  25.931  28.018  1.00  0.00     0.002 A 
ATOM     75  C   UNL A   1      41.637  27.499  26.985  1.00  0.00     0.091 A 
ATOM     76  F   UNL A   1      42.236  29.485  28.165  1.00  0.00    -0.205 F 
ATOM     77  C   UNL A   1      40.933  26.285  26.956  1.00  0.00     0.022 A 
BRANCH  75  78
ATOM     78  S   UNL A   1      42.579  27.932  25.519  1.00  0.00     0.127 S 
ATOM     79  O   UNL A   1      42.429  26.731  24.700  1.00  0.00    -0.237 OA
ATOM     80  O   UNL A   1      41.856  29.106  25.030  1.00  0.00    -0.237 OA
ATOM     81  O   UNL A   1      43.931  28.212  25.984  1.00  0.00    -0.744 OA
ENDBRANCH  75  78
ENDBRANCH  47  71
BRANCH  59  82
ATOM     82  C   UNL A   1      44.051  28.615  35.251  1.00  0.00     0.023 A 
ATOM     83  C   UNL A   1      45.377  28.982  34.947  1.00  0.00     0.012 A 
ATOM     84  C   UNL A   1      43.814  27.600  36.199  1.00  0.00     0.148 A 
ATOM     85  C   UNL A   1      46.449  28.328  35.554  1.00  0.00     0.002 A 
ATOM     86  C   UNL A   1      44.886  26.989  36.838  1.00  0.00     0.091 A 
ATOM     87  F   UNL A   1      42.545  27.255  36.462  1.00  0.00    -0.205 F 
ATOM     88  C   UNL A   1      46.204  27.343  36.507  1.00  0.00     0.022 A 
BRANCH  86  89
ATOM     89  S   UNL A   1      44.669  25.780  38.149  1.00  0.00     0.127 S 
ATOM     90  O   UNL A   1      46.053  25.504  38.530  1.00  0.00    -0.237 OA
ATOM     91  O   UNL A   1      43.902  26.534  39.140  1.00  0.00    -0.237 OA
ATOM     92  O   UNL A   1      43.954  24.661  37.550  1.00  0.00    -0.744 OA
ENDBRANCH  86  89
ENDBRANCH  59  82
ENDBRANCH  33  34
ENDBRANCH  25  28
ENDBRANCH  23  24
ENDBRANCH   1  23
TORSDOF 15
ENDMDL
MODEL 3
REMARK VINA RESULT:     -11.9      6.052     12.259
REMARK SMILES O=C1N[C@H](C(=O)N[C@H]2C=C[C@@H](C(=O)NCCCNC(=O)c3ccc(-c4c5nc(c(-c6cccc(S(=O)(=O)[O-])c6F)c6ccc([nH]6)c(-c6cccc(S(=O)(=O)[O-])c6F)c6nc(c(-c7cccc(S(=O)(=O)[O-])c7F)c7ccc4[nH]7)C=C6)C=C5)cc3)C2)CS1
REMARK SMILES IDX 16 1 15 2 14 3 12 4 13 5 11 7 8 8 9 9 84 10 10 11 7 12 5 13
REMARK SMILES IDX 6 14 4 16 1 17 2 18 3 19 86 20 85 22 17 23 18 24 19 25 20 27
REMARK SMILES IDX 21 28 22 29 83 30 23 31 82 32 24 33 25 34 26 35 76 36 27 37
REMARK SMILES IDX 81 38 75 39 77 40 28 41 80 42 74 43 73 44 29 46 61 47 41 48
REMARK SMILES IDX 60 49 42 50 45 51 59 52 78 53 43 54 44 55 58 57 79 58 46 59
REMARK SMILES IDX 30 60 31 61 39 62 32 63 34 64 40 65 33 66 35 67 36 68 37 69
REMARK SMILES IDX 38 70 62 71 63 72 71 73 64 74 66 75 72 76 65 77 67 78 68 79
REMARK SMILES IDX 69 80 70 81 47 82 48 83 56 84 49 85 51 86 57 87 50 88 52 89
REMARK SMILES IDX 53 90 54 91 55 92
REMARK H PARENT 14 6 7 15 3 21 18 26 77 45 45 56
REMARK Flexibility Score: inf
ROOT
ATOM      1  C   UNL A   1      38.193  19.868  25.112  1.00  0.00     0.042 C 
ENDROOT
BRANCH   1   2
ATOM      2  C   UNL A   1      37.050  20.873  25.123  1.00  0.00     0.117 C 
BRANCH   2   3
ATOM      3  N   UNL A   1      37.042  21.745  23.962  1.00  0.00    -0.356 N 
ATOM      4  C   UNL A   1      36.154  22.695  23.563  1.00  0.00     0.227 C 
ATOM      5  O   UNL A   1      36.483  23.400  22.603  1.00  0.00    -0.274 OA
ATOM      6  H   UNL A   1      37.813  21.631  23.362  1.00  0.00     0.163 HD
BRANCH   4   7
ATOM      7  C   UNL A   1      34.774  22.878  24.205  1.00  0.00     0.103 C 
ATOM      8  C   UNL A   1      32.721  24.041  23.457  1.00  0.00     0.106 C 
ATOM      9  C   UNL A   1      32.587  22.546  23.429  1.00  0.00    -0.006 C 
ATOM     10  C   UNL A   1      34.169  24.253  23.919  1.00  0.00     0.047 C 
ATOM     11  C   UNL A   1      33.704  21.915  23.807  1.00  0.00    -0.016 C 
BRANCH   8  12
ATOM     12  N   UNL A   1      32.466  24.526  22.115  1.00  0.00    -0.348 N 
ATOM     13  C   UNL A   1      31.931  25.686  21.646  1.00  0.00     0.243 C 
ATOM     14  O   UNL A   1      31.961  25.830  20.420  1.00  0.00    -0.273 OA
ATOM     15  H   UNL A   1      32.731  23.895  21.406  1.00  0.00     0.164 HD
BRANCH  13  16
ATOM     16  C   UNL A   1      31.489  26.850  22.552  1.00  0.00     0.182 C 
ATOM     17  O   UNL A   1      29.895  29.921  21.739  1.00  0.00    -0.262 OA
ATOM     18  C   UNL A   1      30.174  28.838  22.210  1.00  0.00     0.279 C 
ATOM     19  N   UNL A   1      31.271  28.106  21.874  1.00  0.00    -0.334 N 
ATOM     20  S   UNL A   1      29.204  27.974  23.369  1.00  0.00    -0.062 SA
ATOM     21  H   UNL A   1      31.901  28.424  21.188  1.00  0.00     0.165 HD
ATOM     22  C   UNL A   1      30.234  26.477  23.332  1.00  0.00     0.115 C 
ENDBRANCH  13  16
ENDBRANCH   8  12
ENDBRANCH   4   7
ENDBRANCH   2   3
ENDBRANCH   1   2
BRANCH   1  23
ATOM     23  C   UNL A   1      39.371  20.240  26.005  1.00  0.00     0.118 C 
BRANCH  23  24
ATOM     24  N   UNL A   1      40.409  19.216  26.022  1.00  0.00    -0.352 N 
ATOM     25  C   UNL A   1      41.776  19.338  26.103  1.00  0.00     0.251 C 
ATOM     26  H   UNL A   1      40.078  18.291  25.966  1.00  0.00     0.163 HD
ATOM     27  O   UNL A   1      42.478  18.350  25.898  1.00  0.00    -0.269 OA
BRANCH  25  28
ATOM     28  C   UNL A   1      42.404  20.640  26.416  1.00  0.00     0.039 A 
ATOM     29  C   UNL A   1      42.950  21.396  25.375  1.00  0.00     0.014 A 
ATOM     30  C   UNL A   1      42.485  21.106  27.731  1.00  0.00     0.014 A 
ATOM     31  C   UNL A   1      43.509  22.649  25.644  1.00  0.00     0.010 A 
ATOM     32  C   UNL A   1      42.967  22.388  27.985  1.00  0.00     0.010 A 
ATOM     33  C   UNL A   1      43.486  23.173  26.946  1.00  0.00    -0.014 A 
BRANCH  33  34
ATOM     34  C   UNL A   1      43.978  24.545  27.241  1.00  0.00     0.031 A 
ATOM     35  C   UNL A   1      43.031  25.603  27.744  1.00  0.00     0.074 A 
ATOM     36  C   UNL A   1      45.258  24.865  26.962  1.00  0.00     0.049 A 
ATOM     37  N   UNL A   1      43.259  26.870  27.974  1.00  0.00    -0.248 NA
ATOM     38  C   UNL A   1      41.641  25.189  27.996  1.00  0.00     0.031 C 
ATOM     39  C   UNL A   1      46.257  23.951  26.405  1.00  0.00     0.029 A 
ATOM     40  N   UNL A   1      45.930  26.056  27.080  1.00  0.00    -0.354 N 
ATOM     41  C   UNL A   1      42.039  27.411  28.360  1.00  0.00     0.074 A 
ATOM     42  C   UNL A   1      41.066  26.342  28.304  1.00  0.00     0.031 C 
ATOM     43  C   UNL A   1      47.412  24.612  26.232  1.00  0.00     0.029 A 
ATOM     44  C   UNL A   1      47.228  26.005  26.626  1.00  0.00     0.049 A 
ATOM     45  H   UNL A   1      45.523  26.871  27.454  1.00  0.00     0.167 HD
ATOM     46  C   UNL A   1      41.756  28.677  28.752  1.00  0.00     0.034 A 
ATOM     47  C   UNL A   1      48.161  26.972  26.520  1.00  0.00     0.034 A 
ATOM     48  C   UNL A   1      42.733  29.730  28.842  1.00  0.00     0.049 A 
ATOM     49  C   UNL A   1      47.827  28.365  26.981  1.00  0.00     0.074 A 
ATOM     50  C   UNL A   1      42.564  31.021  29.310  1.00  0.00     0.029 A 
ATOM     51  N   UNL A   1      44.056  29.619  28.445  1.00  0.00    -0.354 N 
ATOM     52  N   UNL A   1      46.708  28.819  27.489  1.00  0.00    -0.248 NA
ATOM     53  C   UNL A   1      48.894  29.372  26.883  1.00  0.00     0.031 C 
ATOM     54  C   UNL A   1      43.777  31.701  29.165  1.00  0.00     0.029 A 
ATOM     55  C   UNL A   1      44.712  30.822  28.641  1.00  0.00     0.049 A 
ATOM     56  H   UNL A   1      44.469  28.804  28.077  1.00  0.00     0.167 HD
ATOM     57  C   UNL A   1      46.946  30.152  27.805  1.00  0.00     0.074 A 
ATOM     58  C   UNL A   1      48.322  30.426  27.448  1.00  0.00     0.031 C 
ATOM     59  C   UNL A   1      46.097  31.070  28.329  1.00  0.00     0.034 A 
BRANCH  46  60
ATOM     60  C   UNL A   1      40.338  28.988  29.160  1.00  0.00     0.023 A 
ATOM     61  C   UNL A   1      39.385  29.311  28.172  1.00  0.00     0.012 A 
ATOM     62  C   UNL A   1      39.934  28.899  30.506  1.00  0.00     0.148 A 
ATOM     63  C   UNL A   1      38.061  29.578  28.521  1.00  0.00     0.002 A 
ATOM     64  C   UNL A   1      38.603  29.119  30.841  1.00  0.00     0.091 A 
ATOM     65  F   UNL A   1      40.857  28.607  31.433  1.00  0.00    -0.205 F 
ATOM     66  C   UNL A   1      37.669  29.472  29.853  1.00  0.00     0.022 A 
BRANCH  64  67
ATOM     67  S   UNL A   1      37.979  28.927  32.514  1.00  0.00     0.127 S 
ATOM     68  O   UNL A   1      36.585  29.341  32.358  1.00  0.00    -0.237 OA
ATOM     69  O   UNL A   1      38.165  27.495  32.749  1.00  0.00    -0.237 OA
ATOM     70  O   UNL A   1      38.798  29.792  33.352  1.00  0.00    -0.744 OA
ENDBRANCH  64  67
ENDBRANCH  46  60
BRANCH  47  71
ATOM     71  C   UNL A   1      49.520  26.643  26.004  1.00  0.00     0.023 A 
ATOM     72  C   UNL A   1      50.398  25.881  26.800  1.00  0.00     0.012 A 
ATOM     73  C   UNL A   1      49.939  27.059  24.725  1.00  0.00     0.148 A 
ATOM     74  C   UNL A   1      51.679  25.569  26.346  1.00  0.00     0.002 A 
ATOM     75  C   UNL A   1      51.197  26.696  24.256  1.00  0.00     0.091 A 
ATOM     76  F   UNL A   1      49.094  27.791  23.987  1.00  0.00    -0.205 F 
ATOM     77  C   UNL A   1      52.075  25.967  25.071  1.00  0.00     0.022 A 
BRANCH  75  78
ATOM     78  S   UNL A   1      51.743  27.055  22.583  1.00  0.00     0.127 S 
ATOM     79  O   UNL A   1      50.546  26.747  21.804  1.00  0.00    -0.237 OA
ATOM     80  O   UNL A   1      52.072  28.478  22.671  1.00  0.00    -0.237 OA
ATOM     81  O   UNL A   1      52.890  26.189  22.345  1.00  0.00    -0.744 OA
ENDBRANCH  75  78
ENDBRANCH  47  71
BRANCH  59  82
ATOM     82  C   UNL A   1      46.633  32.453  28.593  1.00  0.00     0.023 A 
ATOM     83  C   UNL A   1      47.203  32.759  29.845  1.00  0.00     0.012 A 
ATOM     84  C   UNL A   1      46.648  33.422  27.571  1.00  0.00     0.148 A 
ATOM     85  C   UNL A   1      47.751  34.019  30.084  1.00  0.00     0.002 A 
ATOM     86  C   UNL A   1      47.242  34.658  27.800  1.00  0.00     0.091 A 
ATOM     87  F   UNL A   1      46.086  33.116  26.392  1.00  0.00    -0.205 F 
ATOM     88  C   UNL A   1      47.782  34.962  29.060  1.00  0.00     0.022 A 
BRANCH  86  89
ATOM     89  S   UNL A   1      47.417  35.899  26.513  1.00  0.00     0.127 S 
ATOM     90  O   UNL A   1      46.024  36.265  26.262  1.00  0.00    -0.237 OA
ATOM     91  O   UNL A   1      48.207  36.930  27.186  1.00  0.00    -0.237 OA
ATOM     92  O   UNL A   1      48.096  35.240  25.406  1.00  0.00    -0.744 OA
ENDBRANCH  86  89
ENDBRANCH  59  82
ENDBRANCH  33  34
ENDBRANCH  25  28
ENDBRANCH  23  24
ENDBRANCH   1  23
TORSDOF 15
ENDMDL
