MODEL 1
REMARK VINA RESULT:     -12.7      0.000      0.000
REMARK SMILES Cc1cccc(NC(=O)COc2ccc(N3C[C@@H](C(=O)NCCCNC(=O)c4ccc(-c5c6nc(c(-c7cccc(S(=O)(=O)[O-])c7F)c7ccc([nH]7)c(-c7cccc(S(=O)(=O)[O-])c7F)c7nc(c(-c8cccc(S(=O)(=O)[O-])c8F)c8ccc5[nH]8)C=C7)C=C6)cc4)CC3=O)cc2)c1
REMARK SMILES IDX 22 1 21 2 19 3 20 4 18 6 16 7 17 8 92 9 91 10 93 11 15 12
REMARK SMILES IDX 12 13 13 14 95 15 14 16 94 17 11 18 10 19 8 20 7 21 9 23
REMARK SMILES IDX 6 24 1 25 2 26 3 27 96 28 4 29 5 30 23 31 24 32 25 33 26 34
REMARK SMILES IDX 27 36 28 37 29 38 90 39 30 40 89 41 31 42 32 43 33 44 83 45
REMARK SMILES IDX 34 46 88 47 82 48 84 49 35 50 87 51 81 52 80 53 36 55 68 56
REMARK SMILES IDX 48 57 67 58 49 59 52 60 66 61 85 62 50 63 51 64 65 66 86 67
REMARK SMILES IDX 53 68 37 69 38 70 46 71 39 72 41 73 47 74 40 75 42 76 43 77
REMARK SMILES IDX 44 78 45 79 69 80 70 81 78 82 71 83 73 84 79 85 72 86 74 87
REMARK SMILES IDX 75 88 76 89 77 90 54 91 55 92 63 93 56 94 58 95 64 96 57 97
REMARK SMILES IDX 59 98 60 99 61 100 62 101
REMARK H PARENT 21 5 7 22 25 35 84 54 52 65
REMARK Flexibility Score: inf
ROOT
ATOM      1  C   UNL A   1      32.680  29.744  25.933  1.00  0.00     0.117 C 
ENDROOT
BRANCH   1   2
ATOM      2  N   UNL A   1      31.871  29.048  26.931  1.00  0.00    -0.356 N 
ATOM      3  C   UNL A   1      31.235  27.849  26.925  1.00  0.00     0.225 C 
ATOM      4  O   UNL A   1      30.736  27.457  27.984  1.00  0.00    -0.275 OA
ATOM      5  H   UNL A   1      31.768  29.547  27.773  1.00  0.00     0.163 HD
BRANCH   3   6
ATOM      6  C   UNL A   1      31.124  26.976  25.694  1.00  0.00     0.107 C 
ATOM      7  N   UNL A   1      32.882  25.870  24.580  1.00  0.00    -0.312 N 
ATOM      8  C   UNL A   1      32.023  25.760  25.736  1.00  0.00     0.139 C 
ATOM      9  C   UNL A   1      32.614  27.006  23.817  1.00  0.00     0.227 C 
ATOM     10  C   UNL A   1      31.408  27.698  24.392  1.00  0.00     0.116 C 
ATOM     11  O   UNL A   1      33.185  27.394  22.807  1.00  0.00    -0.274 OA
BRANCH   7  12
ATOM     12  C   UNL A   1      33.919  24.941  24.343  1.00  0.00     0.044 A 
ATOM     13  C   UNL A   1      36.026  23.133  23.870  1.00  0.00     0.120 A 
ATOM     14  C   UNL A   1      36.000  23.894  25.035  1.00  0.00     0.048 A 
ATOM     15  C   UNL A   1      34.989  23.255  22.950  1.00  0.00     0.048 A 
ATOM     16  C   UNL A   1      34.973  24.814  25.255  1.00  0.00     0.030 A 
ATOM     17  C   UNL A   1      33.932  24.140  23.198  1.00  0.00     0.030 A 
BRANCH  13  18
ATOM     18  O   UNL A   1      37.063  22.253  23.782  1.00  0.00    -0.484 OA
BRANCH  18  19
ATOM     19  C   UNL A   1      37.330  21.452  24.918  1.00  0.00     0.329 C 
BRANCH  19  20
ATOM     20  C   UNL A   1      36.846  20.005  24.964  1.00  0.00     0.262 C 
ATOM     21  N   UNL A   1      35.533  19.646  24.994  1.00  0.00    -0.323 N 
ATOM     22  H   UNL A   1      35.406  18.674  24.915  1.00  0.00     0.170 HD
ATOM     23  O   UNL A   1      37.674  19.084  24.966  1.00  0.00    -0.271 OA
BRANCH  21  24
ATOM     24  C   UNL A   1      34.320  20.342  25.113  1.00  0.00     0.041 A 
ATOM     25  C   UNL A   1      32.861  22.696  27.750  1.00  0.00     0.044 C 
ATOM     26  C   UNL A   1      33.004  21.864  26.511  1.00  0.00    -0.049 A 
ATOM     27  C   UNL A   1      31.979  21.836  25.565  1.00  0.00     0.003 A 
ATOM     28  C   UNL A   1      34.164  21.111  26.278  1.00  0.00     0.029 A 
ATOM     29  C   UNL A   1      32.126  21.090  24.399  1.00  0.00     0.002 A 
ATOM     30  C   UNL A   1      33.299  20.362  24.167  1.00  0.00     0.026 A 
ENDBRANCH  21  24
ENDBRANCH  19  20
ENDBRANCH  18  19
ENDBRANCH  13  18
ENDBRANCH   7  12
ENDBRANCH   3   6
ENDBRANCH   1   2
BRANCH   1  31
ATOM     31  C   UNL A   1      34.092  30.128  26.399  1.00  0.00     0.042 C 
BRANCH  31  32
ATOM     32  C   UNL A   1      34.056  30.917  27.685  1.00  0.00     0.118 C 
BRANCH  32  33
ATOM     33  N   UNL A   1      35.107  31.928  27.751  1.00  0.00    -0.352 N 
ATOM     34  C   UNL A   1      36.370  31.866  28.305  1.00  0.00     0.251 C 
ATOM     35  H   UNL A   1      34.879  32.791  27.335  1.00  0.00     0.163 HD
ATOM     36  O   UNL A   1      36.902  32.931  28.632  1.00  0.00    -0.269 OA
BRANCH  34  37
ATOM     37  C   UNL A   1      37.090  30.582  28.431  1.00  0.00     0.039 A 
ATOM     38  C   UNL A   1      36.930  29.744  29.539  1.00  0.00     0.014 A 
ATOM     39  C   UNL A   1      38.125  30.317  27.547  1.00  0.00     0.014 A 
ATOM     40  C   UNL A   1      37.943  28.830  29.833  1.00  0.00     0.010 A 
ATOM     41  C   UNL A   1      38.895  29.210  27.638  1.00  0.00     0.010 A 
ATOM     42  C   UNL A   1      38.970  28.683  28.910  1.00  0.00    -0.014 A 
BRANCH  42  43
ATOM     43  C   UNL A   1      40.312  28.207  29.158  1.00  0.00     0.031 A 
ATOM     44  C   UNL A   1      40.606  26.811  28.885  1.00  0.00     0.074 A 
ATOM     45  C   UNL A   1      41.266  29.174  29.154  1.00  0.00     0.049 A 
ATOM     46  N   UNL A   1      41.721  26.256  29.182  1.00  0.00    -0.248 NA
ATOM     47  C   UNL A   1      39.654  25.933  28.220  1.00  0.00     0.031 C 
ATOM     48  C   UNL A   1      42.644  29.116  28.684  1.00  0.00     0.029 A 
ATOM     49  N   UNL A   1      41.131  30.496  29.565  1.00  0.00    -0.354 N 
ATOM     50  C   UNL A   1      41.766  25.083  28.469  1.00  0.00     0.074 A 
ATOM     51  C   UNL A   1      40.417  24.861  28.001  1.00  0.00     0.031 C 
ATOM     52  C   UNL A   1      43.283  30.244  29.056  1.00  0.00     0.029 A 
ATOM     53  C   UNL A   1      42.391  30.971  29.943  1.00  0.00     0.049 A 
ATOM     54  H   UNL A   1      40.292  31.012  29.586  1.00  0.00     0.167 HD
ATOM     55  C   UNL A   1      42.985  24.555  28.179  1.00  0.00     0.034 A 
ATOM     56  C   UNL A   1      42.608  31.191  31.280  1.00  0.00     0.034 A 
ATOM     57  C   UNL A   1      44.062  25.430  28.692  1.00  0.00     0.049 A 
ATOM     58  C   UNL A   1      43.552  30.165  31.900  1.00  0.00     0.074 A 
ATOM     59  C   UNL A   1      44.902  26.367  28.107  1.00  0.00     0.029 A 
ATOM     60  N   UNL A   1      44.135  25.674  30.058  1.00  0.00    -0.354 N 
ATOM     61  N   UNL A   1      44.153  29.200  31.256  1.00  0.00    -0.248 NA
ATOM     62  C   UNL A   1      43.826  30.117  33.331  1.00  0.00     0.031 C 
ATOM     63  C   UNL A   1      45.470  27.174  29.141  1.00  0.00     0.029 A 
ATOM     64  C   UNL A   1      44.999  26.718  30.359  1.00  0.00     0.049 A 
ATOM     65  H   UNL A   1      43.632  25.165  30.735  1.00  0.00     0.167 HD
ATOM     66  C   UNL A   1      44.695  28.305  32.148  1.00  0.00     0.074 A 
ATOM     67  C   UNL A   1      44.496  28.958  33.436  1.00  0.00     0.031 C 
ATOM     68  C   UNL A   1      45.195  27.081  31.764  1.00  0.00     0.034 A 
BRANCH  55  69
ATOM     69  C   UNL A   1      43.197  23.452  27.161  1.00  0.00     0.023 A 
ATOM     70  C   UNL A   1      43.896  23.791  25.984  1.00  0.00     0.012 A 
ATOM     71  C   UNL A   1      42.749  22.112  27.256  1.00  0.00     0.148 A 
ATOM     72  C   UNL A   1      44.061  22.895  24.923  1.00  0.00     0.002 A 
ATOM     73  C   UNL A   1      42.850  21.236  26.170  1.00  0.00     0.091 A 
ATOM     74  F   UNL A   1      42.295  21.641  28.424  1.00  0.00    -0.205 F 
ATOM     75  C   UNL A   1      43.507  21.628  25.001  1.00  0.00     0.022 A 
BRANCH  73  76
ATOM     76  S   UNL A   1      42.089  19.601  26.157  1.00  0.00     0.127 S 
ATOM     77  O   UNL A   1      42.517  19.052  27.446  1.00  0.00    -0.237 OA
ATOM     78  O   UNL A   1      40.665  19.915  26.077  1.00  0.00    -0.237 OA
ATOM     79  O   UNL A   1      42.650  18.904  25.005  1.00  0.00    -0.744 OA
ENDBRANCH  73  76
ENDBRANCH  55  69
BRANCH  56  80
ATOM     80  C   UNL A   1      41.357  31.729  31.940  1.00  0.00     0.023 A 
ATOM     81  C   UNL A   1      40.824  32.937  31.417  1.00  0.00     0.012 A 
ATOM     82  C   UNL A   1      40.495  30.876  32.654  1.00  0.00     0.148 A 
ATOM     83  C   UNL A   1      39.445  33.173  31.421  1.00  0.00     0.002 A 
ATOM     84  C   UNL A   1      39.124  31.132  32.675  1.00  0.00     0.091 A 
ATOM     85  F   UNL A   1      41.003  29.791  33.252  1.00  0.00    -0.205 F 
ATOM     86  C   UNL A   1      38.590  32.244  32.007  1.00  0.00     0.022 A 
BRANCH  84  87
ATOM     87  S   UNL A   1      38.003  29.976  33.477  1.00  0.00     0.127 S 
ATOM     88  O   UNL A   1      38.220  30.290  34.887  1.00  0.00    -0.237 OA
ATOM     89  O   UNL A   1      36.691  30.366  32.963  1.00  0.00    -0.237 OA
ATOM     90  O   UNL A   1      38.448  28.663  33.031  1.00  0.00    -0.744 OA
ENDBRANCH  84  87
ENDBRANCH  56  80
BRANCH  68  91
ATOM     91  C   UNL A   1      45.843  26.053  32.696  1.00  0.00     0.023 A 
ATOM     92  C   UNL A   1      47.234  25.853  32.742  1.00  0.00     0.012 A 
ATOM     93  C   UNL A   1      45.073  25.179  33.517  1.00  0.00     0.148 A 
ATOM     94  C   UNL A   1      47.835  24.980  33.659  1.00  0.00     0.002 A 
ATOM     95  C   UNL A   1      45.666  24.309  34.427  1.00  0.00     0.091 A 
ATOM     96  F   UNL A   1      43.747  25.106  33.372  1.00  0.00    -0.205 F 
ATOM     97  C   UNL A   1      47.053  24.232  34.525  1.00  0.00     0.022 A 
BRANCH  95  98
ATOM     98  S   UNL A   1      44.698  23.233  35.495  1.00  0.00     0.127 S 
ATOM     99  O   UNL A   1      43.805  24.194  36.143  1.00  0.00    -0.237 OA
ATOM    100  O   UNL A   1      44.046  22.352  34.525  1.00  0.00    -0.237 OA
ATOM    101  O   UNL A   1      45.647  22.568  36.376  1.00  0.00    -0.744 OA
ENDBRANCH  95  98
ENDBRANCH  68  91
ENDBRANCH  42  43
ENDBRANCH  34  37
ENDBRANCH  32  33
ENDBRANCH  31  32
ENDBRANCH   1  31
TORSDOF 18
ENDMDL
MODEL 2
REMARK VINA RESULT:     -12.5      1.349      2.101
REMARK SMILES Cc1cccc(NC(=O)COc2ccc(N3C[C@@H](C(=O)NCCCNC(=O)c4ccc(-c5c6nc(c(-c7cccc(S(=O)(=O)[O-])c7F)c7ccc([nH]7)c(-c7cccc(S(=O)(=O)[O-])c7F)c7nc(c(-c8cccc(S(=O)(=O)[O-])c8F)c8ccc5[nH]8)C=C7)C=C6)cc4)CC3=O)cc2)c1
REMARK SMILES IDX 22 1 21 2 19 3 20 4 18 6 16 7 17 8 92 9 91 10 93 11 15 12
REMARK SMILES IDX 12 13 13 14 95 15 14 16 94 17 11 18 10 19 8 20 7 21 9 23
REMARK SMILES IDX 6 24 1 25 2 26 3 27 96 28 4 29 5 30 23 31 24 32 25 33 26 34
REMARK SMILES IDX 27 36 28 37 29 38 90 39 30 40 89 41 31 42 32 43 33 44 83 45
REMARK SMILES IDX 34 46 88 47 82 48 84 49 35 50 87 51 81 52 80 53 36 55 68 56
REMARK SMILES IDX 48 57 67 58 49 59 52 60 66 61 85 62 50 63 51 64 65 66 86 67
REMARK SMILES IDX 53 68 37 69 38 70 46 71 39 72 41 73 47 74 40 75 42 76 43 77
REMARK SMILES IDX 44 78 45 79 69 80 70 81 78 82 71 83 73 84 79 85 72 86 74 87
REMARK SMILES IDX 75 88 76 89 77 90 54 91 55 92 63 93 56 94 58 95 64 96 57 97
REMARK SMILES IDX 59 98 60 99 61 100 62 101
REMARK H PARENT 21 5 7 22 25 35 84 54 52 65
REMARK Flexibility Score: inf
ROOT
ATOM      1  C   UNL A   1      32.344  29.791  25.616  1.00  0.00     0.117 C 
ENDROOT
BRANCH   1   2
ATOM      2  N   UNL A   1      31.082  30.041  24.923  1.00  0.00    -0.356 N 
ATOM      3  C   UNL A   1      30.594  29.629  23.725  1.00  0.00     0.225 C 
ATOM      4  O   UNL A   1      29.417  29.893  23.462  1.00  0.00    -0.275 OA
ATOM      5  H   UNL A   1      30.464  30.621  25.423  1.00  0.00     0.163 HD
BRANCH   3   6
ATOM      6  C   UNL A   1      31.417  28.858  22.716  1.00  0.00     0.107 C 
ATOM      7  N   UNL A   1      32.070  26.598  22.854  1.00  0.00    -0.312 N 
ATOM      8  C   UNL A   1      30.943  27.436  22.515  1.00  0.00     0.139 C 
ATOM      9  C   UNL A   1      33.194  27.333  23.230  1.00  0.00     0.227 C 
ATOM     10  C   UNL A   1      32.896  28.796  23.038  1.00  0.00     0.116 C 
ATOM     11  O   UNL A   1      34.283  26.919  23.601  1.00  0.00    -0.274 OA
BRANCH   7  12
ATOM     12  C   UNL A   1      31.964  25.189  22.864  1.00  0.00     0.044 A 
ATOM     13  C   UNL A   1      31.754  22.381  22.827  1.00  0.00     0.120 A 
ATOM     14  C   UNL A   1      32.891  23.009  22.327  1.00  0.00     0.048 A 
ATOM     15  C   UNL A   1      30.730  23.151  23.368  1.00  0.00     0.048 A 
ATOM     16  C   UNL A   1      32.982  24.402  22.316  1.00  0.00     0.030 A 
ATOM     17  C   UNL A   1      30.846  24.547  23.404  1.00  0.00     0.030 A 
BRANCH  13  18
ATOM     18  O   UNL A   1      31.795  21.019  22.808  1.00  0.00    -0.484 OA
BRANCH  18  19
ATOM     19  C   UNL A   1      32.830  20.392  23.541  1.00  0.00     0.329 C 
BRANCH  19  20
ATOM     20  C   UNL A   1      32.665  20.145  25.039  1.00  0.00     0.262 C 
ATOM     21  N   UNL A   1      32.998  21.052  25.997  1.00  0.00    -0.323 N 
ATOM     22  H   UNL A   1      32.726  20.766  26.899  1.00  0.00     0.170 HD
ATOM     23  O   UNL A   1      32.195  19.068  25.431  1.00  0.00    -0.271 OA
BRANCH  21  24
ATOM     24  C   UNL A   1      33.639  22.300  25.998  1.00  0.00     0.041 A 
ATOM     25  C   UNL A   1      37.277  23.412  25.606  1.00  0.00     0.044 C 
ATOM     26  C   UNL A   1      35.791  23.454  25.803  1.00  0.00    -0.049 A 
ATOM     27  C   UNL A   1      35.141  24.679  25.952  1.00  0.00     0.003 A 
ATOM     28  C   UNL A   1      35.034  22.275  25.833  1.00  0.00     0.029 A 
ATOM     29  C   UNL A   1      33.757  24.720  26.100  1.00  0.00     0.002 A 
ATOM     30  C   UNL A   1      33.009  23.537  26.105  1.00  0.00     0.026 A 
ENDBRANCH  21  24
ENDBRANCH  19  20
ENDBRANCH  18  19
ENDBRANCH  13  18
ENDBRANCH   7  12
ENDBRANCH   3   6
ENDBRANCH   1   2
BRANCH   1  31
ATOM     31  C   UNL A   1      32.678  30.792  26.732  1.00  0.00     0.042 C 
BRANCH  31  32
ATOM     32  C   UNL A   1      33.920  30.386  27.488  1.00  0.00     0.118 C 
BRANCH  32  33
ATOM     33  N   UNL A   1      34.950  31.420  27.469  1.00  0.00    -0.352 N 
ATOM     34  C   UNL A   1      36.227  31.416  27.992  1.00  0.00     0.251 C 
ATOM     35  H   UNL A   1      34.693  32.253  27.011  1.00  0.00     0.163 HD
ATOM     36  O   UNL A   1      36.744  32.508  28.244  1.00  0.00    -0.269 OA
BRANCH  34  37
ATOM     37  C   UNL A   1      36.978  30.155  28.171  1.00  0.00     0.039 A 
ATOM     38  C   UNL A   1      36.859  29.375  29.326  1.00  0.00     0.014 A 
ATOM     39  C   UNL A   1      38.000  29.864  27.280  1.00  0.00     0.014 A 
ATOM     40  C   UNL A   1      37.898  28.499  29.647  1.00  0.00     0.010 A 
ATOM     41  C   UNL A   1      38.796  28.780  27.414  1.00  0.00     0.010 A 
ATOM     42  C   UNL A   1      38.908  28.324  28.711  1.00  0.00    -0.014 A 
BRANCH  42  43
ATOM     43  C   UNL A   1      40.266  27.890  28.955  1.00  0.00     0.031 A 
ATOM     44  C   UNL A   1      40.593  26.495  28.718  1.00  0.00     0.074 A 
ATOM     45  C   UNL A   1      41.193  28.881  28.911  1.00  0.00     0.049 A 
ATOM     46  N   UNL A   1      41.725  25.978  29.016  1.00  0.00    -0.248 NA
ATOM     47  C   UNL A   1      39.656  25.575  28.089  1.00  0.00     0.031 C 
ATOM     48  C   UNL A   1      42.567  28.846  28.426  1.00  0.00     0.029 A 
ATOM     49  N   UNL A   1      41.029  30.211  29.287  1.00  0.00    -0.354 N 
ATOM     50  C   UNL A   1      41.792  24.787  28.335  1.00  0.00     0.074 A 
ATOM     51  C   UNL A   1      40.444  24.517  27.891  1.00  0.00     0.031 C 
ATOM     52  C   UNL A   1      43.181  30.000  28.758  1.00  0.00     0.029 A 
ATOM     53  C   UNL A   1      42.280  30.728  29.636  1.00  0.00     0.049 A 
ATOM     54  H   UNL A   1      40.177  30.704  29.304  1.00  0.00     0.167 HD
ATOM     55  C   UNL A   1      43.021  24.282  28.044  1.00  0.00     0.034 A 
ATOM     56  C   UNL A   1      42.507  30.992  30.963  1.00  0.00     0.034 A 
ATOM     57  C   UNL A   1      44.081  25.199  28.520  1.00  0.00     0.049 A 
ATOM     58  C   UNL A   1      43.486  30.008  31.600  1.00  0.00     0.074 A 
ATOM     59  C   UNL A   1      44.889  26.141  27.898  1.00  0.00     0.029 A 
ATOM     60  N   UNL A   1      44.164  25.484  29.877  1.00  0.00    -0.354 N 
ATOM     61  N   UNL A   1      44.104  29.042  30.975  1.00  0.00    -0.248 NA
ATOM     62  C   UNL A   1      43.778  30.008  33.028  1.00  0.00     0.031 C 
ATOM     63  C   UNL A   1      45.448  26.991  28.902  1.00  0.00     0.029 A 
ATOM     64  C   UNL A   1      45.003  26.558  30.137  1.00  0.00     0.049 A 
ATOM     65  H   UNL A   1      43.683  24.981  30.574  1.00  0.00     0.167 HD
ATOM     66  C   UNL A   1      44.680  28.187  31.885  1.00  0.00     0.074 A 
ATOM     67  C   UNL A   1      44.479  28.870  33.157  1.00  0.00     0.031 C 
ATOM     68  C   UNL A   1      45.207  26.965  31.529  1.00  0.00     0.034 A 
BRANCH  55  69
ATOM     69  C   UNL A   1      43.250  23.157  27.055  1.00  0.00     0.023 A 
ATOM     70  C   UNL A   1      43.905  23.486  25.850  1.00  0.00     0.012 A 
ATOM     71  C   UNL A   1      42.858  21.804  27.203  1.00  0.00     0.148 A 
ATOM     72  C   UNL A   1      44.076  22.564  24.813  1.00  0.00     0.002 A 
ATOM     73  C   UNL A   1      42.965  20.899  26.142  1.00  0.00     0.091 A 
ATOM     74  F   UNL A   1      42.454  21.354  28.398  1.00  0.00    -0.205 F 
ATOM     75  C   UNL A   1      43.575  21.279  24.945  1.00  0.00     0.022 A 
BRANCH  73  76
ATOM     76  S   UNL A   1      42.269  19.236  26.199  1.00  0.00     0.127 S 
ATOM     77  O   UNL A   1      42.474  18.865  27.602  1.00  0.00    -0.237 OA
ATOM     78  O   UNL A   1      40.874  19.465  25.834  1.00  0.00    -0.237 OA
ATOM     79  O   UNL A   1      43.049  18.440  25.260  1.00  0.00    -0.744 OA
ENDBRANCH  73  76
ENDBRANCH  55  69
BRANCH  56  80
ATOM     80  C   UNL A   1      41.250  31.516  31.624  1.00  0.00     0.023 A 
ATOM     81  C   UNL A   1      40.680  32.694  31.075  1.00  0.00     0.012 A 
ATOM     82  C   UNL A   1      40.419  30.661  32.372  1.00  0.00     0.148 A 
ATOM     83  C   UNL A   1      39.296  32.895  31.090  1.00  0.00     0.002 A 
ATOM     84  C   UNL A   1      39.043  30.882  32.403  1.00  0.00     0.091 A 
ATOM     85  F   UNL A   1      40.963  29.606  32.993  1.00  0.00    -0.205 F 
ATOM     86  C   UNL A   1      38.473  31.961  31.712  1.00  0.00     0.022 A 
BRANCH  84  87
ATOM     87  S   UNL A   1      37.962  29.721  33.250  1.00  0.00     0.127 S 
ATOM     88  O   UNL A   1      38.557  28.441  32.874  1.00  0.00    -0.237 OA
ATOM     89  O   UNL A   1      38.124  30.075  34.660  1.00  0.00    -0.237 OA
ATOM     90  O   UNL A   1      36.635  29.998  32.718  1.00  0.00    -0.744 OA
ENDBRANCH  84  87
ENDBRANCH  56  80
BRANCH  68  91
ATOM     91  C   UNL A   1      45.893  25.981  32.481  1.00  0.00     0.023 A 
ATOM     92  C   UNL A   1      47.291  25.846  32.542  1.00  0.00     0.012 A 
ATOM     93  C   UNL A   1      45.157  25.083  33.308  1.00  0.00     0.148 A 
ATOM     94  C   UNL A   1      47.923  25.015  33.477  1.00  0.00     0.002 A 
ATOM     95  C   UNL A   1      45.781  24.255  34.235  1.00  0.00     0.091 A 
ATOM     96  F   UNL A   1      43.837  24.947  33.151  1.00  0.00    -0.205 F 
ATOM     97  C   UNL A   1      47.168  24.244  34.346  1.00  0.00     0.022 A 
BRANCH  95  98
ATOM     98  S   UNL A   1      44.853  23.150  35.309  1.00  0.00     0.127 S 
ATOM     99  O   UNL A   1      44.270  22.223  34.338  1.00  0.00    -0.237 OA
ATOM    100  O   UNL A   1      45.911  22.576  36.140  1.00  0.00    -0.237 OA
ATOM    101  O   UNL A   1      43.900  23.981  36.028  1.00  0.00    -0.744 OA
ENDBRANCH  95  98
ENDBRANCH  68  91
ENDBRANCH  42  43
ENDBRANCH  34  37
ENDBRANCH  32  33
ENDBRANCH  31  32
ENDBRANCH   1  31
TORSDOF 18
ENDMDL
MODEL 3
REMARK VINA RESULT:     -12.4      3.397      4.616
REMARK SMILES Cc1cccc(NC(=O)COc2ccc(N3C[C@@H](C(=O)NCCCNC(=O)c4ccc(-c5c6nc(c(-c7cccc(S(=O)(=O)[O-])c7F)c7ccc([nH]7)c(-c7cccc(S(=O)(=O)[O-])c7F)c7nc(c(-c8cccc(S(=O)(=O)[O-])c8F)c8ccc5[nH]8)C=C7)C=C6)cc4)CC3=O)cc2)c1
REMARK SMILES IDX 22 1 21 2 19 3 20 4 18 6 16 7 17 8 92 9 91 10 93 11 15 12
REMARK SMILES IDX 12 13 13 14 95 15 14 16 94 17 11 18 10 19 8 20 7 21 9 23
REMARK SMILES IDX 6 24 1 25 2 26 3 27 96 28 4 29 5 30 23 31 24 32 25 33 26 34
REMARK SMILES IDX 27 36 28 37 29 38 90 39 30 40 89 41 31 42 32 43 33 44 83 45
REMARK SMILES IDX 34 46 88 47 82 48 84 49 35 50 87 51 81 52 80 53 36 55 68 56
REMARK SMILES IDX 48 57 67 58 49 59 52 60 66 61 85 62 50 63 51 64 65 66 86 67
REMARK SMILES IDX 53 68 37 69 38 70 46 71 39 72 41 73 47 74 40 75 42 76 43 77
REMARK SMILES IDX 44 78 45 79 69 80 70 81 78 82 71 83 73 84 79 85 72 86 74 87
REMARK SMILES IDX 75 88 76 89 77 90 54 91 55 92 63 93 56 94 58 95 64 96 57 97
REMARK SMILES IDX 59 98 60 99 61 100 62 101
REMARK H PARENT 21 5 7 22 25 35 84 54 52 65
REMARK Flexibility Score: inf
ROOT
ATOM      1  C   UNL A   1      33.530  30.396  27.292  1.00  0.00     0.117 C 
ENDROOT
BRANCH   1   2
ATOM      2  N   UNL A   1      34.054  29.793  26.067  1.00  0.00    -0.356 N 
ATOM      3  C   UNL A   1      33.705  28.684  25.367  1.00  0.00     0.225 C 
ATOM      4  O   UNL A   1      34.248  28.500  24.274  1.00  0.00    -0.275 OA
ATOM      5  H   UNL A   1      34.805  30.291  25.672  1.00  0.00     0.163 HD
BRANCH   3   6
ATOM      6  C   UNL A   1      32.684  27.682  25.857  1.00  0.00     0.107 C 
ATOM      7  N   UNL A   1      32.048  25.674  24.799  1.00  0.00    -0.312 N 
ATOM      8  C   UNL A   1      33.090  26.244  25.621  1.00  0.00     0.139 C 
ATOM      9  C   UNL A   1      31.034  26.587  24.505  1.00  0.00     0.227 C 
ATOM     10  C   UNL A   1      31.302  27.860  25.261  1.00  0.00     0.116 C 
ATOM     11  O   UNL A   1      30.041  26.421  23.812  1.00  0.00    -0.274 OA
BRANCH   7  12
ATOM     12  C   UNL A   1      32.139  24.354  24.305  1.00  0.00     0.044 A 
ATOM     13  C   UNL A   1      32.341  21.704  23.372  1.00  0.00     0.120 A 
ATOM     14  C   UNL A   1      31.500  22.013  24.437  1.00  0.00     0.048 A 
ATOM     15  C   UNL A   1      33.064  22.720  22.755  1.00  0.00     0.048 A 
ATOM     16  C   UNL A   1      31.424  23.321  24.921  1.00  0.00     0.030 A 
ATOM     17  C   UNL A   1      32.946  24.040  23.208  1.00  0.00     0.030 A 
BRANCH  13  18
ATOM     18  O   UNL A   1      32.309  20.401  22.975  1.00  0.00    -0.484 OA
BRANCH  18  19
ATOM     19  C   UNL A   1      32.362  19.415  23.988  1.00  0.00     0.329 C 
BRANCH  19  20
ATOM     20  C   UNL A   1      33.697  18.777  24.365  1.00  0.00     0.262 C 
ATOM     21  N   UNL A   1      34.652  19.403  25.107  1.00  0.00    -0.323 N 
ATOM     22  H   UNL A   1      35.398  18.806  25.342  1.00  0.00     0.170 HD
ATOM     23  O   UNL A   1      33.948  17.622  23.996  1.00  0.00    -0.271 OA
BRANCH  21  24
ATOM     24  C   UNL A   1      34.818  20.701  25.614  1.00  0.00     0.041 A 
ATOM     25  C   UNL A   1      36.994  23.680  24.608  1.00  0.00     0.044 C 
ATOM     26  C   UNL A   1      36.005  22.827  25.344  1.00  0.00    -0.049 A 
ATOM     27  C   UNL A   1      35.313  23.345  26.439  1.00  0.00     0.003 A 
ATOM     28  C   UNL A   1      35.755  21.506  24.945  1.00  0.00     0.029 A 
ATOM     29  C   UNL A   1      34.371  22.563  27.101  1.00  0.00     0.002 A 
ATOM     30  C   UNL A   1      34.112  21.254  26.678  1.00  0.00     0.026 A 
ENDBRANCH  21  24
ENDBRANCH  19  20
ENDBRANCH  18  19
ENDBRANCH  13  18
ENDBRANCH   7  12
ENDBRANCH   3   6
ENDBRANCH   1   2
BRANCH   1  31
ATOM     31  C   UNL A   1      34.591  31.018  28.211  1.00  0.00     0.042 C 
BRANCH  31  32
ATOM     32  C   UNL A   1      34.916  32.435  27.804  1.00  0.00     0.118 C 
BRANCH  32  33
ATOM     33  N   UNL A   1      34.191  33.425  28.594  1.00  0.00    -0.352 N 
ATOM     34  C   UNL A   1      34.360  33.813  29.908  1.00  0.00     0.251 C 
ATOM     35  H   UNL A   1      33.466  33.888  28.115  1.00  0.00     0.163 HD
ATOM     36  O   UNL A   1      33.391  34.320  30.481  1.00  0.00    -0.269 OA
BRANCH  34  37
ATOM     37  C   UNL A   1      35.672  33.700  30.579  1.00  0.00     0.039 A 
ATOM     38  C   UNL A   1      36.824  34.307  30.068  1.00  0.00     0.014 A 
ATOM     39  C   UNL A   1      35.811  32.776  31.603  1.00  0.00     0.014 A 
ATOM     40  C   UNL A   1      38.067  33.794  30.443  1.00  0.00     0.010 A 
ATOM     41  C   UNL A   1      36.992  32.540  32.216  1.00  0.00     0.010 A 
ATOM     42  C   UNL A   1      38.095  32.825  31.436  1.00  0.00    -0.014 A 
BRANCH  42  43
ATOM     43  C   UNL A   1      39.118  31.829  31.665  1.00  0.00     0.031 A 
ATOM     44  C   UNL A   1      39.011  30.562  30.963  1.00  0.00     0.074 A 
ATOM     45  C   UNL A   1      40.300  32.325  32.113  1.00  0.00     0.049 A 
ATOM     46  N   UNL A   1      39.789  29.570  31.183  1.00  0.00    -0.248 NA
ATOM     47  C   UNL A   1      38.018  30.333  29.924  1.00  0.00     0.031 C 
ATOM     48  C   UNL A   1      41.660  31.886  31.824  1.00  0.00     0.029 A 
ATOM     49  N   UNL A   1      40.496  33.429  32.938  1.00  0.00    -0.354 N 
ATOM     50  C   UNL A   1      39.629  28.717  30.118  1.00  0.00     0.074 A 
ATOM     51  C   UNL A   1      38.431  29.160  29.442  1.00  0.00     0.031 C 
ATOM     52  C   UNL A   1      42.514  32.537  32.640  1.00  0.00     0.029 A 
ATOM     53  C   UNL A   1      41.713  33.267  33.608  1.00  0.00     0.049 A 
ATOM     54  H   UNL A   1      39.884  34.194  33.034  1.00  0.00     0.167 HD
ATOM     55  C   UNL A   1      40.650  27.872  29.813  1.00  0.00     0.034 A 
ATOM     56  C   UNL A   1      41.663  33.006  34.954  1.00  0.00     0.034 A 
ATOM     57  C   UNL A   1      41.793  28.095  30.726  1.00  0.00     0.049 A 
ATOM     58  C   UNL A   1      42.058  31.570  35.290  1.00  0.00     0.074 A 
ATOM     59  C   UNL A   1      43.001  28.770  30.610  1.00  0.00     0.029 A 
ATOM     60  N   UNL A   1      41.612  27.901  32.090  1.00  0.00    -0.354 N 
ATOM     61  N   UNL A   1      42.459  30.672  34.429  1.00  0.00    -0.248 NA
ATOM     62  C   UNL A   1      41.953  31.023  36.637  1.00  0.00     0.031 C 
ATOM     63  C   UNL A   1      43.531  28.979  31.921  1.00  0.00     0.029 A 
ATOM     64  C   UNL A   1      42.664  28.413  32.837  1.00  0.00     0.049 A 
ATOM     65  H   UNL A   1      40.828  27.451  32.481  1.00  0.00     0.167 HD
ATOM     66  C   UNL A   1      42.460  29.428  35.014  1.00  0.00     0.074 A 
ATOM     67  C   UNL A   1      42.177  29.718  36.414  1.00  0.00     0.031 C 
ATOM     68  C   UNL A   1      42.623  28.266  34.293  1.00  0.00     0.034 A 
BRANCH  55  69
ATOM     69  C   UNL A   1      40.739  27.104  28.510  1.00  0.00     0.023 A 
ATOM     70  C   UNL A   1      39.768  26.107  28.286  1.00  0.00     0.012 A 
ATOM     71  C   UNL A   1      41.711  27.269  27.492  1.00  0.00     0.148 A 
ATOM     72  C   UNL A   1      39.806  25.257  27.176  1.00  0.00     0.002 A 
ATOM     73  C   UNL A   1      41.792  26.375  26.419  1.00  0.00     0.091 A 
ATOM     74  F   UNL A   1      42.515  28.338  27.505  1.00  0.00    -0.205 F 
ATOM     75  C   UNL A   1      40.839  25.368  26.260  1.00  0.00     0.022 A 
BRANCH  73  76
ATOM     76  S   UNL A   1      43.147  26.398  25.228  1.00  0.00     0.127 S 
ATOM     77  O   UNL A   1      43.049  25.067  24.624  1.00  0.00    -0.237 OA
ATOM     78  O   UNL A   1      42.768  27.493  24.339  1.00  0.00    -0.237 OA
ATOM     79  O   UNL A   1      44.364  26.604  26.005  1.00  0.00    -0.744 OA
ENDBRANCH  73  76
ENDBRANCH  55  69
BRANCH  56  80
ATOM     80  C   UNL A   1      40.527  33.767  35.602  1.00  0.00     0.023 A 
ATOM     81  C   UNL A   1      39.267  33.115  35.656  1.00  0.00     0.012 A 
ATOM     82  C   UNL A   1      40.783  34.797  36.526  1.00  0.00     0.148 A 
ATOM     83  C   UNL A   1      38.391  33.336  36.725  1.00  0.00     0.002 A 
ATOM     84  C   UNL A   1      39.893  35.027  37.574  1.00  0.00     0.091 A 
ATOM     85  F   UNL A   1      41.919  35.499  36.417  1.00  0.00    -0.205 F 
ATOM     86  C   UNL A   1      38.729  34.257  37.711  1.00  0.00     0.022 A 
BRANCH  84  87
ATOM     87  S   UNL A   1      40.279  36.255  38.831  1.00  0.00     0.127 S 
ATOM     88  O   UNL A   1      39.271  37.277  38.559  1.00  0.00    -0.237 OA
ATOM     89  O   UNL A   1      40.084  35.528  40.085  1.00  0.00    -0.237 OA
ATOM     90  O   UNL A   1      41.663  36.627  38.570  1.00  0.00    -0.744 OA
ENDBRANCH  84  87
ENDBRANCH  56  80
BRANCH  68  91
ATOM     91  C   UNL A   1      42.672  26.853  34.882  1.00  0.00     0.023 A 
ATOM     92  C   UNL A   1      41.536  26.224  35.421  1.00  0.00     0.012 A 
ATOM     93  C   UNL A   1      43.888  26.118  34.996  1.00  0.00     0.148 A 
ATOM     94  C   UNL A   1      41.558  24.899  35.875  1.00  0.00     0.002 A 
ATOM     95  C   UNL A   1      43.914  24.802  35.448  1.00  0.00     0.091 A 
ATOM     96  F   UNL A   1      45.061  26.707  34.751  1.00  0.00    -0.205 F 
ATOM     97  C   UNL A   1      42.740  24.176  35.858  1.00  0.00     0.022 A 
BRANCH  95  98
ATOM     98  S   UNL A   1      45.440  23.857  35.555  1.00  0.00     0.127 S 
ATOM     99  O   UNL A   1      45.927  23.934  34.178  1.00  0.00    -0.237 OA
ATOM    100  O   UNL A   1      46.214  24.638  36.520  1.00  0.00    -0.237 OA
ATOM    101  O   UNL A   1      45.067  22.526  36.012  1.00  0.00    -0.744 OA
ENDBRANCH  95  98
ENDBRANCH  68  91
ENDBRANCH  42  43
ENDBRANCH  34  37
ENDBRANCH  32  33
ENDBRANCH  31  32
ENDBRANCH   1  31
TORSDOF 18
ENDMDL
