MODEL 1
REMARK VINA RESULT:     -12.8      0.000      0.000
REMARK SMILES C[C@H](NC(=O)N1CCN(/C=C/c2ccccc2)CC1)C(=O)NCCCNC(=O)c1ccc(-c2c3nc(c(-c4cccc(S(=O)(=O)[O-])c4F)c4ccc([nH]4)c(-c4cccc(S(=O)(=O)[O-])c4F)c4nc(c(-c5cccc(S(=O)(=O)[O-])c5F)c5ccc2[nH]5)C=C4)C=C3)cc1
REMARK SMILES IDX 24 1 23 2 22 3 20 4 21 5 2 7 1 8 3 9 4 10 5 12 6 13 7 14
REMARK SMILES IDX 19 15 8 16 18 17 9 18 10 19 11 20 12 21 13 22 17 23 14 24
REMARK SMILES IDX 16 25 15 26 25 27 26 28 27 29 28 31 29 32 30 33 91 34 31 35
REMARK SMILES IDX 90 36 32 37 33 38 34 39 84 40 35 41 89 42 83 43 85 44 36 45
REMARK SMILES IDX 88 46 82 47 81 48 37 50 69 51 49 52 68 53 50 54 53 55 67 56
REMARK SMILES IDX 86 57 51 58 52 59 66 61 87 62 54 63 38 64 39 65 47 66 40 67
REMARK SMILES IDX 42 68 48 69 41 70 43 71 44 72 45 73 46 74 70 75 71 76 79 77
REMARK SMILES IDX 72 78 74 79 80 80 73 81 75 82 76 83 77 84 78 85 55 86 56 87
REMARK SMILES IDX 64 88 57 89 59 90 65 91 58 92 60 93 61 94 62 95 63 96
REMARK H PARENT 22 6 3 11 26 30 85 49 53 60
REMARK Flexibility Score: inf
ROOT
ATOM      1  C   UNL A   1      31.805  31.632  26.864  1.00  0.00     0.042 C 
ENDROOT
BRANCH   1   2
ATOM      2  C   UNL A   1      32.118  30.144  26.822  1.00  0.00     0.117 C 
BRANCH   2   3
ATOM      3  N   UNL A   1      33.014  29.813  25.734  1.00  0.00    -0.354 N 
ATOM      4  C   UNL A   1      33.317  28.611  25.176  1.00  0.00     0.242 C 
ATOM      5  O   UNL A   1      34.134  28.608  24.247  1.00  0.00    -0.273 OA
ATOM      6  H   UNL A   1      33.477  30.584  25.333  1.00  0.00     0.163 HD
BRANCH   4   7
ATOM      7  C   UNL A   1      32.588  27.307  25.572  1.00  0.00     0.170 C 
ATOM      8  C   UNL A   1      33.574  26.160  25.448  1.00  0.00     0.041 C 
BRANCH   7   9
ATOM      9  N   UNL A   1      31.236  27.190  25.006  1.00  0.00    -0.326 N 
ATOM     10  C   UNL A   1      30.621  26.268  24.235  1.00  0.00     0.318 C 
ATOM     11  H   UNL A   1      30.652  27.947  25.240  1.00  0.00     0.166 HD
ATOM     12  O   UNL A   1      29.919  26.681  23.316  1.00  0.00    -0.249 OA
ATOM     13  N   UNL A   1      30.824  24.942  24.452  1.00  0.00    -0.321 N 
ATOM     14  C   UNL A   1      30.610  24.005  23.354  1.00  0.00     0.143 C 
ATOM     15  C   UNL A   1      30.715  24.306  25.759  1.00  0.00     0.143 C 
ATOM     16  C   UNL A   1      31.657  22.885  23.403  1.00  0.00     0.137 C 
ATOM     17  C   UNL A   1      31.671  23.109  25.907  1.00  0.00     0.137 C 
ATOM     18  N   UNL A   1      31.695  22.211  24.725  1.00  0.00    -0.374 N 
BRANCH  18  19
ATOM     19  C   UNL A   1      32.059  20.882  24.882  1.00  0.00     0.081 C 
ATOM     20  C   UNL A   1      32.875  20.115  24.144  1.00  0.00     0.025 C 
BRANCH  20  21
ATOM     21  C   UNL A   1      33.079  18.683  24.403  1.00  0.00    -0.024 A 
ATOM     22  C   UNL A   1      33.550  17.853  23.379  1.00  0.00     0.008 A 
ATOM     23  C   UNL A   1      32.725  18.104  25.632  1.00  0.00     0.008 A 
ATOM     24  C   UNL A   1      33.684  16.477  23.587  1.00  0.00     0.001 A 
ATOM     25  C   UNL A   1      32.863  16.731  25.841  1.00  0.00     0.001 A 
ATOM     26  C   UNL A   1      33.341  15.918  24.817  1.00  0.00     0.000 A 
ENDBRANCH  20  21
ENDBRANCH  18  19
ENDBRANCH   7   9
ENDBRANCH   4   7
ENDBRANCH   2   3
ENDBRANCH   1   2
BRANCH   1  27
ATOM     27  C   UNL A   1      33.001  32.475  27.287  1.00  0.00     0.118 C 
BRANCH  27  28
ATOM     28  N   UNL A   1      32.636  33.860  27.568  1.00  0.00    -0.352 N 
ATOM     29  C   UNL A   1      33.119  34.705  28.542  1.00  0.00     0.251 C 
ATOM     30  H   UNL A   1      31.947  34.244  26.979  1.00  0.00     0.163 HD
ATOM     31  O   UNL A   1      32.580  35.780  28.746  1.00  0.00    -0.269 OA
BRANCH  29  32
ATOM     32  C   UNL A   1      34.283  34.280  29.350  1.00  0.00     0.039 A 
ATOM     33  C   UNL A   1      34.064  33.586  30.542  1.00  0.00     0.014 A 
ATOM     34  C   UNL A   1      35.583  34.538  28.910  1.00  0.00     0.014 A 
ATOM     35  C   UNL A   1      35.154  33.085  31.255  1.00  0.00     0.010 A 
ATOM     36  C   UNL A   1      36.660  33.965  29.574  1.00  0.00     0.010 A 
ATOM     37  C   UNL A   1      36.458  33.236  30.755  1.00  0.00    -0.014 A 
BRANCH  37  38
ATOM     38  C   UNL A   1      37.628  32.625  31.436  1.00  0.00     0.031 A 
ATOM     39  C   UNL A   1      38.357  31.476  30.795  1.00  0.00     0.074 A 
ATOM     40  C   UNL A   1      37.962  33.031  32.678  1.00  0.00     0.049 A 
ATOM     41  N   UNL A   1      39.338  30.754  31.270  1.00  0.00    -0.248 NA
ATOM     42  C   UNL A   1      37.905  31.062  29.455  1.00  0.00     0.031 C 
ATOM     43  C   UNL A   1      37.276  34.078  33.440  1.00  0.00     0.029 A 
ATOM     44  N   UNL A   1      38.943  32.591  33.530  1.00  0.00    -0.354 N 
ATOM     45  C   UNL A   1      39.591  29.780  30.311  1.00  0.00     0.074 A 
ATOM     46  C   UNL A   1      38.638  29.981  29.243  1.00  0.00     0.031 C 
ATOM     47  C   UNL A   1      37.858  34.200  34.643  1.00  0.00     0.029 A 
ATOM     48  C   UNL A   1      38.935  33.221  34.753  1.00  0.00     0.049 A 
ATOM     49  H   UNL A   1      39.592  31.891  33.289  1.00  0.00     0.167 HD
ATOM     50  C   UNL A   1      40.550  28.824  30.308  1.00  0.00     0.034 A 
ATOM     51  C   UNL A   1      39.700  33.024  35.845  1.00  0.00     0.034 A 
ATOM     52  C   UNL A   1      41.525  28.660  31.351  1.00  0.00     0.049 A 
ATOM     53  C   UNL A   1      40.784  31.982  35.796  1.00  0.00     0.074 A 
ATOM     54  C   UNL A   1      42.597  27.787  31.395  1.00  0.00     0.029 A 
ATOM     55  N   UNL A   1      41.544  29.380  32.535  1.00  0.00    -0.354 N 
ATOM     56  N   UNL A   1      41.114  31.180  34.814  1.00  0.00    -0.248 NA
ATOM     57  C   UNL A   1      41.625  31.841  36.994  1.00  0.00     0.031 C 
ATOM     58  C   UNL A   1      43.251  27.962  32.620  1.00  0.00     0.029 A 
ATOM     59  C   UNL A   1      42.602  28.964  33.324  1.00  0.00     0.049 A 
ATOM     60  H   UNL A   1      40.900  30.083  32.779  1.00  0.00     0.167 HD
ATOM     61  C   UNL A   1      42.220  30.464  35.260  1.00  0.00     0.074 A 
ATOM     62  C   UNL A   1      42.517  30.944  36.594  1.00  0.00     0.031 C 
ATOM     63  C   UNL A   1      42.918  29.489  34.628  1.00  0.00     0.034 A 
BRANCH  50  64
ATOM     64  C   UNL A   1      40.625  27.913  29.109  1.00  0.00     0.023 A 
ATOM     65  C   UNL A   1      39.746  26.814  29.015  1.00  0.00     0.012 A 
ATOM     66  C   UNL A   1      41.520  28.175  28.053  1.00  0.00     0.148 A 
ATOM     67  C   UNL A   1      39.781  25.968  27.907  1.00  0.00     0.002 A 
ATOM     68  C   UNL A   1      41.516  27.354  26.931  1.00  0.00     0.091 A 
ATOM     69  F   UNL A   1      42.362  29.212  28.169  1.00  0.00    -0.205 F 
ATOM     70  C   UNL A   1      40.658  26.245  26.862  1.00  0.00     0.022 A 
BRANCH  68  71
ATOM     71  S   UNL A   1      42.548  27.671  25.496  1.00  0.00     0.127 S 
ATOM     72  O   UNL A   1      41.993  28.932  25.006  1.00  0.00    -0.237 OA
ATOM     73  O   UNL A   1      43.880  27.781  26.091  1.00  0.00    -0.237 OA
ATOM     74  O   UNL A   1      42.371  26.525  24.613  1.00  0.00    -0.744 OA
ENDBRANCH  68  71
ENDBRANCH  50  64
BRANCH  51  75
ATOM     75  C   UNL A   1      39.509  33.875  37.053  1.00  0.00     0.023 A 
ATOM     76  C   UNL A   1      39.920  35.222  37.019  1.00  0.00     0.012 A 
ATOM     77  C   UNL A   1      38.904  33.371  38.221  1.00  0.00     0.148 A 
ATOM     78  C   UNL A   1      39.762  36.043  38.135  1.00  0.00     0.002 A 
ATOM     79  C   UNL A   1      38.701  34.209  39.311  1.00  0.00     0.091 A 
ATOM     80  F   UNL A   1      38.529  32.084  38.237  1.00  0.00    -0.205 F 
ATOM     81  C   UNL A   1      39.145  35.541  39.277  1.00  0.00     0.022 A 
BRANCH  79  82
ATOM     82  S   UNL A   1      37.801  33.686  40.775  1.00  0.00     0.127 S 
ATOM     83  O   UNL A   1      37.829  34.898  41.591  1.00  0.00    -0.237 OA
ATOM     84  O   UNL A   1      36.490  33.349  40.219  1.00  0.00    -0.237 OA
ATOM     85  O   UNL A   1      38.541  32.549  41.304  1.00  0.00    -0.744 OA
ENDBRANCH  79  82
ENDBRANCH  51  75
BRANCH  63  86
ATOM     86  C   UNL A   1      44.098  28.894  35.348  1.00  0.00     0.023 A 
ATOM     87  C   UNL A   1      45.379  29.457  35.181  1.00  0.00     0.012 A 
ATOM     88  C   UNL A   1      43.923  27.830  36.256  1.00  0.00     0.148 A 
ATOM     89  C   UNL A   1      46.471  28.952  35.884  1.00  0.00     0.002 A 
ATOM     90  C   UNL A   1      45.007  27.365  36.990  1.00  0.00     0.091 A 
ATOM     91  F   UNL A   1      42.700  27.297  36.387  1.00  0.00    -0.205 F 
ATOM     92  C   UNL A   1      46.284  27.916  36.797  1.00  0.00     0.022 A 
BRANCH  90  93
ATOM     93  S   UNL A   1      44.842  26.104  38.258  1.00  0.00     0.127 S 
ATOM     94  O   UNL A   1      44.463  24.934  37.468  1.00  0.00    -0.237 OA
ATOM     95  O   UNL A   1      46.192  26.049  38.819  1.00  0.00    -0.237 OA
ATOM     96  O   UNL A   1      43.823  26.590  39.180  1.00  0.00    -0.744 OA
ENDBRANCH  90  93
ENDBRANCH  63  86
ENDBRANCH  37  38
ENDBRANCH  29  32
ENDBRANCH  27  28
ENDBRANCH   1  27
TORSDOF 16
ENDMDL
MODEL 2
REMARK VINA RESULT:     -12.7      2.376      7.934
REMARK SMILES C[C@H](NC(=O)N1CCN(/C=C/c2ccccc2)CC1)C(=O)NCCCNC(=O)c1ccc(-c2c3nc(c(-c4cccc(S(=O)(=O)[O-])c4F)c4ccc([nH]4)c(-c4cccc(S(=O)(=O)[O-])c4F)c4nc(c(-c5cccc(S(=O)(=O)[O-])c5F)c5ccc2[nH]5)C=C4)C=C3)cc1
REMARK SMILES IDX 24 1 23 2 22 3 20 4 21 5 2 7 1 8 3 9 4 10 5 12 6 13 7 14
REMARK SMILES IDX 19 15 8 16 18 17 9 18 10 19 11 20 12 21 13 22 17 23 14 24
REMARK SMILES IDX 16 25 15 26 25 27 26 28 27 29 28 31 29 32 30 33 91 34 31 35
REMARK SMILES IDX 90 36 32 37 33 38 34 39 84 40 35 41 89 42 83 43 85 44 36 45
REMARK SMILES IDX 88 46 82 47 81 48 37 50 69 51 49 52 68 53 50 54 53 55 67 56
REMARK SMILES IDX 86 57 51 58 52 59 66 61 87 62 54 63 38 64 39 65 47 66 40 67
REMARK SMILES IDX 42 68 48 69 41 70 43 71 44 72 45 73 46 74 70 75 71 76 79 77
REMARK SMILES IDX 72 78 74 79 80 80 73 81 75 82 76 83 77 84 78 85 55 86 56 87
REMARK SMILES IDX 64 88 57 89 59 90 65 91 58 92 60 93 61 94 62 95 63 96
REMARK H PARENT 22 6 3 11 26 30 85 49 53 60
REMARK Flexibility Score: inf
ROOT
ATOM      1  C   UNL A   1      31.363  29.214  25.727  1.00  0.00     0.042 C 
ENDROOT
BRANCH   1   2
ATOM      2  C   UNL A   1      30.843  28.981  24.317  1.00  0.00     0.117 C 
BRANCH   2   3
ATOM      3  N   UNL A   1      30.515  27.589  24.090  1.00  0.00    -0.354 N 
ATOM      4  C   UNL A   1      31.163  26.637  23.366  1.00  0.00     0.242 C 
ATOM      5  O   UNL A   1      30.654  25.510  23.330  1.00  0.00    -0.273 OA
ATOM      6  H   UNL A   1      29.690  27.282  24.531  1.00  0.00     0.163 HD
BRANCH   4   7
ATOM      7  C   UNL A   1      32.544  26.886  22.720  1.00  0.00     0.170 C 
ATOM      8  C   UNL A   1      32.728  25.881  21.598  1.00  0.00     0.041 C 
BRANCH   7   9
ATOM      9  N   UNL A   1      33.621  27.117  23.694  1.00  0.00    -0.326 N 
ATOM     10  C   UNL A   1      34.013  26.488  24.822  1.00  0.00     0.318 C 
ATOM     11  H   UNL A   1      34.176  27.901  23.477  1.00  0.00     0.166 HD
ATOM     12  O   UNL A   1      34.311  27.191  25.784  1.00  0.00    -0.249 OA
ATOM     13  N   UNL A   1      34.022  25.130  24.885  1.00  0.00    -0.321 N 
ATOM     14  C   UNL A   1      33.928  24.483  26.191  1.00  0.00     0.143 C 
ATOM     15  C   UNL A   1      34.637  24.273  23.880  1.00  0.00     0.143 C 
ATOM     16  C   UNL A   1      33.072  23.214  26.090  1.00  0.00     0.137 C 
ATOM     17  C   UNL A   1      33.907  22.925  23.737  1.00  0.00     0.137 C 
ATOM     18  N   UNL A   1      33.558  22.292  25.034  1.00  0.00    -0.374 N 
BRANCH  18  19
ATOM     19  C   UNL A   1      33.396  20.917  25.103  1.00  0.00     0.081 C 
ATOM     20  C   UNL A   1      34.208  19.928  24.701  1.00  0.00     0.025 C 
BRANCH  20  21
ATOM     21  C   UNL A   1      33.834  18.508  24.766  1.00  0.00    -0.024 A 
ATOM     22  C   UNL A   1      34.510  17.576  23.969  1.00  0.00     0.008 A 
ATOM     23  C   UNL A   1      32.751  18.072  25.544  1.00  0.00     0.008 A 
ATOM     24  C   UNL A   1      34.122  16.233  23.967  1.00  0.00     0.001 A 
ATOM     25  C   UNL A   1      32.367  16.731  25.545  1.00  0.00     0.001 A 
ATOM     26  C   UNL A   1      33.051  15.812  24.755  1.00  0.00     0.000 A 
ENDBRANCH  20  21
ENDBRANCH  18  19
ENDBRANCH   7   9
ENDBRANCH   4   7
ENDBRANCH   2   3
ENDBRANCH   1   2
BRANCH   1  27
ATOM     27  C   UNL A   1      32.636  30.050  25.758  1.00  0.00     0.118 C 
BRANCH  27  28
ATOM     28  N   UNL A   1      32.401  31.409  26.236  1.00  0.00    -0.352 N 
ATOM     29  C   UNL A   1      33.090  32.124  27.190  1.00  0.00     0.251 C 
ATOM     30  H   UNL A   1      31.644  31.879  25.819  1.00  0.00     0.163 HD
ATOM     31  O   UNL A   1      32.653  33.190  27.592  1.00  0.00    -0.269 OA
BRANCH  29  32
ATOM     32  C   UNL A   1      34.349  31.572  27.734  1.00  0.00     0.039 A 
ATOM     33  C   UNL A   1      35.427  32.432  27.955  1.00  0.00     0.014 A 
ATOM     34  C   UNL A   1      34.447  30.217  28.057  1.00  0.00     0.014 A 
ATOM     35  C   UNL A   1      36.580  31.943  28.571  1.00  0.00     0.010 A 
ATOM     36  C   UNL A   1      35.560  29.753  28.746  1.00  0.00     0.010 A 
ATOM     37  C   UNL A   1      36.639  30.609  29.008  1.00  0.00    -0.014 A 
BRANCH  37  38
ATOM     38  C   UNL A   1      37.810  30.087  29.758  1.00  0.00     0.031 A 
ATOM     39  C   UNL A   1      38.091  30.578  31.152  1.00  0.00     0.074 A 
ATOM     40  C   UNL A   1      38.679  29.259  29.144  1.00  0.00     0.049 A 
ATOM     41  N   UNL A   1      39.107  30.314  31.931  1.00  0.00    -0.248 NA
ATOM     42  C   UNL A   1      37.117  31.516  31.738  1.00  0.00     0.031 C 
ATOM     43  C   UNL A   1      38.561  28.779  27.765  1.00  0.00     0.029 A 
ATOM     44  N   UNL A   1      39.849  28.697  29.590  1.00  0.00    -0.354 N 
ATOM     45  C   UNL A   1      38.918  31.080  33.075  1.00  0.00     0.074 A 
ATOM     46  C   UNL A   1      37.709  31.846  32.876  1.00  0.00     0.031 C 
ATOM     47  C   UNL A   1      39.613  27.996  27.479  1.00  0.00     0.029 A 
ATOM     48  C   UNL A   1      40.497  27.943  28.640  1.00  0.00     0.049 A 
ATOM     49  H   UNL A   1      40.192  28.823  30.505  1.00  0.00     0.167 HD
ATOM     50  C   UNL A   1      39.668  31.119  34.201  1.00  0.00     0.034 A 
ATOM     51  C   UNL A   1      41.676  27.292  28.692  1.00  0.00     0.034 A 
ATOM     52  C   UNL A   1      40.843  30.318  34.413  1.00  0.00     0.049 A 
ATOM     53  C   UNL A   1      42.467  27.320  29.972  1.00  0.00     0.074 A 
ATOM     54  C   UNL A   1      41.615  30.210  35.555  1.00  0.00     0.029 A 
ATOM     55  N   UNL A   1      41.418  29.492  33.460  1.00  0.00    -0.354 N 
ATOM     56  N   UNL A   1      42.186  27.920  31.103  1.00  0.00    -0.248 NA
ATOM     57  C   UNL A   1      43.720  26.552  29.995  1.00  0.00     0.031 C 
ATOM     58  C   UNL A   1      42.674  29.337  35.285  1.00  0.00     0.029 A 
ATOM     59  C   UNL A   1      42.544  28.880  33.982  1.00  0.00     0.049 A 
ATOM     60  H   UNL A   1      41.077  29.361  32.546  1.00  0.00     0.167 HD
ATOM     61  C   UNL A   1      43.207  27.575  31.982  1.00  0.00     0.074 A 
ATOM     62  C   UNL A   1      44.102  26.696  31.258  1.00  0.00     0.031 C 
ATOM     63  C   UNL A   1      43.395  27.963  33.267  1.00  0.00     0.034 A 
BRANCH  50  64
ATOM     64  C   UNL A   1      39.207  32.020  35.318  1.00  0.00     0.023 A 
ATOM     65  C   UNL A   1      38.274  31.538  36.260  1.00  0.00     0.012 A 
ATOM     66  C   UNL A   1      39.736  33.316  35.471  1.00  0.00     0.148 A 
ATOM     67  C   UNL A   1      37.846  32.344  37.313  1.00  0.00     0.002 A 
ATOM     68  C   UNL A   1      39.340  34.097  36.551  1.00  0.00     0.091 A 
ATOM     69  F   UNL A   1      40.607  33.765  34.555  1.00  0.00    -0.205 F 
ATOM     70  C   UNL A   1      38.387  33.618  37.465  1.00  0.00     0.022 A 
BRANCH  68  71
ATOM     71  S   UNL A   1      40.037  35.719  36.882  1.00  0.00     0.127 S 
ATOM     72  O   UNL A   1      39.395  36.062  38.150  1.00  0.00    -0.237 OA
ATOM     73  O   UNL A   1      41.467  35.426  36.981  1.00  0.00    -0.237 OA
ATOM     74  O   UNL A   1      39.666  36.555  35.748  1.00  0.00    -0.744 OA
ENDBRANCH  68  71
ENDBRANCH  50  64
BRANCH  51  75
ATOM     75  C   UNL A   1      42.147  26.507  27.517  1.00  0.00     0.023 A 
ATOM     76  C   UNL A   1      42.890  27.153  26.509  1.00  0.00     0.012 A 
ATOM     77  C   UNL A   1      41.888  25.128  27.401  1.00  0.00     0.148 A 
ATOM     78  C   UNL A   1      43.339  26.448  25.393  1.00  0.00     0.002 A 
ATOM     79  C   UNL A   1      42.384  24.420  26.312  1.00  0.00     0.091 A 
ATOM     80  F   UNL A   1      41.171  24.533  28.365  1.00  0.00    -0.205 F 
ATOM     81  C   UNL A   1      43.095  25.081  25.298  1.00  0.00     0.022 A 
BRANCH  79  82
ATOM     82  S   UNL A   1      42.229  22.636  26.169  1.00  0.00     0.127 S 
ATOM     83  O   UNL A   1      40.781  22.469  26.078  1.00  0.00    -0.237 OA
ATOM     84  O   UNL A   1      42.959  22.368  24.929  1.00  0.00    -0.237 OA
ATOM     85  O   UNL A   1      42.855  22.091  27.365  1.00  0.00    -0.744 OA
ENDBRANCH  79  82
ENDBRANCH  51  75
BRANCH  63  86
ATOM     86  C   UNL A   1      44.591  27.414  33.997  1.00  0.00     0.023 A 
ATOM     87  C   UNL A   1      45.827  28.087  33.923  1.00  0.00     0.012 A 
ATOM     88  C   UNL A   1      44.469  26.279  34.823  1.00  0.00     0.148 A 
ATOM     89  C   UNL A   1      46.930  27.621  34.637  1.00  0.00     0.002 A 
ATOM     90  C   UNL A   1      45.559  25.851  35.570  1.00  0.00     0.091 A 
ATOM     91  F   UNL A   1      43.290  25.644  34.864  1.00  0.00    -0.205 F 
ATOM     92  C   UNL A   1      46.793  26.512  35.469  1.00  0.00     0.022 A 
BRANCH  90  93
ATOM     93  S   UNL A   1      45.450  24.494  36.743  1.00  0.00     0.127 S 
ATOM     94  O   UNL A   1      44.400  24.963  37.645  1.00  0.00    -0.237 OA
ATOM     95  O   UNL A   1      45.062  23.373  35.886  1.00  0.00    -0.237 OA
ATOM     96  O   UNL A   1      46.774  24.369  37.338  1.00  0.00    -0.744 OA
ENDBRANCH  90  93
ENDBRANCH  63  86
ENDBRANCH  37  38
ENDBRANCH  29  32
ENDBRANCH  27  28
ENDBRANCH   1  27
TORSDOF 16
ENDMDL
MODEL 3
REMARK VINA RESULT:     -12.7      1.768      2.499
REMARK SMILES C[C@H](NC(=O)N1CCN(/C=C/c2ccccc2)CC1)C(=O)NCCCNC(=O)c1ccc(-c2c3nc(c(-c4cccc(S(=O)(=O)[O-])c4F)c4ccc([nH]4)c(-c4cccc(S(=O)(=O)[O-])c4F)c4nc(c(-c5cccc(S(=O)(=O)[O-])c5F)c5ccc2[nH]5)C=C4)C=C3)cc1
REMARK SMILES IDX 24 1 23 2 22 3 20 4 21 5 2 7 1 8 3 9 4 10 5 12 6 13 7 14
REMARK SMILES IDX 19 15 8 16 18 17 9 18 10 19 11 20 12 21 13 22 17 23 14 24
REMARK SMILES IDX 16 25 15 26 25 27 26 28 27 29 28 31 29 32 30 33 91 34 31 35
REMARK SMILES IDX 90 36 32 37 33 38 34 39 84 40 35 41 89 42 83 43 85 44 36 45
REMARK SMILES IDX 88 46 82 47 81 48 37 50 69 51 49 52 68 53 50 54 53 55 67 56
REMARK SMILES IDX 86 57 51 58 52 59 66 61 87 62 54 63 38 64 39 65 47 66 40 67
REMARK SMILES IDX 42 68 48 69 41 70 43 71 44 72 45 73 46 74 70 75 71 76 79 77
REMARK SMILES IDX 72 78 74 79 80 80 73 81 75 82 76 83 77 84 78 85 55 86 56 87
REMARK SMILES IDX 64 88 57 89 59 90 65 91 58 92 60 93 61 94 62 95 63 96
REMARK H PARENT 22 6 3 11 26 30 85 49 53 60
REMARK Flexibility Score: inf
ROOT
ATOM      1  C   UNL A   1      30.970  32.059  26.017  1.00  0.00     0.042 C 
ENDROOT
BRANCH   1   2
ATOM      2  C   UNL A   1      31.024  30.654  25.436  1.00  0.00     0.117 C 
BRANCH   2   3
ATOM      3  N   UNL A   1      30.291  30.559  24.191  1.00  0.00    -0.354 N 
ATOM      4  C   UNL A   1      30.362  29.637  23.194  1.00  0.00     0.242 C 
ATOM      5  O   UNL A   1      29.617  29.798  22.220  1.00  0.00    -0.273 OA
ATOM      6  H   UNL A   1      29.635  31.278  24.043  1.00  0.00     0.163 HD
BRANCH   4   7
ATOM      7  C   UNL A   1      31.227  28.361  23.307  1.00  0.00     0.170 C 
ATOM      8  C   UNL A   1      30.400  27.293  23.999  1.00  0.00     0.041 C 
BRANCH   7   9
ATOM      9  N   UNL A   1      32.611  28.620  23.730  1.00  0.00    -0.326 N 
ATOM     10  C   UNL A   1      33.479  27.973  24.536  1.00  0.00     0.318 C 
ATOM     11  H   UNL A   1      32.986  29.443  23.341  1.00  0.00     0.166 HD
ATOM     12  O   UNL A   1      34.141  28.656  25.314  1.00  0.00    -0.249 OA
ATOM     13  N   UNL A   1      33.566  26.617  24.508  1.00  0.00    -0.321 N 
ATOM     14  C   UNL A   1      34.075  25.916  25.683  1.00  0.00     0.143 C 
ATOM     15  C   UNL A   1      33.712  25.836  23.286  1.00  0.00     0.143 C 
ATOM     16  C   UNL A   1      33.310  24.603  25.888  1.00  0.00     0.137 C 
ATOM     17  C   UNL A   1      33.045  24.454  23.393  1.00  0.00     0.137 C 
ATOM     18  N   UNL A   1      33.320  23.753  24.673  1.00  0.00    -0.374 N 
BRANCH  18  19
ATOM     19  C   UNL A   1      33.256  22.368  24.722  1.00  0.00     0.081 C 
ATOM     20  C   UNL A   1      32.773  21.491  23.831  1.00  0.00     0.025 C 
BRANCH  20  21
ATOM     21  C   UNL A   1      32.699  20.046  24.088  1.00  0.00    -0.024 A 
ATOM     22  C   UNL A   1      32.902  19.562  25.385  1.00  0.00     0.008 A 
ATOM     23  C   UNL A   1      32.518  19.126  23.045  1.00  0.00     0.008 A 
ATOM     24  C   UNL A   1      32.903  18.186  25.636  1.00  0.00     0.001 A 
ATOM     25  C   UNL A   1      32.515  17.753  23.295  1.00  0.00     0.001 A 
ATOM     26  C   UNL A   1      32.710  17.283  24.591  1.00  0.00     0.000 A 
ENDBRANCH  20  21
ENDBRANCH  18  19
ENDBRANCH   7   9
ENDBRANCH   4   7
ENDBRANCH   2   3
ENDBRANCH   1   2
BRANCH   1  27
ATOM     27  C   UNL A   1      32.221  32.421  26.807  1.00  0.00     0.118 C 
BRANCH  27  28
ATOM     28  N   UNL A   1      32.184  33.788  27.316  1.00  0.00    -0.352 N 
ATOM     29  C   UNL A   1      32.994  34.387  28.254  1.00  0.00     0.251 C 
ATOM     30  H   UNL A   1      31.481  34.363  26.935  1.00  0.00     0.163 HD
ATOM     31  O   UNL A   1      32.716  35.493  28.689  1.00  0.00    -0.269 OA
BRANCH  29  32
ATOM     32  C   UNL A   1      34.187  33.663  28.742  1.00  0.00     0.039 A 
ATOM     33  C   UNL A   1      35.451  34.217  28.528  1.00  0.00     0.014 A 
ATOM     34  C   UNL A   1      34.051  32.461  29.440  1.00  0.00     0.014 A 
ATOM     35  C   UNL A   1      36.575  33.599  29.081  1.00  0.00     0.010 A 
ATOM     36  C   UNL A   1      35.158  31.896  30.060  1.00  0.00     0.010 A 
ATOM     37  C   UNL A   1      36.431  32.456  29.885  1.00  0.00    -0.014 A 
BRANCH  37  38
ATOM     38  C   UNL A   1      37.594  31.837  30.570  1.00  0.00     0.031 A 
ATOM     39  C   UNL A   1      38.397  30.771  29.876  1.00  0.00     0.074 A 
ATOM     40  C   UNL A   1      37.857  32.156  31.853  1.00  0.00     0.049 A 
ATOM     41  N   UNL A   1      39.386  30.051  30.338  1.00  0.00    -0.248 NA
ATOM     42  C   UNL A   1      38.020  30.449  28.488  1.00  0.00     0.031 C 
ATOM     43  C   UNL A   1      37.097  33.112  32.662  1.00  0.00     0.029 A 
ATOM     44  N   UNL A   1      38.818  31.686  32.713  1.00  0.00    -0.354 N 
ATOM     45  C   UNL A   1      39.719  29.166  29.319  1.00  0.00     0.074 A 
ATOM     46  C   UNL A   1      38.806  29.415  28.227  1.00  0.00     0.031 C 
ATOM     47  C   UNL A   1      37.622  33.160  33.897  1.00  0.00     0.029 A 
ATOM     48  C   UNL A   1      38.732  32.216  33.980  1.00  0.00     0.049 A 
ATOM     49  H   UNL A   1      39.505  31.032  32.449  1.00  0.00     0.167 HD
ATOM     50  C   UNL A   1      40.715  28.250  29.286  1.00  0.00     0.034 A 
ATOM     51  C   UNL A   1      39.457  31.961  35.088  1.00  0.00     0.034 A 
ATOM     52  C   UNL A   1      41.651  28.040  30.356  1.00  0.00     0.049 A 
ATOM     53  C   UNL A   1      40.584  30.968  35.008  1.00  0.00     0.074 A 
ATOM     54  C   UNL A   1      42.755  27.208  30.382  1.00  0.00     0.029 A 
ATOM     55  N   UNL A   1      41.589  28.664  31.593  1.00  0.00    -0.354 N 
ATOM     56  N   UNL A   1      40.988  30.259  33.982  1.00  0.00    -0.248 NA
ATOM     57  C   UNL A   1      41.377  30.764  36.229  1.00  0.00     0.031 C 
ATOM     58  C   UNL A   1      43.347  27.308  31.645  1.00  0.00     0.029 A 
ATOM     59  C   UNL A   1      42.628  28.226  32.395  1.00  0.00     0.049 A 
ATOM     60  H   UNL A   1      40.907  29.321  31.861  1.00  0.00     0.167 HD
ATOM     61  C   UNL A   1      42.103  29.553  34.422  1.00  0.00     0.074 A 
ATOM     62  C   UNL A   1      42.322  29.936  35.802  1.00  0.00     0.031 C 
ATOM     63  C   UNL A   1      42.866  28.657  33.749  1.00  0.00     0.034 A 
BRANCH  50  64
ATOM     64  C   UNL A   1      40.879  27.440  28.024  1.00  0.00     0.023 A 
ATOM     65  C   UNL A   1      41.528  28.014  26.910  1.00  0.00     0.012 A 
ATOM     66  C   UNL A   1      40.447  26.101  27.959  1.00  0.00     0.148 A 
ATOM     67  C   UNL A   1      41.710  27.280  25.739  1.00  0.00     0.002 A 
ATOM     68  C   UNL A   1      40.675  25.362  26.804  1.00  0.00     0.091 A 
ATOM     69  F   UNL A   1      39.814  25.580  29.020  1.00  0.00    -0.205 F 
ATOM     70  C   UNL A   1      41.294  25.953  25.690  1.00  0.00     0.022 A 
BRANCH  68  71
ATOM     71  S   UNL A   1      40.251  23.622  26.668  1.00  0.00     0.127 S 
ATOM     72  O   UNL A   1      40.349  23.185  28.059  1.00  0.00    -0.237 OA
ATOM     73  O   UNL A   1      38.887  23.678  26.140  1.00  0.00    -0.237 OA
ATOM     74  O   UNL A   1      41.230  23.040  25.759  1.00  0.00    -0.744 OA
ENDBRANCH  68  71
ENDBRANCH  50  64
BRANCH  51  75
ATOM     75  C   UNL A   1      39.179  32.706  36.348  1.00  0.00     0.023 A 
ATOM     76  C   UNL A   1      39.771  33.968  36.548  1.00  0.00     0.012 A 
ATOM     77  C   UNL A   1      38.318  32.188  37.335  1.00  0.00     0.148 A 
ATOM     78  C   UNL A   1      39.538  34.687  37.719  1.00  0.00     0.002 A 
ATOM     79  C   UNL A   1      38.047  32.934  38.476  1.00  0.00     0.091 A 
ATOM     80  F   UNL A   1      37.771  30.981  37.131  1.00  0.00    -0.205 F 
ATOM     81  C   UNL A   1      38.669  34.176  38.679  1.00  0.00     0.022 A 
BRANCH  79  82
ATOM     82  S   UNL A   1      36.844  32.414  39.705  1.00  0.00     0.127 S 
ATOM     83  O   UNL A   1      35.613  32.375  38.920  1.00  0.00    -0.237 OA
ATOM     84  O   UNL A   1      37.365  31.104  40.101  1.00  0.00    -0.237 OA
ATOM     85  O   UNL A   1      36.895  33.423  40.754  1.00  0.00    -0.744 OA
ENDBRANCH  79  82
ENDBRANCH  51  75
BRANCH  63  86
ATOM     86  C   UNL A   1      44.037  28.051  34.475  1.00  0.00     0.023 A 
ATOM     87  C   UNL A   1      45.285  28.706  34.462  1.00  0.00     0.012 A 
ATOM     88  C   UNL A   1      43.879  26.877  35.238  1.00  0.00     0.148 A 
ATOM     89  C   UNL A   1      46.364  28.186  35.175  1.00  0.00     0.002 A 
ATOM     90  C   UNL A   1      44.945  26.393  35.986  1.00  0.00     0.091 A 
ATOM     91  F   UNL A   1      42.689  26.261  35.222  1.00  0.00    -0.205 F 
ATOM     92  C   UNL A   1      46.191  27.039  35.947  1.00  0.00     0.022 A 
BRANCH  90  93
ATOM     93  S   UNL A   1      44.788  24.981  37.085  1.00  0.00     0.127 S 
ATOM     94  O   UNL A   1      43.726  25.421  37.987  1.00  0.00    -0.237 OA
ATOM     95  O   UNL A   1      44.402  23.912  36.163  1.00  0.00    -0.237 OA
ATOM     96  O   UNL A   1      46.097  24.804  37.702  1.00  0.00    -0.744 OA
ENDBRANCH  90  93
ENDBRANCH  63  86
ENDBRANCH  37  38
ENDBRANCH  29  32
ENDBRANCH  27  28
ENDBRANCH   1  27
TORSDOF 16
ENDMDL
