MODEL 1
REMARK VINA RESULT:     -12.5      0.000      0.000
REMARK SMILES CC1(C)CCN(C(=O)N[C@](C)(C(=O)NCCCNC(=O)c2ccc(-c3c4nc(c(-c5cccc(S(=O)(=O)[O-])c5F)c5ccc([nH]5)c(-c5cccc(S(=O)(=O)[O-])c5F)c5nc(c(-c6cccc(S(=O)(=O)[O-])c6F)c6ccc3[nH]6)C=C5)C=C4)cc2)c2ccccc2)C1
REMARK SMILES IDX 16 1 15 2 14 3 12 4 13 5 10 7 11 8 9 9 7 10 8 11 6 13 1 14
REMARK SMILES IDX 2 15 3 16 4 17 90 18 5 19 84 20 85 21 89 22 86 23 88 24
REMARK SMILES IDX 87 25 17 26 18 27 19 28 20 30 21 31 22 32 83 33 23 34 82 35
REMARK SMILES IDX 24 36 25 37 26 38 76 39 27 40 81 41 75 42 77 43 28 44 80 45
REMARK SMILES IDX 74 46 73 47 29 49 61 50 41 51 60 52 42 53 45 54 59 55 78 56
REMARK SMILES IDX 43 57 44 58 58 60 79 61 46 62 30 63 31 64 39 65 32 66 34 67
REMARK SMILES IDX 40 68 33 69 35 70 36 71 37 72 38 73 62 74 63 75 71 76 64 77
REMARK SMILES IDX 66 78 72 79 65 80 67 81 68 82 69 83 70 84 47 85 48 86 56 87
REMARK SMILES IDX 49 88 51 89 57 90 50 91 52 92 53 93 54 94 55 95
REMARK H PARENT 14 6 9 12 18 29 77 48 45 59
REMARK Flexibility Score: inf
ROOT
ATOM      1  C   UNL A   1      31.584  31.931  26.494  1.00  0.00     0.042 C 
ENDROOT
BRANCH   1   2
ATOM      2  C   UNL A   1      31.813  30.487  26.033  1.00  0.00     0.117 C 
BRANCH   2   3
ATOM      3  N   UNL A   1      31.724  29.558  27.142  1.00  0.00    -0.354 N 
ATOM      4  C   UNL A   1      31.760  28.202  27.249  1.00  0.00     0.250 C 
ATOM      5  O   UNL A   1      31.164  27.798  28.257  1.00  0.00    -0.272 OA
ATOM      6  H   UNL A   1      31.615  30.009  28.011  1.00  0.00     0.163 HD
BRANCH   4   7
ATOM      7  C   UNL A   1      32.474  27.218  26.207  1.00  0.00     0.143 C 
ATOM      8  C   UNL A   1      33.970  27.601  26.081  1.00  0.00     0.051 C 
BRANCH   7   9
ATOM      9  N   UNL A   1      32.490  25.838  26.793  1.00  0.00    -0.320 N 
ATOM     10  C   UNL A   1      32.017  24.637  26.413  1.00  0.00     0.318 C 
ATOM     11  O   UNL A   1      31.238  24.100  27.209  1.00  0.00    -0.249 OA
ATOM     12  H   UNL A   1      32.958  25.801  27.659  1.00  0.00     0.166 HD
BRANCH  10  13
ATOM     13  N   UNL A   1      32.506  23.951  25.341  1.00  0.00    -0.324 N 
ATOM     14  C   UNL A   1      33.131  23.371  21.854  1.00  0.00     0.013 C 
ATOM     15  C   UNL A   1      32.891  22.815  23.260  1.00  0.00    -0.016 C 
ATOM     16  C   UNL A   1      32.359  21.379  23.117  1.00  0.00     0.013 C 
ATOM     17  C   UNL A   1      34.170  22.780  24.118  1.00  0.00     0.030 C 
ATOM     18  C   UNL A   1      31.926  23.745  24.029  1.00  0.00     0.127 C 
ATOM     19  C   UNL A   1      33.941  23.773  25.244  1.00  0.00     0.122 C 
ENDBRANCH  10  13
ENDBRANCH   7   9
BRANCH   7  20
ATOM     20  C   UNL A   1      31.791  27.330  24.825  1.00  0.00    -0.013 A 
ATOM     21  C   UNL A   1      32.568  27.448  23.653  1.00  0.00     0.007 A 
ATOM     22  C   UNL A   1      30.387  27.340  24.661  1.00  0.00     0.007 A 
ATOM     23  C   UNL A   1      31.978  27.557  22.391  1.00  0.00     0.000 A 
ATOM     24  C   UNL A   1      29.798  27.490  23.402  1.00  0.00     0.000 A 
ATOM     25  C   UNL A   1      30.593  27.596  22.268  1.00  0.00     0.000 A 
ENDBRANCH   7  20
ENDBRANCH   4   7
ENDBRANCH   2   3
ENDBRANCH   1   2
BRANCH   1  26
ATOM     26  C   UNL A   1      32.764  32.548  27.249  1.00  0.00     0.118 C 
BRANCH  26  27
ATOM     27  N   UNL A   1      32.540  33.946  27.587  1.00  0.00    -0.352 N 
ATOM     28  C   UNL A   1      33.085  34.710  28.591  1.00  0.00     0.251 C 
ATOM     29  H   UNL A   1      31.899  34.417  27.007  1.00  0.00     0.163 HD
ATOM     30  O   UNL A   1      32.595  35.803  28.855  1.00  0.00    -0.269 OA
BRANCH  28  31
ATOM     31  C   UNL A   1      34.249  34.215  29.357  1.00  0.00     0.039 A 
ATOM     32  C   UNL A   1      34.032  33.558  30.570  1.00  0.00     0.014 A 
ATOM     33  C   UNL A   1      35.551  34.422  28.894  1.00  0.00     0.014 A 
ATOM     34  C   UNL A   1      35.119  33.053  31.288  1.00  0.00     0.010 A 
ATOM     35  C   UNL A   1      36.626  33.853  29.571  1.00  0.00     0.010 A 
ATOM     36  C   UNL A   1      36.422  33.164  30.776  1.00  0.00    -0.014 A 
BRANCH  36  37
ATOM     37  C   UNL A   1      37.582  32.556  31.478  1.00  0.00     0.031 A 
ATOM     38  C   UNL A   1      38.322  31.398  30.863  1.00  0.00     0.074 A 
ATOM     39  C   UNL A   1      37.918  32.995  32.708  1.00  0.00     0.049 A 
ATOM     40  N   UNL A   1      39.305  30.692  31.356  1.00  0.00    -0.248 NA
ATOM     41  C   UNL A   1      37.884  30.959  29.526  1.00  0.00     0.031 C 
ATOM     42  C   UNL A   1      37.237  34.066  33.439  1.00  0.00     0.029 A 
ATOM     43  N   UNL A   1      38.899  32.578  33.573  1.00  0.00    -0.354 N 
ATOM     44  C   UNL A   1      39.586  29.713  30.410  1.00  0.00     0.074 A 
ATOM     45  C   UNL A   1      38.644  29.891  29.327  1.00  0.00     0.031 C 
ATOM     46  C   UNL A   1      37.821  34.224  34.638  1.00  0.00     0.029 A 
ATOM     47  C   UNL A   1      38.892  33.244  34.778  1.00  0.00     0.049 A 
ATOM     48  H   UNL A   1      39.547  31.871  33.354  1.00  0.00     0.167 HD
ATOM     49  C   UNL A   1      40.559  28.771  30.425  1.00  0.00     0.034 A 
ATOM     50  C   UNL A   1      39.652  33.072  35.879  1.00  0.00     0.034 A 
ATOM     51  C   UNL A   1      41.515  28.619  31.488  1.00  0.00     0.049 A 
ATOM     52  C   UNL A   1      40.729  32.020  35.863  1.00  0.00     0.074 A 
ATOM     53  C   UNL A   1      42.581  27.739  31.566  1.00  0.00     0.029 A 
ATOM     54  N   UNL A   1      41.521  29.359  32.660  1.00  0.00    -0.354 N 
ATOM     55  N   UNL A   1      41.068  31.201  34.898  1.00  0.00    -0.248 NA
ATOM     56  C   UNL A   1      41.549  31.890  37.075  1.00  0.00     0.031 C 
ATOM     57  C   UNL A   1      43.214  27.928  32.799  1.00  0.00     0.029 A 
ATOM     58  C   UNL A   1      42.564  28.950  33.472  1.00  0.00     0.049 A 
ATOM     59  H   UNL A   1      40.876  30.070  32.882  1.00  0.00     0.167 HD
ATOM     60  C   UNL A   1      42.167  30.491  35.371  1.00  0.00     0.074 A 
ATOM     61  C   UNL A   1      42.448  30.992  36.699  1.00  0.00     0.031 C 
ATOM     62  C   UNL A   1      42.869  29.501  34.767  1.00  0.00     0.034 A 
BRANCH  49  63
ATOM     63  C   UNL A   1      40.681  27.863  29.228  1.00  0.00     0.023 A 
ATOM     64  C   UNL A   1      39.863  26.719  29.140  1.00  0.00     0.012 A 
ATOM     65  C   UNL A   1      41.538  28.183  28.157  1.00  0.00     0.148 A 
ATOM     66  C   UNL A   1      39.916  25.891  28.020  1.00  0.00     0.002 A 
ATOM     67  C   UNL A   1      41.553  27.379  27.023  1.00  0.00     0.091 A 
ATOM     68  F   UNL A   1      42.320  29.268  28.265  1.00  0.00    -0.205 F 
ATOM     69  C   UNL A   1      40.751  26.227  26.958  1.00  0.00     0.022 A 
BRANCH  67  70
ATOM     70  S   UNL A   1      42.531  27.765  25.566  1.00  0.00     0.127 S 
ATOM     71  O   UNL A   1      43.874  27.875  26.134  1.00  0.00    -0.237 OA
ATOM     72  O   UNL A   1      42.315  26.582  24.732  1.00  0.00    -0.237 OA
ATOM     73  O   UNL A   1      41.982  29.001  25.027  1.00  0.00    -0.744 OA
ENDBRANCH  67  70
ENDBRANCH  49  63
BRANCH  50  74
ATOM     74  C   UNL A   1      39.456  33.940  37.076  1.00  0.00     0.023 A 
ATOM     75  C   UNL A   1      39.912  35.274  37.046  1.00  0.00     0.012 A 
ATOM     76  C   UNL A   1      38.836  33.455  38.243  1.00  0.00     0.148 A 
ATOM     77  C   UNL A   1      39.797  36.091  38.171  1.00  0.00     0.002 A 
ATOM     78  C   UNL A   1      38.671  34.292  39.341  1.00  0.00     0.091 A 
ATOM     79  F   UNL A   1      38.419  32.181  38.259  1.00  0.00    -0.205 F 
ATOM     80  C   UNL A   1      39.170  35.604  39.315  1.00  0.00     0.022 A 
BRANCH  78  81
ATOM     81  S   UNL A   1      37.760  33.789  40.804  1.00  0.00     0.127 S 
ATOM     82  O   UNL A   1      38.708  32.885  41.451  1.00  0.00    -0.237 OA
ATOM     83  O   UNL A   1      37.557  35.066  41.490  1.00  0.00    -0.237 OA
ATOM     84  O   UNL A   1      36.534  33.176  40.310  1.00  0.00    -0.744 OA
ENDBRANCH  78  81
ENDBRANCH  50  74
BRANCH  62  85
ATOM     85  C   UNL A   1      44.044  28.924  35.510  1.00  0.00     0.023 A 
ATOM     86  C   UNL A   1      45.318  29.513  35.380  1.00  0.00     0.012 A 
ATOM     87  C   UNL A   1      43.869  27.843  36.397  1.00  0.00     0.148 A 
ATOM     88  C   UNL A   1      46.405  29.013  36.097  1.00  0.00     0.002 A 
ATOM     89  C   UNL A   1      44.944  27.385  37.148  1.00  0.00     0.091 A 
ATOM     90  F   UNL A   1      42.652  27.288  36.493  1.00  0.00    -0.205 F 
ATOM     91  C   UNL A   1      46.215  27.960  36.988  1.00  0.00     0.022 A 
BRANCH  89  92
ATOM     92  S   UNL A   1      44.777  26.101  38.391  1.00  0.00     0.127 S 
ATOM     93  O   UNL A   1      46.169  25.880  38.781  1.00  0.00    -0.237 OA
ATOM     94  O   UNL A   1      43.957  26.762  39.407  1.00  0.00    -0.237 OA
ATOM     95  O   UNL A   1      44.130  24.976  37.727  1.00  0.00    -0.744 OA
ENDBRANCH  89  92
ENDBRANCH  62  85
ENDBRANCH  36  37
ENDBRANCH  28  31
ENDBRANCH  26  27
ENDBRANCH   1  26
TORSDOF 16
ENDMDL
MODEL 2
REMARK VINA RESULT:     -12.1      3.542      9.105
REMARK SMILES CC1(C)CCN(C(=O)N[C@](C)(C(=O)NCCCNC(=O)c2ccc(-c3c4nc(c(-c5cccc(S(=O)(=O)[O-])c5F)c5ccc([nH]5)c(-c5cccc(S(=O)(=O)[O-])c5F)c5nc(c(-c6cccc(S(=O)(=O)[O-])c6F)c6ccc3[nH]6)C=C5)C=C4)cc2)c2ccccc2)C1
REMARK SMILES IDX 16 1 15 2 14 3 12 4 13 5 10 7 11 8 9 9 7 10 8 11 6 13 1 14
REMARK SMILES IDX 2 15 3 16 4 17 90 18 5 19 84 20 85 21 89 22 86 23 88 24
REMARK SMILES IDX 87 25 17 26 18 27 19 28 20 30 21 31 22 32 83 33 23 34 82 35
REMARK SMILES IDX 24 36 25 37 26 38 76 39 27 40 81 41 75 42 77 43 28 44 80 45
REMARK SMILES IDX 74 46 73 47 29 49 61 50 41 51 60 52 42 53 45 54 59 55 78 56
REMARK SMILES IDX 43 57 44 58 58 60 79 61 46 62 30 63 31 64 39 65 32 66 34 67
REMARK SMILES IDX 40 68 33 69 35 70 36 71 37 72 38 73 62 74 63 75 71 76 64 77
REMARK SMILES IDX 66 78 72 79 65 80 67 81 68 82 69 83 70 84 47 85 48 86 56 87
REMARK SMILES IDX 49 88 51 89 57 90 50 91 52 92 53 93 54 94 55 95
REMARK H PARENT 14 6 9 12 18 29 77 48 45 59
REMARK Flexibility Score: inf
ROOT
ATOM      1  C   UNL A   1      33.639  27.487  26.365  1.00  0.00     0.042 C 
ENDROOT
BRANCH   1   2
ATOM      2  C   UNL A   1      34.172  26.147  25.849  1.00  0.00     0.117 C 
BRANCH   2   3
ATOM      3  N   UNL A   1      33.175  25.101  25.966  1.00  0.00    -0.354 N 
ATOM      4  C   UNL A   1      32.631  24.208  25.096  1.00  0.00     0.250 C 
ATOM      5  O   UNL A   1      31.497  23.849  25.444  1.00  0.00    -0.272 OA
ATOM      6  H   UNL A   1      32.812  25.020  26.877  1.00  0.00     0.163 HD
BRANCH   4   7
ATOM      7  C   UNL A   1      33.343  23.670  23.767  1.00  0.00     0.143 C 
ATOM      8  C   UNL A   1      32.337  22.816  22.955  1.00  0.00     0.051 C 
BRANCH   7   9
ATOM      9  N   UNL A   1      33.640  24.841  22.880  1.00  0.00    -0.320 N 
ATOM     10  C   UNL A   1      32.912  25.634  22.073  1.00  0.00     0.318 C 
ATOM     11  O   UNL A   1      33.279  25.666  20.892  1.00  0.00    -0.249 OA
ATOM     12  H   UNL A   1      34.594  25.089  22.890  1.00  0.00     0.166 HD
BRANCH  10  13
ATOM     13  N   UNL A   1      31.973  26.505  22.539  1.00  0.00    -0.324 N 
ATOM     14  C   UNL A   1      29.844  29.391  22.381  1.00  0.00     0.013 C 
ATOM     15  C   UNL A   1      30.661  28.401  23.215  1.00  0.00    -0.016 C 
ATOM     16  C   UNL A   1      31.021  29.085  24.545  1.00  0.00     0.013 C 
ATOM     17  C   UNL A   1      29.896  27.101  23.523  1.00  0.00     0.030 C 
ATOM     18  C   UNL A   1      31.902  27.947  22.413  1.00  0.00     0.127 C 
ATOM     19  C   UNL A   1      30.638  25.998  22.788  1.00  0.00     0.122 C 
ENDBRANCH  10  13
ENDBRANCH   7   9
BRANCH   7  20
ATOM     20  C   UNL A   1      34.571  22.810  24.141  1.00  0.00    -0.013 A 
ATOM     21  C   UNL A   1      34.401  21.574  24.801  1.00  0.00     0.007 A 
ATOM     22  C   UNL A   1      35.900  23.208  23.869  1.00  0.00     0.007 A 
ATOM     23  C   UNL A   1      35.493  20.778  25.157  1.00  0.00     0.000 A 
ATOM     24  C   UNL A   1      36.992  22.430  24.262  1.00  0.00     0.000 A 
ATOM     25  C   UNL A   1      36.789  21.215  24.904  1.00  0.00     0.000 A 
ENDBRANCH   7  20
ENDBRANCH   4   7
ENDBRANCH   2   3
ENDBRANCH   1   2
BRANCH   1  26
ATOM     26  C   UNL A   1      34.409  28.710  25.859  1.00  0.00     0.118 C 
BRANCH  26  27
ATOM     27  N   UNL A   1      33.993  29.942  26.514  1.00  0.00    -0.352 N 
ATOM     28  C   UNL A   1      34.524  30.584  27.607  1.00  0.00     0.251 C 
ATOM     29  H   UNL A   1      33.210  30.383  26.113  1.00  0.00     0.163 HD
ATOM     30  O   UNL A   1      33.891  31.485  28.147  1.00  0.00    -0.269 OA
BRANCH  28  31
ATOM     31  C   UNL A   1      35.846  30.187  28.136  1.00  0.00     0.039 A 
ATOM     32  C   UNL A   1      35.916  29.560  29.382  1.00  0.00     0.014 A 
ATOM     33  C   UNL A   1      37.014  30.455  27.419  1.00  0.00     0.014 A 
ATOM     34  C   UNL A   1      37.154  29.146  29.880  1.00  0.00     0.010 A 
ATOM     35  C   UNL A   1      38.237  29.975  27.881  1.00  0.00     0.010 A 
ATOM     36  C   UNL A   1      38.321  29.317  29.117  1.00  0.00    -0.014 A 
BRANCH  36  37
ATOM     37  C   UNL A   1      39.634  28.804  29.588  1.00  0.00     0.031 A 
ATOM     38  C   UNL A   1      40.382  29.518  30.682  1.00  0.00     0.074 A 
ATOM     39  C   UNL A   1      40.189  27.740  28.973  1.00  0.00     0.049 A 
ATOM     40  N   UNL A   1      41.567  29.264  31.171  1.00  0.00    -0.248 NA
ATOM     41  C   UNL A   1      39.722  30.686  31.291  1.00  0.00     0.031 C 
ATOM     42  C   UNL A   1      39.593  27.002  27.856  1.00  0.00     0.029 A 
ATOM     43  N   UNL A   1      41.391  27.109  29.180  1.00  0.00    -0.354 N 
ATOM     44  C   UNL A   1      41.808  30.250  32.121  1.00  0.00     0.074 A 
ATOM     45  C   UNL A   1      40.660  31.131  32.114  1.00  0.00     0.031 C 
ATOM     46  C   UNL A   1      40.428  26.019  27.480  1.00  0.00     0.029 A 
ATOM     47  C   UNL A   1      41.633  26.079  28.300  1.00  0.00     0.049 A 
ATOM     48  H   UNL A   1      42.019  27.368  29.891  1.00  0.00     0.167 HD
ATOM     49  C   UNL A   1      42.872  30.393  32.947  1.00  0.00     0.034 A 
ATOM     50  C   UNL A   1      42.712  25.283  28.158  1.00  0.00     0.034 A 
ATOM     51  C   UNL A   1      43.995  29.496  32.973  1.00  0.00     0.049 A 
ATOM     52  C   UNL A   1      43.877  25.462  29.095  1.00  0.00     0.074 A 
ATOM     53  C   UNL A   1      45.091  29.516  33.818  1.00  0.00     0.029 A 
ATOM     54  N   UNL A   1      44.172  28.422  32.115  1.00  0.00    -0.354 N 
ATOM     55  N   UNL A   1      44.019  26.313  30.082  1.00  0.00    -0.248 NA
ATOM     56  C   UNL A   1      45.017  24.552  28.920  1.00  0.00     0.031 C 
ATOM     57  C   UNL A   1      45.944  28.470  33.452  1.00  0.00     0.029 A 
ATOM     58  C   UNL A   1      45.362  27.778  32.403  1.00  0.00     0.049 A 
ATOM     59  H   UNL A   1      43.543  28.157  31.405  1.00  0.00     0.167 HD
ATOM     60  C   UNL A   1      45.243  26.011  30.671  1.00  0.00     0.074 A 
ATOM     61  C   UNL A   1      45.791  24.886  29.943  1.00  0.00     0.031 C 
ATOM     62  C   UNL A   1      45.865  26.621  31.709  1.00  0.00     0.034 A 
BRANCH  49  63
ATOM     63  C   UNL A   1      42.850  31.530  33.936  1.00  0.00     0.023 A 
ATOM     64  C   UNL A   1      43.420  32.769  33.580  1.00  0.00     0.012 A 
ATOM     65  C   UNL A   1      42.197  31.401  35.177  1.00  0.00     0.148 A 
ATOM     66  C   UNL A   1      43.366  33.854  34.453  1.00  0.00     0.002 A 
ATOM     67  C   UNL A   1      42.107  32.500  36.025  1.00  0.00     0.091 A 
ATOM     68  F   UNL A   1      41.674  30.210  35.504  1.00  0.00    -0.205 F 
ATOM     69  C   UNL A   1      42.701  33.722  35.669  1.00  0.00     0.022 A 
BRANCH  67  70
ATOM     70  S   UNL A   1      41.204  32.463  37.577  1.00  0.00     0.127 S 
ATOM     71  O   UNL A   1      41.217  33.875  37.959  1.00  0.00    -0.237 OA
ATOM     72  O   UNL A   1      39.897  31.957  37.157  1.00  0.00    -0.237 OA
ATOM     73  O   UNL A   1      41.949  31.575  38.457  1.00  0.00    -0.744 OA
ENDBRANCH  67  70
ENDBRANCH  49  63
BRANCH  50  74
ATOM     74  C   UNL A   1      42.731  24.212  27.120  1.00  0.00     0.023 A 
ATOM     75  C   UNL A   1      43.393  24.445  25.897  1.00  0.00     0.012 A 
ATOM     76  C   UNL A   1      42.091  22.975  27.327  1.00  0.00     0.148 A 
ATOM     77  C   UNL A   1      43.376  23.486  24.884  1.00  0.00     0.002 A 
ATOM     78  C   UNL A   1      42.128  22.000  26.337  1.00  0.00     0.091 A 
ATOM     79  F   UNL A   1      41.457  22.775  28.490  1.00  0.00    -0.205 F 
ATOM     80  C   UNL A   1      42.751  22.262  25.106  1.00  0.00     0.022 A 
BRANCH  78  81
ATOM     81  S   UNL A   1      41.464  20.351  26.588  1.00  0.00     0.127 S 
ATOM     82  O   UNL A   1      40.026  20.602  26.576  1.00  0.00    -0.237 OA
ATOM     83  O   UNL A   1      41.976  19.636  25.418  1.00  0.00    -0.237 OA
ATOM     84  O   UNL A   1      42.019  19.894  27.855  1.00  0.00    -0.744 OA
ENDBRANCH  78  81
ENDBRANCH  50  74
BRANCH  62  85
ATOM     85  C   UNL A   1      47.186  26.058  32.161  1.00  0.00     0.023 A 
ATOM     86  C   UNL A   1      48.379  26.464  31.529  1.00  0.00     0.012 A 
ATOM     87  C   UNL A   1      47.250  25.182  33.264  1.00  0.00     0.148 A 
ATOM     88  C   UNL A   1      49.611  25.981  31.968  1.00  0.00     0.002 A 
ATOM     89  C   UNL A   1      48.485  24.748  33.728  1.00  0.00     0.091 A 
ATOM     90  F   UNL A   1      46.103  24.797  33.840  1.00  0.00    -0.205 F 
ATOM     91  C   UNL A   1      49.665  25.135  33.073  1.00  0.00     0.022 A 
BRANCH  89  92
ATOM     92  S   UNL A   1      48.661  23.737  35.202  1.00  0.00     0.127 S 
ATOM     93  O   UNL A   1      48.352  22.404  34.688  1.00  0.00    -0.237 OA
ATOM     94  O   UNL A   1      50.067  23.945  35.550  1.00  0.00    -0.237 OA
ATOM     95  O   UNL A   1      47.712  24.267  36.172  1.00  0.00    -0.744 OA
ENDBRANCH  89  92
ENDBRANCH  62  85
ENDBRANCH  36  37
ENDBRANCH  28  31
ENDBRANCH  26  27
ENDBRANCH   1  26
TORSDOF 16
ENDMDL
MODEL 3
REMARK VINA RESULT:     -12.1      3.478      8.685
REMARK SMILES CC1(C)CCN(C(=O)N[C@](C)(C(=O)NCCCNC(=O)c2ccc(-c3c4nc(c(-c5cccc(S(=O)(=O)[O-])c5F)c5ccc([nH]5)c(-c5cccc(S(=O)(=O)[O-])c5F)c5nc(c(-c6cccc(S(=O)(=O)[O-])c6F)c6ccc3[nH]6)C=C5)C=C4)cc2)c2ccccc2)C1
REMARK SMILES IDX 16 1 15 2 14 3 12 4 13 5 10 7 11 8 9 9 7 10 8 11 6 13 1 14
REMARK SMILES IDX 2 15 3 16 4 17 90 18 5 19 84 20 85 21 89 22 86 23 88 24
REMARK SMILES IDX 87 25 17 26 18 27 19 28 20 30 21 31 22 32 83 33 23 34 82 35
REMARK SMILES IDX 24 36 25 37 26 38 76 39 27 40 81 41 75 42 77 43 28 44 80 45
REMARK SMILES IDX 74 46 73 47 29 49 61 50 41 51 60 52 42 53 45 54 59 55 78 56
REMARK SMILES IDX 43 57 44 58 58 60 79 61 46 62 30 63 31 64 39 65 32 66 34 67
REMARK SMILES IDX 40 68 33 69 35 70 36 71 37 72 38 73 62 74 63 75 71 76 64 77
REMARK SMILES IDX 66 78 72 79 65 80 67 81 68 82 69 83 70 84 47 85 48 86 56 87
REMARK SMILES IDX 49 88 51 89 57 90 50 91 52 92 53 93 54 94 55 95
REMARK H PARENT 14 6 9 12 18 29 77 48 45 59
REMARK Flexibility Score: inf
ROOT
ATOM      1  C   UNL A   1      33.463  28.088  27.050  1.00  0.00     0.042 C 
ENDROOT
BRANCH   1   2
ATOM      2  C   UNL A   1      32.057  27.620  26.662  1.00  0.00     0.117 C 
BRANCH   2   3
ATOM      3  N   UNL A   1      32.028  26.194  26.400  1.00  0.00    -0.354 N 
ATOM      4  C   UNL A   1      31.839  25.439  25.285  1.00  0.00     0.250 C 
ATOM      5  O   UNL A   1      31.396  24.313  25.553  1.00  0.00    -0.272 OA
ATOM      6  H   UNL A   1      32.179  25.654  27.209  1.00  0.00     0.163 HD
BRANCH   4   7
ATOM      7  C   UNL A   1      32.139  25.920  23.788  1.00  0.00     0.143 C 
ATOM      8  C   UNL A   1      33.570  26.509  23.714  1.00  0.00     0.051 C 
BRANCH   7   9
ATOM      9  N   UNL A   1      32.186  24.712  22.900  1.00  0.00    -0.320 N 
ATOM     10  C   UNL A   1      33.139  23.838  22.531  1.00  0.00     0.318 C 
ATOM     11  O   UNL A   1      33.333  23.752  21.313  1.00  0.00    -0.249 OA
ATOM     12  H   UNL A   1      31.312  24.511  22.492  1.00  0.00     0.166 HD
BRANCH  10  13
ATOM     13  N   UNL A   1      33.711  22.954  23.396  1.00  0.00    -0.324 N 
ATOM     14  C   UNL A   1      34.456  19.694  24.703  1.00  0.00     0.013 C 
ATOM     15  C   UNL A   1      34.241  21.191  24.941  1.00  0.00    -0.016 C 
ATOM     16  C   UNL A   1      33.846  21.386  26.414  1.00  0.00     0.013 C 
ATOM     17  C   UNL A   1      35.500  22.031  24.655  1.00  0.00     0.030 C 
ATOM     18  C   UNL A   1      33.178  21.726  23.954  1.00  0.00     0.127 C 
ATOM     19  C   UNL A   1      35.158  22.898  23.455  1.00  0.00     0.122 C 
ENDBRANCH  10  13
ENDBRANCH   7   9
BRANCH   7  20
ATOM     20  C   UNL A   1      31.112  26.997  23.367  1.00  0.00    -0.013 A 
ATOM     21  C   UNL A   1      31.544  28.188  22.746  1.00  0.00     0.007 A 
ATOM     22  C   UNL A   1      29.724  26.862  23.590  1.00  0.00     0.007 A 
ATOM     23  C   UNL A   1      30.640  29.181  22.360  1.00  0.00     0.000 A 
ATOM     24  C   UNL A   1      28.824  27.874  23.241  1.00  0.00     0.000 A 
ATOM     25  C   UNL A   1      29.282  29.032  22.624  1.00  0.00     0.000 A 
ENDBRANCH   7  20
ENDBRANCH   4   7
ENDBRANCH   2   3
ENDBRANCH   1   2
BRANCH   1  26
ATOM     26  C   UNL A   1      33.994  29.254  26.211  1.00  0.00     0.118 C 
BRANCH  26  27
ATOM     27  N   UNL A   1      33.861  30.535  26.889  1.00  0.00    -0.352 N 
ATOM     28  C   UNL A   1      34.593  31.068  27.922  1.00  0.00     0.251 C 
ATOM     29  H   UNL A   1      33.134  31.108  26.556  1.00  0.00     0.163 HD
ATOM     30  O   UNL A   1      34.179  32.063  28.508  1.00  0.00    -0.269 OA
BRANCH  28  31
ATOM     31  C   UNL A   1      35.869  30.443  28.332  1.00  0.00     0.039 A 
ATOM     32  C   UNL A   1      37.004  30.639  27.541  1.00  0.00     0.014 A 
ATOM     33  C   UNL A   1      35.940  29.645  29.476  1.00  0.00     0.014 A 
ATOM     34  C   UNL A   1      38.225  30.085  27.934  1.00  0.00     0.010 A 
ATOM     35  C   UNL A   1      37.171  29.158  29.906  1.00  0.00     0.010 A 
ATOM     36  C   UNL A   1      38.327  29.370  29.139  1.00  0.00    -0.014 A 
BRANCH  36  37
ATOM     37  C   UNL A   1      39.633  28.850  29.620  1.00  0.00     0.031 A 
ATOM     38  C   UNL A   1      40.380  29.565  30.715  1.00  0.00     0.074 A 
ATOM     39  C   UNL A   1      40.184  27.779  29.015  1.00  0.00     0.049 A 
ATOM     40  N   UNL A   1      41.560  29.306  31.212  1.00  0.00    -0.248 NA
ATOM     41  C   UNL A   1      39.724  30.741  31.314  1.00  0.00     0.031 C 
ATOM     42  C   UNL A   1      39.590  27.039  27.898  1.00  0.00     0.029 A 
ATOM     43  N   UNL A   1      41.380  27.141  29.232  1.00  0.00    -0.354 N 
ATOM     44  C   UNL A   1      41.803  30.295  32.158  1.00  0.00     0.074 A 
ATOM     45  C   UNL A   1      40.661  31.184  32.140  1.00  0.00     0.031 C 
ATOM     46  C   UNL A   1      40.420  26.049  27.533  1.00  0.00     0.029 A 
ATOM     47  C   UNL A   1      41.620  26.104  28.359  1.00  0.00     0.049 A 
ATOM     48  H   UNL A   1      42.007  27.400  29.945  1.00  0.00     0.167 HD
ATOM     49  C   UNL A   1      42.863  30.435  32.990  1.00  0.00     0.034 A 
ATOM     50  C   UNL A   1      42.695  25.300  28.228  1.00  0.00     0.034 A 
ATOM     51  C   UNL A   1      43.980  29.530  33.027  1.00  0.00     0.049 A 
ATOM     52  C   UNL A   1      43.855  25.476  29.171  1.00  0.00     0.074 A 
ATOM     53  C   UNL A   1      45.071  29.547  33.879  1.00  0.00     0.029 A 
ATOM     54  N   UNL A   1      44.153  28.450  32.177  1.00  0.00    -0.354 N 
ATOM     55  N   UNL A   1      43.998  26.331  30.153  1.00  0.00    -0.248 NA
ATOM     56  C   UNL A   1      44.990  24.557  29.007  1.00  0.00     0.031 C 
ATOM     57  C   UNL A   1      45.919  28.493  33.524  1.00  0.00     0.029 A 
ATOM     58  C   UNL A   1      45.337  27.799  32.475  1.00  0.00     0.049 A 
ATOM     59  H   UNL A   1      43.527  28.186  31.464  1.00  0.00     0.167 HD
ATOM     60  C   UNL A   1      45.216  26.024  30.751  1.00  0.00     0.074 A 
ATOM     61  C   UNL A   1      45.760  24.891  30.033  1.00  0.00     0.031 C 
ATOM     62  C   UNL A   1      45.836  26.635  31.790  1.00  0.00     0.034 A 
BRANCH  49  63
ATOM     63  C   UNL A   1      42.843  31.577  33.972  1.00  0.00     0.023 A 
ATOM     64  C   UNL A   1      43.361  32.831  33.588  1.00  0.00     0.012 A 
ATOM     65  C   UNL A   1      42.242  31.437  35.238  1.00  0.00     0.148 A 
ATOM     66  C   UNL A   1      43.307  33.919  34.457  1.00  0.00     0.002 A 
ATOM     67  C   UNL A   1      42.150  32.539  36.082  1.00  0.00     0.091 A 
ATOM     68  F   UNL A   1      41.768  30.233  35.591  1.00  0.00    -0.205 F 
ATOM     69  C   UNL A   1      42.692  33.776  35.697  1.00  0.00     0.022 A 
BRANCH  67  70
ATOM     70  S   UNL A   1      41.306  32.485  37.667  1.00  0.00     0.127 S 
ATOM     71  O   UNL A   1      41.319  33.895  38.055  1.00  0.00    -0.237 OA
ATOM     72  O   UNL A   1      39.990  31.966  37.295  1.00  0.00    -0.237 OA
ATOM     73  O   UNL A   1      42.094  31.601  38.515  1.00  0.00    -0.744 OA
ENDBRANCH  67  70
ENDBRANCH  49  63
BRANCH  50  74
ATOM     74  C   UNL A   1      42.712  24.224  27.195  1.00  0.00     0.023 A 
ATOM     75  C   UNL A   1      43.360  24.455  25.965  1.00  0.00     0.012 A 
ATOM     76  C   UNL A   1      42.085  22.982  27.416  1.00  0.00     0.148 A 
ATOM     77  C   UNL A   1      43.340  23.490  24.957  1.00  0.00     0.002 A 
ATOM     78  C   UNL A   1      42.121  22.002  26.431  1.00  0.00     0.091 A 
ATOM     79  F   UNL A   1      41.464  22.783  28.587  1.00  0.00    -0.205 F 
ATOM     80  C   UNL A   1      42.728  22.262  25.193  1.00  0.00     0.022 A 
BRANCH  78  81
ATOM     81  S   UNL A   1      41.473  20.348  26.698  1.00  0.00     0.127 S 
ATOM     82  O   UNL A   1      42.228  19.917  27.872  1.00  0.00    -0.237 OA
ATOM     83  O   UNL A   1      40.054  20.614  26.940  1.00  0.00    -0.237 OA
ATOM     84  O   UNL A   1      41.742  19.619  25.466  1.00  0.00    -0.744 OA
ENDBRANCH  78  81
ENDBRANCH  50  74
BRANCH  62  85
ATOM     85  C   UNL A   1      47.151  26.065  32.253  1.00  0.00     0.023 A 
ATOM     86  C   UNL A   1      48.359  26.553  31.716  1.00  0.00     0.012 A 
ATOM     87  C   UNL A   1      47.189  25.097  33.277  1.00  0.00     0.148 A 
ATOM     88  C   UNL A   1      49.583  26.062  32.168  1.00  0.00     0.002 A 
ATOM     89  C   UNL A   1      48.413  24.653  33.760  1.00  0.00     0.091 A 
ATOM     90  F   UNL A   1      46.028  24.636  33.763  1.00  0.00    -0.205 F 
ATOM     91  C   UNL A   1      49.611  25.123  33.197  1.00  0.00     0.022 A 
BRANCH  89  92
ATOM     92  S   UNL A   1      48.551  23.520  35.146  1.00  0.00     0.127 S 
ATOM     93  O   UNL A   1      50.001  23.384  35.277  1.00  0.00    -0.237 OA
ATOM     94  O   UNL A   1      47.910  24.275  36.224  1.00  0.00    -0.237 OA
ATOM     95  O   UNL A   1      47.844  22.309  34.751  1.00  0.00    -0.744 OA
ENDBRANCH  89  92
ENDBRANCH  62  85
ENDBRANCH  36  37
ENDBRANCH  28  31
ENDBRANCH  26  27
ENDBRANCH   1  26
TORSDOF 16
ENDMDL
