MODEL 1
REMARK VINA RESULT:     -13.2      0.000      0.000
REMARK SMILES O=C(CCC(=O)N1N=C(c2ccc(F)cc2)C[C@@H]1c1ccc2nccnc2c1)NCCCNC(=O)c1ccc(-c2c3nc(c(-c4cccc(S(=O)(=O)[O-])c4F)c4ccc([nH]4)c(-c4cccc(S(=O)(=O)[O-])c4F)c4nc(c(-c5cccc(S(=O)(=O)[O-])c5F)c5ccc2[nH]5)C=C4)C=C3)cc1
REMARK SMILES IDX 30 1 29 2 1 3 2 4 3 6 4 7 5 8 6 9 7 10 8 11 18 12 9 13 17 14
REMARK SMILES IDX 19 15 20 16 28 17 21 18 27 19 22 20 26 21 23 22 25 23 24 24
REMARK SMILES IDX 10 25 11 26 16 27 12 28 15 29 13 30 14 31 31 32 32 33 33 34
REMARK SMILES IDX 34 35 35 37 36 38 37 39 98 40 38 41 97 42 39 43 40 44 41 45
REMARK SMILES IDX 91 46 42 47 96 48 90 49 92 50 43 51 95 52 89 53 88 54 44 56
REMARK SMILES IDX 76 57 56 58 75 59 57 60 60 61 74 62 93 63 58 64 59 65 73 67
REMARK SMILES IDX 94 68 61 69 45 70 46 71 54 72 47 73 49 74 55 75 48 76 50 77
REMARK SMILES IDX 51 78 52 79 53 80 77 81 78 82 86 83 79 84 81 85 87 86 80 87
REMARK SMILES IDX 82 88 83 89 84 90 85 91 62 92 63 93 71 94 64 95 66 96 72 97
REMARK SMILES IDX 65 98 67 99 68 100 69 101 70 102
REMARK H PARENT 29 5 33 36 92 55 60 66
REMARK Flexibility Score: inf
ROOT
ATOM      1  C   UNL A   1      36.118  20.395  24.888  1.00  0.00     0.117 C 
ENDROOT
BRANCH   1   2
ATOM      2  N   UNL A   1      35.733  21.062  26.140  1.00  0.00    -0.356 N 
ATOM      3  O   UNL A   1      35.319  23.096  25.162  1.00  0.00    -0.275 OA
ATOM      4  C   UNL A   1      35.202  22.349  26.132  1.00  0.00     0.220 C 
ATOM      5  H   UNL A   1      35.853  20.592  26.997  1.00  0.00     0.163 HD
BRANCH   4   6
ATOM      6  C   UNL A   1      34.355  22.735  27.355  1.00  0.00     0.110 C 
BRANCH   6   7
ATOM      7  C   UNL A   1      33.381  23.887  27.042  1.00  0.00     0.112 C 
BRANCH   7   8
ATOM      8  C   UNL A   1      31.881  23.735  26.689  1.00  0.00     0.243 C 
ATOM      9  O   UNL A   1      31.098  23.509  27.624  1.00  0.00    -0.273 OA
BRANCH   8  10
ATOM     10  N   UNL A   1      31.417  24.045  25.423  1.00  0.00    -0.225 N 
ATOM     11  N   UNL A   1      30.546  25.135  25.270  1.00  0.00    -0.174 NA
ATOM     12  C   UNL A   1      31.977  23.629  24.156  1.00  0.00     0.147 C 
ATOM     13  C   UNL A   1      30.531  25.423  24.003  1.00  0.00     0.071 C 
ATOM     14  C   UNL A   1      31.370  24.548  23.132  1.00  0.00     0.091 C 
BRANCH  12  15
ATOM     15  C   UNL A   1      31.967  22.147  23.818  1.00  0.00    -0.021 A 
ATOM     16  C   UNL A   1      31.932  21.770  22.470  1.00  0.00     0.008 A 
ATOM     17  C   UNL A   1      32.115  21.111  24.746  1.00  0.00     0.036 A 
ATOM     18  C   UNL A   1      32.076  20.460  22.039  1.00  0.00     0.031 A 
ATOM     19  C   UNL A   1      32.293  19.778  24.338  1.00  0.00     0.089 A 
ATOM     20  C   UNL A   1      32.283  19.463  22.953  1.00  0.00     0.089 A 
ATOM     21  N   UNL A   1      32.515  18.806  25.241  1.00  0.00    -0.253 NA
ATOM     22  N   UNL A   1      32.501  18.229  22.478  1.00  0.00    -0.253 NA
ATOM     23  C   UNL A   1      32.717  17.558  24.751  1.00  0.00     0.132 A 
ATOM     24  C   UNL A   1      32.715  17.276  23.400  1.00  0.00     0.132 A 
ENDBRANCH  12  15
BRANCH  13  25
ATOM     25  C   UNL A   1      29.901  26.586  23.353  1.00  0.00    -0.002 A 
ATOM     26  C   UNL A   1      30.723  27.513  22.700  1.00  0.00     0.013 A 
ATOM     27  C   UNL A   1      28.561  26.896  23.622  1.00  0.00     0.013 A 
ATOM     28  C   UNL A   1      30.213  28.755  22.322  1.00  0.00     0.040 A 
ATOM     29  C   UNL A   1      28.058  28.148  23.245  1.00  0.00     0.040 A 
ATOM     30  C   UNL A   1      28.888  29.066  22.607  1.00  0.00     0.123 A 
ATOM     31  F   UNL A   1      28.409  30.273  22.276  1.00  0.00    -0.207 F 
ENDBRANCH  13  25
ENDBRANCH   8  10
ENDBRANCH   7   8
ENDBRANCH   6   7
ENDBRANCH   4   6
ENDBRANCH   1   2
BRANCH   1  32
ATOM     32  C   UNL A   1      37.623  20.088  24.647  1.00  0.00     0.042 C 
BRANCH  32  33
ATOM     33  C   UNL A   1      38.709  20.227  25.752  1.00  0.00     0.118 C 
BRANCH  33  34
ATOM     34  N   UNL A   1      39.775  19.249  25.777  1.00  0.00    -0.352 N 
ATOM     35  C   UNL A   1      41.108  19.396  26.119  1.00  0.00     0.251 C 
ATOM     36  H   UNL A   1      39.511  18.339  25.509  1.00  0.00     0.163 HD
ATOM     37  O   UNL A   1      41.813  18.387  26.057  1.00  0.00    -0.269 OA
BRANCH  35  38
ATOM     38  C   UNL A   1      41.757  20.696  26.501  1.00  0.00     0.039 A 
ATOM     39  C   UNL A   1      42.225  21.492  25.443  1.00  0.00     0.014 A 
ATOM     40  C   UNL A   1      41.969  21.158  27.806  1.00  0.00     0.014 A 
ATOM     41  C   UNL A   1      42.781  22.759  25.673  1.00  0.00     0.010 A 
ATOM     42  C   UNL A   1      42.502  22.448  28.040  1.00  0.00     0.010 A 
ATOM     43  C   UNL A   1      42.865  23.285  26.973  1.00  0.00    -0.014 A 
BRANCH  43  44
ATOM     44  C   UNL A   1      43.095  24.756  27.142  1.00  0.00     0.031 A 
ATOM     45  C   UNL A   1      42.099  25.692  27.771  1.00  0.00     0.074 A 
ATOM     46  C   UNL A   1      44.275  25.252  26.709  1.00  0.00     0.049 A 
ATOM     47  N   UNL A   1      42.261  26.948  28.110  1.00  0.00    -0.248 NA
ATOM     48  C   UNL A   1      40.754  25.169  28.042  1.00  0.00     0.031 C 
ATOM     49  C   UNL A   1      45.297  24.468  26.008  1.00  0.00     0.029 A 
ATOM     50  N   UNL A   1      44.828  26.508  26.794  1.00  0.00    -0.354 N 
ATOM     51  C   UNL A   1      41.042  27.373  28.629  1.00  0.00     0.074 A 
ATOM     52  C   UNL A   1      40.142  26.240  28.538  1.00  0.00     0.031 C 
ATOM     53  C   UNL A   1      46.363  25.243  25.768  1.00  0.00     0.029 A 
ATOM     54  C   UNL A   1      46.099  26.589  26.268  1.00  0.00     0.049 A 
ATOM     55  H   UNL A   1      44.360  27.276  27.193  1.00  0.00     0.167 HD
ATOM     56  C   UNL A   1      40.714  28.584  29.149  1.00  0.00     0.034 A 
ATOM     57  C   UNL A   1      46.971  27.616  26.201  1.00  0.00     0.034 A 
ATOM     58  C   UNL A   1      41.622  29.701  29.244  1.00  0.00     0.049 A 
ATOM     59  C   UNL A   1      46.598  28.933  26.821  1.00  0.00     0.074 A 
ATOM     60  C   UNL A   1      41.401  30.939  29.827  1.00  0.00     0.029 A 
ATOM     61  N   UNL A   1      42.911  29.731  28.733  1.00  0.00    -0.354 N 
ATOM     62  N   UNL A   1      45.502  29.255  27.462  1.00  0.00    -0.248 NA
ATOM     63  C   UNL A   1      47.589  30.018  26.742  1.00  0.00     0.031 C 
ATOM     64  C   UNL A   1      42.539  31.727  29.633  1.00  0.00     0.029 A 
ATOM     65  C   UNL A   1      43.486  30.969  28.966  1.00  0.00     0.049 A 
ATOM     66  H   UNL A   1      43.352  28.981  28.271  1.00  0.00     0.167 HD
ATOM     67  C   UNL A   1      45.678  30.567  27.884  1.00  0.00     0.074 A 
ATOM     68  C   UNL A   1      46.995  30.976  27.443  1.00  0.00     0.031 C 
ATOM     69  C   UNL A   1      44.815  31.360  28.565  1.00  0.00     0.034 A 
BRANCH  56  70
ATOM     70  C   UNL A   1      39.326  28.774  29.716  1.00  0.00     0.023 A 
ATOM     71  C   UNL A   1      39.064  28.387  31.045  1.00  0.00     0.012 A 
ATOM     72  C   UNL A   1      38.323  29.447  28.986  1.00  0.00     0.148 A 
ATOM     73  C   UNL A   1      37.824  28.639  31.631  1.00  0.00     0.002 A 
ATOM     74  C   UNL A   1      37.102  29.732  29.591  1.00  0.00     0.091 A 
ATOM     75  F   UNL A   1      38.587  29.809  27.723  1.00  0.00    -0.205 F 
ATOM     76  C   UNL A   1      36.847  29.319  30.908  1.00  0.00     0.022 A 
BRANCH  74  77
ATOM     77  S   UNL A   1      35.806  30.676  28.778  1.00  0.00     0.127 S 
ATOM     78  O   UNL A   1      36.588  31.604  27.960  1.00  0.00    -0.237 OA
ATOM     79  O   UNL A   1      35.102  29.642  28.019  1.00  0.00    -0.237 OA
ATOM     80  O   UNL A   1      35.026  31.292  29.841  1.00  0.00    -0.744 OA
ENDBRANCH  74  77
ENDBRANCH  56  70
BRANCH  57  81
ATOM     81  C   UNL A   1      48.312  27.397  25.587  1.00  0.00     0.023 A 
ATOM     82  C   UNL A   1      49.375  26.925  26.381  1.00  0.00     0.012 A 
ATOM     83  C   UNL A   1      48.517  27.573  24.203  1.00  0.00     0.148 A 
ATOM     84  C   UNL A   1      50.619  26.645  25.812  1.00  0.00     0.002 A 
ATOM     85  C   UNL A   1      49.737  27.231  23.632  1.00  0.00     0.091 A 
ATOM     86  F   UNL A   1      47.496  28.034  23.466  1.00  0.00    -0.205 F 
ATOM     87  C   UNL A   1      50.796  26.783  24.437  1.00  0.00     0.022 A 
BRANCH  85  88
ATOM     88  S   UNL A   1      49.999  27.225  21.855  1.00  0.00     0.127 S 
ATOM     89  O   UNL A   1      48.960  26.302  21.403  1.00  0.00    -0.237 OA
ATOM     90  O   UNL A   1      49.769  28.629  21.512  1.00  0.00    -0.237 OA
ATOM     91  O   UNL A   1      51.370  26.778  21.659  1.00  0.00    -0.744 OA
ENDBRANCH  85  88
ENDBRANCH  57  81
BRANCH  69  92
ATOM     92  C   UNL A   1      45.248  32.763  28.903  1.00  0.00     0.023 A 
ATOM     93  C   UNL A   1      45.982  33.004  30.080  1.00  0.00     0.012 A 
ATOM     94  C   UNL A   1      45.059  33.811  27.979  1.00  0.00     0.148 A 
ATOM     95  C   UNL A   1      46.515  34.266  30.338  1.00  0.00     0.002 A 
ATOM     96  C   UNL A   1      45.636  35.053  28.216  1.00  0.00     0.091 A 
ATOM     97  F   UNL A   1      44.342  33.563  26.873  1.00  0.00    -0.205 F 
ATOM     98  C   UNL A   1      46.357  35.284  29.399  1.00  0.00     0.022 A 
BRANCH  96  99
ATOM     99  S   UNL A   1      45.581  36.392  27.020  1.00  0.00     0.127 S 
ATOM    100  O   UNL A   1      46.278  35.801  25.878  1.00  0.00    -0.237 OA
ATOM    101  O   UNL A   1      44.142  36.574  26.830  1.00  0.00    -0.237 OA
ATOM    102  O   UNL A   1      46.261  37.519  27.643  1.00  0.00    -0.744 OA
ENDBRANCH  96  99
ENDBRANCH  69  92
ENDBRANCH  43  44
ENDBRANCH  35  38
ENDBRANCH  33  34
ENDBRANCH  32  33
ENDBRANCH   1  32
TORSDOF 18
ENDMDL
MODEL 2
REMARK VINA RESULT:     -12.9      1.813      7.466
REMARK SMILES O=C(CCC(=O)N1N=C(c2ccc(F)cc2)C[C@@H]1c1ccc2nccnc2c1)NCCCNC(=O)c1ccc(-c2c3nc(c(-c4cccc(S(=O)(=O)[O-])c4F)c4ccc([nH]4)c(-c4cccc(S(=O)(=O)[O-])c4F)c4nc(c(-c5cccc(S(=O)(=O)[O-])c5F)c5ccc2[nH]5)C=C4)C=C3)cc1
REMARK SMILES IDX 30 1 29 2 1 3 2 4 3 6 4 7 5 8 6 9 7 10 8 11 18 12 9 13 17 14
REMARK SMILES IDX 19 15 20 16 28 17 21 18 27 19 22 20 26 21 23 22 25 23 24 24
REMARK SMILES IDX 10 25 11 26 16 27 12 28 15 29 13 30 14 31 31 32 32 33 33 34
REMARK SMILES IDX 34 35 35 37 36 38 37 39 98 40 38 41 97 42 39 43 40 44 41 45
REMARK SMILES IDX 91 46 42 47 96 48 90 49 92 50 43 51 95 52 89 53 88 54 44 56
REMARK SMILES IDX 76 57 56 58 75 59 57 60 60 61 74 62 93 63 58 64 59 65 73 67
REMARK SMILES IDX 94 68 61 69 45 70 46 71 54 72 47 73 49 74 55 75 48 76 50 77
REMARK SMILES IDX 51 78 52 79 53 80 77 81 78 82 86 83 79 84 81 85 87 86 80 87
REMARK SMILES IDX 82 88 83 89 84 90 85 91 62 92 63 93 71 94 64 95 66 96 72 97
REMARK SMILES IDX 65 98 67 99 68 100 69 101 70 102
REMARK H PARENT 29 5 33 36 92 55 60 66
REMARK Flexibility Score: inf
ROOT
ATOM      1  C   UNL A   1      35.552  20.660  24.863  1.00  0.00     0.117 C 
ENDROOT
BRANCH   1   2
ATOM      2  N   UNL A   1      34.942  20.854  26.187  1.00  0.00    -0.356 N 
ATOM      3  O   UNL A   1      35.140  23.139  26.164  1.00  0.00    -0.275 OA
ATOM      4  C   UNL A   1      34.642  22.128  26.657  1.00  0.00     0.220 C 
ATOM      5  H   UNL A   1      34.745  20.070  26.749  1.00  0.00     0.163 HD
BRANCH   4   6
ATOM      6  C   UNL A   1      33.559  22.207  27.746  1.00  0.00     0.110 C 
BRANCH   6   7
ATOM      7  C   UNL A   1      32.653  23.440  27.570  1.00  0.00     0.112 C 
BRANCH   7   8
ATOM      8  C   UNL A   1      31.240  23.444  26.937  1.00  0.00     0.243 C 
ATOM      9  O   UNL A   1      30.287  23.147  27.673  1.00  0.00    -0.273 OA
BRANCH   8  10
ATOM     10  N   UNL A   1      31.033  23.957  25.669  1.00  0.00    -0.225 N 
ATOM     11  N   UNL A   1      30.231  25.099  25.523  1.00  0.00    -0.174 NA
ATOM     12  C   UNL A   1      31.817  23.703  24.480  1.00  0.00     0.147 C 
ATOM     13  C   UNL A   1      30.466  25.569  24.334  1.00  0.00     0.071 C 
ATOM     14  C   UNL A   1      31.437  24.789  23.513  1.00  0.00     0.091 C 
BRANCH  12  15
ATOM     15  C   UNL A   1      31.841  22.287  23.925  1.00  0.00    -0.021 A 
ATOM     16  C   UNL A   1      31.841  22.116  22.535  1.00  0.00     0.008 A 
ATOM     17  C   UNL A   1      31.988  21.127  24.691  1.00  0.00     0.036 A 
ATOM     18  C   UNL A   1      32.018  20.887  21.918  1.00  0.00     0.031 A 
ATOM     19  C   UNL A   1      32.199  19.873  24.094  1.00  0.00     0.089 A 
ATOM     20  C   UNL A   1      32.224  19.768  22.678  1.00  0.00     0.089 A 
ATOM     21  N   UNL A   1      32.420  18.780  24.847  1.00  0.00    -0.253 NA
ATOM     22  N   UNL A   1      32.474  18.622  22.029  1.00  0.00    -0.253 NA
ATOM     23  C   UNL A   1      32.655  17.623  24.182  1.00  0.00     0.132 A 
ATOM     24  C   UNL A   1      32.687  17.546  22.803  1.00  0.00     0.132 A 
ENDBRANCH  12  15
BRANCH  13  25
ATOM     25  C   UNL A   1      29.996  26.844  23.763  1.00  0.00    -0.002 A 
ATOM     26  C   UNL A   1      30.868  27.940  23.771  1.00  0.00     0.013 A 
ATOM     27  C   UNL A   1      28.636  27.025  23.481  1.00  0.00     0.013 A 
ATOM     28  C   UNL A   1      30.381  29.221  23.507  1.00  0.00     0.040 A 
ATOM     29  C   UNL A   1      28.155  28.314  23.222  1.00  0.00     0.040 A 
ATOM     30  C   UNL A   1      29.028  29.399  23.245  1.00  0.00     0.123 A 
ATOM     31  F   UNL A   1      28.556  30.634  23.027  1.00  0.00    -0.207 F 
ENDBRANCH  13  25
ENDBRANCH   8  10
ENDBRANCH   7   8
ENDBRANCH   6   7
ENDBRANCH   4   6
ENDBRANCH   1   2
BRANCH   1  32
ATOM     32  C   UNL A   1      37.058  20.279  24.792  1.00  0.00     0.042 C 
BRANCH  32  33
ATOM     33  C   UNL A   1      38.187  21.148  25.415  1.00  0.00     0.118 C 
BRANCH  33  34
ATOM     34  N   UNL A   1      39.387  20.476  25.862  1.00  0.00    -0.352 N 
ATOM     35  C   UNL A   1      40.442  20.951  26.622  1.00  0.00     0.251 C 
ATOM     36  H   UNL A   1      39.466  19.536  25.582  1.00  0.00     0.163 HD
ATOM     37  O   UNL A   1      41.353  20.158  26.868  1.00  0.00    -0.269 OA
BRANCH  35  38
ATOM     38  C   UNL A   1      40.578  22.365  27.113  1.00  0.00     0.039 A 
ATOM     39  C   UNL A   1      41.447  22.566  28.197  1.00  0.00     0.014 A 
ATOM     40  C   UNL A   1      39.891  23.479  26.614  1.00  0.00     0.014 A 
ATOM     41  C   UNL A   1      41.711  23.852  28.693  1.00  0.00     0.010 A 
ATOM     42  C   UNL A   1      40.178  24.780  27.091  1.00  0.00     0.010 A 
ATOM     43  C   UNL A   1      41.131  24.986  28.101  1.00  0.00    -0.014 A 
BRANCH  43  44
ATOM     44  C   UNL A   1      41.721  26.331  28.393  1.00  0.00     0.031 A 
ATOM     45  C   UNL A   1      43.114  26.739  27.995  1.00  0.00     0.074 A 
ATOM     46  C   UNL A   1      40.940  27.224  29.041  1.00  0.00     0.049 A 
ATOM     47  N   UNL A   1      43.667  27.927  28.055  1.00  0.00    -0.248 NA
ATOM     48  C   UNL A   1      44.006  25.692  27.481  1.00  0.00     0.031 C 
ATOM     49  C   UNL A   1      39.598  26.931  29.554  1.00  0.00     0.029 A 
ATOM     50  N   UNL A   1      41.136  28.543  29.373  1.00  0.00    -0.354 N 
ATOM     51  C   UNL A   1      44.970  27.776  27.595  1.00  0.00     0.074 A 
ATOM     52  C   UNL A   1      45.132  26.370  27.279  1.00  0.00     0.031 C 
ATOM     53  C   UNL A   1      39.078  28.042  30.092  1.00  0.00     0.029 A 
ATOM     54  C   UNL A   1      40.052  29.124  29.994  1.00  0.00     0.049 A 
ATOM     55  H   UNL A   1      41.972  29.027  29.184  1.00  0.00     0.167 HD
ATOM     56  C   UNL A   1      45.930  28.722  27.433  1.00  0.00     0.034 A 
ATOM     57  C   UNL A   1      39.844  30.384  30.427  1.00  0.00     0.034 A 
ATOM     58  C   UNL A   1      45.754  30.121  27.740  1.00  0.00     0.049 A 
ATOM     59  C   UNL A   1      40.907  31.422  30.197  1.00  0.00     0.074 A 
ATOM     60  C   UNL A   1      46.644  31.163  27.535  1.00  0.00     0.029 A 
ATOM     61  N   UNL A   1      44.630  30.674  28.334  1.00  0.00    -0.354 N 
ATOM     62  N   UNL A   1      42.065  31.288  29.599  1.00  0.00    -0.248 NA
ATOM     63  C   UNL A   1      40.628  32.787  30.668  1.00  0.00     0.031 C 
ATOM     64  C   UNL A   1      46.074  32.335  28.038  1.00  0.00     0.029 A 
ATOM     65  C   UNL A   1      44.812  32.035  28.521  1.00  0.00     0.049 A 
ATOM     66  H   UNL A   1      43.821  30.173  28.585  1.00  0.00     0.167 HD
ATOM     67  C   UNL A   1      42.642  32.552  29.598  1.00  0.00     0.074 A 
ATOM     68  C   UNL A   1      41.698  33.444  30.238  1.00  0.00     0.031 C 
ATOM     69  C   UNL A   1      43.852  32.930  29.119  1.00  0.00     0.034 A 
BRANCH  56  70
ATOM     70  C   UNL A   1      47.259  28.308  26.844  1.00  0.00     0.023 A 
ATOM     71  C   UNL A   1      48.340  28.032  27.705  1.00  0.00     0.012 A 
ATOM     72  C   UNL A   1      47.405  28.068  25.461  1.00  0.00     0.148 A 
ATOM     73  C   UNL A   1      49.549  27.553  27.203  1.00  0.00     0.002 A 
ATOM     74  C   UNL A   1      48.601  27.550  24.971  1.00  0.00     0.091 A 
ATOM     75  F   UNL A   1      46.369  28.335  24.654  1.00  0.00    -0.205 F 
ATOM     76  C   UNL A   1      49.676  27.303  25.839  1.00  0.00     0.022 A 
BRANCH  74  77
ATOM     77  S   UNL A   1      48.842  27.114  23.244  1.00  0.00     0.127 S 
ATOM     78  O   UNL A   1      50.300  27.023  23.165  1.00  0.00    -0.237 OA
ATOM     79  O   UNL A   1      48.147  25.830  23.150  1.00  0.00    -0.237 OA
ATOM     80  O   UNL A   1      48.245  28.191  22.468  1.00  0.00    -0.744 OA
ENDBRANCH  74  77
ENDBRANCH  56  70
BRANCH  57  81
ATOM     81  C   UNL A   1      38.535  30.737  31.048  1.00  0.00     0.023 A 
ATOM     82  C   UNL A   1      38.344  30.546  32.430  1.00  0.00     0.012 A 
ATOM     83  C   UNL A   1      37.509  31.341  30.292  1.00  0.00     0.148 A 
ATOM     84  C   UNL A   1      37.153  30.936  33.045  1.00  0.00     0.002 A 
ATOM     85  C   UNL A   1      36.352  31.786  30.921  1.00  0.00     0.091 A 
ATOM     86  F   UNL A   1      37.706  31.505  28.976  1.00  0.00    -0.205 F 
ATOM     87  C   UNL A   1      36.164  31.570  32.295  1.00  0.00     0.022 A 
BRANCH  85  88
ATOM     88  S   UNL A   1      35.103  32.752  30.065  1.00  0.00     0.127 S 
ATOM     89  O   UNL A   1      34.170  33.060  31.146  1.00  0.00    -0.237 OA
ATOM     90  O   UNL A   1      35.883  33.891  29.580  1.00  0.00    -0.237 OA
ATOM     91  O   UNL A   1      34.588  31.887  29.013  1.00  0.00    -0.744 OA
ENDBRANCH  85  88
ENDBRANCH  57  81
BRANCH  69  92
ATOM     92  C   UNL A   1      44.251  34.377  29.245  1.00  0.00     0.023 A 
ATOM     93  C   UNL A   1      43.982  35.271  28.190  1.00  0.00     0.012 A 
ATOM     94  C   UNL A   1      44.752  34.877  30.464  1.00  0.00     0.148 A 
ATOM     95  C   UNL A   1      44.211  36.638  28.343  1.00  0.00     0.002 A 
ATOM     96  C   UNL A   1      44.929  36.245  30.628  1.00  0.00     0.091 A 
ATOM     97  F   UNL A   1      45.017  34.006  31.448  1.00  0.00    -0.205 F 
ATOM     98  C   UNL A   1      44.667  37.126  29.566  1.00  0.00     0.022 A 
BRANCH  96  99
ATOM     99  S   UNL A   1      45.407  36.980  32.196  1.00  0.00     0.127 S 
ATOM    100  O   UNL A   1      46.781  36.501  32.344  1.00  0.00    -0.237 OA
ATOM    101  O   UNL A   1      45.286  38.410  31.914  1.00  0.00    -0.237 OA
ATOM    102  O   UNL A   1      44.466  36.472  33.185  1.00  0.00    -0.744 OA
ENDBRANCH  96  99
ENDBRANCH  69  92
ENDBRANCH  43  44
ENDBRANCH  35  38
ENDBRANCH  33  34
ENDBRANCH  32  33
ENDBRANCH   1  32
TORSDOF 18
ENDMDL
MODEL 3
REMARK VINA RESULT:     -12.9      2.619      8.491
REMARK SMILES O=C(CCC(=O)N1N=C(c2ccc(F)cc2)C[C@@H]1c1ccc2nccnc2c1)NCCCNC(=O)c1ccc(-c2c3nc(c(-c4cccc(S(=O)(=O)[O-])c4F)c4ccc([nH]4)c(-c4cccc(S(=O)(=O)[O-])c4F)c4nc(c(-c5cccc(S(=O)(=O)[O-])c5F)c5ccc2[nH]5)C=C4)C=C3)cc1
REMARK SMILES IDX 30 1 29 2 1 3 2 4 3 6 4 7 5 8 6 9 7 10 8 11 18 12 9 13 17 14
REMARK SMILES IDX 19 15 20 16 28 17 21 18 27 19 22 20 26 21 23 22 25 23 24 24
REMARK SMILES IDX 10 25 11 26 16 27 12 28 15 29 13 30 14 31 31 32 32 33 33 34
REMARK SMILES IDX 34 35 35 37 36 38 37 39 98 40 38 41 97 42 39 43 40 44 41 45
REMARK SMILES IDX 91 46 42 47 96 48 90 49 92 50 43 51 95 52 89 53 88 54 44 56
REMARK SMILES IDX 76 57 56 58 75 59 57 60 60 61 74 62 93 63 58 64 59 65 73 67
REMARK SMILES IDX 94 68 61 69 45 70 46 71 54 72 47 73 49 74 55 75 48 76 50 77
REMARK SMILES IDX 51 78 52 79 53 80 77 81 78 82 86 83 79 84 81 85 87 86 80 87
REMARK SMILES IDX 82 88 83 89 84 90 85 91 62 92 63 93 71 94 64 95 66 96 72 97
REMARK SMILES IDX 65 98 67 99 68 100 69 101 70 102
REMARK H PARENT 29 5 33 36 92 55 60 66
REMARK Flexibility Score: inf
ROOT
ATOM      1  C   UNL A   1      34.830  23.501  24.689  1.00  0.00     0.117 C 
ENDROOT
BRANCH   1   2
ATOM      2  N   UNL A   1      34.174  23.612  25.999  1.00  0.00    -0.356 N 
ATOM      3  O   UNL A   1      33.406  25.747  25.655  1.00  0.00    -0.275 OA
ATOM      4  C   UNL A   1      33.364  24.703  26.303  1.00  0.00     0.220 C 
ATOM      5  H   UNL A   1      34.309  22.906  26.671  1.00  0.00     0.163 HD
BRANCH   4   6
ATOM      6  C   UNL A   1      32.328  24.481  27.418  1.00  0.00     0.110 C 
BRANCH   6   7
ATOM      7  C   UNL A   1      30.951  24.083  26.854  1.00  0.00     0.112 C 
BRANCH   7   8
ATOM      8  C   UNL A   1      30.604  22.735  26.176  1.00  0.00     0.243 C 
ATOM      9  O   UNL A   1      29.552  22.179  26.523  1.00  0.00    -0.273 OA
BRANCH   8  10
ATOM     10  N   UNL A   1      31.329  22.283  25.088  1.00  0.00    -0.225 N 
ATOM     11  N   UNL A   1      32.133  21.142  25.236  1.00  0.00    -0.174 NA
ATOM     12  C   UNL A   1      31.111  22.601  23.694  1.00  0.00     0.147 C 
ATOM     13  C   UNL A   1      32.424  20.734  24.038  1.00  0.00     0.071 C 
ATOM     14  C   UNL A   1      31.875  21.560  22.923  1.00  0.00     0.091 C 
BRANCH  12  15
ATOM     15  C   UNL A   1      31.303  24.042  23.248  1.00  0.00    -0.021 A 
ATOM     16  C   UNL A   1      30.304  24.974  23.555  1.00  0.00     0.008 A 
ATOM     17  C   UNL A   1      32.463  24.552  22.656  1.00  0.00     0.036 A 
ATOM     18  C   UNL A   1      30.439  26.337  23.339  1.00  0.00     0.031 A 
ATOM     19  C   UNL A   1      32.640  25.931  22.453  1.00  0.00     0.089 A 
ATOM     20  C   UNL A   1      31.604  26.831  22.818  1.00  0.00     0.089 A 
ATOM     21  N   UNL A   1      33.796  26.410  21.958  1.00  0.00    -0.253 NA
ATOM     22  N   UNL A   1      31.713  28.162  22.710  1.00  0.00    -0.253 NA
ATOM     23  C   UNL A   1      33.890  27.757  21.837  1.00  0.00     0.132 A 
ATOM     24  C   UNL A   1      32.874  28.615  22.209  1.00  0.00     0.132 A 
ENDBRANCH  12  15
BRANCH  13  25
ATOM     25  C   UNL A   1      33.106  19.485  23.655  1.00  0.00    -0.002 A 
ATOM     26  C   UNL A   1      32.481  18.638  22.730  1.00  0.00     0.013 A 
ATOM     27  C   UNL A   1      34.203  19.030  24.399  1.00  0.00     0.013 A 
ATOM     28  C   UNL A   1      32.942  17.333  22.554  1.00  0.00     0.040 A 
ATOM     29  C   UNL A   1      34.656  17.717  24.221  1.00  0.00     0.040 A 
ATOM     30  C   UNL A   1      34.018  16.880  23.308  1.00  0.00     0.123 A 
ATOM     31  F   UNL A   1      34.437  15.616  23.164  1.00  0.00    -0.207 F 
ENDBRANCH  13  25
ENDBRANCH   8  10
ENDBRANCH   7   8
ENDBRANCH   6   7
ENDBRANCH   4   6
ENDBRANCH   1   2
BRANCH   1  32
ATOM     32  C   UNL A   1      35.921  22.410  24.499  1.00  0.00     0.042 C 
BRANCH  32  33
ATOM     33  C   UNL A   1      36.334  21.413  25.621  1.00  0.00     0.118 C 
BRANCH  33  34
ATOM     34  N   UNL A   1      37.572  20.685  25.454  1.00  0.00    -0.352 N 
ATOM     35  C   UNL A   1      38.863  21.030  25.816  1.00  0.00     0.251 C 
ATOM     36  H   UNL A   1      37.484  19.808  25.014  1.00  0.00     0.163 HD
ATOM     37  O   UNL A   1      39.750  20.215  25.558  1.00  0.00    -0.269 OA
BRANCH  35  38
ATOM     38  C   UNL A   1      39.257  22.337  26.443  1.00  0.00     0.039 A 
ATOM     39  C   UNL A   1      40.288  22.284  27.395  1.00  0.00     0.014 A 
ATOM     40  C   UNL A   1      38.667  23.582  26.193  1.00  0.00     0.014 A 
ATOM     41  C   UNL A   1      40.792  23.450  27.991  1.00  0.00     0.010 A 
ATOM     42  C   UNL A   1      39.193  24.763  26.769  1.00  0.00     0.010 A 
ATOM     43  C   UNL A   1      40.296  24.715  27.635  1.00  0.00    -0.014 A 
BRANCH  43  44
ATOM     44  C   UNL A   1      41.099  25.929  27.988  1.00  0.00     0.031 A 
ATOM     45  C   UNL A   1      42.511  26.163  27.522  1.00  0.00     0.074 A 
ATOM     46  C   UNL A   1      40.503  26.864  28.760  1.00  0.00     0.049 A 
ATOM     47  N   UNL A   1      43.239  27.248  27.635  1.00  0.00    -0.248 NA
ATOM     48  C   UNL A   1      43.201  25.048  26.863  1.00  0.00     0.031 C 
ATOM     49  C   UNL A   1      39.166  26.726  29.345  1.00  0.00     0.029 A 
ATOM     50  N   UNL A   1      40.916  28.107  29.180  1.00  0.00    -0.354 N 
ATOM     51  C   UNL A   1      44.474  26.951  27.070  1.00  0.00     0.074 A 
ATOM     52  C   UNL A   1      44.402  25.570  26.633  1.00  0.00     0.031 C 
ATOM     53  C   UNL A   1      38.853  27.848  30.006  1.00  0.00     0.029 A 
ATOM     54  C   UNL A   1      39.972  28.781  29.922  1.00  0.00     0.049 A 
ATOM     55  H   UNL A   1      41.802  28.478  28.968  1.00  0.00     0.167 HD
ATOM     56  C   UNL A   1      45.554  27.758  26.912  1.00  0.00     0.034 A 
ATOM     57  C   UNL A   1      39.983  30.015  30.467  1.00  0.00     0.034 A 
ATOM     58  C   UNL A   1      45.611  29.134  27.341  1.00  0.00     0.049 A 
ATOM     59  C   UNL A   1      41.175  30.903  30.243  1.00  0.00     0.074 A 
ATOM     60  C   UNL A   1      46.634  30.051  27.154  1.00  0.00     0.029 A 
ATOM     61  N   UNL A   1      44.621  29.790  28.057  1.00  0.00    -0.354 N 
ATOM     62  N   UNL A   1      42.261  30.656  29.552  1.00  0.00    -0.248 NA
ATOM     63  C   UNL A   1      41.134  32.247  30.839  1.00  0.00     0.031 C 
ATOM     64  C   UNL A   1      46.279  31.244  27.788  1.00  0.00     0.029 A 
ATOM     65  C   UNL A   1      45.018  31.088  28.337  1.00  0.00     0.049 A 
ATOM     66  H   UNL A   1      43.762  29.392  28.328  1.00  0.00     0.167 HD
ATOM     67  C   UNL A   1      43.021  31.818  29.609  1.00  0.00     0.074 A 
ATOM     68  C   UNL A   1      42.263  32.777  30.385  1.00  0.00     0.031 C 
ATOM     69  C   UNL A   1      44.243  32.057  29.073  1.00  0.00     0.034 A 
BRANCH  56  70
ATOM     70  C   UNL A   1      46.767  27.209  26.197  1.00  0.00     0.023 A 
ATOM     71  C   UNL A   1      46.910  27.427  24.812  1.00  0.00     0.012 A 
ATOM     72  C   UNL A   1      47.822  26.596  26.907  1.00  0.00     0.148 A 
ATOM     73  C   UNL A   1      48.062  27.021  24.140  1.00  0.00     0.002 A 
ATOM     74  C   UNL A   1      48.987  26.232  26.238  1.00  0.00     0.091 A 
ATOM     75  F   UNL A   1      47.673  26.396  28.224  1.00  0.00    -0.205 F 
ATOM     76  C   UNL A   1      49.104  26.433  24.853  1.00  0.00     0.022 A 
BRANCH  74  77
ATOM     77  S   UNL A   1      50.420  25.543  27.076  1.00  0.00     0.127 S 
ATOM     78  O   UNL A   1      49.858  24.330  27.671  1.00  0.00    -0.237 OA
ATOM     79  O   UNL A   1      51.341  25.304  25.964  1.00  0.00    -0.237 OA
ATOM     80  O   UNL A   1      50.858  26.555  28.026  1.00  0.00    -0.744 OA
ENDBRANCH  74  77
ENDBRANCH  56  70
BRANCH  57  81
ATOM     81  C   UNL A   1      38.783  30.498  31.209  1.00  0.00     0.023 A 
ATOM     82  C   UNL A   1      38.754  30.422  32.615  1.00  0.00     0.012 A 
ATOM     83  C   UNL A   1      37.707  31.110  30.534  1.00  0.00     0.148 A 
ATOM     84  C   UNL A   1      37.672  30.934  33.334  1.00  0.00     0.002 A 
ATOM     85  C   UNL A   1      36.664  31.675  31.258  1.00  0.00     0.091 A 
ATOM     86  F   UNL A   1      37.748  31.162  29.195  1.00  0.00    -0.205 F 
ATOM     87  C   UNL A   1      36.635  31.573  32.657  1.00  0.00     0.022 A 
BRANCH  85  88
ATOM     88  S   UNL A   1      35.374  32.653  30.480  1.00  0.00     0.127 S 
ATOM     89  O   UNL A   1      34.307  32.587  31.476  1.00  0.00    -0.237 OA
ATOM     90  O   UNL A   1      36.020  33.960  30.355  1.00  0.00    -0.237 OA
ATOM     91  O   UNL A   1      35.093  32.000  29.210  1.00  0.00    -0.744 OA
ENDBRANCH  85  88
ENDBRANCH  57  81
BRANCH  69  92
ATOM     92  C   UNL A   1      44.862  33.414  29.283  1.00  0.00     0.023 A 
ATOM     93  C   UNL A   1      45.643  33.656  30.430  1.00  0.00     0.012 A 
ATOM     94  C   UNL A   1      44.795  34.394  28.272  1.00  0.00     0.148 A 
ATOM     95  C   UNL A   1      46.341  34.854  30.571  1.00  0.00     0.002 A 
ATOM     96  C   UNL A   1      45.534  35.564  28.395  1.00  0.00     0.091 A 
ATOM     97  F   UNL A   1      44.032  34.149  27.197  1.00  0.00    -0.205 F 
ATOM     98  C   UNL A   1      46.301  35.799  29.548  1.00  0.00     0.022 A 
BRANCH  96  99
ATOM     99  S   UNL A   1      45.634  36.791  27.086  1.00  0.00     0.127 S 
ATOM    100  O   UNL A   1      44.242  37.225  26.978  1.00  0.00    -0.237 OA
ATOM    101  O   UNL A   1      46.540  37.783  27.665  1.00  0.00    -0.237 OA
ATOM    102  O   UNL A   1      46.157  36.095  25.919  1.00  0.00    -0.744 OA
ENDBRANCH  96  99
ENDBRANCH  69  92
ENDBRANCH  43  44
ENDBRANCH  35  38
ENDBRANCH  33  34
ENDBRANCH  32  33
ENDBRANCH   1  32
TORSDOF 18
ENDMDL
