MODEL 1
REMARK VINA RESULT:     -12.5      0.000      0.000
REMARK SMILES Cc1cc(F)c([C@H](O)[C@H]2CCCC[C@@H]2C(=O)NCCCNC(=O)c2ccc(-c3c4nc(c(-c5cccc(S(=O)(=O)[O-])c5F)c5ccc([nH]5)c(-c5cccc(S(=O)(=O)[O-])c5F)c5nc(c(-c6cccc(S(=O)(=O)[O-])c6F)c6ccc3[nH]6)C=C5)C=C4)cc2)cc1F
REMARK SMILES IDX 19 1 18 2 17 3 15 4 16 5 14 7 9 8 10 9 11 10 13 11 12 12
REMARK SMILES IDX 7 13 6 14 1 15 2 16 3 17 88 18 4 19 87 20 89 21 5 22 8 23
REMARK SMILES IDX 20 25 21 26 22 27 23 29 24 30 25 31 86 32 26 33 85 34 27 35
REMARK SMILES IDX 28 36 29 37 79 38 30 39 84 40 78 41 80 42 31 43 83 44 77 45
REMARK SMILES IDX 76 46 32 48 64 49 44 50 63 51 45 52 48 53 62 54 81 55 46 56
REMARK SMILES IDX 47 57 61 59 82 60 49 61 33 62 34 63 42 64 35 65 37 66 43 67
REMARK SMILES IDX 36 68 38 69 39 70 40 71 41 72 65 73 66 74 74 75 67 76 69 77
REMARK SMILES IDX 75 78 68 79 70 80 71 81 72 82 73 83 50 84 51 85 59 86 52 87
REMARK SMILES IDX 54 88 60 89 53 90 55 91 56 92 57 93 58 94
REMARK H PARENT 17 6 8 24 21 28 80 47 48 58
REMARK Flexibility Score: inf
ROOT
ATOM      1  C   UNL A   1      32.328  29.752  25.037  1.00  0.00     0.042 C 
ENDROOT
BRANCH   1   2
ATOM      2  C   UNL A   1      33.556  28.865  24.926  1.00  0.00     0.117 C 
BRANCH   2   3
ATOM      3  N   UNL A   1      33.664  28.237  23.621  1.00  0.00    -0.356 N 
ATOM      4  C   UNL A   1      33.504  26.991  23.127  1.00  0.00     0.223 C 
ATOM      5  O   UNL A   1      33.685  26.909  21.903  1.00  0.00    -0.275 OA
ATOM      6  H   UNL A   1      33.917  28.881  22.921  1.00  0.00     0.163 HD
BRANCH   4   7
ATOM      7  C   UNL A   1      33.197  25.711  23.933  1.00  0.00     0.084 C 
ATOM      8  C   UNL A   1      32.422  24.723  23.000  1.00  0.00     0.035 C 
ATOM      9  C   UNL A   1      30.973  25.246  22.813  1.00  0.00     0.007 C 
ATOM     10  C   UNL A   1      30.230  25.447  24.135  1.00  0.00     0.000 C 
ATOM     11  C   UNL A   1      32.470  25.802  25.272  1.00  0.00     0.014 C 
ATOM     12  C   UNL A   1      31.027  26.285  25.127  1.00  0.00     0.001 C 
BRANCH   8  13
ATOM     13  C   UNL A   1      32.404  23.247  23.489  1.00  0.00     0.151 C 
BRANCH  13  14
ATOM     14  C   UNL A   1      33.715  22.614  23.882  1.00  0.00     0.019 A 
ATOM     15  C   UNL A   1      37.547  20.888  24.920  1.00  0.00     0.047 C 
ATOM     16  C   UNL A   1      36.217  21.486  24.584  1.00  0.00    -0.012 A 
ATOM     17  C   UNL A   1      35.047  21.083  25.236  1.00  0.00     0.046 A 
ATOM     18  C   UNL A   1      36.123  22.464  23.593  1.00  0.00     0.126 A 
ATOM     19  C   UNL A   1      33.819  21.654  24.893  1.00  0.00     0.129 A 
ATOM     20  C   UNL A   1      34.896  23.025  23.244  1.00  0.00     0.049 A 
ATOM     21  F   UNL A   1      37.227  22.883  22.961  1.00  0.00    -0.207 F 
ATOM     22  F   UNL A   1      32.728  21.270  25.566  1.00  0.00    -0.207 F 
ENDBRANCH  13  14
BRANCH  13  23
ATOM     23  O   UNL A   1      31.821  22.420  22.477  1.00  0.00    -0.388 OA
ATOM     24  H   UNL A   1      32.442  21.714  22.239  1.00  0.00     0.211 HD
ENDBRANCH  13  23
ENDBRANCH   8  13
ENDBRANCH   4   7
ENDBRANCH   2   3
ENDBRANCH   1   2
BRANCH   1  25
ATOM     25  C   UNL A   1      32.028  30.155  26.474  1.00  0.00     0.118 C 
BRANCH  25  26
ATOM     26  N   UNL A   1      31.990  31.605  26.649  1.00  0.00    -0.352 N 
ATOM     27  C   UNL A   1      32.833  32.449  27.336  1.00  0.00     0.251 C 
ATOM     28  H   UNL A   1      31.236  32.053  26.200  1.00  0.00     0.163 HD
ATOM     29  O   UNL A   1      32.489  33.602  27.556  1.00  0.00    -0.269 OA
BRANCH  27  30
ATOM     30  C   UNL A   1      34.133  31.946  27.829  1.00  0.00     0.039 A 
ATOM     31  C   UNL A   1      34.284  30.602  28.165  1.00  0.00     0.014 A 
ATOM     32  C   UNL A   1      35.207  32.829  27.975  1.00  0.00     0.014 A 
ATOM     33  C   UNL A   1      35.417  30.188  28.851  1.00  0.00     0.010 A 
ATOM     34  C   UNL A   1      36.394  32.380  28.560  1.00  0.00     0.010 A 
ATOM     35  C   UNL A   1      36.485  31.072  29.061  1.00  0.00    -0.014 A 
BRANCH  35  36
ATOM     36  C   UNL A   1      37.681  30.610  29.812  1.00  0.00     0.031 A 
ATOM     37  C   UNL A   1      38.678  29.680  29.170  1.00  0.00     0.074 A 
ATOM     38  C   UNL A   1      37.889  31.060  31.065  1.00  0.00     0.049 A 
ATOM     39  N   UNL A   1      39.744  29.133  29.694  1.00  0.00    -0.248 NA
ATOM     40  C   UNL A   1      38.452  29.315  27.761  1.00  0.00     0.031 C 
ATOM     41  C   UNL A   1      37.000  31.968  31.794  1.00  0.00     0.029 A 
ATOM     42  N   UNL A   1      38.916  30.828  31.944  1.00  0.00    -0.354 N 
ATOM     43  C   UNL A   1      40.279  28.317  28.705  1.00  0.00     0.074 A 
ATOM     44  C   UNL A   1      39.429  28.445  27.542  1.00  0.00     0.031 C 
ATOM     45  C   UNL A   1      37.539  32.249  32.988  1.00  0.00     0.029 A 
ATOM     46  C   UNL A   1      38.771  31.484  33.143  1.00  0.00     0.049 A 
ATOM     47  H   UNL A   1      39.682  30.246  31.736  1.00  0.00     0.167 HD
ATOM     48  C   UNL A   1      41.389  27.543  28.757  1.00  0.00     0.034 A 
ATOM     49  C   UNL A   1      39.525  31.455  34.257  1.00  0.00     0.034 A 
ATOM     50  C   UNL A   1      42.272  27.473  29.889  1.00  0.00     0.049 A 
ATOM     51  C   UNL A   1      40.746  30.588  34.288  1.00  0.00     0.074 A 
ATOM     52  C   UNL A   1      43.447  26.752  30.015  1.00  0.00     0.029 A 
ATOM     53  N   UNL A   1      42.084  28.150  31.082  1.00  0.00    -0.354 N 
ATOM     54  N   UNL A   1      41.259  29.858  33.328  1.00  0.00    -0.248 NA
ATOM     55  C   UNL A   1      41.493  30.535  35.553  1.00  0.00     0.031 C 
ATOM     56  C   UNL A   1      43.969  26.992  31.290  1.00  0.00     0.029 A 
ATOM     57  C   UNL A   1      43.120  27.862  31.954  1.00  0.00     0.049 A 
ATOM     58  H   UNL A   1      41.328  28.747  31.281  1.00  0.00     0.167 HD
ATOM     59  C   UNL A   1      42.387  29.257  33.870  1.00  0.00     0.074 A 
ATOM     60  C   UNL A   1      42.501  29.732  35.233  1.00  0.00     0.031 C 
ATOM     61  C   UNL A   1      43.236  28.372  33.295  1.00  0.00     0.034 A 
BRANCH  48  62
ATOM     62  C   UNL A   1      41.749  26.738  27.539  1.00  0.00     0.023 A 
ATOM     63  C   UNL A   1      42.388  27.372  26.456  1.00  0.00     0.012 A 
ATOM     64  C   UNL A   1      41.547  25.344  27.510  1.00  0.00     0.148 A 
ATOM     65  C   UNL A   1      42.815  26.630  25.355  1.00  0.00     0.002 A 
ATOM     66  C   UNL A   1      41.999  24.607  26.421  1.00  0.00     0.091 A 
ATOM     67  F   UNL A   1      40.925  24.768  28.548  1.00  0.00    -0.205 F 
ATOM     68  C   UNL A   1      42.629  25.249  25.342  1.00  0.00     0.022 A 
BRANCH  66  69
ATOM     69  S   UNL A   1      41.857  22.820  26.326  1.00  0.00     0.127 S 
ATOM     70  O   UNL A   1      42.527  22.539  25.056  1.00  0.00    -0.237 OA
ATOM     71  O   UNL A   1      42.596  22.390  27.513  1.00  0.00    -0.237 OA
ATOM     72  O   UNL A   1      40.432  22.525  26.350  1.00  0.00    -0.744 OA
ENDBRANCH  66  69
ENDBRANCH  48  62
BRANCH  49  73
ATOM     73  C   UNL A   1      39.135  32.295  35.421  1.00  0.00     0.023 A 
ATOM     74  C   UNL A   1      38.325  31.741  36.429  1.00  0.00     0.012 A 
ATOM     75  C   UNL A   1      39.638  33.602  35.575  1.00  0.00     0.148 A 
ATOM     76  C   UNL A   1      38.021  32.477  37.574  1.00  0.00     0.002 A 
ATOM     77  C   UNL A   1      39.369  34.310  36.739  1.00  0.00     0.091 A 
ATOM     78  F   UNL A   1      40.402  34.105  34.596  1.00  0.00    -0.205 F 
ATOM     79  C   UNL A   1      38.552  33.754  37.735  1.00  0.00     0.022 A 
BRANCH  77  80
ATOM     80  S   UNL A   1      40.106  35.911  37.090  1.00  0.00     0.127 S 
ATOM     81  O   UNL A   1      39.718  36.683  35.912  1.00  0.00    -0.237 OA
ATOM     82  O   UNL A   1      39.424  36.287  38.327  1.00  0.00    -0.237 OA
ATOM     83  O   UNL A   1      41.534  35.667  37.236  1.00  0.00    -0.744 OA
ENDBRANCH  77  80
ENDBRANCH  49  73
BRANCH  61  84
ATOM     84  C   UNL A   1      44.362  27.843  34.135  1.00  0.00     0.023 A 
ATOM     85  C   UNL A   1      45.560  28.580  34.214  1.00  0.00     0.012 A 
ATOM     86  C   UNL A   1      44.201  26.686  34.920  1.00  0.00     0.148 A 
ATOM     87  C   UNL A   1      46.588  28.166  35.057  1.00  0.00     0.002 A 
ATOM     88  C   UNL A   1      45.217  26.297  35.783  1.00  0.00     0.091 A 
ATOM     89  F   UNL A   1      43.055  25.999  34.815  1.00  0.00    -0.205 F 
ATOM     90  C   UNL A   1      46.413  27.032  35.850  1.00  0.00     0.022 A 
BRANCH  88  91
ATOM     91  S   UNL A   1      45.059  24.895  36.894  1.00  0.00     0.127 S 
ATOM     92  O   UNL A   1      44.846  23.794  35.956  1.00  0.00    -0.237 OA
ATOM     93  O   UNL A   1      46.358  24.883  37.566  1.00  0.00    -0.237 OA
ATOM     94  O   UNL A   1      43.930  25.197  37.764  1.00  0.00    -0.744 OA
ENDBRANCH  88  91
ENDBRANCH  61  84
ENDBRANCH  35  36
ENDBRANCH  27  30
ENDBRANCH  25  26
ENDBRANCH   1  25
TORSDOF 16
ENDMDL
MODEL 2
REMARK VINA RESULT:     -12.4      5.161      7.693
REMARK SMILES Cc1cc(F)c([C@H](O)[C@H]2CCCC[C@@H]2C(=O)NCCCNC(=O)c2ccc(-c3c4nc(c(-c5cccc(S(=O)(=O)[O-])c5F)c5ccc([nH]5)c(-c5cccc(S(=O)(=O)[O-])c5F)c5nc(c(-c6cccc(S(=O)(=O)[O-])c6F)c6ccc3[nH]6)C=C5)C=C4)cc2)cc1F
REMARK SMILES IDX 19 1 18 2 17 3 15 4 16 5 14 7 9 8 10 9 11 10 13 11 12 12
REMARK SMILES IDX 7 13 6 14 1 15 2 16 3 17 88 18 4 19 87 20 89 21 5 22 8 23
REMARK SMILES IDX 20 25 21 26 22 27 23 29 24 30 25 31 86 32 26 33 85 34 27 35
REMARK SMILES IDX 28 36 29 37 79 38 30 39 84 40 78 41 80 42 31 43 83 44 77 45
REMARK SMILES IDX 76 46 32 48 64 49 44 50 63 51 45 52 48 53 62 54 81 55 46 56
REMARK SMILES IDX 47 57 61 59 82 60 49 61 33 62 34 63 42 64 35 65 37 66 43 67
REMARK SMILES IDX 36 68 38 69 39 70 40 71 41 72 65 73 66 74 74 75 67 76 69 77
REMARK SMILES IDX 75 78 68 79 70 80 71 81 72 82 73 83 50 84 51 85 59 86 52 87
REMARK SMILES IDX 54 88 60 89 53 90 55 91 56 92 57 93 58 94
REMARK H PARENT 17 6 8 24 21 28 80 47 48 58
REMARK Flexibility Score: inf
ROOT
ATOM      1  C   UNL A   1      36.035  21.489  25.209  1.00  0.00     0.042 C 
ENDROOT
BRANCH   1   2
ATOM      2  C   UNL A   1      35.727  22.444  26.349  1.00  0.00     0.117 C 
BRANCH   2   3
ATOM      3  N   UNL A   1      35.432  23.785  25.877  1.00  0.00    -0.356 N 
ATOM      4  C   UNL A   1      34.372  24.409  25.322  1.00  0.00     0.223 C 
ATOM      5  O   UNL A   1      34.563  25.611  25.087  1.00  0.00    -0.275 OA
ATOM      6  H   UNL A   1      36.199  24.393  25.991  1.00  0.00     0.163 HD
BRANCH   4   7
ATOM      7  C   UNL A   1      33.032  23.763  24.913  1.00  0.00     0.084 C 
ATOM      8  C   UNL A   1      33.298  22.825  23.690  1.00  0.00     0.035 C 
ATOM      9  C   UNL A   1      33.541  23.701  22.432  1.00  0.00     0.007 C 
ATOM     10  C   UNL A   1      32.391  24.668  22.140  1.00  0.00     0.000 C 
ATOM     11  C   UNL A   1      31.818  24.638  24.612  1.00  0.00     0.014 C 
ATOM     12  C   UNL A   1      32.005  25.495  23.360  1.00  0.00     0.001 C 
BRANCH   8  13
ATOM     13  C   UNL A   1      32.176  21.784  23.413  1.00  0.00     0.151 C 
BRANCH  13  14
ATOM     14  C   UNL A   1      32.394  20.367  23.881  1.00  0.00     0.019 A 
ATOM     15  C   UNL A   1      33.026  16.257  25.085  1.00  0.00     0.047 C 
ATOM     16  C   UNL A   1      32.824  17.685  24.684  1.00  0.00    -0.012 A 
ATOM     17  C   UNL A   1      32.786  18.713  25.631  1.00  0.00     0.046 A 
ATOM     18  C   UNL A   1      32.660  18.013  23.338  1.00  0.00     0.126 A 
ATOM     19  C   UNL A   1      32.586  20.035  25.225  1.00  0.00     0.129 A 
ATOM     20  C   UNL A   1      32.450  19.330  22.935  1.00  0.00     0.049 A 
ATOM     21  F   UNL A   1      32.708  17.053  22.406  1.00  0.00    -0.207 F 
ATOM     22  F   UNL A   1      32.595  20.996  26.157  1.00  0.00    -0.207 F 
ENDBRANCH  13  14
BRANCH  13  23
ATOM     23  O   UNL A   1      31.916  21.730  22.007  1.00  0.00    -0.388 OA
ATOM     24  H   UNL A   1      31.735  20.814  21.746  1.00  0.00     0.211 HD
ENDBRANCH  13  23
ENDBRANCH   8  13
ENDBRANCH   4   7
ENDBRANCH   2   3
ENDBRANCH   1   2
BRANCH   1  25
ATOM     25  C   UNL A   1      37.484  21.578  24.749  1.00  0.00     0.118 C 
BRANCH  25  26
ATOM     26  N   UNL A   1      38.324  20.546  25.354  1.00  0.00    -0.352 N 
ATOM     27  C   UNL A   1      39.465  20.650  26.117  1.00  0.00     0.251 C 
ATOM     28  H   UNL A   1      38.023  19.623  25.188  1.00  0.00     0.163 HD
ATOM     29  O   UNL A   1      40.148  19.657  26.323  1.00  0.00    -0.269 OA
BRANCH  27  30
ATOM     30  C   UNL A   1      39.871  21.967  26.654  1.00  0.00     0.039 A 
ATOM     31  C   UNL A   1      39.250  23.131  26.204  1.00  0.00     0.014 A 
ATOM     32  C   UNL A   1      40.894  22.041  27.603  1.00  0.00     0.014 A 
ATOM     33  C   UNL A   1      39.794  24.367  26.522  1.00  0.00     0.010 A 
ATOM     34  C   UNL A   1      41.364  23.292  28.014  1.00  0.00     0.010 A 
ATOM     35  C   UNL A   1      40.861  24.464  27.429  1.00  0.00    -0.014 A 
BRANCH  35  36
ATOM     36  C   UNL A   1      41.436  25.798  27.741  1.00  0.00     0.031 A 
ATOM     37  C   UNL A   1      42.813  26.171  27.259  1.00  0.00     0.074 A 
ATOM     38  C   UNL A   1      40.698  26.691  28.429  1.00  0.00     0.049 A 
ATOM     39  N   UNL A   1      43.493  27.264  27.486  1.00  0.00    -0.248 NA
ATOM     40  C   UNL A   1      43.523  25.192  26.416  1.00  0.00     0.031 C 
ATOM     41  C   UNL A   1      39.348  26.451  28.945  1.00  0.00     0.029 A 
ATOM     42  N   UNL A   1      40.970  27.981  28.805  1.00  0.00    -0.354 N 
ATOM     43  C   UNL A   1      44.725  27.084  26.869  1.00  0.00     0.074 A 
ATOM     44  C   UNL A   1      44.701  25.779  26.247  1.00  0.00     0.031 C 
ATOM     45  C   UNL A   1      38.894  27.568  29.530  1.00  0.00     0.029 A 
ATOM     46  C   UNL A   1      39.945  28.578  29.500  1.00  0.00     0.049 A 
ATOM     47  H   UNL A   1      41.818  28.436  28.596  1.00  0.00     0.167 HD
ATOM     48  C   UNL A   1      45.775  27.936  26.812  1.00  0.00     0.034 A 
ATOM     49  C   UNL A   1      39.865  29.790  30.077  1.00  0.00     0.034 A 
ATOM     50  C   UNL A   1      45.771  29.261  27.370  1.00  0.00     0.049 A 
ATOM     51  C   UNL A   1      41.044  30.713  30.003  1.00  0.00     0.074 A 
ATOM     52  C   UNL A   1      46.773  30.215  27.321  1.00  0.00     0.029 A 
ATOM     53  N   UNL A   1      44.715  29.822  28.069  1.00  0.00    -0.354 N 
ATOM     54  N   UNL A   1      42.182  30.540  29.378  1.00  0.00    -0.248 NA
ATOM     55  C   UNL A   1      40.932  31.995  30.712  1.00  0.00     0.031 C 
ATOM     56  C   UNL A   1      46.322  31.354  27.995  1.00  0.00     0.029 A 
ATOM     57  C   UNL A   1      45.041  31.108  28.461  1.00  0.00     0.049 A 
ATOM     58  H   UNL A   1      43.861  29.372  28.259  1.00  0.00     0.167 HD
ATOM     59  C   UNL A   1      42.925  31.688  29.618  1.00  0.00     0.074 A 
ATOM     60  C   UNL A   1      42.095  32.563  30.420  1.00  0.00     0.031 C 
ATOM     61  C   UNL A   1      44.189  31.978  29.229  1.00  0.00     0.034 A 
BRANCH  48  62
ATOM     62  C   UNL A   1      47.012  27.490  26.083  1.00  0.00     0.023 A 
ATOM     63  C   UNL A   1      47.953  26.681  26.749  1.00  0.00     0.012 A 
ATOM     64  C   UNL A   1      47.190  27.785  24.717  1.00  0.00     0.148 A 
ATOM     65  C   UNL A   1      49.061  26.179  26.068  1.00  0.00     0.002 A 
ATOM     66  C   UNL A   1      48.283  27.258  24.038  1.00  0.00     0.091 A 
ATOM     67  F   UNL A   1      46.287  28.568  24.110  1.00  0.00    -0.205 F 
ATOM     68  C   UNL A   1      49.220  26.459  24.712  1.00  0.00     0.022 A 
BRANCH  66  69
ATOM     69  S   UNL A   1      48.556  27.514  22.281  1.00  0.00     0.127 S 
ATOM     70  O   UNL A   1      49.781  28.313  22.288  1.00  0.00    -0.237 OA
ATOM     71  O   UNL A   1      48.724  26.144  21.795  1.00  0.00    -0.237 OA
ATOM     72  O   UNL A   1      47.374  28.201  21.783  1.00  0.00    -0.744 OA
ENDBRANCH  66  69
ENDBRANCH  48  62
BRANCH  49  73
ATOM     73  C   UNL A   1      38.606  30.189  30.761  1.00  0.00     0.023 A 
ATOM     74  C   UNL A   1      38.447  29.907  32.130  1.00  0.00     0.012 A 
ATOM     75  C   UNL A   1      37.612  30.922  30.083  1.00  0.00     0.148 A 
ATOM     76  C   UNL A   1      37.316  30.351  32.816  1.00  0.00     0.002 A 
ATOM     77  C   UNL A   1      36.511  31.399  30.783  1.00  0.00     0.091 A 
ATOM     78  F   UNL A   1      37.787  31.170  28.778  1.00  0.00    -0.205 F 
ATOM     79  C   UNL A   1      36.356  31.106  32.147  1.00  0.00     0.022 A 
BRANCH  77  80
ATOM     80  S   UNL A   1      35.286  32.481  30.038  1.00  0.00     0.127 S 
ATOM     81  O   UNL A   1      34.759  31.641  28.965  1.00  0.00    -0.237 OA
ATOM     82  O   UNL A   1      34.368  32.705  31.155  1.00  0.00    -0.237 OA
ATOM     83  O   UNL A   1      36.013  33.667  29.606  1.00  0.00    -0.744 OA
ENDBRANCH  77  80
ENDBRANCH  49  73
BRANCH  61  84
ATOM     84  C   UNL A   1      44.769  33.291  29.670  1.00  0.00     0.023 A 
ATOM     85  C   UNL A   1      45.545  33.335  30.845  1.00  0.00     0.012 A 
ATOM     86  C   UNL A   1      44.635  34.446  28.878  1.00  0.00     0.148 A 
ATOM     87  C   UNL A   1      46.173  34.517  31.230  1.00  0.00     0.002 A 
ATOM     88  C   UNL A   1      45.290  35.612  29.251  1.00  0.00     0.091 A 
ATOM     89  F   UNL A   1      43.880  34.377  27.772  1.00  0.00    -0.205 F 
ATOM     90  C   UNL A   1      46.056  35.651  30.428  1.00  0.00     0.022 A 
BRANCH  88  91
ATOM     91  S   UNL A   1      45.258  37.102  28.248  1.00  0.00     0.127 S 
ATOM     92  O   UNL A   1      45.819  36.624  26.987  1.00  0.00    -0.237 OA
ATOM     93  O   UNL A   1      43.830  37.415  28.202  1.00  0.00    -0.237 OA
ATOM     94  O   UNL A   1      46.069  38.082  28.958  1.00  0.00    -0.744 OA
ENDBRANCH  88  91
ENDBRANCH  61  84
ENDBRANCH  35  36
ENDBRANCH  27  30
ENDBRANCH  25  26
ENDBRANCH   1  25
TORSDOF 16
ENDMDL
MODEL 3
REMARK VINA RESULT:     -12.3      4.982      9.853
REMARK SMILES Cc1cc(F)c([C@H](O)[C@H]2CCCC[C@@H]2C(=O)NCCCNC(=O)c2ccc(-c3c4nc(c(-c5cccc(S(=O)(=O)[O-])c5F)c5ccc([nH]5)c(-c5cccc(S(=O)(=O)[O-])c5F)c5nc(c(-c6cccc(S(=O)(=O)[O-])c6F)c6ccc3[nH]6)C=C5)C=C4)cc2)cc1F
REMARK SMILES IDX 19 1 18 2 17 3 15 4 16 5 14 7 9 8 10 9 11 10 13 11 12 12
REMARK SMILES IDX 7 13 6 14 1 15 2 16 3 17 88 18 4 19 87 20 89 21 5 22 8 23
REMARK SMILES IDX 20 25 21 26 22 27 23 29 24 30 25 31 86 32 26 33 85 34 27 35
REMARK SMILES IDX 28 36 29 37 79 38 30 39 84 40 78 41 80 42 31 43 83 44 77 45
REMARK SMILES IDX 76 46 32 48 64 49 44 50 63 51 45 52 48 53 62 54 81 55 46 56
REMARK SMILES IDX 47 57 61 59 82 60 49 61 33 62 34 63 42 64 35 65 37 66 43 67
REMARK SMILES IDX 36 68 38 69 39 70 40 71 41 72 65 73 66 74 74 75 67 76 69 77
REMARK SMILES IDX 75 78 68 79 70 80 71 81 72 82 73 83 50 84 51 85 59 86 52 87
REMARK SMILES IDX 54 88 60 89 53 90 55 91 56 92 57 93 58 94
REMARK H PARENT 17 6 8 24 21 28 80 47 48 58
REMARK Flexibility Score: inf
ROOT
ATOM      1  C   UNL A   1      35.880  21.471  25.276  1.00  0.00     0.042 C 
ENDROOT
BRANCH   1   2
ATOM      2  C   UNL A   1      35.688  22.483  26.393  1.00  0.00     0.117 C 
BRANCH   2   3
ATOM      3  N   UNL A   1      35.393  23.812  25.885  1.00  0.00    -0.356 N 
ATOM      4  C   UNL A   1      34.331  24.420  25.317  1.00  0.00     0.223 C 
ATOM      5  O   UNL A   1      34.522  25.616  25.048  1.00  0.00    -0.275 OA
ATOM      6  H   UNL A   1      36.160  24.421  25.980  1.00  0.00     0.163 HD
BRANCH   4   7
ATOM      7  C   UNL A   1      32.989  23.764  24.929  1.00  0.00     0.084 C 
ATOM      8  C   UNL A   1      33.217  22.925  23.629  1.00  0.00     0.035 C 
ATOM      9  C   UNL A   1      33.370  23.895  22.427  1.00  0.00     0.007 C 
ATOM     10  C   UNL A   1      32.181  24.844  22.264  1.00  0.00     0.000 C 
ATOM     11  C   UNL A   1      31.738  24.621  24.753  1.00  0.00     0.014 C 
ATOM     12  C   UNL A   1      31.837  25.570  23.559  1.00  0.00     0.001 C 
BRANCH   8  13
ATOM     13  C   UNL A   1      32.111  21.871  23.333  1.00  0.00     0.151 C 
BRANCH  13  14
ATOM     14  C   UNL A   1      32.333  20.458  23.810  1.00  0.00     0.019 A 
ATOM     15  C   UNL A   1      32.980  16.358  25.039  1.00  0.00     0.047 C 
ATOM     16  C   UNL A   1      32.773  17.783  24.630  1.00  0.00    -0.012 A 
ATOM     17  C   UNL A   1      32.714  18.814  25.572  1.00  0.00     0.046 A 
ATOM     18  C   UNL A   1      32.626  18.105  23.281  1.00  0.00     0.126 A 
ATOM     19  C   UNL A   1      32.509  20.133  25.158  1.00  0.00     0.129 A 
ATOM     20  C   UNL A   1      32.411  19.418  22.869  1.00  0.00     0.049 A 
ATOM     21  F   UNL A   1      32.694  17.141  22.352  1.00  0.00    -0.207 F 
ATOM     22  F   UNL A   1      32.497  21.097  26.086  1.00  0.00    -0.207 F 
ENDBRANCH  13  14
BRANCH  13  23
ATOM     23  O   UNL A   1      31.879  21.811  21.923  1.00  0.00    -0.388 OA
ATOM     24  H   UNL A   1      32.723  21.901  21.453  1.00  0.00     0.211 HD
ENDBRANCH  13  23
ENDBRANCH   8  13
ENDBRANCH   4   7
ENDBRANCH   2   3
ENDBRANCH   1   2
BRANCH   1  25
ATOM     25  C   UNL A   1      37.290  21.498  24.702  1.00  0.00     0.118 C 
BRANCH  25  26
ATOM     26  N   UNL A   1      38.137  20.445  25.258  1.00  0.00    -0.352 N 
ATOM     27  C   UNL A   1      39.311  20.521  25.973  1.00  0.00     0.251 C 
ATOM     28  H   UNL A   1      37.813  19.529  25.095  1.00  0.00     0.163 HD
ATOM     29  O   UNL A   1      39.985  19.514  26.139  1.00  0.00    -0.269 OA
BRANCH  27  30
ATOM     30  C   UNL A   1      39.763  21.824  26.506  1.00  0.00     0.039 A 
ATOM     31  C   UNL A   1      39.229  23.011  26.006  1.00  0.00     0.014 A 
ATOM     32  C   UNL A   1      40.741  21.862  27.503  1.00  0.00     0.014 A 
ATOM     33  C   UNL A   1      39.825  24.222  26.330  1.00  0.00     0.010 A 
ATOM     34  C   UNL A   1      41.259  23.094  27.915  1.00  0.00     0.010 A 
ATOM     35  C   UNL A   1      40.849  24.279  27.286  1.00  0.00    -0.014 A 
BRANCH  35  36
ATOM     36  C   UNL A   1      41.481  25.586  27.603  1.00  0.00     0.031 A 
ATOM     37  C   UNL A   1      40.735  26.626  28.397  1.00  0.00     0.074 A 
ATOM     38  C   UNL A   1      42.748  25.820  27.207  1.00  0.00     0.049 A 
ATOM     39  N   UNL A   1      41.108  27.838  28.716  1.00  0.00    -0.248 NA
ATOM     40  C   UNL A   1      39.397  26.264  28.897  1.00  0.00     0.031 C 
ATOM     41  C   UNL A   1      43.578  24.890  26.439  1.00  0.00     0.029 A 
ATOM     42  N   UNL A   1      43.564  26.905  27.405  1.00  0.00    -0.354 N 
ATOM     43  C   UNL A   1      40.036  28.401  29.397  1.00  0.00     0.074 A 
ATOM     44  C   UNL A   1      38.997  27.398  29.457  1.00  0.00     0.031 C 
ATOM     45  C   UNL A   1      44.795  25.423  26.266  1.00  0.00     0.029 A 
ATOM     46  C   UNL A   1      44.811  26.762  26.844  1.00  0.00     0.049 A 
ATOM     47  H   UNL A   1      43.283  27.708  27.900  1.00  0.00     0.167 HD
ATOM     48  C   UNL A   1      39.934  29.638  29.938  1.00  0.00     0.034 A 
ATOM     49  C   UNL A   1      45.845  27.619  26.774  1.00  0.00     0.034 A 
ATOM     50  C   UNL A   1      40.994  30.608  29.940  1.00  0.00     0.049 A 
ATOM     51  C   UNL A   1      45.704  28.984  27.377  1.00  0.00     0.074 A 
ATOM     52  C   UNL A   1      40.999  31.871  30.506  1.00  0.00     0.029 A 
ATOM     53  N   UNL A   1      42.238  30.424  29.358  1.00  0.00    -0.354 N 
ATOM     54  N   UNL A   1      44.698  29.481  28.055  1.00  0.00    -0.248 NA
ATOM     55  C   UNL A   1      46.835  29.907  27.208  1.00  0.00     0.031 C 
ATOM     56  C   UNL A   1      42.247  32.453  30.262  1.00  0.00     0.029 A 
ATOM     57  C   UNL A   1      43.017  31.551  29.547  1.00  0.00     0.049 A 
ATOM     58  H   UNL A   1      42.523  29.612  28.881  1.00  0.00     0.167 HD
ATOM     59  C   UNL A   1      45.071  30.775  28.392  1.00  0.00     0.074 A 
ATOM     60  C   UNL A   1      46.408  30.974  27.872  1.00  0.00     0.031 C 
ATOM     61  C   UNL A   1      44.359  31.719  29.052  1.00  0.00     0.034 A 
BRANCH  48  62
ATOM     62  C   UNL A   1      38.647  30.009  30.620  1.00  0.00     0.023 A 
ATOM     63  C   UNL A   1      38.442  29.635  31.962  1.00  0.00     0.012 A 
ATOM     64  C   UNL A   1      37.689  30.811  29.967  1.00  0.00     0.148 A 
ATOM     65  C   UNL A   1      37.298  30.046  32.644  1.00  0.00     0.002 A 
ATOM     66  C   UNL A   1      36.564  31.239  30.661  1.00  0.00     0.091 A 
ATOM     67  F   UNL A   1      37.902  31.142  28.686  1.00  0.00    -0.205 F 
ATOM     68  C   UNL A   1      36.365  30.855  31.998  1.00  0.00     0.022 A 
BRANCH  66  69
ATOM     69  S   UNL A   1      35.327  32.324  29.942  1.00  0.00     0.127 S 
ATOM     70  O   UNL A   1      36.138  33.477  29.551  1.00  0.00    -0.237 OA
ATOM     71  O   UNL A   1      34.829  31.522  28.825  1.00  0.00    -0.237 OA
ATOM     72  O   UNL A   1      34.354  32.583  30.993  1.00  0.00    -0.744 OA
ENDBRANCH  66  69
ENDBRANCH  48  62
BRANCH  49  73
ATOM     73  C   UNL A   1      47.105  27.187  26.112  1.00  0.00     0.023 A 
ATOM     74  C   UNL A   1      47.345  27.562  24.777  1.00  0.00     0.012 A 
ATOM     75  C   UNL A   1      48.098  26.489  26.826  1.00  0.00     0.148 A 
ATOM     76  C   UNL A   1      48.557  27.247  24.162  1.00  0.00     0.002 A 
ATOM     77  C   UNL A   1      49.320  26.220  26.222  1.00  0.00     0.091 A 
ATOM     78  F   UNL A   1      47.839  26.139  28.093  1.00  0.00    -0.205 F 
ATOM     79  C   UNL A   1      49.547  26.589  24.887  1.00  0.00     0.022 A 
BRANCH  77  80
ATOM     80  S   UNL A   1      50.698  25.486  27.111  1.00  0.00     0.127 S 
ATOM     81  O   UNL A   1      50.081  24.291  27.682  1.00  0.00    -0.237 OA
ATOM     82  O   UNL A   1      51.648  25.233  26.028  1.00  0.00    -0.237 OA
ATOM     83  O   UNL A   1      51.130  26.490  28.073  1.00  0.00    -0.744 OA
ENDBRANCH  77  80
ENDBRANCH  49  73
BRANCH  61  84
ATOM     84  C   UNL A   1      44.998  33.064  29.245  1.00  0.00     0.023 A 
ATOM     85  C   UNL A   1      45.810  33.278  30.375  1.00  0.00     0.012 A 
ATOM     86  C   UNL A   1      44.881  34.069  28.267  1.00  0.00     0.148 A 
ATOM     87  C   UNL A   1      46.492  34.482  30.535  1.00  0.00     0.002 A 
ATOM     88  C   UNL A   1      45.589  35.255  28.416  1.00  0.00     0.091 A 
ATOM     89  F   UNL A   1      44.091  33.841  27.209  1.00  0.00    -0.205 F 
ATOM     90  C   UNL A   1      46.391  35.465  29.551  1.00  0.00     0.022 A 
BRANCH  88  91
ATOM     91  S   UNL A   1      45.581  36.549  27.172  1.00  0.00     0.127 S 
ATOM     92  O   UNL A   1      46.443  37.557  27.785  1.00  0.00    -0.237 OA
ATOM     93  O   UNL A   1      46.162  35.870  26.014  1.00  0.00    -0.237 OA
ATOM     94  O   UNL A   1      44.187  36.940  27.007  1.00  0.00    -0.744 OA
ENDBRANCH  88  91
ENDBRANCH  61  84
ENDBRANCH  35  36
ENDBRANCH  27  30
ENDBRANCH  25  26
ENDBRANCH   1  25
TORSDOF 16
ENDMDL
