MODEL 1
REMARK VINA RESULT:     -12.6      0.000      0.000
REMARK SMILES Cc1cc(OC(F)(F)F)cc2c1O[C@H](C(F)(F)F)C(C(=O)NCCCNC(=O)c1ccc(-c3c4nc(c(-c5cccc(S(=O)(=O)[O-])c5F)c5ccc([nH]5)c(-c5cccc(S(=O)(=O)[O-])c5F)c5nc(c(-c6cccc(S(=O)(=O)[O-])c6F)c6ccc3[nH]6)C=C5)C=C4)cc1)=C2
REMARK SMILES IDX 24 1 23 2 22 3 20 4 21 5 19 7 1 8 2 9 3 10 12 11 4 12 11 13
REMARK SMILES IDX 13 14 10 15 92 16 14 17 5 18 6 19 7 20 8 21 9 22 15 23 16 24
REMARK SMILES IDX 17 25 18 26 25 27 26 28 27 29 28 31 29 32 30 33 91 34 31 35
REMARK SMILES IDX 90 36 32 37 33 38 34 39 84 40 35 41 89 42 83 43 85 44 36 45
REMARK SMILES IDX 88 46 82 47 81 48 37 50 69 51 49 52 68 53 50 54 53 55 67 56
REMARK SMILES IDX 86 57 51 58 52 59 66 61 87 62 54 63 38 64 39 65 47 66 40 67
REMARK SMILES IDX 42 68 48 69 41 70 43 71 44 72 45 73 46 74 70 75 71 76 79 77
REMARK SMILES IDX 72 78 74 79 80 80 73 81 75 82 76 83 77 84 78 85 55 86 56 87
REMARK SMILES IDX 64 88 57 89 59 90 65 91 58 92 60 93 61 94 62 95 63 96
REMARK H PARENT 22 6 26 30 85 49 53 60
REMARK Flexibility Score: inf
ROOT
ATOM      1  C   UNL A   1      37.793  19.572  24.981  1.00  0.00     0.042 C 
ENDROOT
BRANCH   1   2
ATOM      2  C   UNL A   1      36.670  20.541  24.638  1.00  0.00     0.118 C 
BRANCH   2   3
ATOM      3  N   UNL A   1      35.757  20.741  25.754  1.00  0.00    -0.352 N 
ATOM      4  C   UNL A   1      34.756  21.591  26.077  1.00  0.00     0.251 C 
ATOM      5  O   UNL A   1      34.210  21.374  27.163  1.00  0.00    -0.270 OA
ATOM      6  H   UNL A   1      35.909  20.078  26.465  1.00  0.00     0.163 HD
BRANCH   4   7
ATOM      7  C   UNL A   1      34.280  22.720  25.226  1.00  0.00     0.067 C 
ATOM      8  C   UNL A   1      32.902  25.851  21.407  1.00  0.00     0.048 C 
ATOM      9  C   UNL A   1      33.195  26.025  22.871  1.00  0.00    -0.005 A 
ATOM     10  C   UNL A   1      33.009  27.272  23.487  1.00  0.00     0.054 A 
ATOM     11  C   UNL A   1      33.606  24.938  23.651  1.00  0.00     0.131 A 
ATOM     12  C   UNL A   1      33.264  27.438  24.851  1.00  0.00     0.130 A 
ATOM     13  C   UNL A   1      33.869  25.090  25.013  1.00  0.00     0.021 A 
ATOM     14  O   UNL A   1      33.778  23.742  23.013  1.00  0.00    -0.475 OA
ATOM     15  C   UNL A   1      33.698  26.342  25.608  1.00  0.00     0.058 A 
ATOM     16  C   UNL A   1      34.346  23.945  25.781  1.00  0.00     0.025 C 
ATOM     17  C   UNL A   1      33.717  22.555  23.845  1.00  0.00     0.314 C 
BRANCH  12  18
ATOM     18  O   UNL A   1      33.131  28.597  25.562  1.00  0.00    -0.406 OA
BRANCH  18  19
ATOM     19  C   UNL A   1      31.838  28.938  26.029  1.00  0.00     0.573 C 
ATOM     20  F   UNL A   1      31.311  29.959  25.321  1.00  0.00    -0.132 F 
ATOM     21  F   UNL A   1      31.005  27.875  25.978  1.00  0.00    -0.132 F 
ATOM     22  F   UNL A   1      31.932  29.328  27.320  1.00  0.00    -0.132 F 
ENDBRANCH  18  19
ENDBRANCH  12  18
BRANCH  17  23
ATOM     23  C   UNL A   1      32.272  22.021  23.859  1.00  0.00     0.429 C 
ATOM     24  F   UNL A   1      32.256  20.691  24.122  1.00  0.00    -0.167 F 
ATOM     25  F   UNL A   1      31.506  22.608  24.808  1.00  0.00    -0.167 F 
ATOM     26  F   UNL A   1      31.634  22.204  22.680  1.00  0.00    -0.167 F 
ENDBRANCH  17  23
ENDBRANCH   4   7
ENDBRANCH   2   3
ENDBRANCH   1   2
BRANCH   1  27
ATOM     27  C   UNL A   1      38.919  20.252  25.753  1.00  0.00     0.118 C 
BRANCH  27  28
ATOM     28  N   UNL A   1      40.009  19.321  26.035  1.00  0.00    -0.352 N 
ATOM     29  C   UNL A   1      41.349  19.568  26.182  1.00  0.00     0.251 C 
ATOM     30  H   UNL A   1      39.741  18.378  26.135  1.00  0.00     0.163 HD
ATOM     31  O   UNL A   1      42.157  18.644  26.101  1.00  0.00    -0.269 OA
BRANCH  29  32
ATOM     32  C   UNL A   1      41.813  20.942  26.444  1.00  0.00     0.039 A 
ATOM     33  C   UNL A   1      42.174  21.768  25.375  1.00  0.00     0.014 A 
ATOM     34  C   UNL A   1      41.920  21.399  27.760  1.00  0.00     0.014 A 
ATOM     35  C   UNL A   1      42.595  23.074  25.628  1.00  0.00     0.010 A 
ATOM     36  C   UNL A   1      42.266  22.720  28.006  1.00  0.00     0.010 A 
ATOM     37  C   UNL A   1      42.627  23.561  26.945  1.00  0.00    -0.014 A 
BRANCH  37  38
ATOM     38  C   UNL A   1      43.070  24.938  27.252  1.00  0.00     0.031 A 
ATOM     39  C   UNL A   1      42.119  25.891  27.918  1.00  0.00     0.074 A 
ATOM     40  C   UNL A   1      44.281  25.356  26.840  1.00  0.00     0.049 A 
ATOM     41  N   UNL A   1      42.290  27.153  28.207  1.00  0.00    -0.248 NA
ATOM     42  C   UNL A   1      40.789  25.368  28.277  1.00  0.00     0.031 C 
ATOM     43  C   UNL A   1      45.253  24.542  26.109  1.00  0.00     0.029 A 
ATOM     44  N   UNL A   1      44.886  26.582  26.951  1.00  0.00    -0.354 N 
ATOM     45  C   UNL A   1      41.082  27.585  28.736  1.00  0.00     0.074 A 
ATOM     46  C   UNL A   1      40.176  26.459  28.711  1.00  0.00     0.031 C 
ATOM     47  C   UNL A   1      46.334  25.290  25.838  1.00  0.00     0.029 A 
ATOM     48  C   UNL A   1      46.124  26.638  26.360  1.00  0.00     0.049 A 
ATOM     49  H   UNL A   1      44.473  27.348  27.411  1.00  0.00     0.167 HD
ATOM     50  C   UNL A   1      40.766  28.803  29.230  1.00  0.00     0.034 A 
ATOM     51  C   UNL A   1      46.995  27.660  26.252  1.00  0.00     0.034 A 
ATOM     52  C   UNL A   1      41.694  29.894  29.321  1.00  0.00     0.049 A 
ATOM     53  C   UNL A   1      46.651  28.986  26.869  1.00  0.00     0.074 A 
ATOM     54  C   UNL A   1      41.512  31.124  29.927  1.00  0.00     0.029 A 
ATOM     55  N   UNL A   1      42.972  29.888  28.789  1.00  0.00    -0.354 N 
ATOM     56  N   UNL A   1      45.563  29.329  27.517  1.00  0.00    -0.248 NA
ATOM     57  C   UNL A   1      47.656  30.053  26.773  1.00  0.00     0.031 C 
ATOM     58  C   UNL A   1      42.681  31.869  29.749  1.00  0.00     0.029 A 
ATOM     59  C   UNL A   1      43.591  31.098  29.040  1.00  0.00     0.049 A 
ATOM     60  H   UNL A   1      43.380  29.135  28.304  1.00  0.00     0.167 HD
ATOM     61  C   UNL A   1      45.759  30.643  27.922  1.00  0.00     0.074 A 
ATOM     62  C   UNL A   1      47.075  31.033  27.456  1.00  0.00     0.031 C 
ATOM     63  C   UNL A   1      44.917  31.455  28.607  1.00  0.00     0.034 A 
BRANCH  50  64
ATOM     64  C   UNL A   1      39.380  29.000  29.773  1.00  0.00     0.023 A 
ATOM     65  C   UNL A   1      39.078  28.548  31.073  1.00  0.00     0.012 A 
ATOM     66  C   UNL A   1      38.402  29.685  29.028  1.00  0.00     0.148 A 
ATOM     67  C   UNL A   1      37.812  28.758  31.618  1.00  0.00     0.002 A 
ATOM     68  C   UNL A   1      37.154  29.918  29.589  1.00  0.00     0.091 A 
ATOM     69  F   UNL A   1      38.710  30.084  27.786  1.00  0.00    -0.205 F 
ATOM     70  C   UNL A   1      36.855  29.451  30.880  1.00  0.00     0.022 A 
BRANCH  68  71
ATOM     71  S   UNL A   1      35.867  30.845  28.747  1.00  0.00     0.127 S 
ATOM     72  O   UNL A   1      35.220  29.798  27.957  1.00  0.00    -0.237 OA
ATOM     73  O   UNL A   1      35.069  31.348  29.865  1.00  0.00    -0.237 OA
ATOM     74  O   UNL A   1      36.550  31.873  27.974  1.00  0.00    -0.744 OA
ENDBRANCH  68  71
ENDBRANCH  50  64
BRANCH  51  75
ATOM     75  C   UNL A   1      48.310  27.418  25.601  1.00  0.00     0.023 A 
ATOM     76  C   UNL A   1      49.372  26.916  26.376  1.00  0.00     0.012 A 
ATOM     77  C   UNL A   1      48.478  27.571  24.211  1.00  0.00     0.148 A 
ATOM     78  C   UNL A   1      50.583  26.568  25.778  1.00  0.00     0.002 A 
ATOM     79  C   UNL A   1      49.675  27.188  23.616  1.00  0.00     0.091 A 
ATOM     80  F   UNL A   1      47.446  28.040  23.497  1.00  0.00    -0.205 F 
ATOM     81  C   UNL A   1      50.731  26.694  24.400  1.00  0.00     0.022 A 
BRANCH  79  82
ATOM     82  S   UNL A   1      49.929  27.209  21.838  1.00  0.00     0.127 S 
ATOM     83  O   UNL A   1      49.757  28.626  21.528  1.00  0.00    -0.237 OA
ATOM     84  O   UNL A   1      51.302  26.717  21.731  1.00  0.00    -0.237 OA
ATOM     85  O   UNL A   1      48.916  26.325  21.281  1.00  0.00    -0.744 OA
ENDBRANCH  79  82
ENDBRANCH  51  75
BRANCH  63  86
ATOM     86  C   UNL A   1      45.369  32.855  28.910  1.00  0.00     0.023 A 
ATOM     87  C   UNL A   1      46.159  33.088  30.052  1.00  0.00     0.012 A 
ATOM     88  C   UNL A   1      45.146  33.898  27.990  1.00  0.00     0.148 A 
ATOM     89  C   UNL A   1      46.724  34.344  30.273  1.00  0.00     0.002 A 
ATOM     90  C   UNL A   1      45.739  35.136  28.199  1.00  0.00     0.091 A 
ATOM     91  F   UNL A   1      44.383  33.647  26.915  1.00  0.00    -0.205 F 
ATOM     92  C   UNL A   1      46.527  35.361  29.341  1.00  0.00     0.022 A 
BRANCH  90  93
ATOM     93  S   UNL A   1      45.616  36.481  27.015  1.00  0.00     0.127 S 
ATOM     94  O   UNL A   1      46.399  37.527  27.672  1.00  0.00    -0.237 OA
ATOM     95  O   UNL A   1      46.242  35.905  25.826  1.00  0.00    -0.237 OA
ATOM     96  O   UNL A   1      44.195  36.768  26.875  1.00  0.00    -0.744 OA
ENDBRANCH  90  93
ENDBRANCH  63  86
ENDBRANCH  37  38
ENDBRANCH  29  32
ENDBRANCH  27  28
ENDBRANCH   1  27
TORSDOF 16
ENDMDL
MODEL 2
REMARK VINA RESULT:     -12.4      6.262     11.395
REMARK SMILES Cc1cc(OC(F)(F)F)cc2c1O[C@H](C(F)(F)F)C(C(=O)NCCCNC(=O)c1ccc(-c3c4nc(c(-c5cccc(S(=O)(=O)[O-])c5F)c5ccc([nH]5)c(-c5cccc(S(=O)(=O)[O-])c5F)c5nc(c(-c6cccc(S(=O)(=O)[O-])c6F)c6ccc3[nH]6)C=C5)C=C4)cc1)=C2
REMARK SMILES IDX 24 1 23 2 22 3 20 4 21 5 19 7 1 8 2 9 3 10 12 11 4 12 11 13
REMARK SMILES IDX 13 14 10 15 92 16 14 17 5 18 6 19 7 20 8 21 9 22 15 23 16 24
REMARK SMILES IDX 17 25 18 26 25 27 26 28 27 29 28 31 29 32 30 33 91 34 31 35
REMARK SMILES IDX 90 36 32 37 33 38 34 39 84 40 35 41 89 42 83 43 85 44 36 45
REMARK SMILES IDX 88 46 82 47 81 48 37 50 69 51 49 52 68 53 50 54 53 55 67 56
REMARK SMILES IDX 86 57 51 58 52 59 66 61 87 62 54 63 38 64 39 65 47 66 40 67
REMARK SMILES IDX 42 68 48 69 41 70 43 71 44 72 45 73 46 74 70 75 71 76 79 77
REMARK SMILES IDX 72 78 74 79 80 80 73 81 75 82 76 83 77 84 78 85 55 86 56 87
REMARK SMILES IDX 64 88 57 89 59 90 65 91 58 92 60 93 61 94 62 95 63 96
REMARK H PARENT 22 6 26 30 85 49 53 60
REMARK Flexibility Score: inf
ROOT
ATOM      1  C   UNL A   1      31.458  31.926  26.486  1.00  0.00     0.042 C 
ENDROOT
BRANCH   1   2
ATOM      2  C   UNL A   1      31.510  30.434  26.189  1.00  0.00     0.118 C 
BRANCH   2   3
ATOM      3  N   UNL A   1      32.195  30.147  24.937  1.00  0.00    -0.352 N 
ATOM      4  C   UNL A   1      32.643  29.053  24.278  1.00  0.00     0.251 C 
ATOM      5  O   UNL A   1      33.169  29.276  23.183  1.00  0.00    -0.270 OA
ATOM      6  H   UNL A   1      32.384  30.971  24.434  1.00  0.00     0.163 HD
BRANCH   4   7
ATOM      7  C   UNL A   1      32.529  27.649  24.768  1.00  0.00     0.067 C 
ATOM      8  C   UNL A   1      31.080  23.201  26.866  1.00  0.00     0.048 C 
ATOM      9  C   UNL A   1      32.380  23.768  26.367  1.00  0.00    -0.005 A 
ATOM     10  C   UNL A   1      33.534  22.970  26.334  1.00  0.00     0.054 A 
ATOM     11  C   UNL A   1      32.448  25.077  25.880  1.00  0.00     0.131 A 
ATOM     12  C   UNL A   1      34.743  23.483  25.856  1.00  0.00     0.130 A 
ATOM     13  C   UNL A   1      33.648  25.606  25.404  1.00  0.00     0.021 A 
ATOM     14  O   UNL A   1      31.303  25.822  25.931  1.00  0.00    -0.475 OA
ATOM     15  C   UNL A   1      34.793  24.806  25.396  1.00  0.00     0.058 A 
ATOM     16  C   UNL A   1      33.690  26.993  24.954  1.00  0.00     0.025 C 
ATOM     17  C   UNL A   1      31.226  26.948  25.020  1.00  0.00     0.314 C 
BRANCH  12  18
ATOM     18  O   UNL A   1      35.931  22.815  25.782  1.00  0.00    -0.406 OA
BRANCH  18  19
ATOM     19  C   UNL A   1      36.092  21.871  24.738  1.00  0.00     0.573 C 
ATOM     20  F   UNL A   1      35.475  20.706  25.027  1.00  0.00    -0.132 F 
ATOM     21  F   UNL A   1      35.619  22.354  23.568  1.00  0.00    -0.132 F 
ATOM     22  F   UNL A   1      37.410  21.619  24.580  1.00  0.00    -0.132 F 
ENDBRANCH  18  19
ENDBRANCH  12  18
BRANCH  17  23
ATOM     23  C   UNL A   1      30.541  26.496  23.716  1.00  0.00     0.429 C 
ATOM     24  F   UNL A   1      29.708  27.463  23.254  1.00  0.00    -0.167 F 
ATOM     25  F   UNL A   1      31.423  26.244  22.721  1.00  0.00    -0.167 F 
ATOM     26  F   UNL A   1      29.803  25.373  23.874  1.00  0.00    -0.167 F 
ENDBRANCH  17  23
ENDBRANCH   4   7
ENDBRANCH   2   3
ENDBRANCH   1   2
BRANCH   1  27
ATOM     27  C   UNL A   1      32.678  32.395  27.271  1.00  0.00     0.118 C 
BRANCH  27  28
ATOM     28  N   UNL A   1      32.591  33.819  27.587  1.00  0.00    -0.352 N 
ATOM     29  C   UNL A   1      33.184  34.523  28.603  1.00  0.00     0.251 C 
ATOM     30  H   UNL A   1      32.024  34.351  26.983  1.00  0.00     0.163 HD
ATOM     31  O   UNL A   1      32.759  35.636  28.910  1.00  0.00    -0.269 OA
BRANCH  29  32
ATOM     32  C   UNL A   1      34.335  33.943  29.317  1.00  0.00     0.039 A 
ATOM     33  C   UNL A   1      34.120  33.041  30.363  1.00  0.00     0.014 A 
ATOM     34  C   UNL A   1      35.633  34.324  28.965  1.00  0.00     0.014 A 
ATOM     35  C   UNL A   1      35.215  32.481  31.023  1.00  0.00     0.010 A 
ATOM     36  C   UNL A   1      36.720  33.710  29.571  1.00  0.00     0.010 A 
ATOM     37  C   UNL A   1      36.520  32.801  30.618  1.00  0.00    -0.014 A 
BRANCH  37  38
ATOM     38  C   UNL A   1      37.704  32.229  31.296  1.00  0.00     0.031 A 
ATOM     39  C   UNL A   1      38.449  31.094  30.654  1.00  0.00     0.074 A 
ATOM     40  C   UNL A   1      38.041  32.660  32.525  1.00  0.00     0.049 A 
ATOM     41  N   UNL A   1      39.463  30.413  31.115  1.00  0.00    -0.248 NA
ATOM     42  C   UNL A   1      37.973  30.642  29.335  1.00  0.00     0.031 C 
ATOM     43  C   UNL A   1      37.336  33.697  33.281  1.00  0.00     0.029 A 
ATOM     44  N   UNL A   1      39.044  32.253  33.369  1.00  0.00    -0.354 N 
ATOM     45  C   UNL A   1      39.716  29.428  30.170  1.00  0.00     0.074 A 
ATOM     46  C   UNL A   1      38.738  29.583  29.117  1.00  0.00     0.031 C 
ATOM     47  C   UNL A   1      37.930  33.846  34.476  1.00  0.00     0.029 A 
ATOM     48  C   UNL A   1      39.043  32.906  34.577  1.00  0.00     0.049 A 
ATOM     49  H   UNL A   1      39.701  31.560  33.130  1.00  0.00     0.167 HD
ATOM     50  C   UNL A   1      40.697  28.498  30.165  1.00  0.00     0.034 A 
ATOM     51  C   UNL A   1      39.850  32.765  35.647  1.00  0.00     0.034 A 
ATOM     52  C   UNL A   1      41.710  28.398  31.176  1.00  0.00     0.049 A 
ATOM     53  C   UNL A   1      40.976  31.773  35.590  1.00  0.00     0.074 A 
ATOM     54  C   UNL A   1      42.824  27.579  31.194  1.00  0.00     0.029 A 
ATOM     55  N   UNL A   1      41.730  29.137  32.347  1.00  0.00    -0.354 N 
ATOM     56  N   UNL A   1      41.304  30.961  34.613  1.00  0.00    -0.248 NA
ATOM     57  C   UNL A   1      41.863  31.695  36.760  1.00  0.00     0.031 C 
ATOM     58  C   UNL A   1      43.513  27.815  32.387  1.00  0.00     0.029 A 
ATOM     59  C   UNL A   1      42.831  28.785  33.105  1.00  0.00     0.049 A 
ATOM     60  H   UNL A   1      41.060  29.811  32.603  1.00  0.00     0.167 HD
ATOM     61  C   UNL A   1      42.442  30.290  35.041  1.00  0.00     0.074 A 
ATOM     62  C   UNL A   1      42.756  30.797  36.361  1.00  0.00     0.031 C 
ATOM     63  C   UNL A   1      43.153  29.331  34.399  1.00  0.00     0.034 A 
BRANCH  50  64
ATOM     64  C   UNL A   1      40.763  27.558  28.996  1.00  0.00     0.023 A 
ATOM     65  C   UNL A   1      39.850  26.488  28.918  1.00  0.00     0.012 A 
ATOM     66  C   UNL A   1      41.681  27.769  27.950  1.00  0.00     0.148 A 
ATOM     67  C   UNL A   1      39.861  25.628  27.822  1.00  0.00     0.002 A 
ATOM     68  C   UNL A   1      41.665  26.926  26.846  1.00  0.00     0.091 A 
ATOM     69  F   UNL A   1      42.554  28.780  28.060  1.00  0.00    -0.205 F 
ATOM     70  C   UNL A   1      40.760  25.853  26.782  1.00  0.00     0.022 A 
BRANCH  68  71
ATOM     71  S   UNL A   1      42.744  27.159  25.430  1.00  0.00     0.127 S 
ATOM     72  O   UNL A   1      42.148  28.334  24.795  1.00  0.00    -0.237 OA
ATOM     73  O   UNL A   1      44.038  27.401  26.067  1.00  0.00    -0.237 OA
ATOM     74  O   UNL A   1      42.666  25.928  24.656  1.00  0.00    -0.744 OA
ENDBRANCH  68  71
ENDBRANCH  50  64
BRANCH  51  75
ATOM     75  C   UNL A   1      39.654  33.661  36.817  1.00  0.00     0.023 A 
ATOM     76  C   UNL A   1      39.988  35.023  36.696  1.00  0.00     0.012 A 
ATOM     77  C   UNL A   1      39.037  33.201  37.996  1.00  0.00     0.148 A 
ATOM     78  C   UNL A   1      39.712  35.915  37.732  1.00  0.00     0.002 A 
ATOM     79  C   UNL A   1      38.731  34.102  39.010  1.00  0.00     0.091 A 
ATOM     80  F   UNL A   1      38.719  31.901  38.078  1.00  0.00    -0.205 F 
ATOM     81  C   UNL A   1      39.076  35.458  38.883  1.00  0.00     0.022 A 
BRANCH  79  82
ATOM     82  S   UNL A   1      37.817  33.635  40.484  1.00  0.00     0.127 S 
ATOM     83  O   UNL A   1      37.677  34.919  41.168  1.00  0.00    -0.237 OA
ATOM     84  O   UNL A   1      36.580  33.106  39.909  1.00  0.00    -0.237 OA
ATOM     85  O   UNL A   1      38.643  32.654  41.171  1.00  0.00    -0.744 OA
ENDBRANCH  79  82
ENDBRANCH  51  75
BRANCH  63  86
ATOM     86  C   UNL A   1      44.351  28.748  35.094  1.00  0.00     0.023 A 
ATOM     87  C   UNL A   1      45.603  29.372  34.940  1.00  0.00     0.012 A 
ATOM     88  C   UNL A   1      44.205  27.691  36.013  1.00  0.00     0.148 A 
ATOM     89  C   UNL A   1      46.697  28.952  35.695  1.00  0.00     0.002 A 
ATOM     90  C   UNL A   1      45.290  27.300  36.786  1.00  0.00     0.091 A 
ATOM     91  F   UNL A   1      43.001  27.112  36.132  1.00  0.00    -0.205 F 
ATOM     92  C   UNL A   1      46.537  27.928  36.627  1.00  0.00     0.022 A 
BRANCH  90  93
ATOM     93  S   UNL A   1      45.163  26.052  38.072  1.00  0.00     0.127 S 
ATOM     94  O   UNL A   1      44.781  24.870  37.301  1.00  0.00    -0.237 OA
ATOM     95  O   UNL A   1      46.525  26.018  38.606  1.00  0.00    -0.237 OA
ATOM     96  O   UNL A   1      44.156  26.534  39.006  1.00  0.00    -0.744 OA
ENDBRANCH  90  93
ENDBRANCH  63  86
ENDBRANCH  37  38
ENDBRANCH  29  32
ENDBRANCH  27  28
ENDBRANCH   1  27
TORSDOF 16
ENDMDL
MODEL 3
REMARK VINA RESULT:     -12.4      5.961     11.254
REMARK SMILES Cc1cc(OC(F)(F)F)cc2c1O[C@H](C(F)(F)F)C(C(=O)NCCCNC(=O)c1ccc(-c3c4nc(c(-c5cccc(S(=O)(=O)[O-])c5F)c5ccc([nH]5)c(-c5cccc(S(=O)(=O)[O-])c5F)c5nc(c(-c6cccc(S(=O)(=O)[O-])c6F)c6ccc3[nH]6)C=C5)C=C4)cc1)=C2
REMARK SMILES IDX 24 1 23 2 22 3 20 4 21 5 19 7 1 8 2 9 3 10 12 11 4 12 11 13
REMARK SMILES IDX 13 14 10 15 92 16 14 17 5 18 6 19 7 20 8 21 9 22 15 23 16 24
REMARK SMILES IDX 17 25 18 26 25 27 26 28 27 29 28 31 29 32 30 33 91 34 31 35
REMARK SMILES IDX 90 36 32 37 33 38 34 39 84 40 35 41 89 42 83 43 85 44 36 45
REMARK SMILES IDX 88 46 82 47 81 48 37 50 69 51 49 52 68 53 50 54 53 55 67 56
REMARK SMILES IDX 86 57 51 58 52 59 66 61 87 62 54 63 38 64 39 65 47 66 40 67
REMARK SMILES IDX 42 68 48 69 41 70 43 71 44 72 45 73 46 74 70 75 71 76 79 77
REMARK SMILES IDX 72 78 74 79 80 80 73 81 75 82 76 83 77 84 78 85 55 86 56 87
REMARK SMILES IDX 64 88 57 89 59 90 65 91 58 92 60 93 61 94 62 95 63 96
REMARK H PARENT 22 6 26 30 85 49 53 60
REMARK Flexibility Score: inf
ROOT
ATOM      1  C   UNL A   1      31.342  31.915  26.461  1.00  0.00     0.042 C 
ENDROOT
BRANCH   1   2
ATOM      2  C   UNL A   1      31.409  30.414  26.216  1.00  0.00     0.118 C 
BRANCH   2   3
ATOM      3  N   UNL A   1      32.090  30.091  24.970  1.00  0.00    -0.352 N 
ATOM      4  C   UNL A   1      32.486  28.976  24.316  1.00  0.00     0.251 C 
ATOM      5  O   UNL A   1      33.034  29.171  23.225  1.00  0.00    -0.270 OA
ATOM      6  H   UNL A   1      32.326  30.905  24.469  1.00  0.00     0.163 HD
BRANCH   4   7
ATOM      7  C   UNL A   1      32.296  27.580  24.805  1.00  0.00     0.067 C 
ATOM      8  C   UNL A   1      30.572  23.196  26.828  1.00  0.00     0.048 C 
ATOM      9  C   UNL A   1      31.918  23.717  26.411  1.00  0.00    -0.005 A 
ATOM     10  C   UNL A   1      33.045  22.882  26.455  1.00  0.00     0.054 A 
ATOM     11  C   UNL A   1      32.060  25.020  25.923  1.00  0.00     0.131 A 
ATOM     12  C   UNL A   1      34.298  23.353  26.053  1.00  0.00     0.130 A 
ATOM     13  C   UNL A   1      33.304  25.506  25.521  1.00  0.00     0.021 A 
ATOM     14  O   UNL A   1      30.939  25.802  25.897  1.00  0.00    -0.475 OA
ATOM     15  C   UNL A   1      34.421  24.669  25.590  1.00  0.00     0.058 A 
ATOM     16  C   UNL A   1      33.421  26.888  25.067  1.00  0.00     0.025 C 
ATOM     17  C   UNL A   1      30.957  26.923  24.976  1.00  0.00     0.314 C 
BRANCH  12  18
ATOM     18  O   UNL A   1      35.466  22.645  26.059  1.00  0.00    -0.406 OA
BRANCH  18  19
ATOM     19  C   UNL A   1      35.577  21.550  25.167  1.00  0.00     0.573 C 
ATOM     20  F   UNL A   1      36.865  21.195  24.979  1.00  0.00    -0.132 F 
ATOM     21  F   UNL A   1      34.876  20.485  25.614  1.00  0.00    -0.132 F 
ATOM     22  F   UNL A   1      35.063  21.911  23.970  1.00  0.00    -0.132 F 
ENDBRANCH  18  19
ENDBRANCH  12  18
BRANCH  17  23
ATOM     23  C   UNL A   1      30.342  26.485  23.634  1.00  0.00     0.429 C 
ATOM     24  F   UNL A   1      29.630  25.339  23.785  1.00  0.00    -0.167 F 
ATOM     25  F   UNL A   1      29.486  27.402  23.125  1.00  0.00    -0.167 F 
ATOM     26  F   UNL A   1      31.274  26.255  22.680  1.00  0.00    -0.167 F 
ENDBRANCH  17  23
ENDBRANCH   4   7
ENDBRANCH   2   3
ENDBRANCH   1   2
BRANCH   1  27
ATOM     27  C   UNL A   1      32.697  32.489  26.862  1.00  0.00     0.118 C 
BRANCH  27  28
ATOM     28  N   UNL A   1      32.563  33.836  27.411  1.00  0.00    -0.352 N 
ATOM     29  C   UNL A   1      33.147  34.385  28.523  1.00  0.00     0.251 C 
ATOM     30  H   UNL A   1      31.965  34.437  26.910  1.00  0.00     0.163 HD
ATOM     31  O   UNL A   1      32.686  35.414  29.015  1.00  0.00    -0.269 OA
BRANCH  29  32
ATOM     32  C   UNL A   1      34.332  33.742  29.118  1.00  0.00     0.039 A 
ATOM     33  C   UNL A   1      35.611  34.186  28.770  1.00  0.00     0.014 A 
ATOM     34  C   UNL A   1      34.169  32.670  30.000  1.00  0.00     0.014 A 
ATOM     35  C   UNL A   1      36.728  33.584  29.350  1.00  0.00     0.010 A 
ATOM     36  C   UNL A   1      35.276  32.123  30.633  1.00  0.00     0.010 A 
ATOM     37  C   UNL A   1      36.564  32.561  30.298  1.00  0.00    -0.014 A 
BRANCH  37  38
ATOM     38  C   UNL A   1      37.725  31.898  30.931  1.00  0.00     0.031 A 
ATOM     39  C   UNL A   1      38.480  30.844  30.172  1.00  0.00     0.074 A 
ATOM     40  C   UNL A   1      38.030  32.169  32.213  1.00  0.00     0.049 A 
ATOM     41  N   UNL A   1      39.477  30.100  30.573  1.00  0.00    -0.248 NA
ATOM     42  C   UNL A   1      38.039  30.564  28.795  1.00  0.00     0.031 C 
ATOM     43  C   UNL A   1      37.311  33.111  33.072  1.00  0.00     0.029 A 
ATOM     44  N   UNL A   1      39.006  31.650  33.026  1.00  0.00    -0.354 N 
ATOM     45  C   UNL A   1      39.750  29.238  29.520  1.00  0.00     0.074 A 
ATOM     46  C   UNL A   1      38.803  29.532  28.469  1.00  0.00     0.031 C 
ATOM     47  C   UNL A   1      37.871  33.105  34.292  1.00  0.00     0.029 A 
ATOM     48  C   UNL A   1      38.975  32.148  34.306  1.00  0.00     0.049 A 
ATOM     49  H   UNL A   1      39.665  30.986  32.721  1.00  0.00     0.167 HD
ATOM     50  C   UNL A   1      40.725  28.306  29.425  1.00  0.00     0.034 A 
ATOM     51  C   UNL A   1      39.751  31.868  35.371  1.00  0.00     0.034 A 
ATOM     52  C   UNL A   1      41.708  28.071  30.444  1.00  0.00     0.049 A 
ATOM     53  C   UNL A   1      40.872  30.879  35.222  1.00  0.00     0.074 A 
ATOM     54  C   UNL A   1      42.816  27.246  30.389  1.00  0.00     0.029 A 
ATOM     55  N   UNL A   1      41.699  28.659  31.698  1.00  0.00    -0.354 N 
ATOM     56  N   UNL A   1      41.221  30.191  34.161  1.00  0.00    -0.248 NA
ATOM     57  C   UNL A   1      41.724  30.647  36.397  1.00  0.00     0.031 C 
ATOM     58  C   UNL A   1      43.472  27.324  31.621  1.00  0.00     0.029 A 
ATOM     59  C   UNL A   1      42.777  28.205  32.436  1.00  0.00     0.049 A 
ATOM     60  H   UNL A   1      41.027  29.302  32.017  1.00  0.00     0.167 HD
ATOM     61  C   UNL A   1      42.343  29.460  34.532  1.00  0.00     0.074 A 
ATOM     62  C   UNL A   1      42.623  29.797  35.914  1.00  0.00     0.031 C 
ATOM     63  C   UNL A   1      43.065  28.582  33.796  1.00  0.00     0.034 A 
BRANCH  50  64
ATOM     64  C   UNL A   1      40.818  27.518  28.151  1.00  0.00     0.023 A 
ATOM     65  C   UNL A   1      41.454  28.090  27.031  1.00  0.00     0.012 A 
ATOM     66  C   UNL A   1      40.336  26.198  28.081  1.00  0.00     0.148 A 
ATOM     67  C   UNL A   1      41.593  27.363  25.850  1.00  0.00     0.002 A 
ATOM     68  C   UNL A   1      40.507  25.469  26.911  1.00  0.00     0.091 A 
ATOM     69  F   UNL A   1      39.715  25.686  29.153  1.00  0.00    -0.205 F 
ATOM     70  C   UNL A   1      41.129  26.051  25.794  1.00  0.00     0.022 A 
BRANCH  68  71
ATOM     71  S   UNL A   1      39.994  23.756  26.750  1.00  0.00     0.127 S 
ATOM     72  O   UNL A   1      40.876  23.284  25.682  1.00  0.00    -0.237 OA
ATOM     73  O   UNL A   1      40.299  23.218  28.075  1.00  0.00    -0.237 OA
ATOM     74  O   UNL A   1      38.578  23.788  26.415  1.00  0.00    -0.744 OA
ENDBRANCH  68  71
ENDBRANCH  50  64
BRANCH  51  75
ATOM     75  C   UNL A   1      39.528  32.613  36.638  1.00  0.00     0.023 A 
ATOM     76  C   UNL A   1      40.195  33.837  36.836  1.00  0.00     0.012 A 
ATOM     77  C   UNL A   1      38.581  32.179  37.586  1.00  0.00     0.148 A 
ATOM     78  C   UNL A   1      39.923  34.619  37.957  1.00  0.00     0.002 A 
ATOM     79  C   UNL A   1      38.289  32.980  38.683  1.00  0.00     0.091 A 
ATOM     80  F   UNL A   1      37.953  31.015  37.366  1.00  0.00    -0.205 F 
ATOM     81  C   UNL A   1      38.965  34.197  38.875  1.00  0.00     0.022 A 
BRANCH  79  82
ATOM     82  S   UNL A   1      36.995  32.581  39.864  1.00  0.00     0.127 S 
ATOM     83  O   UNL A   1      37.162  33.637  40.860  1.00  0.00    -0.237 OA
ATOM     84  O   UNL A   1      35.795  32.697  39.037  1.00  0.00    -0.237 OA
ATOM     85  O   UNL A   1      37.288  31.235  40.335  1.00  0.00    -0.744 OA
ENDBRANCH  79  82
ENDBRANCH  51  75
BRANCH  63  86
ATOM     86  C   UNL A   1      44.239  27.906  34.445  1.00  0.00     0.023 A 
ATOM     87  C   UNL A   1      45.516  28.487  34.328  1.00  0.00     0.012 A 
ATOM     88  C   UNL A   1      44.052  26.796  35.291  1.00  0.00     0.148 A 
ATOM     89  C   UNL A   1      46.593  27.973  35.049  1.00  0.00     0.002 A 
ATOM     90  C   UNL A   1      45.121  26.310  36.033  1.00  0.00     0.091 A 
ATOM     91  F   UNL A   1      42.825  26.260  35.377  1.00  0.00    -0.205 F 
ATOM     92  C   UNL A   1      46.393  26.895  35.910  1.00  0.00     0.022 A 
BRANCH  90  93
ATOM     93  S   UNL A   1      44.945  24.985  37.232  1.00  0.00     0.127 S 
ATOM     94  O   UNL A   1      44.513  23.874  36.385  1.00  0.00    -0.237 OA
ATOM     95  O   UNL A   1      46.305  24.860  37.756  1.00  0.00    -0.237 OA
ATOM     96  O   UNL A   1      43.959  25.443  38.201  1.00  0.00    -0.744 OA
ENDBRANCH  90  93
ENDBRANCH  63  86
ENDBRANCH  37  38
ENDBRANCH  29  32
ENDBRANCH  27  28
ENDBRANCH   1  27
TORSDOF 16
ENDMDL
