MODEL 1
REMARK VINA RESULT:     -11.3      0.000      0.000
REMARK SMILES O=C(NCCCNC(=O)[C@H](Cc1cccc(Br)c1)CC1CCC1)c1ccc(-c2c3nc(c(-c4cccc(S(=O)(=O)[O-])c4F)c4ccc([nH]4)c(-c4cccc(S(=O)(=O)[O-])c4F)c4nc(c(-c5cccc(S(=O)(=O)[O-])c5F)c5ccc2[nH]5)C=C4)C=C3)cc1
REMARK SMILES IDX 4 1 3 2 1 3 2 4 24 6 25 7 86 8 26 9 85 10 27 11 28 12 29 13
REMARK SMILES IDX 79 14 30 15 84 16 78 17 80 18 31 19 83 20 77 21 76 22 32 24
REMARK SMILES IDX 64 25 44 26 63 27 45 28 48 29 62 30 81 31 46 32 47 33 61 35
REMARK SMILES IDX 82 36 49 37 33 38 34 39 42 40 35 41 37 42 43 43 36 44 38 45
REMARK SMILES IDX 39 46 40 47 41 48 65 49 66 50 74 51 67 52 69 53 75 54 68 55
REMARK SMILES IDX 70 56 71 57 72 58 73 59 50 60 51 61 59 62 52 63 54 64 60 65
REMARK SMILES IDX 53 66 55 67 56 68 57 69 58 70 5 71 6 72 7 73 8 74 9 76 10 77
REMARK SMILES IDX 19 78 20 79 21 80 23 81 22 82 11 83 12 84 13 85 18 86 14 87
REMARK SMILES IDX 16 88 15 89 17 90
REMARK H PARENT 3 5 80 23 48 34 7 75
REMARK Flexibility Score: inf
ROOT
ATOM      1  C   UNL A   1      39.094  20.093  25.312  1.00  0.00     0.118 C 
ENDROOT
BRANCH   1   2
ATOM      2  N   UNL A   1      40.145  19.283  25.916  1.00  0.00    -0.352 N 
ATOM      3  O   UNL A   1      42.217  18.818  26.654  1.00  0.00    -0.269 OA
ATOM      4  C   UNL A   1      41.351  19.669  26.442  1.00  0.00     0.251 C 
ATOM      5  H   UNL A   1      39.961  18.316  25.952  1.00  0.00     0.163 HD
BRANCH   4   6
ATOM      6  C   UNL A   1      41.604  21.092  26.744  1.00  0.00     0.039 A 
ATOM      7  C   UNL A   1      41.821  21.498  28.063  1.00  0.00     0.014 A 
ATOM      8  C   UNL A   1      41.668  22.024  25.705  1.00  0.00     0.014 A 
ATOM      9  C   UNL A   1      41.954  22.846  28.362  1.00  0.00     0.010 A 
ATOM     10  C   UNL A   1      41.923  23.367  25.997  1.00  0.00     0.010 A 
ATOM     11  C   UNL A   1      42.060  23.787  27.328  1.00  0.00    -0.014 A 
BRANCH  11  12
ATOM     12  C   UNL A   1      42.485  25.166  27.668  1.00  0.00     0.031 A 
ATOM     13  C   UNL A   1      41.544  26.149  28.298  1.00  0.00     0.074 A 
ATOM     14  C   UNL A   1      43.752  25.519  27.371  1.00  0.00     0.049 A 
ATOM     15  N   UNL A   1      41.774  27.391  28.638  1.00  0.00    -0.248 NA
ATOM     16  C   UNL A   1      40.173  25.695  28.578  1.00  0.00     0.031 C 
ATOM     17  C   UNL A   1      44.735  24.649  26.713  1.00  0.00     0.029 A 
ATOM     18  N   UNL A   1      44.432  26.693  27.561  1.00  0.00    -0.354 N 
ATOM     19  C   UNL A   1      40.571  27.884  29.126  1.00  0.00     0.074 A 
ATOM     20  C   UNL A   1      39.612  26.802  29.053  1.00  0.00     0.031 C 
ATOM     21  C   UNL A   1      45.888  25.314  26.565  1.00  0.00     0.029 A 
ATOM     22  C   UNL A   1      45.706  26.676  27.044  1.00  0.00     0.049 A 
ATOM     23  H   UNL A   1      44.045  27.472  28.024  1.00  0.00     0.167 HD
ATOM     24  C   UNL A   1      40.302  29.126  29.591  1.00  0.00     0.034 A 
ATOM     25  C   UNL A   1      46.616  27.660  26.921  1.00  0.00     0.034 A 
ATOM     26  C   UNL A   1      41.275  30.182  29.685  1.00  0.00     0.049 A 
ATOM     27  C   UNL A   1      46.276  29.021  27.448  1.00  0.00     0.074 A 
ATOM     28  C   UNL A   1      41.121  31.442  30.236  1.00  0.00     0.029 A 
ATOM     29  N   UNL A   1      42.568  30.119  29.189  1.00  0.00    -0.354 N 
ATOM     30  N   UNL A   1      45.189  29.418  28.064  1.00  0.00    -0.248 NA
ATOM     31  C   UNL A   1      47.292  30.069  27.281  1.00  0.00     0.031 C 
ATOM     32  C   UNL A   1      42.304  32.158  30.029  1.00  0.00     0.029 A 
ATOM     33  C   UNL A   1      43.209  31.330  29.386  1.00  0.00     0.049 A 
ATOM     34  H   UNL A   1      42.971  29.329  28.759  1.00  0.00     0.167 HD
ATOM     35  C   UNL A   1      45.395  30.755  28.371  1.00  0.00     0.074 A 
ATOM     36  C   UNL A   1      46.728  31.090  27.911  1.00  0.00     0.031 C 
ATOM     37  C   UNL A   1      44.549  31.635  28.958  1.00  0.00     0.034 A 
BRANCH  24  38
ATOM     38  C   UNL A   1      38.902  29.434  30.053  1.00  0.00     0.023 A 
ATOM     39  C   UNL A   1      38.520  29.150  31.378  1.00  0.00     0.012 A 
ATOM     40  C   UNL A   1      38.013  30.131  29.209  1.00  0.00     0.148 A 
ATOM     41  C   UNL A   1      37.270  29.547  31.855  1.00  0.00     0.002 A 
ATOM     42  C   UNL A   1      36.788  30.560  29.704  1.00  0.00     0.091 A 
ATOM     43  F   UNL A   1      38.394  30.377  27.947  1.00  0.00    -0.205 F 
ATOM     44  C   UNL A   1      36.412  30.263  31.023  1.00  0.00     0.022 A 
BRANCH  42  45
ATOM     45  S   UNL A   1      35.646  31.559  28.741  1.00  0.00     0.127 S 
ATOM     46  O   UNL A   1      34.664  31.942  29.754  1.00  0.00    -0.237 OA
ATOM     47  O   UNL A   1      36.507  32.650  28.283  1.00  0.00    -0.237 OA
ATOM     48  O   UNL A   1      35.140  30.692  27.685  1.00  0.00    -0.744 OA
ENDBRANCH  42  45
ENDBRANCH  24  38
BRANCH  25  49
ATOM     49  C   UNL A   1      47.919  27.393  26.251  1.00  0.00     0.023 A 
ATOM     50  C   UNL A   1      49.031  26.997  27.015  1.00  0.00     0.012 A 
ATOM     51  C   UNL A   1      48.055  27.526  24.854  1.00  0.00     0.148 A 
ATOM     52  C   UNL A   1      50.267  26.780  26.406  1.00  0.00     0.002 A 
ATOM     53  C   UNL A   1      49.271  27.244  24.246  1.00  0.00     0.091 A 
ATOM     54  F   UNL A   1      46.989  27.918  24.144  1.00  0.00    -0.205 F 
ATOM     55  C   UNL A   1      50.386  26.892  25.023  1.00  0.00     0.022 A 
BRANCH  53  56
ATOM     56  S   UNL A   1      49.463  27.224  22.462  1.00  0.00     0.127 S 
ATOM     57  O   UNL A   1      48.568  26.137  22.077  1.00  0.00    -0.237 OA
ATOM     58  O   UNL A   1      49.005  28.563  22.090  1.00  0.00    -0.237 OA
ATOM     59  O   UNL A   1      50.883  26.994  22.227  1.00  0.00    -0.744 OA
ENDBRANCH  53  56
ENDBRANCH  25  49
BRANCH  37  60
ATOM     60  C   UNL A   1      45.044  33.044  29.150  1.00  0.00     0.023 A 
ATOM     61  C   UNL A   1      45.695  33.396  30.349  1.00  0.00     0.012 A 
ATOM     62  C   UNL A   1      44.919  33.998  28.123  1.00  0.00     0.148 A 
ATOM     63  C   UNL A   1      46.186  34.687  30.536  1.00  0.00     0.002 A 
ATOM     64  C   UNL A   1      45.457  35.266  28.294  1.00  0.00     0.091 A 
ATOM     65  F   UNL A   1      44.281  33.644  26.997  1.00  0.00    -0.205 F 
ATOM     66  C   UNL A   1      46.078  35.617  29.504  1.00  0.00     0.022 A 
BRANCH  64  67
ATOM     67  S   UNL A   1      45.450  36.503  26.991  1.00  0.00     0.127 S 
ATOM     68  O   UNL A   1      44.018  36.717  26.790  1.00  0.00    -0.237 OA
ATOM     69  O   UNL A   1      46.152  37.619  27.625  1.00  0.00    -0.237 OA
ATOM     70  O   UNL A   1      46.153  35.905  25.863  1.00  0.00    -0.744 OA
ENDBRANCH  64  67
ENDBRANCH  37  60
ENDBRANCH  11  12
ENDBRANCH   4   6
ENDBRANCH   1   2
BRANCH   1  71
ATOM     71  C   UNL A   1      37.836  19.285  25.058  1.00  0.00     0.042 C 
BRANCH  71  72
ATOM     72  C   UNL A   1      36.596  20.152  24.924  1.00  0.00     0.117 C 
BRANCH  72  73
ATOM     73  N   UNL A   1      35.359  19.388  25.018  1.00  0.00    -0.356 N 
ATOM     74  C   UNL A   1      34.058  19.766  24.840  1.00  0.00     0.223 C 
ATOM     75  H   UNL A   1      35.480  18.439  25.249  1.00  0.00     0.163 HD
ATOM     76  O   UNL A   1      33.190  18.894  24.911  1.00  0.00    -0.275 OA
BRANCH  74  77
ATOM     77  C   UNL A   1      33.681  21.230  24.583  1.00  0.00     0.083 C 
BRANCH  77  78
ATOM     78  C   UNL A   1      32.456  21.223  23.639  1.00  0.00     0.017 C 
BRANCH  78  79
ATOM     79  C   UNL A   1      32.278  22.385  22.664  1.00  0.00    -0.010 C 
ATOM     80  C   UNL A   1      31.568  23.709  23.019  1.00  0.00     0.003 C 
ATOM     81  C   UNL A   1      33.509  23.270  22.305  1.00  0.00     0.003 C 
ATOM     82  C   UNL A   1      32.509  24.416  22.037  1.00  0.00     0.001 C 
ENDBRANCH  78  79
ENDBRANCH  77  78
BRANCH  77  83
ATOM     83  C   UNL A   1      33.517  21.940  25.955  1.00  0.00     0.049 C 
BRANCH  83  84
ATOM     84  C   UNL A   1      33.640  23.445  25.952  1.00  0.00    -0.046 A 
ATOM     85  C   UNL A   1      34.841  24.083  25.622  1.00  0.00     0.004 A 
ATOM     86  C   UNL A   1      32.520  24.228  26.268  1.00  0.00     0.019 A 
ATOM     87  C   UNL A   1      34.892  25.476  25.525  1.00  0.00     0.001 A 
ATOM     88  C   UNL A   1      32.560  25.610  26.108  1.00  0.00     0.018 A 
ATOM     89  C   UNL A   1      33.743  26.238  25.735  1.00  0.00     0.016 A 
ATOM     90  Br  UNL A   1      30.973  26.615  26.318  1.00  0.00    -0.051 Br
ENDBRANCH  83  84
ENDBRANCH  77  83
ENDBRANCH  74  77
ENDBRANCH  72  73
ENDBRANCH  71  72
ENDBRANCH   1  71
TORSDOF 17
ENDMDL
MODEL 2
REMARK VINA RESULT:     -11.3      0.929      1.519
REMARK SMILES O=C(NCCCNC(=O)[C@H](Cc1cccc(Br)c1)CC1CCC1)c1ccc(-c2c3nc(c(-c4cccc(S(=O)(=O)[O-])c4F)c4ccc([nH]4)c(-c4cccc(S(=O)(=O)[O-])c4F)c4nc(c(-c5cccc(S(=O)(=O)[O-])c5F)c5ccc2[nH]5)C=C4)C=C3)cc1
REMARK SMILES IDX 4 1 3 2 1 3 2 4 24 6 25 7 86 8 26 9 85 10 27 11 28 12 29 13
REMARK SMILES IDX 79 14 30 15 84 16 78 17 80 18 31 19 83 20 77 21 76 22 32 24
REMARK SMILES IDX 64 25 44 26 63 27 45 28 48 29 62 30 81 31 46 32 47 33 61 35
REMARK SMILES IDX 82 36 49 37 33 38 34 39 42 40 35 41 37 42 43 43 36 44 38 45
REMARK SMILES IDX 39 46 40 47 41 48 65 49 66 50 74 51 67 52 69 53 75 54 68 55
REMARK SMILES IDX 70 56 71 57 72 58 73 59 50 60 51 61 59 62 52 63 54 64 60 65
REMARK SMILES IDX 53 66 55 67 56 68 57 69 58 70 5 71 6 72 7 73 8 74 9 76 10 77
REMARK SMILES IDX 19 78 20 79 21 80 23 81 22 82 11 83 12 84 13 85 18 86 14 87
REMARK SMILES IDX 16 88 15 89 17 90
REMARK H PARENT 3 5 80 23 48 34 7 75
REMARK Flexibility Score: inf
ROOT
ATOM      1  C   UNL A   1      38.701  20.426  25.968  1.00  0.00     0.118 C 
ENDROOT
BRANCH   1   2
ATOM      2  N   UNL A   1      39.799  19.467  25.977  1.00  0.00    -0.352 N 
ATOM      3  O   UNL A   1      41.925  18.771  25.754  1.00  0.00    -0.269 OA
ATOM      4  C   UNL A   1      41.152  19.689  26.033  1.00  0.00     0.251 C 
ATOM      5  H   UNL A   1      39.530  18.521  25.938  1.00  0.00     0.163 HD
BRANCH   4   6
ATOM      6  C   UNL A   1      41.666  21.018  26.419  1.00  0.00     0.039 A 
ATOM      7  C   UNL A   1      41.817  22.016  25.454  1.00  0.00     0.014 A 
ATOM      8  C   UNL A   1      41.960  21.288  27.758  1.00  0.00     0.014 A 
ATOM      9  C   UNL A   1      42.396  23.229  25.793  1.00  0.00     0.010 A 
ATOM     10  C   UNL A   1      42.432  22.554  28.119  1.00  0.00     0.010 A 
ATOM     11  C   UNL A   1      42.661  23.530  27.136  1.00  0.00    -0.014 A 
BRANCH  11  12
ATOM     12  C   UNL A   1      43.008  24.925  27.494  1.00  0.00     0.031 A 
ATOM     13  C   UNL A   1      42.003  25.857  28.103  1.00  0.00     0.074 A 
ATOM     14  C   UNL A   1      44.263  25.343  27.232  1.00  0.00     0.049 A 
ATOM     15  N   UNL A   1      42.161  27.106  28.455  1.00  0.00    -0.248 NA
ATOM     16  C   UNL A   1      40.650  25.334  28.344  1.00  0.00     0.031 C 
ATOM     17  C   UNL A   1      45.305  24.527  26.596  1.00  0.00     0.029 A 
ATOM     18  N   UNL A   1      44.878  26.548  27.446  1.00  0.00    -0.354 N 
ATOM     19  C   UNL A   1      40.924  27.536  28.913  1.00  0.00     0.074 A 
ATOM     20  C   UNL A   1      40.021  26.408  28.809  1.00  0.00     0.031 C 
ATOM     21  C   UNL A   1      46.427  25.249  26.481  1.00  0.00     0.029 A 
ATOM     22  C   UNL A   1      46.165  26.598  26.962  1.00  0.00     0.049 A 
ATOM     23  H   UNL A   1      44.441  27.304  27.901  1.00  0.00     0.167 HD
ATOM     24  C   UNL A   1      40.580  28.761  29.377  1.00  0.00     0.034 A 
ATOM     25  C   UNL A   1      47.028  27.626  26.867  1.00  0.00     0.034 A 
ATOM     26  C   UNL A   1      41.497  29.863  29.501  1.00  0.00     0.049 A 
ATOM     27  C   UNL A   1      46.606  28.966  27.392  1.00  0.00     0.074 A 
ATOM     28  C   UNL A   1      41.266  31.111  30.054  1.00  0.00     0.029 A 
ATOM     29  N   UNL A   1      42.804  29.867  29.040  1.00  0.00    -0.354 N 
ATOM     30  N   UNL A   1      45.485  29.305  27.980  1.00  0.00    -0.248 NA
ATOM     31  C   UNL A   1      47.572  30.064  27.257  1.00  0.00     0.031 C 
ATOM     32  C   UNL A   1      42.417  31.886  29.882  1.00  0.00     0.029 A 
ATOM     33  C   UNL A   1      43.379  31.108  29.259  1.00  0.00     0.049 A 
ATOM     34  H   UNL A   1      43.257  29.102  28.617  1.00  0.00     0.167 HD
ATOM     35  C   UNL A   1      45.616  30.649  28.300  1.00  0.00     0.074 A 
ATOM     36  C   UNL A   1      46.942  31.051  27.877  1.00  0.00     0.031 C 
ATOM     37  C   UNL A   1      44.713  31.482  28.868  1.00  0.00     0.034 A 
BRANCH  24  38
ATOM     38  C   UNL A   1      39.156  28.997  29.803  1.00  0.00     0.023 A 
ATOM     39  C   UNL A   1      38.751  28.677  31.113  1.00  0.00     0.012 A 
ATOM     40  C   UNL A   1      38.258  29.662  28.943  1.00  0.00     0.148 A 
ATOM     41  C   UNL A   1      37.471  29.009  31.560  1.00  0.00     0.002 A 
ATOM     42  C   UNL A   1      37.000  30.025  29.408  1.00  0.00     0.091 A 
ATOM     43  F   UNL A   1      38.661  29.941  27.695  1.00  0.00    -0.205 F 
ATOM     44  C   UNL A   1      36.603  29.694  30.713  1.00  0.00     0.022 A 
BRANCH  42  45
ATOM     45  S   UNL A   1      35.839  30.981  28.425  1.00  0.00     0.127 S 
ATOM     46  O   UNL A   1      36.674  32.099  27.989  1.00  0.00    -0.237 OA
ATOM     47  O   UNL A   1      35.484  30.036  27.367  1.00  0.00    -0.237 OA
ATOM     48  O   UNL A   1      34.747  31.338  29.321  1.00  0.00    -0.744 OA
ENDBRANCH  42  45
ENDBRANCH  24  38
BRANCH  25  49
ATOM     49  C   UNL A   1      48.359  27.429  26.231  1.00  0.00     0.023 A 
ATOM     50  C   UNL A   1      49.472  27.098  27.024  1.00  0.00     0.012 A 
ATOM     51  C   UNL A   1      48.522  27.563  24.837  1.00  0.00     0.148 A 
ATOM     52  C   UNL A   1      50.733  26.946  26.446  1.00  0.00     0.002 A 
ATOM     53  C   UNL A   1      49.766  27.345  24.261  1.00  0.00     0.091 A 
ATOM     54  F   UNL A   1      47.453  27.893  24.099  1.00  0.00    -0.205 F 
ATOM     55  C   UNL A   1      50.879  27.058  25.066  1.00  0.00     0.022 A 
BRANCH  53  56
ATOM     56  S   UNL A   1      50.003  27.328  22.481  1.00  0.00     0.127 S 
ATOM     57  O   UNL A   1      51.356  26.791  22.365  1.00  0.00    -0.237 OA
ATOM     58  O   UNL A   1      48.940  26.424  22.040  1.00  0.00    -0.237 OA
ATOM     59  O   UNL A   1      49.826  28.709  22.053  1.00  0.00    -0.744 OA
ENDBRANCH  53  56
ENDBRANCH  25  49
BRANCH  37  60
ATOM     60  C   UNL A   1      45.131  32.912  29.080  1.00  0.00     0.023 A 
ATOM     61  C   UNL A   1      45.781  33.278  30.276  1.00  0.00     0.012 A 
ATOM     62  C   UNL A   1      44.937  33.876  28.073  1.00  0.00     0.148 A 
ATOM     63  C   UNL A   1      46.202  34.591  30.479  1.00  0.00     0.002 A 
ATOM     64  C   UNL A   1      45.407  35.170  28.260  1.00  0.00     0.091 A 
ATOM     65  F   UNL A   1      44.303  33.508  26.950  1.00  0.00    -0.205 F 
ATOM     66  C   UNL A   1      46.026  35.532  29.467  1.00  0.00     0.022 A 
BRANCH  64  67
ATOM     67  S   UNL A   1      45.311  36.427  26.981  1.00  0.00     0.127 S 
ATOM     68  O   UNL A   1      46.069  35.807  25.896  1.00  0.00    -0.237 OA
ATOM     69  O   UNL A   1      43.870  36.517  26.747  1.00  0.00    -0.237 OA
ATOM     70  O   UNL A   1      45.910  37.627  27.549  1.00  0.00    -0.744 OA
ENDBRANCH  64  67
ENDBRANCH  37  60
ENDBRANCH  11  12
ENDBRANCH   4   6
ENDBRANCH   1   2
BRANCH   1  71
ATOM     71  C   UNL A   1      37.725  20.154  24.840  1.00  0.00     0.042 C 
BRANCH  71  72
ATOM     72  C   UNL A   1      36.543  21.108  24.841  1.00  0.00     0.117 C 
BRANCH  72  73
ATOM     73  N   UNL A   1      35.830  21.123  26.112  1.00  0.00    -0.356 N 
ATOM     74  C   UNL A   1      34.708  21.799  26.500  1.00  0.00     0.223 C 
ATOM     75  H   UNL A   1      36.223  20.549  26.808  1.00  0.00     0.163 HD
ATOM     76  O   UNL A   1      34.264  21.578  27.629  1.00  0.00    -0.275 OA
BRANCH  74  77
ATOM     77  C   UNL A   1      34.031  22.819  25.577  1.00  0.00     0.083 C 
BRANCH  77  78
ATOM     78  C   UNL A   1      32.566  22.957  26.051  1.00  0.00     0.017 C 
BRANCH  78  79
ATOM     79  C   UNL A   1      31.463  23.060  24.999  1.00  0.00    -0.010 C 
ATOM     80  C   UNL A   1      30.725  24.369  24.647  1.00  0.00     0.003 C 
ATOM     81  C   UNL A   1      31.846  23.001  23.490  1.00  0.00     0.003 C 
ATOM     82  C   UNL A   1      30.581  23.842  23.216  1.00  0.00     0.001 C 
ENDBRANCH  78  79
ENDBRANCH  77  78
BRANCH  77  83
ATOM     83  C   UNL A   1      34.896  24.108  25.556  1.00  0.00     0.049 C 
BRANCH  83  84
ATOM     84  C   UNL A   1      34.197  25.381  25.144  1.00  0.00    -0.046 A 
ATOM     85  C   UNL A   1      34.050  25.736  23.798  1.00  0.00     0.004 A 
ATOM     86  C   UNL A   1      33.661  26.224  26.129  1.00  0.00     0.019 A 
ATOM     87  C   UNL A   1      33.305  26.864  23.446  1.00  0.00     0.001 A 
ATOM     88  C   UNL A   1      32.868  27.309  25.772  1.00  0.00     0.018 A 
ATOM     89  C   UNL A   1      32.685  27.633  24.432  1.00  0.00     0.016 A 
ATOM     90  Br  UNL A   1      31.972  28.288  27.118  1.00  0.00    -0.051 Br
ENDBRANCH  83  84
ENDBRANCH  77  83
ENDBRANCH  74  77
ENDBRANCH  72  73
ENDBRANCH  71  72
ENDBRANCH   1  71
TORSDOF 17
ENDMDL
MODEL 3
REMARK VINA RESULT:     -11.3      5.969     11.214
REMARK SMILES O=C(NCCCNC(=O)[C@H](Cc1cccc(Br)c1)CC1CCC1)c1ccc(-c2c3nc(c(-c4cccc(S(=O)(=O)[O-])c4F)c4ccc([nH]4)c(-c4cccc(S(=O)(=O)[O-])c4F)c4nc(c(-c5cccc(S(=O)(=O)[O-])c5F)c5ccc2[nH]5)C=C4)C=C3)cc1
REMARK SMILES IDX 4 1 3 2 1 3 2 4 24 6 25 7 86 8 26 9 85 10 27 11 28 12 29 13
REMARK SMILES IDX 79 14 30 15 84 16 78 17 80 18 31 19 83 20 77 21 76 22 32 24
REMARK SMILES IDX 64 25 44 26 63 27 45 28 48 29 62 30 81 31 46 32 47 33 61 35
REMARK SMILES IDX 82 36 49 37 33 38 34 39 42 40 35 41 37 42 43 43 36 44 38 45
REMARK SMILES IDX 39 46 40 47 41 48 65 49 66 50 74 51 67 52 69 53 75 54 68 55
REMARK SMILES IDX 70 56 71 57 72 58 73 59 50 60 51 61 59 62 52 63 54 64 60 65
REMARK SMILES IDX 53 66 55 67 56 68 57 69 58 70 5 71 6 72 7 73 8 74 9 76 10 77
REMARK SMILES IDX 19 78 20 79 21 80 23 81 22 82 11 83 12 84 13 85 18 86 14 87
REMARK SMILES IDX 16 88 15 89 17 90
REMARK H PARENT 3 5 80 23 48 34 7 75
REMARK Flexibility Score: inf
ROOT
ATOM      1  C   UNL A   1      32.742  32.089  26.895  1.00  0.00     0.118 C 
ENDROOT
BRANCH   1   2
ATOM      2  N   UNL A   1      32.560  33.485  27.277  1.00  0.00    -0.352 N 
ATOM      3  O   UNL A   1      32.667  35.280  28.625  1.00  0.00    -0.269 OA
ATOM      4  C   UNL A   1      33.150  34.197  28.289  1.00  0.00     0.251 C 
ATOM      5  H   UNL A   1      31.919  33.989  26.726  1.00  0.00     0.163 HD
BRANCH   4   6
ATOM      6  C   UNL A   1      34.348  33.663  28.967  1.00  0.00     0.039 A 
ATOM      7  C   UNL A   1      34.244  32.533  29.780  1.00  0.00     0.014 A 
ATOM      8  C   UNL A   1      35.592  34.264  28.758  1.00  0.00     0.014 A 
ATOM      9  C   UNL A   1      35.344  32.090  30.499  1.00  0.00     0.010 A 
ATOM     10  C   UNL A   1      36.725  33.742  29.390  1.00  0.00     0.010 A 
ATOM     11  C   UNL A   1      36.606  32.657  30.272  1.00  0.00    -0.014 A 
BRANCH  11  12
ATOM     12  C   UNL A   1      37.797  31.980  30.836  1.00  0.00     0.031 A 
ATOM     13  C   UNL A   1      38.565  30.955  30.056  1.00  0.00     0.074 A 
ATOM     14  C   UNL A   1      38.161  32.302  32.094  1.00  0.00     0.049 A 
ATOM     15  N   UNL A   1      39.618  30.274  30.425  1.00  0.00    -0.248 NA
ATOM     16  C   UNL A   1      38.098  30.645  28.696  1.00  0.00     0.031 C 
ATOM     17  C   UNL A   1      37.451  33.255  32.957  1.00  0.00     0.029 A 
ATOM     18  N   UNL A   1      39.197  31.864  32.876  1.00  0.00    -0.354 N 
ATOM     19  C   UNL A   1      39.913  29.421  29.371  1.00  0.00     0.074 A 
ATOM     20  C   UNL A   1      38.936  29.679  28.334  1.00  0.00     0.031 C 
ATOM     21  C   UNL A   1      38.075  33.334  34.138  1.00  0.00     0.029 A 
ATOM     22  C   UNL A   1      39.180  32.387  34.148  1.00  0.00     0.049 A 
ATOM     23  H   UNL A   1      39.885  31.236  32.558  1.00  0.00     0.167 HD
ATOM     24  C   UNL A   1      40.911  28.510  29.282  1.00  0.00     0.034 A 
ATOM     25  C   UNL A   1      39.937  32.103  35.223  1.00  0.00     0.034 A 
ATOM     26  C   UNL A   1      41.893  28.286  30.311  1.00  0.00     0.049 A 
ATOM     27  C   UNL A   1      41.030  31.086  35.083  1.00  0.00     0.074 A 
ATOM     28  C   UNL A   1      43.000  27.457  30.271  1.00  0.00     0.029 A 
ATOM     29  N   UNL A   1      41.871  28.863  31.571  1.00  0.00    -0.354 N 
ATOM     30  N   UNL A   1      41.400  30.417  34.018  1.00  0.00    -0.248 NA
ATOM     31  C   UNL A   1      41.824  30.797  36.284  1.00  0.00     0.031 C 
ATOM     32  C   UNL A   1      43.620  27.494  31.524  1.00  0.00     0.029 A 
ATOM     33  C   UNL A   1      42.922  28.377  32.331  1.00  0.00     0.049 A 
ATOM     34  H   UNL A   1      41.206  29.520  31.881  1.00  0.00     0.167 HD
ATOM     35  C   UNL A   1      42.477  29.639  34.417  1.00  0.00     0.074 A 
ATOM     36  C   UNL A   1      42.727  29.952  35.809  1.00  0.00     0.031 C 
ATOM     37  C   UNL A   1      43.181  28.728  33.703  1.00  0.00     0.034 A 
BRANCH  24  38
ATOM     38  C   UNL A   1      41.020  27.679  28.032  1.00  0.00     0.023 A 
ATOM     39  C   UNL A   1      41.572  28.235  26.863  1.00  0.00     0.012 A 
ATOM     40  C   UNL A   1      40.699  26.306  28.062  1.00  0.00     0.148 A 
ATOM     41  C   UNL A   1      41.796  27.441  25.738  1.00  0.00     0.002 A 
ATOM     42  C   UNL A   1      40.963  25.513  26.952  1.00  0.00     0.091 A 
ATOM     43  F   UNL A   1      40.159  25.803  29.182  1.00  0.00    -0.205 F 
ATOM     44  C   UNL A   1      41.505  26.079  25.788  1.00  0.00     0.022 A 
BRANCH  42  45
ATOM     45  S   UNL A   1      40.702  23.735  26.944  1.00  0.00     0.127 S 
ATOM     46  O   UNL A   1      41.489  23.329  25.781  1.00  0.00    -0.237 OA
ATOM     47  O   UNL A   1      41.269  23.338  28.232  1.00  0.00    -0.237 OA
ATOM     48  O   UNL A   1      39.265  23.537  26.818  1.00  0.00    -0.744 OA
ENDBRANCH  42  45
ENDBRANCH  24  38
BRANCH  25  49
ATOM     49  C   UNL A   1      39.668  32.774  36.525  1.00  0.00     0.023 A 
ATOM     50  C   UNL A   1      40.380  33.935  36.875  1.00  0.00     0.012 A 
ATOM     51  C   UNL A   1      38.700  32.265  37.416  1.00  0.00     0.148 A 
ATOM     52  C   UNL A   1      40.164  34.553  38.107  1.00  0.00     0.002 A 
ATOM     53  C   UNL A   1      38.444  32.923  38.611  1.00  0.00     0.091 A 
ATOM     54  F   UNL A   1      38.042  31.149  37.072  1.00  0.00    -0.205 F 
ATOM     55  C   UNL A   1      39.191  34.055  38.970  1.00  0.00     0.022 A 
BRANCH  53  56
ATOM     56  S   UNL A   1      37.109  32.429  39.704  1.00  0.00     0.127 S 
ATOM     57  O   UNL A   1      37.533  31.091  40.109  1.00  0.00    -0.237 OA
ATOM     58  O   UNL A   1      37.183  33.444  40.755  1.00  0.00    -0.237 OA
ATOM     59  O   UNL A   1      35.900  32.497  38.895  1.00  0.00    -0.744 OA
ENDBRANCH  53  56
ENDBRANCH  25  49
BRANCH  37  60
ATOM     60  C   UNL A   1      44.300  28.012  34.410  1.00  0.00     0.023 A 
ATOM     61  C   UNL A   1      45.589  28.581  34.430  1.00  0.00     0.012 A 
ATOM     62  C   UNL A   1      44.061  26.813  35.107  1.00  0.00     0.148 A 
ATOM     63  C   UNL A   1      46.633  27.949  35.104  1.00  0.00     0.002 A 
ATOM     64  C   UNL A   1      45.092  26.215  35.821  1.00  0.00     0.091 A 
ATOM     65  F   UNL A   1      42.831  26.282  35.062  1.00  0.00    -0.205 F 
ATOM     66  C   UNL A   1      46.381  26.774  35.808  1.00  0.00     0.022 A 
BRANCH  64  67
ATOM     67  S   UNL A   1      44.845  24.753  36.834  1.00  0.00     0.127 S 
ATOM     68  O   UNL A   1      43.733  25.167  37.688  1.00  0.00    -0.237 OA
ATOM     69  O   UNL A   1      44.505  23.740  35.834  1.00  0.00    -0.237 OA
ATOM     70  O   UNL A   1      46.107  24.523  37.526  1.00  0.00    -0.744 OA
ENDBRANCH  64  67
ENDBRANCH  37  60
ENDBRANCH  11  12
ENDBRANCH   4   6
ENDBRANCH   1   2
BRANCH   1  71
ATOM     71  C   UNL A   1      31.429  31.433  26.514  1.00  0.00     0.042 C 
BRANCH  71  72
ATOM     72  C   UNL A   1      31.616  30.068  25.875  1.00  0.00     0.117 C 
BRANCH  72  73
ATOM     73  N   UNL A   1      31.169  30.025  24.489  1.00  0.00    -0.356 N 
ATOM     74  C   UNL A   1      31.095  28.986  23.605  1.00  0.00     0.223 C 
ATOM     75  H   UNL A   1      30.870  30.891  24.129  1.00  0.00     0.163 HD
ATOM     76  O   UNL A   1      30.606  29.209  22.495  1.00  0.00    -0.275 OA
BRANCH  74  77
ATOM     77  C   UNL A   1      31.622  27.592  23.965  1.00  0.00     0.083 C 
BRANCH  77  78
ATOM     78  C   UNL A   1      30.390  26.692  24.211  1.00  0.00     0.017 C 
BRANCH  78  79
ATOM     79  C   UNL A   1      30.426  25.705  25.376  1.00  0.00    -0.010 C 
ATOM     80  C   UNL A   1      30.784  24.210  25.231  1.00  0.00     0.003 C 
ATOM     81  C   UNL A   1      31.604  25.775  26.393  1.00  0.00     0.003 C 
ATOM     82  C   UNL A   1      31.373  24.268  26.644  1.00  0.00     0.001 C 
ENDBRANCH  78  79
ENDBRANCH  77  78
BRANCH  77  83
ATOM     83  C   UNL A   1      32.619  27.147  22.860  1.00  0.00     0.049 C 
BRANCH  83  84
ATOM     84  C   UNL A   1      33.123  25.726  22.942  1.00  0.00    -0.046 A 
ATOM     85  C   UNL A   1      32.690  24.741  22.047  1.00  0.00     0.004 A 
ATOM     86  C   UNL A   1      34.064  25.384  23.925  1.00  0.00     0.019 A 
ATOM     87  C   UNL A   1      33.255  23.463  22.081  1.00  0.00     0.001 A 
ATOM     88  C   UNL A   1      34.668  24.130  23.913  1.00  0.00     0.018 A 
ATOM     89  C   UNL A   1      34.269  23.168  22.993  1.00  0.00     0.016 A 
ATOM     90  Br  UNL A   1      36.095  23.777  25.103  1.00  0.00    -0.051 Br
ENDBRANCH  83  84
ENDBRANCH  77  83
ENDBRANCH  74  77
ENDBRANCH  72  73
ENDBRANCH  71  72
ENDBRANCH   1  71
TORSDOF 17
ENDMDL
