MODEL 1
REMARK VINA RESULT:     -12.1      0.000      0.000
REMARK SMILES C[C@@H](C(=O)NCCCNC(=O)c1ccc(-c2c3nc(c(-c4cccc(S(=O)(=O)[O-])c4F)c4ccc([nH]4)c(-c4cccc(S(=O)(=O)[O-])c4F)c4nc(c(-c5cccc(S(=O)(=O)[O-])c5F)c5ccc2[nH]5)C=C4)C=C3)cc1)c1ccc(C[C@H]2CCCC2=O)cc1
REMARK SMILES IDX 7 1 6 2 5 3 3 4 4 5 2 7 1 8 75 9 76 10 87 11 77 12 86 13
REMARK SMILES IDX 78 14 79 15 80 16 81 17 84 18 82 19 83 20 85 21 8 22 9 23
REMARK SMILES IDX 10 24 11 26 12 27 13 28 74 29 14 30 73 31 15 32 16 33 17 34
REMARK SMILES IDX 67 35 18 36 72 37 66 38 68 39 19 40 71 41 65 42 64 43 20 45
REMARK SMILES IDX 52 46 32 47 51 48 33 49 36 50 50 51 69 52 34 53 35 54 49 56
REMARK SMILES IDX 70 57 37 58 21 59 22 60 30 61 23 62 25 63 31 64 24 65 26 66
REMARK SMILES IDX 27 67 28 68 29 69 53 70 54 71 62 72 55 73 57 74 63 75 56 76
REMARK SMILES IDX 58 77 59 78 60 79 61 80 38 81 39 82 47 83 40 84 42 85 48 86
REMARK SMILES IDX 41 87 43 88 44 89 45 90 46 91
REMARK H PARENT 5 6 9 25 68 44 36 55
REMARK Flexibility Score: inf
ROOT
ATOM      1  C   UNL A   1      31.999  28.738  26.406  1.00  0.00     0.042 C 
ENDROOT
BRANCH   1   2
ATOM      2  C   UNL A   1      32.370  27.259  26.482  1.00  0.00     0.117 C 
BRANCH   2   3
ATOM      3  N   UNL A   1      32.961  26.798  25.241  1.00  0.00    -0.356 N 
ATOM      4  C   UNL A   1      32.403  26.116  24.200  1.00  0.00     0.227 C 
ATOM      5  O   UNL A   1      33.167  25.778  23.293  1.00  0.00    -0.274 OA
ATOM      6  H   UNL A   1      33.916  27.011  25.134  1.00  0.00     0.163 HD
BRANCH   4   7
ATOM      7  C   UNL A   1      30.886  25.855  24.171  1.00  0.00     0.105 C 
ATOM      8  C   UNL A   1      30.536  24.499  23.547  1.00  0.00     0.023 C 
BRANCH   7   9
ATOM      9  C   UNL A   1      30.150  26.990  23.464  1.00  0.00    -0.036 A 
ATOM     10  C   UNL A   1      30.848  27.983  22.764  1.00  0.00     0.005 A 
ATOM     11  C   UNL A   1      28.753  27.087  23.550  1.00  0.00     0.005 A 
ATOM     12  C   UNL A   1      30.171  29.034  22.151  1.00  0.00     0.004 A 
ATOM     13  C   UNL A   1      28.077  28.162  22.963  1.00  0.00     0.004 A 
ATOM     14  C   UNL A   1      28.783  29.154  22.272  1.00  0.00    -0.047 A 
BRANCH  14  15
ATOM     15  C   UNL A   1      28.071  30.349  21.689  1.00  0.00     0.047 C 
BRANCH  15  16
ATOM     16  C   UNL A   1      27.692  31.463  22.674  1.00  0.00     0.060 C 
ATOM     17  C   UNL A   1      28.314  31.380  24.070  1.00  0.00     0.012 C 
ATOM     18  C   UNL A   1      28.132  32.834  22.216  1.00  0.00     0.136 C 
ATOM     19  C   UNL A   1      29.524  32.308  24.061  1.00  0.00     0.009 C 
ATOM     20  C   UNL A   1      29.169  33.448  23.118  1.00  0.00     0.076 C 
ATOM     21  O   UNL A   1      27.676  33.394  21.224  1.00  0.00    -0.299 OA
ENDBRANCH  15  16
ENDBRANCH  14  15
ENDBRANCH   7   9
ENDBRANCH   4   7
ENDBRANCH   2   3
ENDBRANCH   1   2
BRANCH   1  22
ATOM     22  C   UNL A   1      33.151  29.643  25.982  1.00  0.00     0.118 C 
BRANCH  22  23
ATOM     23  N   UNL A   1      32.960  31.024  26.406  1.00  0.00    -0.352 N 
ATOM     24  C   UNL A   1      33.628  31.748  27.360  1.00  0.00     0.251 C 
ATOM     25  H   UNL A   1      32.243  31.510  25.937  1.00  0.00     0.163 HD
ATOM     26  O   UNL A   1      33.179  32.838  27.716  1.00  0.00    -0.269 OA
BRANCH  24  27
ATOM     27  C   UNL A   1      34.869  31.224  27.967  1.00  0.00     0.039 A 
ATOM     28  C   UNL A   1      35.995  32.050  28.031  1.00  0.00     0.014 A 
ATOM     29  C   UNL A   1      34.935  29.915  28.450  1.00  0.00     0.014 A 
ATOM     30  C   UNL A   1      37.167  31.582  28.628  1.00  0.00     0.010 A 
ATOM     31  C   UNL A   1      36.075  29.480  29.119  1.00  0.00     0.010 A 
ATOM     32  C   UNL A   1      37.207  30.302  29.204  1.00  0.00    -0.014 A 
BRANCH  32  33
ATOM     33  C   UNL A   1      38.423  29.799  29.894  1.00  0.00     0.031 A 
ATOM     34  C   UNL A   1      38.792  30.326  31.255  1.00  0.00     0.074 A 
ATOM     35  C   UNL A   1      39.243  28.938  29.261  1.00  0.00     0.049 A 
ATOM     36  N   UNL A   1      39.852  30.074  31.979  1.00  0.00    -0.248 NA
ATOM     37  C   UNL A   1      37.863  31.289  31.870  1.00  0.00     0.031 C 
ATOM     38  C   UNL A   1      39.033  28.408  27.911  1.00  0.00     0.029 A 
ATOM     39  N   UNL A   1      40.435  28.382  29.654  1.00  0.00    -0.354 N 
ATOM     40  C   UNL A   1      39.739  30.872  33.110  1.00  0.00     0.074 A 
ATOM     41  C   UNL A   1      38.525  31.645  32.960  1.00  0.00     0.031 C 
ATOM     42  C   UNL A   1      40.060  27.606  27.590  1.00  0.00     0.029 A 
ATOM     43  C   UNL A   1      41.018  27.592  28.690  1.00  0.00     0.049 A 
ATOM     44  H   UNL A   1      40.834  28.535  30.540  1.00  0.00     0.167 HD
ATOM     45  C   UNL A   1      40.556  30.940  34.188  1.00  0.00     0.034 A 
ATOM     46  C   UNL A   1      42.199  26.943  28.686  1.00  0.00     0.034 A 
ATOM     47  C   UNL A   1      41.742  30.144  34.349  1.00  0.00     0.049 A 
ATOM     48  C   UNL A   1      43.076  27.010  29.907  1.00  0.00     0.074 A 
ATOM     49  C   UNL A   1      42.590  30.072  35.440  1.00  0.00     0.029 A 
ATOM     50  N   UNL A   1      42.259  29.291  33.385  1.00  0.00    -0.354 N 
ATOM     51  N   UNL A   1      42.877  27.654  31.032  1.00  0.00    -0.248 NA
ATOM     52  C   UNL A   1      44.323  26.232  29.874  1.00  0.00     0.031 C 
ATOM     53  C   UNL A   1      43.638  29.203  35.121  1.00  0.00     0.029 A 
ATOM     54  C   UNL A   1      43.421  28.699  33.849  1.00  0.00     0.049 A 
ATOM     55  H   UNL A   1      41.858  29.130  32.500  1.00  0.00     0.167 HD
ATOM     56  C   UNL A   1      43.951  27.330  31.853  1.00  0.00     0.074 A 
ATOM     57  C   UNL A   1      44.788  26.417  31.102  1.00  0.00     0.031 C 
ATOM     58  C   UNL A   1      44.222  27.755  33.111  1.00  0.00     0.034 A 
BRANCH  45  59
ATOM     59  C   UNL A   1      40.170  31.883  35.299  1.00  0.00     0.023 A 
ATOM     60  C   UNL A   1      40.787  33.148  35.390  1.00  0.00     0.012 A 
ATOM     61  C   UNL A   1      39.169  31.538  36.229  1.00  0.00     0.148 A 
ATOM     62  C   UNL A   1      40.450  34.033  36.413  1.00  0.00     0.002 A 
ATOM     63  C   UNL A   1      38.801  32.446  37.215  1.00  0.00     0.091 A 
ATOM     64  F   UNL A   1      38.606  30.324  36.141  1.00  0.00    -0.205 F 
ATOM     65  C   UNL A   1      39.451  33.687  37.318  1.00  0.00     0.022 A 
BRANCH  63  66
ATOM     66  S   UNL A   1      37.468  32.128  38.375  1.00  0.00     0.127 S 
ATOM     67  O   UNL A   1      37.252  30.693  38.189  1.00  0.00    -0.237 OA
ATOM     68  O   UNL A   1      38.080  32.492  39.653  1.00  0.00    -0.237 OA
ATOM     69  O   UNL A   1      36.365  32.985  37.963  1.00  0.00    -0.744 OA
ENDBRANCH  63  66
ENDBRANCH  45  59
BRANCH  46  70
ATOM     70  C   UNL A   1      42.591  26.127  27.503  1.00  0.00     0.023 A 
ATOM     71  C   UNL A   1      43.422  26.692  26.516  1.00  0.00     0.012 A 
ATOM     72  C   UNL A   1      42.175  24.788  27.368  1.00  0.00     0.148 A 
ATOM     73  C   UNL A   1      43.808  25.947  25.401  1.00  0.00     0.002 A 
ATOM     74  C   UNL A   1      42.610  24.035  26.283  1.00  0.00     0.091 A 
ATOM     75  F   UNL A   1      41.380  24.272  28.316  1.00  0.00    -0.205 F 
ATOM     76  C   UNL A   1      43.411  24.618  25.289  1.00  0.00     0.022 A 
BRANCH  74  77
ATOM     77  S   UNL A   1      42.261  22.280  26.124  1.00  0.00     0.127 S 
ATOM     78  O   UNL A   1      42.991  21.940  24.905  1.00  0.00    -0.237 OA
ATOM     79  O   UNL A   1      42.839  21.748  27.359  1.00  0.00    -0.237 OA
ATOM     80  O   UNL A   1      40.810  22.171  26.042  1.00  0.00    -0.744 OA
ENDBRANCH  74  77
ENDBRANCH  46  70
BRANCH  58  81
ATOM     81  C   UNL A   1      45.452  27.207  33.787  1.00  0.00     0.023 A 
ATOM     82  C   UNL A   1      46.642  27.960  33.811  1.00  0.00     0.012 A 
ATOM     83  C   UNL A   1      45.400  25.974  34.469  1.00  0.00     0.148 A 
ATOM     84  C   UNL A   1      47.771  27.480  34.473  1.00  0.00     0.002 A 
ATOM     85  C   UNL A   1      46.513  25.527  35.172  1.00  0.00     0.091 A 
ATOM     86  F   UNL A   1      44.264  25.264  34.420  1.00  0.00    -0.205 F 
ATOM     87  C   UNL A   1      47.703  26.272  35.164  1.00  0.00     0.022 A 
BRANCH  85  88
ATOM     88  S   UNL A   1      46.485  24.036  36.172  1.00  0.00     0.127 S 
ATOM     89  O   UNL A   1      47.817  24.060  36.778  1.00  0.00    -0.237 OA
ATOM     90  O   UNL A   1      45.388  24.306  37.101  1.00  0.00    -0.237 OA
ATOM     91  O   UNL A   1      46.241  22.936  35.249  1.00  0.00    -0.744 OA
ENDBRANCH  85  88
ENDBRANCH  58  81
ENDBRANCH  32  33
ENDBRANCH  24  27
ENDBRANCH  22  23
ENDBRANCH   1  22
TORSDOF 16
ENDMDL
MODEL 2
REMARK VINA RESULT:     -12.0      2.909      9.130
REMARK SMILES C[C@@H](C(=O)NCCCNC(=O)c1ccc(-c2c3nc(c(-c4cccc(S(=O)(=O)[O-])c4F)c4ccc([nH]4)c(-c4cccc(S(=O)(=O)[O-])c4F)c4nc(c(-c5cccc(S(=O)(=O)[O-])c5F)c5ccc2[nH]5)C=C4)C=C3)cc1)c1ccc(C[C@H]2CCCC2=O)cc1
REMARK SMILES IDX 7 1 6 2 5 3 3 4 4 5 2 7 1 8 75 9 76 10 87 11 77 12 86 13
REMARK SMILES IDX 78 14 79 15 80 16 81 17 84 18 82 19 83 20 85 21 8 22 9 23
REMARK SMILES IDX 10 24 11 26 12 27 13 28 74 29 14 30 73 31 15 32 16 33 17 34
REMARK SMILES IDX 67 35 18 36 72 37 66 38 68 39 19 40 71 41 65 42 64 43 20 45
REMARK SMILES IDX 52 46 32 47 51 48 33 49 36 50 50 51 69 52 34 53 35 54 49 56
REMARK SMILES IDX 70 57 37 58 21 59 22 60 30 61 23 62 25 63 31 64 24 65 26 66
REMARK SMILES IDX 27 67 28 68 29 69 53 70 54 71 62 72 55 73 57 74 63 75 56 76
REMARK SMILES IDX 58 77 59 78 60 79 61 80 38 81 39 82 47 83 40 84 42 85 48 86
REMARK SMILES IDX 41 87 43 88 44 89 45 90 46 91
REMARK H PARENT 5 6 9 25 68 44 36 55
REMARK Flexibility Score: inf
ROOT
ATOM      1  C   UNL A   1      31.563  32.018  26.535  1.00  0.00     0.042 C 
ENDROOT
BRANCH   1   2
ATOM      2  C   UNL A   1      31.801  30.602  26.018  1.00  0.00     0.117 C 
BRANCH   2   3
ATOM      3  N   UNL A   1      31.686  29.624  27.081  1.00  0.00    -0.356 N 
ATOM      4  C   UNL A   1      31.640  28.262  27.024  1.00  0.00     0.227 C 
ATOM      5  O   UNL A   1      31.458  27.674  28.093  1.00  0.00    -0.274 OA
ATOM      6  H   UNL A   1      31.633  30.003  27.988  1.00  0.00     0.163 HD
BRANCH   4   7
ATOM      7  C   UNL A   1      31.866  27.536  25.685  1.00  0.00     0.105 C 
ATOM      8  C   UNL A   1      30.579  27.410  24.861  1.00  0.00     0.023 C 
BRANCH   7   9
ATOM      9  C   UNL A   1      32.511  26.170  25.907  1.00  0.00    -0.036 A 
ATOM     10  C   UNL A   1      33.904  26.016  25.904  1.00  0.00     0.005 A 
ATOM     11  C   UNL A   1      31.711  25.028  26.063  1.00  0.00     0.005 A 
ATOM     12  C   UNL A   1      34.483  24.761  26.072  1.00  0.00     0.004 A 
ATOM     13  C   UNL A   1      32.293  23.764  26.198  1.00  0.00     0.004 A 
ATOM     14  C   UNL A   1      33.686  23.618  26.186  1.00  0.00    -0.047 A 
BRANCH  14  15
ATOM     15  C   UNL A   1      34.324  22.254  26.268  1.00  0.00     0.047 C 
BRANCH  15  16
ATOM     16  C   UNL A   1      34.761  21.626  24.938  1.00  0.00     0.060 C 
ATOM     17  C   UNL A   1      34.122  22.199  23.671  1.00  0.00     0.012 C 
ATOM     18  C   UNL A   1      36.234  21.804  24.655  1.00  0.00     0.136 C 
ATOM     19  C   UNL A   1      35.118  23.204  23.100  1.00  0.00     0.009 C 
ATOM     20  C   UNL A   1      36.498  22.667  23.448  1.00  0.00     0.076 C 
ATOM     21  O   UNL A   1      37.120  21.284  25.326  1.00  0.00    -0.299 OA
ENDBRANCH  15  16
ENDBRANCH  14  15
ENDBRANCH   7   9
ENDBRANCH   4   7
ENDBRANCH   2   3
ENDBRANCH   1   2
BRANCH   1  22
ATOM     22  C   UNL A   1      32.778  32.638  27.218  1.00  0.00     0.118 C 
BRANCH  22  23
ATOM     23  N   UNL A   1      32.554  34.025  27.601  1.00  0.00    -0.352 N 
ATOM     24  C   UNL A   1      33.123  34.759  28.610  1.00  0.00     0.251 C 
ATOM     25  H   UNL A   1      31.895  34.509  27.052  1.00  0.00     0.163 HD
ATOM     26  O   UNL A   1      32.648  35.857  28.901  1.00  0.00    -0.269 OA
BRANCH  24  27
ATOM     27  C   UNL A   1      34.289  34.236  29.352  1.00  0.00     0.039 A 
ATOM     28  C   UNL A   1      34.076  33.528  30.538  1.00  0.00     0.014 A 
ATOM     29  C   UNL A   1      35.590  34.461  28.896  1.00  0.00     0.014 A 
ATOM     30  C   UNL A   1      35.165  33.000  31.237  1.00  0.00     0.010 A 
ATOM     31  C   UNL A   1      36.666  33.864  29.546  1.00  0.00     0.010 A 
ATOM     32  C   UNL A   1      36.467  33.139  30.730  1.00  0.00    -0.014 A 
BRANCH  32  33
ATOM     33  C   UNL A   1      37.638  32.541  31.423  1.00  0.00     0.031 A 
ATOM     34  C   UNL A   1      38.387  31.398  30.790  1.00  0.00     0.074 A 
ATOM     35  C   UNL A   1      37.970  32.962  32.658  1.00  0.00     0.049 A 
ATOM     36  N   UNL A   1      39.376  30.692  31.273  1.00  0.00    -0.248 NA
ATOM     37  C   UNL A   1      37.945  30.972  29.453  1.00  0.00     0.031 C 
ATOM     38  C   UNL A   1      37.277  34.013  33.408  1.00  0.00     0.029 A 
ATOM     39  N   UNL A   1      38.954  32.537  33.515  1.00  0.00    -0.354 N 
ATOM     40  C   UNL A   1      39.648  29.718  30.322  1.00  0.00     0.074 A 
ATOM     41  C   UNL A   1      38.695  29.899  29.249  1.00  0.00     0.031 C 
ATOM     42  C   UNL A   1      37.857  34.149  34.611  1.00  0.00     0.029 A 
ATOM     43  C   UNL A   1      38.936  33.174  34.735  1.00  0.00     0.049 A 
ATOM     44  H   UNL A   1      39.609  31.841  33.280  1.00  0.00     0.167 HD
ATOM     45  C   UNL A   1      40.618  28.772  30.326  1.00  0.00     0.034 A 
ATOM     46  C   UNL A   1      39.691  32.984  35.834  1.00  0.00     0.034 A 
ATOM     47  C   UNL A   1      41.585  28.618  31.378  1.00  0.00     0.049 A 
ATOM     48  C   UNL A   1      40.781  31.947  35.804  1.00  0.00     0.074 A 
ATOM     49  C   UNL A   1      42.661  27.750  31.438  1.00  0.00     0.029 A 
ATOM     50  N   UNL A   1      41.587  29.337  32.563  1.00  0.00    -0.354 N 
ATOM     51  N   UNL A   1      41.120  31.135  34.833  1.00  0.00    -0.248 NA
ATOM     52  C   UNL A   1      41.616  31.826  37.008  1.00  0.00     0.031 C 
ATOM     53  C   UNL A   1      43.292  27.921  32.674  1.00  0.00     0.029 A 
ATOM     54  C   UNL A   1      42.636  28.926  33.367  1.00  0.00     0.049 A 
ATOM     55  H   UNL A   1      40.937  30.039  32.798  1.00  0.00     0.167 HD
ATOM     56  C   UNL A   1      42.229  30.433  35.291  1.00  0.00     0.074 A 
ATOM     57  C   UNL A   1      42.515  30.930  36.622  1.00  0.00     0.031 C 
ATOM     58  C   UNL A   1      42.941  29.460  34.670  1.00  0.00     0.034 A 
BRANCH  45  59
ATOM     59  C   UNL A   1      40.703  27.853  29.133  1.00  0.00     0.023 A 
ATOM     60  C   UNL A   1      39.877  26.711  29.069  1.00  0.00     0.012 A 
ATOM     61  C   UNL A   1      41.567  28.138  28.058  1.00  0.00     0.148 A 
ATOM     62  C   UNL A   1      39.944  25.844  27.979  1.00  0.00     0.002 A 
ATOM     63  C   UNL A   1      41.591  27.298  26.951  1.00  0.00     0.091 A 
ATOM     64  F   UNL A   1      42.359  29.217  28.143  1.00  0.00    -0.205 F 
ATOM     65  C   UNL A   1      40.793  26.143  26.916  1.00  0.00     0.022 A 
BRANCH  63  66
ATOM     66  S   UNL A   1      42.586  27.642  25.496  1.00  0.00     0.127 S 
ATOM     67  O   UNL A   1      42.309  26.469  24.667  1.00  0.00    -0.237 OA
ATOM     68  O   UNL A   1      41.994  28.887  25.006  1.00  0.00    -0.237 OA
ATOM     69  O   UNL A   1      43.958  27.764  25.967  1.00  0.00    -0.744 OA
ENDBRANCH  63  66
ENDBRANCH  45  59
BRANCH  46  70
ATOM     70  C   UNL A   1      39.476  33.837  37.036  1.00  0.00     0.023 A 
ATOM     71  C   UNL A   1      39.897  35.181  37.017  1.00  0.00     0.012 A 
ATOM     72  C   UNL A   1      38.826  33.337  38.182  1.00  0.00     0.148 A 
ATOM     73  C   UNL A   1      39.702  36.003  38.127  1.00  0.00     0.002 A 
ATOM     74  C   UNL A   1      38.584  34.177  39.262  1.00  0.00     0.091 A 
ATOM     75  F   UNL A   1      38.438  32.054  38.181  1.00  0.00    -0.205 F 
ATOM     76  C   UNL A   1      39.038  35.505  39.245  1.00  0.00     0.022 A 
BRANCH  74  77
ATOM     77  S   UNL A   1      37.620  33.664  40.688  1.00  0.00     0.127 S 
ATOM     78  O   UNL A   1      38.562  32.795  41.389  1.00  0.00    -0.237 OA
ATOM     79  O   UNL A   1      37.354  34.945  41.345  1.00  0.00    -0.237 OA
ATOM     80  O   UNL A   1      36.436  33.007  40.150  1.00  0.00    -0.744 OA
ENDBRANCH  74  77
ENDBRANCH  46  70
BRANCH  58  81
ATOM     81  C   UNL A   1      44.133  28.892  35.394  1.00  0.00     0.023 A 
ATOM     82  C   UNL A   1      45.410  29.458  35.209  1.00  0.00     0.012 A 
ATOM     83  C   UNL A   1      43.970  27.844  36.322  1.00  0.00     0.148 A 
ATOM     84  C   UNL A   1      46.511  28.968  35.911  1.00  0.00     0.002 A 
ATOM     85  C   UNL A   1      45.061  27.396  37.057  1.00  0.00     0.091 A 
ATOM     86  F   UNL A   1      42.750  27.306  36.472  1.00  0.00    -0.205 F 
ATOM     87  C   UNL A   1      46.335  27.947  36.842  1.00  0.00     0.022 A 
BRANCH  85  88
ATOM     88  S   UNL A   1      44.911  26.158  38.349  1.00  0.00     0.127 S 
ATOM     89  O   UNL A   1      43.952  26.790  39.255  1.00  0.00    -0.237 OA
ATOM     90  O   UNL A   1      44.389  25.006  37.615  1.00  0.00    -0.237 OA
ATOM     91  O   UNL A   1      46.251  25.975  38.890  1.00  0.00    -0.744 OA
ENDBRANCH  85  88
ENDBRANCH  58  81
ENDBRANCH  32  33
ENDBRANCH  24  27
ENDBRANCH  22  23
ENDBRANCH   1  22
TORSDOF 16
ENDMDL
MODEL 3
REMARK VINA RESULT:     -11.9      3.747      6.933
REMARK SMILES C[C@@H](C(=O)NCCCNC(=O)c1ccc(-c2c3nc(c(-c4cccc(S(=O)(=O)[O-])c4F)c4ccc([nH]4)c(-c4cccc(S(=O)(=O)[O-])c4F)c4nc(c(-c5cccc(S(=O)(=O)[O-])c5F)c5ccc2[nH]5)C=C4)C=C3)cc1)c1ccc(C[C@H]2CCCC2=O)cc1
REMARK SMILES IDX 7 1 6 2 5 3 3 4 4 5 2 7 1 8 75 9 76 10 87 11 77 12 86 13
REMARK SMILES IDX 78 14 79 15 80 16 81 17 84 18 82 19 83 20 85 21 8 22 9 23
REMARK SMILES IDX 10 24 11 26 12 27 13 28 74 29 14 30 73 31 15 32 16 33 17 34
REMARK SMILES IDX 67 35 18 36 72 37 66 38 68 39 19 40 71 41 65 42 64 43 20 45
REMARK SMILES IDX 52 46 32 47 51 48 33 49 36 50 50 51 69 52 34 53 35 54 49 56
REMARK SMILES IDX 70 57 37 58 21 59 22 60 30 61 23 62 25 63 31 64 24 65 26 66
REMARK SMILES IDX 27 67 28 68 29 69 53 70 54 71 62 72 55 73 57 74 63 75 56 76
REMARK SMILES IDX 58 77 59 78 60 79 61 80 38 81 39 82 47 83 40 84 42 85 48 86
REMARK SMILES IDX 41 87 43 88 44 89 45 90 46 91
REMARK H PARENT 5 6 9 25 68 44 36 55
REMARK Flexibility Score: inf
ROOT
ATOM      1  C   UNL A   1      33.679  33.939  28.751  1.00  0.00     0.042 C 
ENDROOT
BRANCH   1   2
ATOM      2  C   UNL A   1      34.461  35.053  29.441  1.00  0.00     0.117 C 
BRANCH   2   3
ATOM      3  N   UNL A   1      34.325  34.981  30.882  1.00  0.00    -0.356 N 
ATOM      4  C   UNL A   1      34.780  34.047  31.764  1.00  0.00     0.227 C 
ATOM      5  O   UNL A   1      34.447  34.196  32.943  1.00  0.00    -0.274 OA
ATOM      6  H   UNL A   1      33.824  35.726  31.287  1.00  0.00     0.163 HD
BRANCH   4   7
ATOM      7  C   UNL A   1      35.705  32.914  31.283  1.00  0.00     0.105 C 
ATOM      8  C   UNL A   1      35.886  31.816  32.337  1.00  0.00     0.023 C 
BRANCH   7   9
ATOM      9  C   UNL A   1      37.054  33.466  30.829  1.00  0.00    -0.036 A 
ATOM     10  C   UNL A   1      37.543  33.219  29.539  1.00  0.00     0.005 A 
ATOM     11  C   UNL A   1      37.857  34.191  31.723  1.00  0.00     0.005 A 
ATOM     12  C   UNL A   1      38.790  33.697  29.145  1.00  0.00     0.004 A 
ATOM     13  C   UNL A   1      39.124  34.641  31.337  1.00  0.00     0.004 A 
ATOM     14  C   UNL A   1      39.608  34.383  30.049  1.00  0.00    -0.047 A 
BRANCH  14  15
ATOM     15  C   UNL A   1      40.997  34.809  29.642  1.00  0.00     0.047 C 
BRANCH  15  16
ATOM     16  C   UNL A   1      42.160  34.093  30.340  1.00  0.00     0.060 C 
ATOM     17  C   UNL A   1      42.637  32.785  29.704  1.00  0.00     0.012 C 
ATOM     18  C   UNL A   1      43.430  34.911  30.364  1.00  0.00     0.136 C 
ATOM     19  C   UNL A   1      43.850  33.135  28.850  1.00  0.00     0.009 C 
ATOM     20  C   UNL A   1      44.543  34.289  29.561  1.00  0.00     0.076 C 
ATOM     21  O   UNL A   1      43.547  35.961  30.988  1.00  0.00    -0.299 OA
ENDBRANCH  15  16
ENDBRANCH  14  15
ENDBRANCH   7   9
ENDBRANCH   4   7
ENDBRANCH   2   3
ENDBRANCH   1   2
BRANCH   1  22
ATOM     22  C   UNL A   1      34.560  32.913  28.044  1.00  0.00     0.118 C 
BRANCH  22  23
ATOM     23  N   UNL A   1      33.825  31.711  27.673  1.00  0.00    -0.352 N 
ATOM     24  C   UNL A   1      34.260  30.414  27.577  1.00  0.00     0.251 C 
ATOM     25  H   UNL A   1      32.874  31.851  27.461  1.00  0.00     0.163 HD
ATOM     26  O   UNL A   1      33.535  29.571  27.047  1.00  0.00    -0.269 OA
BRANCH  24  27
ATOM     27  C   UNL A   1      35.589  30.028  28.093  1.00  0.00     0.039 A 
ATOM     28  C   UNL A   1      35.700  29.567  29.408  1.00  0.00     0.014 A 
ATOM     29  C   UNL A   1      36.730  30.141  27.294  1.00  0.00     0.014 A 
ATOM     30  C   UNL A   1      36.944  29.169  29.902  1.00  0.00     0.010 A 
ATOM     31  C   UNL A   1      37.952  29.666  27.759  1.00  0.00     0.010 A 
ATOM     32  C   UNL A   1      38.076  29.188  29.072  1.00  0.00    -0.014 A 
BRANCH  32  33
ATOM     33  C   UNL A   1      39.401  28.719  29.554  1.00  0.00     0.031 A 
ATOM     34  C   UNL A   1      40.110  29.461  30.655  1.00  0.00     0.074 A 
ATOM     35  C   UNL A   1      40.007  27.684  28.940  1.00  0.00     0.049 A 
ATOM     36  N   UNL A   1      41.303  29.257  31.153  1.00  0.00    -0.248 NA
ATOM     37  C   UNL A   1      39.398  30.601  31.255  1.00  0.00     0.031 C 
ATOM     38  C   UNL A   1      39.454  26.928  27.813  1.00  0.00     0.029 A 
ATOM     39  N   UNL A   1      41.234  27.109  29.155  1.00  0.00    -0.354 N 
ATOM     40  C   UNL A   1      41.500  30.262  32.090  1.00  0.00     0.074 A 
ATOM     41  C   UNL A   1      40.319  31.097  32.068  1.00  0.00     0.031 C 
ATOM     42  C   UNL A   1      40.339  25.991  27.437  1.00  0.00     0.029 A 
ATOM     43  C   UNL A   1      41.534  26.102  28.267  1.00  0.00     0.049 A 
ATOM     44  H   UNL A   1      41.842  27.391  29.875  1.00  0.00     0.167 HD
ATOM     45  C   UNL A   1      42.556  30.460  32.916  1.00  0.00     0.034 A 
ATOM     46  C   UNL A   1      42.651  25.361  28.127  1.00  0.00     0.034 A 
ATOM     47  C   UNL A   1      43.712  29.607  32.960  1.00  0.00     0.049 A 
ATOM     48  C   UNL A   1      43.799  25.580  29.073  1.00  0.00     0.074 A 
ATOM     49  C   UNL A   1      44.796  29.669  33.818  1.00  0.00     0.029 A 
ATOM     50  N   UNL A   1      43.945  28.544  32.100  1.00  0.00    -0.354 N 
ATOM     51  N   UNL A   1      43.905  26.441  30.056  1.00  0.00    -0.248 NA
ATOM     52  C   UNL A   1      44.968  24.702  28.916  1.00  0.00     0.031 C 
ATOM     53  C   UNL A   1      45.699  28.665  33.454  1.00  0.00     0.029 A 
ATOM     54  C   UNL A   1      45.159  27.950  32.397  1.00  0.00     0.049 A 
ATOM     55  H   UNL A   1      43.335  28.254  31.383  1.00  0.00     0.167 HD
ATOM     56  C   UNL A   1      45.132  26.184  30.658  1.00  0.00     0.074 A 
ATOM     57  C   UNL A   1      45.724  25.075  29.939  1.00  0.00     0.031 C 
ATOM     58  C   UNL A   1      45.718  26.815  31.706  1.00  0.00     0.034 A 
BRANCH  45  59
ATOM     59  C   UNL A   1      42.490  31.628  33.866  1.00  0.00     0.023 A 
ATOM     60  C   UNL A   1      42.970  32.891  33.460  1.00  0.00     0.012 A 
ATOM     61  C   UNL A   1      41.919  31.489  35.147  1.00  0.00     0.148 A 
ATOM     62  C   UNL A   1      42.924  33.983  34.325  1.00  0.00     0.002 A 
ATOM     63  C   UNL A   1      41.829  32.594  35.986  1.00  0.00     0.091 A 
ATOM     64  F   UNL A   1      41.486  30.278  35.526  1.00  0.00    -0.205 F 
ATOM     65  C   UNL A   1      42.346  33.837  35.583  1.00  0.00     0.022 A 
BRANCH  63  66
ATOM     66  S   UNL A   1      41.026  32.530  37.590  1.00  0.00     0.127 S 
ATOM     67  O   UNL A   1      41.911  31.627  38.326  1.00  0.00    -0.237 OA
ATOM     68  O   UNL A   1      41.087  33.927  38.021  1.00  0.00    -0.237 OA
ATOM     69  O   UNL A   1      39.682  32.027  37.346  1.00  0.00    -0.744 OA
ENDBRANCH  63  66
ENDBRANCH  45  59
BRANCH  46  70
ATOM     70  C   UNL A   1      42.710  24.303  27.079  1.00  0.00     0.023 A 
ATOM     71  C   UNL A   1      43.433  24.541  25.894  1.00  0.00     0.012 A 
ATOM     72  C   UNL A   1      42.086  23.055  27.264  1.00  0.00     0.148 A 
ATOM     73  C   UNL A   1      43.509  23.565  24.900  1.00  0.00     0.002 A 
ATOM     74  C   UNL A   1      42.213  22.067  26.294  1.00  0.00     0.091 A 
ATOM     75  F   UNL A   1      41.398  22.852  28.397  1.00  0.00    -0.205 F 
ATOM     76  C   UNL A   1      42.908  22.326  25.103  1.00  0.00     0.022 A 
BRANCH  74  77
ATOM     77  S   UNL A   1      41.588  20.399  26.526  1.00  0.00     0.127 S 
ATOM     78  O   UNL A   1      40.144  20.607  26.448  1.00  0.00    -0.237 OA
ATOM     79  O   UNL A   1      42.174  19.699  25.383  1.00  0.00    -0.237 OA
ATOM     80  O   UNL A   1      42.093  19.964  27.822  1.00  0.00    -0.744 OA
ENDBRANCH  74  77
ENDBRANCH  46  70
BRANCH  58  81
ATOM     81  C   UNL A   1      47.051  26.298  32.179  1.00  0.00     0.023 A 
ATOM     82  C   UNL A   1      48.245  26.854  31.679  1.00  0.00     0.012 A 
ATOM     83  C   UNL A   1      47.116  25.312  33.184  1.00  0.00     0.148 A 
ATOM     84  C   UNL A   1      49.482  26.412  32.146  1.00  0.00     0.002 A 
ATOM     85  C   UNL A   1      48.351  24.915  33.683  1.00  0.00     0.091 A 
ATOM     86  F   UNL A   1      45.970  24.783  33.636  1.00  0.00    -0.205 F 
ATOM     87  C   UNL A   1      49.535  25.454  33.156  1.00  0.00     0.022 A 
BRANCH  85  88
ATOM     88  S   UNL A   1      48.513  23.764  35.052  1.00  0.00     0.127 S 
ATOM     89  O   UNL A   1      49.959  23.769  35.275  1.00  0.00    -0.237 OA
ATOM     90  O   UNL A   1      47.731  24.418  36.101  1.00  0.00    -0.237 OA
ATOM     91  O   UNL A   1      47.960  22.500  34.583  1.00  0.00    -0.744 OA
ENDBRANCH  85  88
ENDBRANCH  58  81
ENDBRANCH  32  33
ENDBRANCH  24  27
ENDBRANCH  22  23
ENDBRANCH   1  22
TORSDOF 16
ENDMDL
