MODEL 1
REMARK VINA RESULT:     -12.7      0.000      0.000
REMARK SMILES Cc1ccc(-c2cc(C(=O)NCCCNC(=O)c3ccc(-c4c5nc(c(-c6cccc(S(=O)(=O)[O-])c6F)c6ccc([nH]6)c(-c6cccc(S(=O)(=O)[O-])c6F)c6nc(c(-c7cccc(S(=O)(=O)[O-])c7F)c7ccc4[nH]7)C=C6)C=C5)cc3)ccc2F)cc1O
REMARK SMILES IDX 13 1 12 2 11 3 9 4 10 5 8 7 6 8 7 9 83 10 82 11 84 12 81 13
REMARK SMILES IDX 5 14 1 15 2 16 3 17 86 18 4 19 85 20 87 21 14 23 15 24 16 25
REMARK SMILES IDX 17 27 18 28 19 29 80 30 20 31 79 32 21 33 22 34 23 35 73 36
REMARK SMILES IDX 24 37 78 38 72 39 74 40 25 41 77 42 71 43 70 44 26 46 58 47
REMARK SMILES IDX 38 48 57 49 39 50 42 51 56 52 75 53 40 54 41 55 55 57 76 58
REMARK SMILES IDX 43 59 27 60 28 61 36 62 29 63 31 64 37 65 30 66 32 67 33 68
REMARK SMILES IDX 34 69 35 70 59 71 60 72 68 73 61 74 63 75 69 76 62 77 64 78
REMARK SMILES IDX 65 79 66 80 67 81 44 82 45 83 53 84 46 85 48 86 54 87 47 88
REMARK SMILES IDX 49 89 50 90 51 91 52 92
REMARK H PARENT 11 6 87 22 15 26 74 45 42 56
REMARK Flexibility Score: inf
ROOT
ATOM      1  C   UNL A   1      32.775  28.032  26.897  1.00  0.00     0.042 C 
ENDROOT
BRANCH   1   2
ATOM      2  C   UNL A   1      31.813  27.226  26.024  1.00  0.00     0.118 C 
BRANCH   2   3
ATOM      3  N   UNL A   1      31.328  26.049  26.721  1.00  0.00    -0.352 N 
ATOM      4  C   UNL A   1      31.236  24.726  26.381  1.00  0.00     0.251 C 
ATOM      5  O   UNL A   1      30.815  23.959  27.251  1.00  0.00    -0.269 OA
ATOM      6  H   UNL A   1      30.996  26.243  27.627  1.00  0.00     0.163 HD
BRANCH   4   7
ATOM      7  C   UNL A   1      31.654  24.160  25.065  1.00  0.00     0.040 A 
ATOM      8  C   UNL A   1      32.506  22.169  23.893  1.00  0.00     0.018 A 
ATOM      9  C   UNL A   1      32.088  22.819  25.068  1.00  0.00     0.025 A 
ATOM     10  C   UNL A   1      32.517  22.911  22.708  1.00  0.00     0.131 A 
ATOM     11  C   UNL A   1      32.059  24.224  22.673  1.00  0.00     0.041 A 
ATOM     12  F   UNL A   1      32.936  22.354  21.561  1.00  0.00    -0.206 F 
ATOM     13  C   UNL A   1      31.597  24.835  23.843  1.00  0.00     0.017 A 
BRANCH   8  14
ATOM     14  C   UNL A   1      32.856  20.743  23.904  1.00  0.00    -0.012 A 
ATOM     15  C   UNL A   1      34.016  16.567  23.749  1.00  0.00     0.048 C 
ATOM     16  C   UNL A   1      33.584  18.003  23.804  1.00  0.00    -0.009 A 
ATOM     17  C   UNL A   1      34.278  18.902  24.626  1.00  0.00     0.008 A 
ATOM     18  C   UNL A   1      32.516  18.491  23.046  1.00  0.00     0.119 A 
ATOM     19  C   UNL A   1      33.921  20.255  24.672  1.00  0.00     0.009 A 
ATOM     20  C   UNL A   1      32.150  19.836  23.099  1.00  0.00     0.055 A 
BRANCH  18  21
ATOM     21  O   UNL A   1      31.781  17.703  22.206  1.00  0.00    -0.508 OA
ATOM     22  H   UNL A   1      32.212  17.132  21.602  1.00  0.00     0.293 HD
ENDBRANCH  18  21
ENDBRANCH   8  14
ENDBRANCH   4   7
ENDBRANCH   2   3
ENDBRANCH   1   2
BRANCH   1  23
ATOM     23  C   UNL A   1      33.764  28.875  26.090  1.00  0.00     0.118 C 
BRANCH  23  24
ATOM     24  N   UNL A   1      33.766  30.268  26.518  1.00  0.00    -0.352 N 
ATOM     25  C   UNL A   1      34.535  30.905  27.460  1.00  0.00     0.251 C 
ATOM     26  H   UNL A   1      33.112  30.844  26.060  1.00  0.00     0.163 HD
ATOM     27  O   UNL A   1      34.202  32.022  27.850  1.00  0.00    -0.269 OA
BRANCH  25  28
ATOM     28  C   UNL A   1      35.753  30.266  28.005  1.00  0.00     0.039 A 
ATOM     29  C   UNL A   1      36.930  30.304  27.251  1.00  0.00     0.014 A 
ATOM     30  C   UNL A   1      35.726  29.581  29.222  1.00  0.00     0.014 A 
ATOM     31  C   UNL A   1      38.092  29.703  27.743  1.00  0.00     0.010 A 
ATOM     32  C   UNL A   1      36.900  29.037  29.741  1.00  0.00     0.010 A 
ATOM     33  C   UNL A   1      38.094  29.090  29.006  1.00  0.00    -0.014 A 
BRANCH  33  34
ATOM     34  C   UNL A   1      39.337  28.522  29.590  1.00  0.00     0.031 A 
ATOM     35  C   UNL A   1      39.965  29.149  30.805  1.00  0.00     0.074 A 
ATOM     36  C   UNL A   1      39.947  27.494  28.967  1.00  0.00     0.049 A 
ATOM     37  N   UNL A   1      41.092  28.846  31.396  1.00  0.00    -0.248 NA
ATOM     38  C   UNL A   1      39.248  30.276  31.425  1.00  0.00     0.031 C 
ATOM     39  C   UNL A   1      39.467  26.843  27.746  1.00  0.00     0.029 A 
ATOM     40  N   UNL A   1      41.115  26.834  29.258  1.00  0.00    -0.354 N 
ATOM     41  C   UNL A   1      41.238  29.762  32.431  1.00  0.00     0.074 A 
ATOM     42  C   UNL A   1      40.096  30.648  32.375  1.00  0.00     0.031 C 
ATOM     43  C   UNL A   1      40.331  25.879  27.394  1.00  0.00     0.029 A 
ATOM     44  C   UNL A   1      41.443  25.862  28.340  1.00  0.00     0.049 A 
ATOM     45  H   UNL A   1      41.667  27.037  30.047  1.00  0.00     0.167 HD
ATOM     46  C   UNL A   1      42.221  29.841  33.359  1.00  0.00     0.034 A 
ATOM     47  C   UNL A   1      42.519  25.054  28.262  1.00  0.00     0.034 A 
ATOM     48  C   UNL A   1      43.328  28.926  33.439  1.00  0.00     0.049 A 
ATOM     49  C   UNL A   1      43.573  25.137  29.330  1.00  0.00     0.074 A 
ATOM     50  C   UNL A   1      44.334  28.881  34.389  1.00  0.00     0.029 A 
ATOM     51  N   UNL A   1      43.578  27.899  32.544  1.00  0.00    -0.354 N 
ATOM     52  N   UNL A   1      43.625  25.925  30.377  1.00  0.00    -0.248 NA
ATOM     53  C   UNL A   1      44.699  24.197  29.232  1.00  0.00     0.031 C 
ATOM     54  C   UNL A   1      45.201  27.837  34.058  1.00  0.00     0.029 A 
ATOM     55  C   UNL A   1      44.721  27.214  32.917  1.00  0.00     0.049 A 
ATOM     56  H   UNL A   1      43.023  27.688  31.758  1.00  0.00     0.167 HD
ATOM     57  C   UNL A   1      44.766  25.554  31.079  1.00  0.00     0.074 A 
ATOM     58  C   UNL A   1      45.367  24.457  30.349  1.00  0.00     0.031 C 
ATOM     59  C   UNL A   1      45.276  26.085  32.217  1.00  0.00     0.034 A 
BRANCH  46  60
ATOM     60  C   UNL A   1      42.121  30.911  34.414  1.00  0.00     0.023 A 
ATOM     61  C   UNL A   1      41.540  30.600  35.660  1.00  0.00     0.012 A 
ATOM     62  C   UNL A   1      42.702  32.180  34.219  1.00  0.00     0.148 A 
ATOM     63  C   UNL A   1      41.524  31.539  36.690  1.00  0.00     0.002 A 
ATOM     64  C   UNL A   1      42.721  33.096  35.265  1.00  0.00     0.091 A 
ATOM     65  F   UNL A   1      43.235  32.462  33.021  1.00  0.00    -0.205 F 
ATOM     66  C   UNL A   1      42.125  32.780  36.497  1.00  0.00     0.022 A 
BRANCH  64  67
ATOM     67  S   UNL A   1      43.545  34.689  35.151  1.00  0.00     0.127 S 
ATOM     68  O   UNL A   1      42.991  35.390  36.309  1.00  0.00    -0.237 OA
ATOM     69  O   UNL A   1      44.953  34.315  35.283  1.00  0.00    -0.237 OA
ATOM     70  O   UNL A   1      43.177  35.243  33.856  1.00  0.00    -0.744 OA
ENDBRANCH  64  67
ENDBRANCH  46  60
BRANCH  47  71
ATOM     71  C   UNL A   1      42.604  24.043  27.169  1.00  0.00     0.023 A 
ATOM     72  C   UNL A   1      43.385  24.324  26.032  1.00  0.00     0.012 A 
ATOM     73  C   UNL A   1      41.968  22.790  27.274  1.00  0.00     0.148 A 
ATOM     74  C   UNL A   1      43.513  23.387  25.006  1.00  0.00     0.002 A 
ATOM     75  C   UNL A   1      42.148  21.839  26.276  1.00  0.00     0.091 A 
ATOM     76  F   UNL A   1      41.219  22.545  28.358  1.00  0.00    -0.205 F 
ATOM     77  C   UNL A   1      42.906  22.141  25.134  1.00  0.00     0.022 A 
BRANCH  75  78
ATOM     78  S   UNL A   1      41.530  20.158  26.424  1.00  0.00     0.127 S 
ATOM     79  O   UNL A   1      42.278  19.469  25.376  1.00  0.00    -0.237 OA
ATOM     80  O   UNL A   1      41.918  19.811  27.790  1.00  0.00    -0.237 OA
ATOM     81  O   UNL A   1      40.089  20.251  26.217  1.00  0.00    -0.744 OA
ENDBRANCH  75  78
ENDBRANCH  47  71
BRANCH  59  82
ATOM     82  C   UNL A   1      46.533  25.475  32.780  1.00  0.00     0.023 A 
ATOM     83  C   UNL A   1      47.789  25.990  32.403  1.00  0.00     0.012 A 
ATOM     84  C   UNL A   1      46.463  24.471  33.766  1.00  0.00     0.148 A 
ATOM     85  C   UNL A   1      48.958  25.497  32.982  1.00  0.00     0.002 A 
ATOM     86  C   UNL A   1      47.629  24.021  34.375  1.00  0.00     0.091 A 
ATOM     87  F   UNL A   1      45.260  23.982  34.098  1.00  0.00    -0.205 F 
ATOM     88  C   UNL A   1      48.877  24.525  33.977  1.00  0.00     0.022 A 
BRANCH  86  89
ATOM     89  S   UNL A   1      47.612  22.849  35.736  1.00  0.00     0.127 S 
ATOM     90  O   UNL A   1      47.372  21.586  35.039  1.00  0.00    -0.237 OA
ATOM     91  O   UNL A   1      48.959  22.994  36.290  1.00  0.00    -0.237 OA
ATOM     92  O   UNL A   1      46.544  23.284  36.627  1.00  0.00    -0.744 OA
ENDBRANCH  86  89
ENDBRANCH  59  82
ENDBRANCH  33  34
ENDBRANCH  25  28
ENDBRANCH  23  24
ENDBRANCH   1  23
TORSDOF 15
ENDMDL
MODEL 2
REMARK VINA RESULT:     -12.7      4.199      8.154
REMARK SMILES Cc1ccc(-c2cc(C(=O)NCCCNC(=O)c3ccc(-c4c5nc(c(-c6cccc(S(=O)(=O)[O-])c6F)c6ccc([nH]6)c(-c6cccc(S(=O)(=O)[O-])c6F)c6nc(c(-c7cccc(S(=O)(=O)[O-])c7F)c7ccc4[nH]7)C=C6)C=C5)cc3)ccc2F)cc1O
REMARK SMILES IDX 13 1 12 2 11 3 9 4 10 5 8 7 6 8 7 9 83 10 82 11 84 12 81 13
REMARK SMILES IDX 5 14 1 15 2 16 3 17 86 18 4 19 85 20 87 21 14 23 15 24 16 25
REMARK SMILES IDX 17 27 18 28 19 29 80 30 20 31 79 32 21 33 22 34 23 35 73 36
REMARK SMILES IDX 24 37 78 38 72 39 74 40 25 41 77 42 71 43 70 44 26 46 58 47
REMARK SMILES IDX 38 48 57 49 39 50 42 51 56 52 75 53 40 54 41 55 55 57 76 58
REMARK SMILES IDX 43 59 27 60 28 61 36 62 29 63 31 64 37 65 30 66 32 67 33 68
REMARK SMILES IDX 34 69 35 70 59 71 60 72 68 73 61 74 63 75 69 76 62 77 64 78
REMARK SMILES IDX 65 79 66 80 67 81 44 82 45 83 53 84 46 85 48 86 54 87 47 88
REMARK SMILES IDX 49 89 50 90 51 91 52 92
REMARK H PARENT 11 6 87 22 15 26 74 45 42 56
REMARK Flexibility Score: inf
ROOT
ATOM      1  C   UNL A   1      34.057  34.589  28.303  1.00  0.00     0.042 C 
ENDROOT
BRANCH   1   2
ATOM      2  C   UNL A   1      34.093  35.002  29.775  1.00  0.00     0.118 C 
BRANCH   2   3
ATOM      3  N   UNL A   1      33.951  33.852  30.649  1.00  0.00    -0.352 N 
ATOM      4  C   UNL A   1      34.819  33.183  31.471  1.00  0.00     0.251 C 
ATOM      5  O   UNL A   1      34.348  32.257  32.135  1.00  0.00    -0.269 OA
ATOM      6  H   UNL A   1      33.042  33.475  30.652  1.00  0.00     0.163 HD
BRANCH   4   7
ATOM      7  C   UNL A   1      36.258  33.535  31.646  1.00  0.00     0.040 A 
ATOM      8  C   UNL A   1      38.019  34.123  33.265  1.00  0.00     0.018 A 
ATOM      9  C   UNL A   1      36.687  33.784  32.966  1.00  0.00     0.025 A 
ATOM     10  C   UNL A   1      38.915  34.245  32.197  1.00  0.00     0.131 A 
ATOM     11  C   UNL A   1      38.524  33.968  30.892  1.00  0.00     0.041 A 
ATOM     12  F   UNL A   1      40.190  34.597  32.418  1.00  0.00    -0.206 F 
ATOM     13  C   UNL A   1      37.208  33.582  30.622  1.00  0.00     0.017 A 
BRANCH   8  14
ATOM     14  C   UNL A   1      38.464  34.277  34.655  1.00  0.00    -0.012 A 
ATOM     15  C   UNL A   1      39.614  34.891  38.792  1.00  0.00     0.048 C 
ATOM     16  C   UNL A   1      39.246  34.684  37.352  1.00  0.00    -0.009 A 
ATOM     17  C   UNL A   1      38.389  33.631  37.002  1.00  0.00     0.008 A 
ATOM     18  C   UNL A   1      39.715  35.519  36.334  1.00  0.00     0.119 A 
ATOM     19  C   UNL A   1      38.001  33.433  35.672  1.00  0.00     0.009 A 
ATOM     20  C   UNL A   1      39.339  35.317  35.006  1.00  0.00     0.055 A 
BRANCH  18  21
ATOM     21  O   UNL A   1      40.545  36.579  36.567  1.00  0.00    -0.508 OA
ATOM     22  H   UNL A   1      40.339  37.196  37.240  1.00  0.00     0.293 HD
ENDBRANCH  18  21
ENDBRANCH   8  14
ENDBRANCH   4   7
ENDBRANCH   2   3
ENDBRANCH   1   2
BRANCH   1  23
ATOM     23  C   UNL A   1      34.900  33.349  28.001  1.00  0.00     0.118 C 
BRANCH  23  24
ATOM     24  N   UNL A   1      34.072  32.197  27.665  1.00  0.00    -0.352 N 
ATOM     25  C   UNL A   1      34.392  30.864  27.597  1.00  0.00     0.251 C 
ATOM     26  H   UNL A   1      33.133  32.409  27.453  1.00  0.00     0.163 HD
ATOM     27  O   UNL A   1      33.615  30.089  27.046  1.00  0.00    -0.269 OA
BRANCH  25  28
ATOM     28  C   UNL A   1      35.655  30.356  28.178  1.00  0.00     0.039 A 
ATOM     29  C   UNL A   1      35.639  29.836  29.477  1.00  0.00     0.014 A 
ATOM     30  C   UNL A   1      36.859  30.443  27.476  1.00  0.00     0.014 A 
ATOM     31  C   UNL A   1      36.820  29.355  30.048  1.00  0.00     0.010 A 
ATOM     32  C   UNL A   1      38.023  29.905  28.022  1.00  0.00     0.010 A 
ATOM     33  C   UNL A   1      38.017  29.358  29.314  1.00  0.00    -0.014 A 
BRANCH  33  34
ATOM     34  C   UNL A   1      39.266  28.773  29.865  1.00  0.00     0.031 A 
ATOM     35  C   UNL A   1      39.910  29.363  31.091  1.00  0.00     0.074 A 
ATOM     36  C   UNL A   1      39.869  27.764  29.205  1.00  0.00     0.049 A 
ATOM     37  N   UNL A   1      41.043  29.042  31.658  1.00  0.00    -0.248 NA
ATOM     38  C   UNL A   1      39.201  30.471  31.752  1.00  0.00     0.031 C 
ATOM     39  C   UNL A   1      39.374  27.150  27.971  1.00  0.00     0.029 A 
ATOM     40  N   UNL A   1      41.040  27.095  29.461  1.00  0.00    -0.354 N 
ATOM     41  C   UNL A   1      41.202  29.927  32.718  1.00  0.00     0.074 A 
ATOM     42  C   UNL A   1      40.061  30.815  32.703  1.00  0.00     0.031 C 
ATOM     43  C   UNL A   1      40.232  26.196  27.579  1.00  0.00     0.029 A 
ATOM     44  C   UNL A   1      41.356  26.151  28.510  1.00  0.00     0.049 A 
ATOM     45  H   UNL A   1      41.601  27.274  30.249  1.00  0.00     0.167 HD
ATOM     46  C   UNL A   1      42.198  29.979  33.636  1.00  0.00     0.034 A 
ATOM     47  C   UNL A   1      42.430  25.345  28.395  1.00  0.00     0.034 A 
ATOM     48  C   UNL A   1      43.305  29.062  33.676  1.00  0.00     0.049 A 
ATOM     49  C   UNL A   1      43.498  25.396  29.453  1.00  0.00     0.074 A 
ATOM     50  C   UNL A   1      44.322  28.989  34.611  1.00  0.00     0.029 A 
ATOM     51  N   UNL A   1      43.543  28.062  32.747  1.00  0.00    -0.354 N 
ATOM     52  N   UNL A   1      43.562  26.153  30.521  1.00  0.00    -0.248 NA
ATOM     53  C   UNL A   1      44.622  24.460  29.313  1.00  0.00     0.031 C 
ATOM     54  C   UNL A   1      45.185  27.954  34.238  1.00  0.00     0.029 A 
ATOM     55  C   UNL A   1      44.690  27.365  33.086  1.00  0.00     0.049 A 
ATOM     56  H   UNL A   1      42.979  27.874  31.962  1.00  0.00     0.167 HD
ATOM     57  C   UNL A   1      44.712  25.761  31.198  1.00  0.00     0.074 A 
ATOM     58  C   UNL A   1      45.303  24.686  30.429  1.00  0.00     0.031 C 
ATOM     59  C   UNL A   1      45.236  26.258  32.345  1.00  0.00     0.034 A 
BRANCH  46  60
ATOM     60  C   UNL A   1      42.111  31.017  34.724  1.00  0.00     0.023 A 
ATOM     61  C   UNL A   1      41.547  30.668  35.967  1.00  0.00     0.012 A 
ATOM     62  C   UNL A   1      42.689  32.292  34.559  1.00  0.00     0.148 A 
ATOM     63  C   UNL A   1      41.543  31.577  37.025  1.00  0.00     0.002 A 
ATOM     64  C   UNL A   1      42.721  33.176  35.631  1.00  0.00     0.091 A 
ATOM     65  F   UNL A   1      43.205  32.609  33.363  1.00  0.00    -0.205 F 
ATOM     66  C   UNL A   1      42.142  32.823  36.861  1.00  0.00     0.022 A 
BRANCH  64  67
ATOM     67  S   UNL A   1      43.543  34.772  35.554  1.00  0.00     0.127 S 
ATOM     68  O   UNL A   1      42.760  35.457  34.526  1.00  0.00    -0.237 OA
ATOM     69  O   UNL A   1      43.346  35.284  36.910  1.00  0.00    -0.237 OA
ATOM     70  O   UNL A   1      44.928  34.497  35.198  1.00  0.00    -0.744 OA
ENDBRANCH  64  67
ENDBRANCH  46  60
BRANCH  47  71
ATOM     71  C   UNL A   1      42.502  24.368  27.272  1.00  0.00     0.023 A 
ATOM     72  C   UNL A   1      43.181  24.725  26.092  1.00  0.00     0.012 A 
ATOM     73  C   UNL A   1      41.954  23.074  27.386  1.00  0.00     0.148 A 
ATOM     74  C   UNL A   1      43.296  23.821  25.035  1.00  0.00     0.002 A 
ATOM     75  C   UNL A   1      42.123  22.159  26.352  1.00  0.00     0.091 A 
ATOM     76  F   UNL A   1      41.300  22.757  28.511  1.00  0.00    -0.205 F 
ATOM     77  C   UNL A   1      42.778  22.536  25.170  1.00  0.00     0.022 A 
BRANCH  75  78
ATOM     78  S   UNL A   1      41.623  20.440  26.496  1.00  0.00     0.127 S 
ATOM     79  O   UNL A   1      40.175  20.534  26.335  1.00  0.00    -0.237 OA
ATOM     80  O   UNL A   1      42.331  19.823  25.375  1.00  0.00    -0.237 OA
ATOM     81  O   UNL A   1      42.087  20.005  27.809  1.00  0.00    -0.744 OA
ENDBRANCH  75  78
ENDBRANCH  47  71
BRANCH  59  82
ATOM     82  C   UNL A   1      46.500  25.632  32.875  1.00  0.00     0.023 A 
ATOM     83  C   UNL A   1      47.748  26.200  32.555  1.00  0.00     0.012 A 
ATOM     84  C   UNL A   1      46.440  24.551  33.778  1.00  0.00     0.148 A 
ATOM     85  C   UNL A   1      48.921  25.687  33.108  1.00  0.00     0.002 A 
ATOM     86  C   UNL A   1      47.609  24.079  34.364  1.00  0.00     0.091 A 
ATOM     87  F   UNL A   1      45.244  24.014  34.056  1.00  0.00    -0.205 F 
ATOM     88  C   UNL A   1      48.851  24.638  34.022  1.00  0.00     0.022 A 
BRANCH  86  89
ATOM     89  S   UNL A   1      47.602  22.803  35.629  1.00  0.00     0.127 S 
ATOM     90  O   UNL A   1      47.201  21.625  34.861  1.00  0.00    -0.237 OA
ATOM     91  O   UNL A   1      48.997  22.796  36.072  1.00  0.00    -0.237 OA
ATOM     92  O   UNL A   1      46.650  23.245  36.639  1.00  0.00    -0.744 OA
ENDBRANCH  86  89
ENDBRANCH  59  82
ENDBRANCH  33  34
ENDBRANCH  25  28
ENDBRANCH  23  24
ENDBRANCH   1  23
TORSDOF 15
ENDMDL
MODEL 3
REMARK VINA RESULT:     -12.6      2.056      2.325
REMARK SMILES Cc1ccc(-c2cc(C(=O)NCCCNC(=O)c3ccc(-c4c5nc(c(-c6cccc(S(=O)(=O)[O-])c6F)c6ccc([nH]6)c(-c6cccc(S(=O)(=O)[O-])c6F)c6nc(c(-c7cccc(S(=O)(=O)[O-])c7F)c7ccc4[nH]7)C=C6)C=C5)cc3)ccc2F)cc1O
REMARK SMILES IDX 13 1 12 2 11 3 9 4 10 5 8 7 6 8 7 9 83 10 82 11 84 12 81 13
REMARK SMILES IDX 5 14 1 15 2 16 3 17 86 18 4 19 85 20 87 21 14 23 15 24 16 25
REMARK SMILES IDX 17 27 18 28 19 29 80 30 20 31 79 32 21 33 22 34 23 35 73 36
REMARK SMILES IDX 24 37 78 38 72 39 74 40 25 41 77 42 71 43 70 44 26 46 58 47
REMARK SMILES IDX 38 48 57 49 39 50 42 51 56 52 75 53 40 54 41 55 55 57 76 58
REMARK SMILES IDX 43 59 27 60 28 61 36 62 29 63 31 64 37 65 30 66 32 67 33 68
REMARK SMILES IDX 34 69 35 70 59 71 60 72 68 73 61 74 63 75 69 76 62 77 64 78
REMARK SMILES IDX 65 79 66 80 67 81 44 82 45 83 53 84 46 85 48 86 54 87 47 88
REMARK SMILES IDX 49 89 50 90 51 91 52 92
REMARK H PARENT 11 6 87 22 15 26 74 45 42 56
REMARK Flexibility Score: inf
ROOT
ATOM      1  C   UNL A   1      32.176  28.453  26.772  1.00  0.00     0.042 C 
ENDROOT
BRANCH   1   2
ATOM      2  C   UNL A   1      31.700  27.286  25.908  1.00  0.00     0.118 C 
BRANCH   2   3
ATOM      3  N   UNL A   1      31.475  26.095  26.707  1.00  0.00    -0.352 N 
ATOM      4  C   UNL A   1      31.533  24.754  26.433  1.00  0.00     0.251 C 
ATOM      5  O   UNL A   1      31.335  23.987  27.379  1.00  0.00    -0.269 OA
ATOM      6  H   UNL A   1      31.232  26.292  27.640  1.00  0.00     0.163 HD
BRANCH   4   7
ATOM      7  C   UNL A   1      31.865  24.178  25.097  1.00  0.00     0.040 A 
ATOM      8  C   UNL A   1      32.587  22.161  23.882  1.00  0.00     0.018 A 
ATOM      9  C   UNL A   1      32.250  22.822  25.077  1.00  0.00     0.025 A 
ATOM     10  C   UNL A   1      32.565  22.906  22.698  1.00  0.00     0.131 A 
ATOM     11  C   UNL A   1      32.153  24.234  22.688  1.00  0.00     0.041 A 
ATOM     12  F   UNL A   1      32.907  22.338  21.532  1.00  0.00    -0.206 F 
ATOM     13  C   UNL A   1      31.772  24.858  23.880  1.00  0.00     0.017 A 
BRANCH   8  14
ATOM     14  C   UNL A   1      32.886  20.724  23.874  1.00  0.00    -0.012 A 
ATOM     15  C   UNL A   1      33.904  16.513  23.668  1.00  0.00     0.048 C 
ATOM     16  C   UNL A   1      33.521  17.962  23.739  1.00  0.00    -0.009 A 
ATOM     17  C   UNL A   1      34.212  18.818  24.608  1.00  0.00     0.008 A 
ATOM     18  C   UNL A   1      32.503  18.505  22.951  1.00  0.00     0.119 A 
ATOM     19  C   UNL A   1      33.901  20.181  24.672  1.00  0.00     0.009 A 
ATOM     20  C   UNL A   1      32.182  19.860  23.021  1.00  0.00     0.055 A 
BRANCH  18  21
ATOM     21  O   UNL A   1      31.775  17.762  22.064  1.00  0.00    -0.508 OA
ATOM     22  H   UNL A   1      31.391  16.952  22.335  1.00  0.00     0.293 HD
ENDBRANCH  18  21
ENDBRANCH   8  14
ENDBRANCH   4   7
ENDBRANCH   2   3
ENDBRANCH   1   2
BRANCH   1  23
ATOM     23  C   UNL A   1      33.223  29.329  26.083  1.00  0.00     0.118 C 
BRANCH  23  24
ATOM     24  N   UNL A   1      33.092  30.731  26.461  1.00  0.00    -0.352 N 
ATOM     25  C   UNL A   1      33.771  31.463  27.402  1.00  0.00     0.251 C 
ATOM     26  H   UNL A   1      32.406  31.233  25.962  1.00  0.00     0.163 HD
ATOM     27  O   UNL A   1      33.331  32.559  27.741  1.00  0.00    -0.269 OA
BRANCH  25  28
ATOM     28  C   UNL A   1      35.021  30.950  28.007  1.00  0.00     0.039 A 
ATOM     29  C   UNL A   1      36.182  31.723  27.915  1.00  0.00     0.014 A 
ATOM     30  C   UNL A   1      35.067  29.689  28.608  1.00  0.00     0.014 A 
ATOM     31  C   UNL A   1      37.375  31.257  28.475  1.00  0.00     0.010 A 
ATOM     32  C   UNL A   1      36.240  29.254  29.221  1.00  0.00     0.010 A 
ATOM     33  C   UNL A   1      37.407  30.031  29.158  1.00  0.00    -0.014 A 
BRANCH  33  34
ATOM     34  C   UNL A   1      38.639  29.553  29.837  1.00  0.00     0.031 A 
ATOM     35  C   UNL A   1      39.051  30.129  31.166  1.00  0.00     0.074 A 
ATOM     36  C   UNL A   1      39.436  28.665  29.210  1.00  0.00     0.049 A 
ATOM     37  N   UNL A   1      40.136  29.900  31.859  1.00  0.00    -0.248 NA
ATOM     38  C   UNL A   1      38.138  31.104  31.786  1.00  0.00     0.031 C 
ATOM     39  C   UNL A   1      39.175  28.083  27.892  1.00  0.00     0.029 A 
ATOM     40  N   UNL A   1      40.638  28.117  29.582  1.00  0.00    -0.354 N 
ATOM     41  C   UNL A   1      40.054  30.725  32.976  1.00  0.00     0.074 A 
ATOM     42  C   UNL A   1      38.825  31.477  32.857  1.00  0.00     0.031 C 
ATOM     43  C   UNL A   1      40.184  27.261  27.566  1.00  0.00     0.029 A 
ATOM     44  C   UNL A   1      41.180  27.280  28.633  1.00  0.00     0.049 A 
ATOM     45  H   UNL A   1      41.072  28.305  30.445  1.00  0.00     0.167 HD
ATOM     46  C   UNL A   1      40.915  30.826  34.017  1.00  0.00     0.034 A 
ATOM     47  C   UNL A   1      42.350  26.610  28.618  1.00  0.00     0.034 A 
ATOM     48  C   UNL A   1      42.111  30.039  34.154  1.00  0.00     0.049 A 
ATOM     49  C   UNL A   1      43.264  26.709  29.807  1.00  0.00     0.074 A 
ATOM     50  C   UNL A   1      43.005  30.018  35.209  1.00  0.00     0.029 A 
ATOM     51  N   UNL A   1      42.580  29.137  33.213  1.00  0.00    -0.354 N 
ATOM     52  N   UNL A   1      43.104  27.395  30.913  1.00  0.00    -0.248 NA
ATOM     53  C   UNL A   1      44.501  25.917  29.767  1.00  0.00     0.031 C 
ATOM     54  C   UNL A   1      44.026  29.114  34.899  1.00  0.00     0.029 A 
ATOM     55  C   UNL A   1      43.752  28.552  33.662  1.00  0.00     0.049 A 
ATOM     56  H   UNL A   1      42.144  28.940  32.353  1.00  0.00     0.167 HD
ATOM     57  C   UNL A   1      44.200  27.090  31.714  1.00  0.00     0.074 A 
ATOM     58  C   UNL A   1      45.007  26.143  30.973  1.00  0.00     0.031 C 
ATOM     59  C   UNL A   1      44.514  27.565  32.943  1.00  0.00     0.034 A 
BRANCH  46  60
ATOM     60  C   UNL A   1      40.570  31.773  35.137  1.00  0.00     0.023 A 
ATOM     61  C   UNL A   1      41.252  33.002  35.236  1.00  0.00     0.012 A 
ATOM     62  C   UNL A   1      39.499  31.503  36.012  1.00  0.00     0.148 A 
ATOM     63  C   UNL A   1      40.886  33.941  36.199  1.00  0.00     0.002 A 
ATOM     64  C   UNL A   1      39.111  32.462  36.941  1.00  0.00     0.091 A 
ATOM     65  F   UNL A   1      38.873  30.321  35.911  1.00  0.00    -0.205 F 
ATOM     66  C   UNL A   1      39.809  33.677  37.041  1.00  0.00     0.022 A 
BRANCH  64  67
ATOM     67  S   UNL A   1      37.685  32.260  38.014  1.00  0.00     0.127 S 
ATOM     68  O   UNL A   1      38.174  32.836  39.267  1.00  0.00    -0.237 OA
ATOM     69  O   UNL A   1      36.671  33.063  37.331  1.00  0.00    -0.237 OA
ATOM     70  O   UNL A   1      37.409  30.831  38.055  1.00  0.00    -0.744 OA
ENDBRANCH  64  67
ENDBRANCH  46  60
BRANCH  47  71
ATOM     71  C   UNL A   1      42.677  25.724  27.465  1.00  0.00     0.023 A 
ATOM     72  C   UNL A   1      43.536  26.198  26.456  1.00  0.00     0.012 A 
ATOM     73  C   UNL A   1      42.191  24.403  27.389  1.00  0.00     0.148 A 
ATOM     74  C   UNL A   1      43.889  25.383  25.379  1.00  0.00     0.002 A 
ATOM     75  C   UNL A   1      42.594  23.577  26.346  1.00  0.00     0.091 A 
ATOM     76  F   UNL A   1      41.364  23.973  28.353  1.00  0.00    -0.205 F 
ATOM     77  C   UNL A   1      43.429  24.070  25.331  1.00  0.00     0.022 A 
BRANCH  75  78
ATOM     78  S   UNL A   1      42.173  21.831  26.281  1.00  0.00     0.127 S 
ATOM     79  O   UNL A   1      43.007  21.362  25.178  1.00  0.00    -0.237 OA
ATOM     80  O   UNL A   1      42.585  21.370  27.606  1.00  0.00    -0.237 OA
ATOM     81  O   UNL A   1      40.734  21.784  26.052  1.00  0.00    -0.744 OA
ENDBRANCH  75  78
ENDBRANCH  47  71
BRANCH  59  82
ATOM     82  C   UNL A   1      45.769  27.051  33.601  1.00  0.00     0.023 A 
ATOM     83  C   UNL A   1      46.978  27.755  33.444  1.00  0.00     0.012 A 
ATOM     84  C   UNL A   1      45.721  25.936  34.462  1.00  0.00     0.148 A 
ATOM     85  C   UNL A   1      48.128  27.344  34.117  1.00  0.00     0.002 A 
ATOM     86  C   UNL A   1      46.859  25.563  35.167  1.00  0.00     0.091 A 
ATOM     87  F   UNL A   1      44.565  25.269  34.583  1.00  0.00    -0.205 F 
ATOM     88  C   UNL A   1      48.065  26.258  34.988  1.00  0.00     0.022 A 
BRANCH  86  89
ATOM     89  S   UNL A   1      46.843  24.245  36.388  1.00  0.00     0.127 S 
ATOM     90  O   UNL A   1      46.531  23.079  35.564  1.00  0.00    -0.237 OA
ATOM     91  O   UNL A   1      48.213  24.280  36.902  1.00  0.00    -0.237 OA
ATOM     92  O   UNL A   1      45.824  24.613  37.362  1.00  0.00    -0.744 OA
ENDBRANCH  86  89
ENDBRANCH  59  82
ENDBRANCH  33  34
ENDBRANCH  25  28
ENDBRANCH  23  24
ENDBRANCH   1  23
TORSDOF 15
ENDMDL
