MODEL 1
REMARK VINA RESULT:     -11.9      0.000      0.000
REMARK SMILES O=C(C[C@H]1CN(S(=O)(=O)c2cc(F)cc(F)c2)CCO1)NCCCNC(=O)c1ccc(-c2c3nc(c(-c4cccc(S(=O)(=O)[O-])c4F)c4ccc([nH]4)c(-c4cccc(S(=O)(=O)[O-])c4F)c4nc(c(-c5cccc(S(=O)(=O)[O-])c5F)c5ccc2[nH]5)C=C4)C=C3)cc1
REMARK SMILES IDX 23 1 22 2 21 3 1 4 2 5 3 7 4 8 5 9 20 10 6 11 19 12 18 13
REMARK SMILES IDX 7 14 8 15 9 16 10 17 11 18 17 19 12 20 15 21 13 22 14 23
REMARK SMILES IDX 16 24 24 25 25 26 26 27 27 29 28 30 29 31 90 32 30 33 89 34
REMARK SMILES IDX 31 35 32 36 33 37 83 38 34 39 88 40 82 41 84 42 35 43 87 44
REMARK SMILES IDX 81 45 80 46 36 48 68 49 48 50 67 51 49 52 52 53 66 54 85 55
REMARK SMILES IDX 50 56 51 57 65 59 86 60 53 61 37 62 38 63 46 64 39 65 41 66
REMARK SMILES IDX 47 67 40 68 42 69 43 70 44 71 45 72 69 73 70 74 78 75 71 76
REMARK SMILES IDX 73 77 79 78 72 79 74 80 75 81 76 82 77 83 54 84 55 85 63 86
REMARK SMILES IDX 56 87 58 88 64 89 57 90 59 91 60 92 61 93 62 94
REMARK H PARENT 21 6 25 28 84 47 52 58
REMARK Flexibility Score: inf
ROOT
ATOM      1  C   UNL A   1      32.922  28.264  25.208  1.00  0.00     0.042 C 
ENDROOT
BRANCH   1   2
ATOM      2  C   UNL A   1      33.407  27.689  23.884  1.00  0.00     0.117 C 
BRANCH   2   3
ATOM      3  N   UNL A   1      33.470  26.246  23.840  1.00  0.00    -0.356 N 
ATOM      4  O   UNL A   1      33.636  26.077  21.567  1.00  0.00    -0.275 OA
ATOM      5  C   UNL A   1      33.676  25.550  22.676  1.00  0.00     0.222 C 
ATOM      6  H   UNL A   1      33.360  25.742  24.678  1.00  0.00     0.163 HD
BRANCH   5   7
ATOM      7  C   UNL A   1      33.809  24.047  22.835  1.00  0.00     0.133 C 
BRANCH   7   8
ATOM      8  C   UNL A   1      32.549  23.170  22.978  1.00  0.00     0.142 C 
ATOM      9  C   UNL A   1      32.672  21.967  23.947  1.00  0.00     0.135 C 
ATOM     10  O   UNL A   1      31.302  23.870  23.113  1.00  0.00    -0.375 OA
ATOM     11  N   UNL A   1      32.274  22.250  25.359  1.00  0.00    -0.193 NA
ATOM     12  C   UNL A   1      30.958  24.174  24.474  1.00  0.00     0.177 C 
ATOM     13  C   UNL A   1      30.925  22.916  25.343  1.00  0.00     0.131 C 
BRANCH  11  14
ATOM     14  S   UNL A   1      33.368  22.980  26.445  1.00  0.00     0.243 S 
ATOM     15  O   UNL A   1      33.199  24.413  26.357  1.00  0.00    -0.207 OA
ATOM     16  O   UNL A   1      33.201  22.301  27.710  1.00  0.00    -0.207 OA
BRANCH  14  17
ATOM     17  C   UNL A   1      35.011  22.615  25.875  1.00  0.00     0.088 A 
ATOM     18  C   UNL A   1      36.015  23.586  25.907  1.00  0.00     0.061 A 
ATOM     19  C   UNL A   1      35.336  21.294  25.546  1.00  0.00     0.061 A 
ATOM     20  C   UNL A   1      37.310  23.246  25.533  1.00  0.00     0.127 A 
ATOM     21  C   UNL A   1      36.651  20.974  25.221  1.00  0.00     0.127 A 
ATOM     22  F   UNL A   1      38.256  24.195  25.518  1.00  0.00    -0.207 F 
ATOM     23  C   UNL A   1      37.643  21.944  25.193  1.00  0.00     0.078 A 
ATOM     24  F   UNL A   1      36.969  19.703  24.947  1.00  0.00    -0.207 F 
ENDBRANCH  14  17
ENDBRANCH  11  14
ENDBRANCH   7   8
ENDBRANCH   5   7
ENDBRANCH   2   3
ENDBRANCH   1   2
BRANCH   1  25
ATOM     25  C   UNL A   1      34.025  28.675  26.176  1.00  0.00     0.118 C 
BRANCH  25  26
ATOM     26  N   UNL A   1      33.871  30.030  26.687  1.00  0.00    -0.352 N 
ATOM     27  C   UNL A   1      34.662  30.746  27.551  1.00  0.00     0.251 C 
ATOM     28  H   UNL A   1      33.076  30.509  26.359  1.00  0.00     0.163 HD
ATOM     29  O   UNL A   1      34.287  31.854  27.930  1.00  0.00    -0.269 OA
BRANCH  27  30
ATOM     30  C   UNL A   1      35.942  30.190  28.045  1.00  0.00     0.039 A 
ATOM     31  C   UNL A   1      37.076  30.300  27.234  1.00  0.00     0.014 A 
ATOM     32  C   UNL A   1      36.029  29.538  29.278  1.00  0.00     0.014 A 
ATOM     33  C   UNL A   1      38.303  29.801  27.679  1.00  0.00     0.010 A 
ATOM     34  C   UNL A   1      37.267  29.105  29.751  1.00  0.00     0.010 A 
ATOM     35  C   UNL A   1      38.413  29.218  28.950  1.00  0.00    -0.014 A 
BRANCH  35  36
ATOM     36  C   UNL A   1      39.712  28.701  29.450  1.00  0.00     0.031 A 
ATOM     37  C   UNL A   1      40.422  29.405  30.574  1.00  0.00     0.074 A 
ATOM     38  C   UNL A   1      40.290  27.645  28.843  1.00  0.00     0.049 A 
ATOM     39  N   UNL A   1      41.578  29.128  31.122  1.00  0.00    -0.248 NA
ATOM     40  C   UNL A   1      39.764  30.595  31.139  1.00  0.00     0.031 C 
ATOM     41  C   UNL A   1      39.746  26.932  27.686  1.00  0.00     0.029 A 
ATOM     42  N   UNL A   1      41.476  27.005  29.100  1.00  0.00    -0.354 N 
ATOM     43  C   UNL A   1      41.803  30.126  32.061  1.00  0.00     0.074 A 
ATOM     44  C   UNL A   1      40.679  31.034  31.991  1.00  0.00     0.031 C 
ATOM     45  C   UNL A   1      40.593  25.948  27.338  1.00  0.00     0.029 A 
ATOM     46  C   UNL A   1      41.743  25.968  28.237  1.00  0.00     0.049 A 
ATOM     47  H   UNL A   1      42.079  27.263  29.836  1.00  0.00     0.167 HD
ATOM     48  C   UNL A   1      42.831  30.258  32.932  1.00  0.00     0.034 A 
ATOM     49  C   UNL A   1      42.791  25.122  28.185  1.00  0.00     0.034 A 
ATOM     50  C   UNL A   1      43.911  29.316  33.051  1.00  0.00     0.049 A 
ATOM     51  C   UNL A   1      43.872  25.232  29.226  1.00  0.00     0.074 A 
ATOM     52  C   UNL A   1      44.953  29.310  33.961  1.00  0.00     0.029 A 
ATOM     53  N   UNL A   1      44.078  28.203  32.242  1.00  0.00    -0.354 N 
ATOM     54  N   UNL A   1      43.981  26.086  30.216  1.00  0.00    -0.248 NA
ATOM     55  C   UNL A   1      44.952  24.234  29.174  1.00  0.00     0.031 C 
ATOM     56  C   UNL A   1      45.749  28.188  33.705  1.00  0.00     0.029 A 
ATOM     57  C   UNL A   1      45.201  27.496  32.636  1.00  0.00     0.049 A 
ATOM     58  H   UNL A   1      43.486  27.953  31.497  1.00  0.00     0.167 HD
ATOM     59  C   UNL A   1      45.115  25.707  30.924  1.00  0.00     0.074 A 
ATOM     60  C   UNL A   1      45.649  24.534  30.261  1.00  0.00     0.031 C 
ATOM     61  C   UNL A   1      45.675  26.288  32.012  1.00  0.00     0.034 A 
BRANCH  48  62
ATOM     62  C   UNL A   1      42.793  31.423  33.882  1.00  0.00     0.023 A 
ATOM     63  C   UNL A   1      43.358  32.652  33.484  1.00  0.00     0.012 A 
ATOM     64  C   UNL A   1      42.165  31.327  35.139  1.00  0.00     0.148 A 
ATOM     65  C   UNL A   1      43.330  33.757  34.332  1.00  0.00     0.002 A 
ATOM     66  C   UNL A   1      42.108  32.445  35.966  1.00  0.00     0.091 A 
ATOM     67  F   UNL A   1      41.656  30.145  35.514  1.00  0.00    -0.205 F 
ATOM     68  C   UNL A   1      42.697  33.657  35.568  1.00  0.00     0.022 A 
BRANCH  66  69
ATOM     69  S   UNL A   1      41.255  32.426  37.547  1.00  0.00     0.127 S 
ATOM     70  O   UNL A   1      42.116  31.552  38.338  1.00  0.00    -0.237 OA
ATOM     71  O   UNL A   1      41.292  33.836  37.940  1.00  0.00    -0.237 OA
ATOM     72  O   UNL A   1      39.919  31.916  37.268  1.00  0.00    -0.744 OA
ENDBRANCH  66  69
ENDBRANCH  48  62
BRANCH  49  73
ATOM     73  C   UNL A   1      42.806  24.025  27.177  1.00  0.00     0.023 A 
ATOM     74  C   UNL A   1      43.525  24.207  25.980  1.00  0.00     0.012 A 
ATOM     75  C   UNL A   1      42.152  22.799  27.406  1.00  0.00     0.148 A 
ATOM     76  C   UNL A   1      43.572  23.199  25.017  1.00  0.00     0.002 A 
ATOM     77  C   UNL A   1      42.243  21.781  26.463  1.00  0.00     0.091 A 
ATOM     78  F   UNL A   1      41.458  22.650  28.542  1.00  0.00    -0.205 F 
ATOM     79  C   UNL A   1      42.940  21.984  25.262  1.00  0.00     0.022 A 
BRANCH  77  80
ATOM     80  S   UNL A   1      41.563  20.144  26.758  1.00  0.00     0.127 S 
ATOM     81  O   UNL A   1      40.163  20.448  27.042  1.00  0.00    -0.237 OA
ATOM     82  O   UNL A   1      41.800  19.474  25.479  1.00  0.00    -0.237 OA
ATOM     83  O   UNL A   1      42.338  19.602  27.867  1.00  0.00    -0.744 OA
ENDBRANCH  77  80
ENDBRANCH  49  73
BRANCH  61  84
ATOM     84  C   UNL A   1      46.914  25.655  32.584  1.00  0.00     0.023 A 
ATOM     85  C   UNL A   1      48.178  26.054  32.110  1.00  0.00     0.012 A 
ATOM     86  C   UNL A   1      46.830  24.732  33.645  1.00  0.00     0.148 A 
ATOM     87  C   UNL A   1      49.342  25.526  32.668  1.00  0.00     0.002 A 
ATOM     88  C   UNL A   1      47.996  24.240  34.224  1.00  0.00     0.091 A 
ATOM     89  F   UNL A   1      45.617  24.346  34.068  1.00  0.00    -0.205 F 
ATOM     90  C   UNL A   1      49.251  24.630  33.732  1.00  0.00     0.022 A 
BRANCH  88  91
ATOM     91  S   UNL A   1      47.955  23.152  35.653  1.00  0.00     0.127 S 
ATOM     92  O   UNL A   1      47.214  23.955  36.621  1.00  0.00    -0.237 OA
ATOM     93  O   UNL A   1      47.229  21.985  35.145  1.00  0.00    -0.237 OA
ATOM     94  O   UNL A   1      49.350  22.889  35.981  1.00  0.00    -0.744 OA
ENDBRANCH  88  91
ENDBRANCH  61  84
ENDBRANCH  35  36
ENDBRANCH  27  30
ENDBRANCH  25  26
ENDBRANCH   1  25
TORSDOF 16
ENDMDL
MODEL 2
REMARK VINA RESULT:     -11.8      2.570      3.582
REMARK SMILES O=C(C[C@H]1CN(S(=O)(=O)c2cc(F)cc(F)c2)CCO1)NCCCNC(=O)c1ccc(-c2c3nc(c(-c4cccc(S(=O)(=O)[O-])c4F)c4ccc([nH]4)c(-c4cccc(S(=O)(=O)[O-])c4F)c4nc(c(-c5cccc(S(=O)(=O)[O-])c5F)c5ccc2[nH]5)C=C4)C=C3)cc1
REMARK SMILES IDX 23 1 22 2 21 3 1 4 2 5 3 7 4 8 5 9 20 10 6 11 19 12 18 13
REMARK SMILES IDX 7 14 8 15 9 16 10 17 11 18 17 19 12 20 15 21 13 22 14 23
REMARK SMILES IDX 16 24 24 25 25 26 26 27 27 29 28 30 29 31 90 32 30 33 89 34
REMARK SMILES IDX 31 35 32 36 33 37 83 38 34 39 88 40 82 41 84 42 35 43 87 44
REMARK SMILES IDX 81 45 80 46 36 48 68 49 48 50 67 51 49 52 52 53 66 54 85 55
REMARK SMILES IDX 50 56 51 57 65 59 86 60 53 61 37 62 38 63 46 64 39 65 41 66
REMARK SMILES IDX 47 67 40 68 42 69 43 70 44 71 45 72 69 73 70 74 78 75 71 76
REMARK SMILES IDX 73 77 79 78 72 79 74 80 75 81 76 82 77 83 54 84 55 85 63 86
REMARK SMILES IDX 56 87 58 88 64 89 57 90 59 91 60 92 61 93 62 94
REMARK H PARENT 21 6 25 28 84 47 52 58
REMARK Flexibility Score: inf
ROOT
ATOM      1  C   UNL A   1      31.661  28.638  25.517  1.00  0.00     0.042 C 
ENDROOT
BRANCH   1   2
ATOM      2  C   UNL A   1      31.520  27.393  26.383  1.00  0.00     0.117 C 
BRANCH   2   3
ATOM      3  N   UNL A   1      32.533  26.386  26.161  1.00  0.00    -0.356 N 
ATOM      4  O   UNL A   1      31.422  24.684  27.205  1.00  0.00    -0.275 OA
ATOM      5  C   UNL A   1      32.360  25.072  26.512  1.00  0.00     0.222 C 
ATOM      6  H   UNL A   1      33.382  26.654  25.741  1.00  0.00     0.163 HD
BRANCH   5   7
ATOM      7  C   UNL A   1      33.490  24.141  26.116  1.00  0.00     0.133 C 
BRANCH   7   8
ATOM      8  C   UNL A   1      33.761  23.844  24.628  1.00  0.00     0.142 C 
ATOM      9  C   UNL A   1      34.483  22.505  24.329  1.00  0.00     0.135 C 
ATOM     10  O   UNL A   1      32.679  24.108  23.721  1.00  0.00    -0.375 OA
ATOM     11  N   UNL A   1      33.580  21.339  24.091  1.00  0.00    -0.193 NA
ATOM     12  C   UNL A   1      31.794  22.990  23.540  1.00  0.00     0.177 C 
ATOM     13  C   UNL A   1      32.547  21.744  23.074  1.00  0.00     0.131 C 
BRANCH  11  14
ATOM     14  S   UNL A   1      32.923  20.463  25.400  1.00  0.00     0.243 S 
ATOM     15  O   UNL A   1      33.690  20.779  26.583  1.00  0.00    -0.207 OA
ATOM     16  O   UNL A   1      31.496  20.695  25.370  1.00  0.00    -0.207 OA
BRANCH  14  17
ATOM     17  C   UNL A   1      33.173  18.736  25.065  1.00  0.00     0.088 A 
ATOM     18  C   UNL A   1      32.608  17.756  25.885  1.00  0.00     0.061 A 
ATOM     19  C   UNL A   1      33.804  18.362  23.874  1.00  0.00     0.061 A 
ATOM     20  C   UNL A   1      32.751  16.415  25.550  1.00  0.00     0.127 A 
ATOM     21  C   UNL A   1      33.892  17.013  23.542  1.00  0.00     0.127 A 
ATOM     22  F   UNL A   1      32.251  15.480  26.368  1.00  0.00    -0.207 F 
ATOM     23  C   UNL A   1      33.386  16.029  24.379  1.00  0.00     0.078 A 
ATOM     24  F   UNL A   1      34.459  16.657  22.382  1.00  0.00    -0.207 F 
ENDBRANCH  14  17
ENDBRANCH  11  14
ENDBRANCH   7   8
ENDBRANCH   5   7
ENDBRANCH   2   3
ENDBRANCH   1   2
BRANCH   1  25
ATOM     25  C   UNL A   1      32.893  29.488  25.804  1.00  0.00     0.118 C 
BRANCH  25  26
ATOM     26  N   UNL A   1      32.577  30.865  26.154  1.00  0.00    -0.352 N 
ATOM     27  C   UNL A   1      33.175  31.710  27.056  1.00  0.00     0.251 C 
ATOM     28  H   UNL A   1      31.815  31.253  25.666  1.00  0.00     0.163 HD
ATOM     29  O   UNL A   1      32.677  32.814  27.265  1.00  0.00    -0.269 OA
BRANCH  27  30
ATOM     30  C   UNL A   1      34.394  31.297  27.789  1.00  0.00     0.039 A 
ATOM     31  C   UNL A   1      34.407  30.045  28.412  1.00  0.00     0.014 A 
ATOM     32  C   UNL A   1      35.504  32.140  27.894  1.00  0.00     0.014 A 
ATOM     33  C   UNL A   1      35.549  29.620  29.096  1.00  0.00     0.010 A 
ATOM     34  C   UNL A   1      36.665  31.686  28.516  1.00  0.00     0.010 A 
ATOM     35  C   UNL A   1      36.695  30.428  29.136  1.00  0.00    -0.014 A 
BRANCH  35  36
ATOM     36  C   UNL A   1      37.925  29.986  29.841  1.00  0.00     0.031 A 
ATOM     37  C   UNL A   1      38.223  30.491  31.227  1.00  0.00     0.074 A 
ATOM     38  C   UNL A   1      38.810  29.192  29.207  1.00  0.00     0.049 A 
ATOM     39  N   UNL A   1      39.260  30.248  31.988  1.00  0.00    -0.248 NA
ATOM     40  C   UNL A   1      37.245  31.412  31.827  1.00  0.00     0.031 C 
ATOM     41  C   UNL A   1      38.680  28.709  27.831  1.00  0.00     0.029 A 
ATOM     42  N   UNL A   1      40.008  28.673  29.629  1.00  0.00    -0.354 N 
ATOM     43  C   UNL A   1      39.080  31.014  33.132  1.00  0.00     0.074 A 
ATOM     44  C   UNL A   1      37.850  31.754  32.956  1.00  0.00     0.031 C 
ATOM     45  C   UNL A   1      39.752  27.959  27.525  1.00  0.00     0.029 A 
ATOM     46  C   UNL A   1      40.650  27.918  28.676  1.00  0.00     0.049 A 
ATOM     47  H   UNL A   1      40.374  28.827  30.531  1.00  0.00     0.167 HD
ATOM     48  C   UNL A   1      39.846  31.071  34.246  1.00  0.00     0.034 A 
ATOM     49  C   UNL A   1      41.824  27.256  28.729  1.00  0.00     0.034 A 
ATOM     50  C   UNL A   1      41.030  30.281  34.450  1.00  0.00     0.049 A 
ATOM     51  C   UNL A   1      42.606  27.258  30.013  1.00  0.00     0.074 A 
ATOM     52  C   UNL A   1      41.827  30.198  35.578  1.00  0.00     0.029 A 
ATOM     53  N   UNL A   1      41.578  29.425  33.508  1.00  0.00    -0.354 N 
ATOM     54  N   UNL A   1      42.331  27.858  31.146  1.00  0.00    -0.248 NA
ATOM     55  C   UNL A   1      43.839  26.455  30.044  1.00  0.00     0.031 C 
ATOM     56  C   UNL A   1      42.856  29.285  35.319  1.00  0.00     0.029 A 
ATOM     57  C   UNL A   1      42.698  28.802  34.030  1.00  0.00     0.049 A 
ATOM     58  H   UNL A   1      41.224  29.283  32.601  1.00  0.00     0.167 HD
ATOM     59  C   UNL A   1      43.331  27.477  32.034  1.00  0.00     0.074 A 
ATOM     60  C   UNL A   1      44.209  26.578  31.311  1.00  0.00     0.031 C 
ATOM     61  C   UNL A   1      43.517  27.852  33.322  1.00  0.00     0.034 A 
BRANCH  48  62
ATOM     62  C   UNL A   1      39.380  31.961  35.367  1.00  0.00     0.023 A 
ATOM     63  C   UNL A   1      38.483  31.444  36.325  1.00  0.00     0.012 A 
ATOM     64  C   UNL A   1      39.853  33.279  35.505  1.00  0.00     0.148 A 
ATOM     65  C   UNL A   1      38.039  32.234  37.383  1.00  0.00     0.002 A 
ATOM     66  C   UNL A   1      39.434  34.051  36.584  1.00  0.00     0.091 A 
ATOM     67  F   UNL A   1      40.685  33.764  34.570  1.00  0.00    -0.205 F 
ATOM     68  C   UNL A   1      38.522  33.533  37.518  1.00  0.00     0.022 A 
BRANCH  66  69
ATOM     69  S   UNL A   1      40.055  35.711  36.876  1.00  0.00     0.127 S 
ATOM     70  O   UNL A   1      39.406  36.053  38.139  1.00  0.00    -0.237 OA
ATOM     71  O   UNL A   1      41.500  35.494  36.973  1.00  0.00    -0.237 OA
ATOM     72  O   UNL A   1      39.642  36.495  35.720  1.00  0.00    -0.744 OA
ENDBRANCH  66  69
ENDBRANCH  48  62
BRANCH  49  73
ATOM     73  C   UNL A   1      42.266  26.443  27.562  1.00  0.00     0.023 A 
ATOM     74  C   UNL A   1      43.084  27.042  26.583  1.00  0.00     0.012 A 
ATOM     75  C   UNL A   1      41.922  25.084  27.431  1.00  0.00     0.148 A 
ATOM     76  C   UNL A   1      43.528  26.311  25.481  1.00  0.00     0.002 A 
ATOM     77  C   UNL A   1      42.408  24.348  26.355  1.00  0.00     0.091 A 
ATOM     78  F   UNL A   1      41.129  24.535  28.362  1.00  0.00    -0.205 F 
ATOM     79  C   UNL A   1      43.199  24.963  25.373  1.00  0.00     0.022 A 
BRANCH  77  80
ATOM     80  S   UNL A   1      42.133  22.578  26.210  1.00  0.00     0.127 S 
ATOM     81  O   UNL A   1      40.679  22.509  26.098  1.00  0.00    -0.237 OA
ATOM     82  O   UNL A   1      42.862  22.252  24.983  1.00  0.00    -0.237 OA
ATOM     83  O   UNL A   1      42.711  22.001  27.416  1.00  0.00    -0.744 OA
ENDBRANCH  77  80
ENDBRANCH  49  73
BRANCH  61  84
ATOM     84  C   UNL A   1      44.695  27.271  34.057  1.00  0.00     0.023 A 
ATOM     85  C   UNL A   1      45.943  27.919  33.986  1.00  0.00     0.012 A 
ATOM     86  C   UNL A   1      44.546  26.139  34.881  1.00  0.00     0.148 A 
ATOM     87  C   UNL A   1      47.033  27.435  34.708  1.00  0.00     0.002 A 
ATOM     88  C   UNL A   1      45.628  25.686  35.629  1.00  0.00     0.091 A 
ATOM     89  F   UNL A   1      43.356  25.521  34.918  1.00  0.00    -0.205 F 
ATOM     90  C   UNL A   1      46.873  26.327  35.538  1.00  0.00     0.022 A 
BRANCH  88  91
ATOM     91  S   UNL A   1      45.471  24.319  36.786  1.00  0.00     0.127 S 
ATOM     92  O   UNL A   1      46.801  24.280  37.387  1.00  0.00    -0.237 OA
ATOM     93  O   UNL A   1      44.409  24.781  37.683  1.00  0.00    -0.237 OA
ATOM     94  O   UNL A   1      45.105  23.165  35.976  1.00  0.00    -0.744 OA
ENDBRANCH  88  91
ENDBRANCH  61  84
ENDBRANCH  35  36
ENDBRANCH  27  30
ENDBRANCH  25  26
ENDBRANCH   1  25
TORSDOF 16
ENDMDL
MODEL 3
REMARK VINA RESULT:     -11.7      2.555      3.718
REMARK SMILES O=C(C[C@H]1CN(S(=O)(=O)c2cc(F)cc(F)c2)CCO1)NCCCNC(=O)c1ccc(-c2c3nc(c(-c4cccc(S(=O)(=O)[O-])c4F)c4ccc([nH]4)c(-c4cccc(S(=O)(=O)[O-])c4F)c4nc(c(-c5cccc(S(=O)(=O)[O-])c5F)c5ccc2[nH]5)C=C4)C=C3)cc1
REMARK SMILES IDX 23 1 22 2 21 3 1 4 2 5 3 7 4 8 5 9 20 10 6 11 19 12 18 13
REMARK SMILES IDX 7 14 8 15 9 16 10 17 11 18 17 19 12 20 15 21 13 22 14 23
REMARK SMILES IDX 16 24 24 25 25 26 26 27 27 29 28 30 29 31 90 32 30 33 89 34
REMARK SMILES IDX 31 35 32 36 33 37 83 38 34 39 88 40 82 41 84 42 35 43 87 44
REMARK SMILES IDX 81 45 80 46 36 48 68 49 48 50 67 51 49 52 52 53 66 54 85 55
REMARK SMILES IDX 50 56 51 57 65 59 86 60 53 61 37 62 38 63 46 64 39 65 41 66
REMARK SMILES IDX 47 67 40 68 42 69 43 70 44 71 45 72 69 73 70 74 78 75 71 76
REMARK SMILES IDX 73 77 79 78 72 79 74 80 75 81 76 82 77 83 54 84 55 85 63 86
REMARK SMILES IDX 56 87 58 88 64 89 57 90 59 91 60 92 61 93 62 94
REMARK H PARENT 21 6 25 28 84 47 52 58
REMARK Flexibility Score: inf
ROOT
ATOM      1  C   UNL A   1      32.695  28.889  23.652  1.00  0.00     0.042 C 
ENDROOT
BRANCH   1   2
ATOM      2  C   UNL A   1      33.528  27.943  22.798  1.00  0.00     0.117 C 
BRANCH   2   3
ATOM      3  N   UNL A   1      33.559  26.577  23.267  1.00  0.00    -0.356 N 
ATOM      4  O   UNL A   1      33.547  25.606  21.198  1.00  0.00    -0.275 OA
ATOM      5  C   UNL A   1      33.662  25.505  22.417  1.00  0.00     0.222 C 
ATOM      6  H   UNL A   1      33.504  26.407  24.235  1.00  0.00     0.163 HD
BRANCH   5   7
ATOM      7  C   UNL A   1      33.778  24.151  23.092  1.00  0.00     0.133 C 
BRANCH   7   8
ATOM      8  C   UNL A   1      34.977  23.845  24.011  1.00  0.00     0.142 C 
ATOM      9  C   UNL A   1      34.814  24.264  25.494  1.00  0.00     0.135 C 
ATOM     10  O   UNL A   1      35.574  22.547  23.862  1.00  0.00    -0.375 OA
ATOM     11  N   UNL A   1      34.239  23.215  26.389  1.00  0.00    -0.193 NA
ATOM     12  C   UNL A   1      34.979  21.540  24.696  1.00  0.00     0.177 C 
ATOM     13  C   UNL A   1      35.008  21.939  26.171  1.00  0.00     0.131 C 
BRANCH  11  14
ATOM     14  S   UNL A   1      32.553  22.972  26.479  1.00  0.00     0.243 S 
ATOM     15  O   UNL A   1      32.193  21.953  25.520  1.00  0.00    -0.207 OA
ATOM     16  O   UNL A   1      32.241  22.800  27.880  1.00  0.00    -0.207 OA
BRANCH  14  17
ATOM     17  C   UNL A   1      31.768  24.477  25.956  1.00  0.00     0.088 A 
ATOM     18  C   UNL A   1      30.873  24.486  24.883  1.00  0.00     0.061 A 
ATOM     19  C   UNL A   1      31.925  25.630  26.734  1.00  0.00     0.061 A 
ATOM     20  C   UNL A   1      30.210  25.662  24.551  1.00  0.00     0.127 A 
ATOM     21  C   UNL A   1      31.214  26.780  26.405  1.00  0.00     0.127 A 
ATOM     22  F   UNL A   1      29.393  25.675  23.490  1.00  0.00    -0.207 F 
ATOM     23  C   UNL A   1      30.368  26.815  25.306  1.00  0.00     0.078 A 
ATOM     24  F   UNL A   1      31.334  27.869  27.174  1.00  0.00    -0.207 F 
ENDBRANCH  14  17
ENDBRANCH  11  14
ENDBRANCH   7   8
ENDBRANCH   5   7
ENDBRANCH   2   3
ENDBRANCH   1   2
BRANCH   1  25
ATOM     25  C   UNL A   1      33.350  29.325  24.958  1.00  0.00     0.118 C 
BRANCH  25  26
ATOM     26  N   UNL A   1      32.707  30.479  25.571  1.00  0.00    -0.352 N 
ATOM     27  C   UNL A   1      33.024  31.164  26.717  1.00  0.00     0.251 C 
ATOM     28  H   UNL A   1      31.922  30.822  25.086  1.00  0.00     0.163 HD
ATOM     29  O   UNL A   1      32.277  32.059  27.107  1.00  0.00    -0.269 OA
BRANCH  27  30
ATOM     30  C   UNL A   1      34.237  30.822  27.495  1.00  0.00     0.039 A 
ATOM     31  C   UNL A   1      34.357  29.528  28.012  1.00  0.00     0.014 A 
ATOM     32  C   UNL A   1      35.235  31.767  27.745  1.00  0.00     0.014 A 
ATOM     33  C   UNL A   1      35.499  29.170  28.734  1.00  0.00     0.010 A 
ATOM     34  C   UNL A   1      36.403  31.388  28.404  1.00  0.00     0.010 A 
ATOM     35  C   UNL A   1      36.540  30.091  28.919  1.00  0.00    -0.014 A 
BRANCH  35  36
ATOM     36  C   UNL A   1      37.769  29.723  29.666  1.00  0.00     0.031 A 
ATOM     37  C   UNL A   1      38.011  30.281  31.043  1.00  0.00     0.074 A 
ATOM     38  C   UNL A   1      38.704  28.950  29.079  1.00  0.00     0.049 A 
ATOM     39  N   UNL A   1      39.037  30.106  31.836  1.00  0.00    -0.248 NA
ATOM     40  C   UNL A   1      36.979  31.176  31.591  1.00  0.00     0.031 C 
ATOM     41  C   UNL A   1      38.630  28.421  27.715  1.00  0.00     0.029 A 
ATOM     42  N   UNL A   1      39.912  28.496  29.545  1.00  0.00    -0.354 N 
ATOM     43  C   UNL A   1      38.795  30.897  32.952  1.00  0.00     0.074 A 
ATOM     44  C   UNL A   1      37.539  31.578  32.723  1.00  0.00     0.031 C 
ATOM     45  C   UNL A   1      39.740  27.710  27.459  1.00  0.00     0.029 A 
ATOM     46  C   UNL A   1      40.609  27.742  28.631  1.00  0.00     0.049 A 
ATOM     47  H   UNL A   1      40.248  28.692  30.450  1.00  0.00     0.167 HD
ATOM     48  C   UNL A   1      39.530  31.020  34.082  1.00  0.00     0.034 A 
ATOM     49  C   UNL A   1      41.808  27.134  28.733  1.00  0.00     0.034 A 
ATOM     50  C   UNL A   1      40.740  30.288  34.338  1.00  0.00     0.049 A 
ATOM     51  C   UNL A   1      42.557  27.207  30.036  1.00  0.00     0.074 A 
ATOM     52  C   UNL A   1      41.511  30.273  35.488  1.00  0.00     0.029 A 
ATOM     53  N   UNL A   1      41.348  29.430  33.436  1.00  0.00    -0.354 N 
ATOM     54  N   UNL A   1      42.228  27.828  31.143  1.00  0.00    -0.248 NA
ATOM     55  C   UNL A   1      43.822  26.460  30.121  1.00  0.00     0.031 C 
ATOM     56  C   UNL A   1      42.584  29.399  35.281  1.00  0.00     0.029 A 
ATOM     57  C   UNL A   1      42.480  28.872  34.004  1.00  0.00     0.049 A 
ATOM     58  H   UNL A   1      41.024  29.246  32.526  1.00  0.00     0.167 HD
ATOM     59  C   UNL A   1      43.220  27.517  32.065  1.00  0.00     0.074 A 
ATOM     60  C   UNL A   1      44.154  26.636  31.392  1.00  0.00     0.031 C 
ATOM     61  C   UNL A   1      43.357  27.938  33.345  1.00  0.00     0.034 A 
BRANCH  48  62
ATOM     62  C   UNL A   1      38.998  31.921  35.163  1.00  0.00     0.023 A 
ATOM     63  C   UNL A   1      39.064  33.319  34.985  1.00  0.00     0.012 A 
ATOM     64  C   UNL A   1      38.395  31.401  36.324  1.00  0.00     0.148 A 
ATOM     65  C   UNL A   1      38.570  34.184  35.958  1.00  0.00     0.002 A 
ATOM     66  C   UNL A   1      37.870  32.271  37.275  1.00  0.00     0.091 A 
ATOM     67  F   UNL A   1      38.364  30.071  36.490  1.00  0.00    -0.205 F 
ATOM     68  C   UNL A   1      37.964  33.661  37.098  1.00  0.00     0.022 A 
BRANCH  66  69
ATOM     69  S   UNL A   1      37.014  31.686  38.741  1.00  0.00     0.127 S 
ATOM     70  O   UNL A   1      38.027  31.882  39.775  1.00  0.00    -0.237 OA
ATOM     71  O   UNL A   1      35.874  32.601  38.826  1.00  0.00    -0.237 OA
ATOM     72  O   UNL A   1      36.654  30.302  38.463  1.00  0.00    -0.744 OA
ENDBRANCH  66  69
ENDBRANCH  48  62
BRANCH  49  73
ATOM     73  C   UNL A   1      42.315  26.306  27.602  1.00  0.00     0.023 A 
ATOM     74  C   UNL A   1      43.221  26.880  26.689  1.00  0.00     0.012 A 
ATOM     75  C   UNL A   1      41.943  24.958  27.445  1.00  0.00     0.148 A 
ATOM     76  C   UNL A   1      43.727  26.135  25.624  1.00  0.00     0.002 A 
ATOM     77  C   UNL A   1      42.488  24.206  26.409  1.00  0.00     0.091 A 
ATOM     78  F   UNL A   1      41.066  24.433  28.312  1.00  0.00    -0.205 F 
ATOM     79  C   UNL A   1      43.369  24.797  25.490  1.00  0.00     0.022 A 
BRANCH  77  80
ATOM     80  S   UNL A   1      42.175  22.445  26.241  1.00  0.00     0.127 S 
ATOM     81  O   UNL A   1      40.718  22.408  26.147  1.00  0.00    -0.237 OA
ATOM     82  O   UNL A   1      42.881  22.121  25.001  1.00  0.00    -0.237 OA
ATOM     83  O   UNL A   1      42.755  21.839  27.432  1.00  0.00    -0.744 OA
ENDBRANCH  77  80
ENDBRANCH  49  73
BRANCH  61  84
ATOM     84  C   UNL A   1      44.540  27.431  34.126  1.00  0.00     0.023 A 
ATOM     85  C   UNL A   1      45.724  28.191  34.160  1.00  0.00     0.012 A 
ATOM     86  C   UNL A   1      44.449  26.252  34.891  1.00  0.00     0.148 A 
ATOM     87  C   UNL A   1      46.812  27.773  34.926  1.00  0.00     0.002 A 
ATOM     88  C   UNL A   1      45.523  25.862  35.684  1.00  0.00     0.091 A 
ATOM     89  F   UNL A   1      43.322  25.529  34.828  1.00  0.00    -0.205 F 
ATOM     90  C   UNL A   1      46.707  26.617  35.697  1.00  0.00     0.022 A 
BRANCH  88  91
ATOM     91  S   UNL A   1      45.427  24.433  36.770  1.00  0.00     0.127 S 
ATOM     92  O   UNL A   1      46.837  24.165  37.038  1.00  0.00    -0.237 OA
ATOM     93  O   UNL A   1      44.677  24.953  37.915  1.00  0.00    -0.237 OA
ATOM     94  O   UNL A   1      44.720  23.413  36.008  1.00  0.00    -0.744 OA
ENDBRANCH  88  91
ENDBRANCH  61  84
ENDBRANCH  35  36
ENDBRANCH  27  30
ENDBRANCH  25  26
ENDBRANCH   1  25
TORSDOF 16
ENDMDL
