MODEL 1
REMARK VINA RESULT:     -11.8      0.000      0.000
REMARK SMILES C[C@H]1CC[C@@H]([C@@H](Cc2ccccc2)C(=O)NCCCNC(=O)c2ccc(-c3c4nc(c(-c5cccc(S(=O)(=O)[O-])c5F)c5ccc([nH]5)c(-c5cccc(S(=O)(=O)[O-])c5F)c5nc(c(-c6cccc(S(=O)(=O)[O-])c6F)c6ccc3[nH]6)C=C5)C=C4)cc2)C[C@@H]1C
REMARK SMILES IDX 18 1 17 2 16 3 14 4 15 5 6 7 5 8 1 9 2 10 3 11 87 12 4 13
REMARK SMILES IDX 86 14 88 15 7 16 8 17 9 18 13 19 10 20 12 21 11 22 19 23
REMARK SMILES IDX 20 24 21 25 22 27 23 28 24 29 85 30 25 31 84 32 26 33 27 34
REMARK SMILES IDX 28 35 78 36 29 37 83 38 77 39 79 40 30 41 82 42 76 43 75 44
REMARK SMILES IDX 31 46 63 47 43 48 62 49 44 50 47 51 61 52 80 53 45 54 46 55
REMARK SMILES IDX 60 57 81 58 48 59 32 60 33 61 41 62 34 63 36 64 42 65 35 66
REMARK SMILES IDX 37 67 38 68 39 69 40 70 64 71 65 72 73 73 66 74 68 75 74 76
REMARK SMILES IDX 67 77 69 78 70 79 71 80 72 81 49 82 50 83 58 84 51 85 53 86
REMARK SMILES IDX 59 87 52 88 54 89 55 90 56 91 57 92
REMARK H PARENT 16 6 20 26 79 45 47 56
REMARK Flexibility Score: inf
ROOT
ATOM      1  C   UNL A   1      34.146  27.769  25.527  1.00  0.00     0.042 C 
ENDROOT
BRANCH   1   2
ATOM      2  C   UNL A   1      33.089  27.918  24.451  1.00  0.00     0.117 C 
BRANCH   2   3
ATOM      3  N   UNL A   1      33.461  27.416  23.146  1.00  0.00    -0.356 N 
ATOM      4  C   UNL A   1      33.492  26.145  22.671  1.00  0.00     0.223 C 
ATOM      5  O   UNL A   1      33.614  26.023  21.446  1.00  0.00    -0.275 OA
ATOM      6  H   UNL A   1      33.736  28.106  22.501  1.00  0.00     0.163 HD
BRANCH   4   7
ATOM      7  C   UNL A   1      33.385  24.887  23.544  1.00  0.00     0.086 C 
BRANCH   7   8
ATOM      8  C   UNL A   1      31.980  24.370  24.025  1.00  0.00     0.002 C 
ATOM      9  C   UNL A   1      33.293  22.246  27.637  1.00  0.00     0.008 C 
ATOM     10  C   UNL A   1      32.300  22.722  26.568  1.00  0.00    -0.011 C 
ATOM     11  C   UNL A   1      32.260  24.251  26.564  1.00  0.00     0.004 C 
ATOM     12  C   UNL A   1      32.630  22.126  25.173  1.00  0.00    -0.011 C 
ATOM     13  C   UNL A   1      31.441  24.779  25.397  1.00  0.00     0.005 C 
ATOM     14  C   UNL A   1      31.891  22.823  24.008  1.00  0.00     0.008 C 
ATOM     15  C   UNL A   1      32.289  20.629  25.153  1.00  0.00     0.008 C 
ENDBRANCH   7   8
BRANCH   7  16
ATOM     16  C   UNL A   1      34.417  23.781  23.149  1.00  0.00     0.049 C 
BRANCH  16  17
ATOM     17  C   UNL A   1      35.494  23.400  24.138  1.00  0.00    -0.047 A 
ATOM     18  C   UNL A   1      35.740  24.202  25.265  1.00  0.00     0.004 A 
ATOM     19  C   UNL A   1      36.329  22.297  23.905  1.00  0.00     0.004 A 
ATOM     20  C   UNL A   1      36.860  23.973  26.072  1.00  0.00     0.000 A 
ATOM     21  C   UNL A   1      37.453  22.076  24.707  1.00  0.00     0.000 A 
ATOM     22  C   UNL A   1      37.733  22.928  25.772  1.00  0.00     0.000 A 
ENDBRANCH  16  17
ENDBRANCH   7  16
ENDBRANCH   4   7
ENDBRANCH   2   3
ENDBRANCH   1   2
BRANCH   1  23
ATOM     23  C   UNL A   1      33.672  28.244  26.882  1.00  0.00     0.118 C 
BRANCH  23  24
ATOM     24  N   UNL A   1      33.593  29.698  26.967  1.00  0.00    -0.352 N 
ATOM     25  C   UNL A   1      34.402  30.608  27.612  1.00  0.00     0.251 C 
ATOM     26  H   UNL A   1      32.835  30.097  26.481  1.00  0.00     0.163 HD
ATOM     27  O   UNL A   1      34.016  31.765  27.748  1.00  0.00    -0.269 OA
BRANCH  25  28
ATOM     28  C   UNL A   1      35.713  30.192  28.160  1.00  0.00     0.039 A 
ATOM     29  C   UNL A   1      35.792  29.692  29.463  1.00  0.00     0.014 A 
ATOM     30  C   UNL A   1      36.872  30.303  27.396  1.00  0.00     0.014 A 
ATOM     31  C   UNL A   1      37.019  29.239  29.958  1.00  0.00     0.010 A 
ATOM     32  C   UNL A   1      38.047  29.706  27.826  1.00  0.00     0.010 A 
ATOM     33  C   UNL A   1      38.150  29.203  29.127  1.00  0.00    -0.014 A 
BRANCH  33  34
ATOM     34  C   UNL A   1      39.465  28.692  29.594  1.00  0.00     0.031 A 
ATOM     35  C   UNL A   1      40.197  29.410  30.703  1.00  0.00     0.074 A 
ATOM     36  C   UNL A   1      40.049  27.656  28.959  1.00  0.00     0.049 A 
ATOM     37  N   UNL A   1      41.395  29.190  31.180  1.00  0.00    -0.248 NA
ATOM     38  C   UNL A   1      39.513  30.557  31.328  1.00  0.00     0.031 C 
ATOM     39  C   UNL A   1      39.489  26.938  27.811  1.00  0.00     0.029 A 
ATOM     40  N   UNL A   1      41.258  27.043  29.173  1.00  0.00    -0.354 N 
ATOM     41  C   UNL A   1      41.624  30.196  32.112  1.00  0.00     0.074 A 
ATOM     42  C   UNL A   1      40.467  31.061  32.096  1.00  0.00     0.031 C 
ATOM     43  C   UNL A   1      40.342  25.972  27.435  1.00  0.00     0.029 A 
ATOM     44  C   UNL A   1      41.526  26.025  28.286  1.00  0.00     0.049 A 
ATOM     45  H   UNL A   1      41.876  27.305  29.892  1.00  0.00     0.167 HD
ATOM     46  C   UNL A   1      42.681  30.368  32.938  1.00  0.00     0.034 A 
ATOM     47  C   UNL A   1      42.607  25.230  28.168  1.00  0.00     0.034 A 
ATOM     48  C   UNL A   1      43.796  29.465  33.001  1.00  0.00     0.049 A 
ATOM     49  C   UNL A   1      43.741  25.398  29.142  1.00  0.00     0.074 A 
ATOM     50  C   UNL A   1      44.869  29.482  33.874  1.00  0.00     0.029 A 
ATOM     51  N   UNL A   1      43.982  28.383  32.155  1.00  0.00    -0.354 N 
ATOM     52  N   UNL A   1      43.867  26.259  30.123  1.00  0.00    -0.248 NA
ATOM     53  C   UNL A   1      44.867  24.460  29.019  1.00  0.00     0.031 C 
ATOM     54  C   UNL A   1      45.718  28.424  33.536  1.00  0.00     0.029 A 
ATOM     55  C   UNL A   1      45.156  27.728  32.478  1.00  0.00     0.049 A 
ATOM     56  H   UNL A   1      43.369  28.120  31.432  1.00  0.00     0.167 HD
ATOM     57  C   UNL A   1      45.063  25.946  30.755  1.00  0.00     0.074 A 
ATOM     58  C   UNL A   1      45.615  24.801  30.060  1.00  0.00     0.031 C 
ATOM     59  C   UNL A   1      45.661  26.558  31.808  1.00  0.00     0.034 A 
BRANCH  46  60
ATOM     60  C   UNL A   1      42.654  31.543  33.883  1.00  0.00     0.023 A 
ATOM     61  C   UNL A   1      43.118  32.803  33.447  1.00  0.00     0.012 A 
ATOM     62  C   UNL A   1      42.125  31.415  35.182  1.00  0.00     0.148 A 
ATOM     63  C   UNL A   1      43.096  33.904  34.302  1.00  0.00     0.002 A 
ATOM     64  C   UNL A   1      42.059  32.529  36.011  1.00  0.00     0.091 A 
ATOM     65  F   UNL A   1      41.709  30.207  35.588  1.00  0.00    -0.205 F 
ATOM     66  C   UNL A   1      42.558  33.770  35.578  1.00  0.00     0.022 A 
BRANCH  64  67
ATOM     67  S   UNL A   1      41.307  32.484  37.641  1.00  0.00     0.127 S 
ATOM     68  O   UNL A   1      39.952  32.030  37.329  1.00  0.00    -0.237 OA
ATOM     69  O   UNL A   1      42.136  31.497  38.333  1.00  0.00    -0.237 OA
ATOM     70  O   UNL A   1      41.404  33.838  38.168  1.00  0.00    -0.744 OA
ENDBRANCH  64  67
ENDBRANCH  46  60
BRANCH  47  71
ATOM     71  C   UNL A   1      42.636  24.157  27.132  1.00  0.00     0.023 A 
ATOM     72  C   UNL A   1      43.308  24.388  25.916  1.00  0.00     0.012 A 
ATOM     73  C   UNL A   1      42.029  22.906  27.353  1.00  0.00     0.148 A 
ATOM     74  C   UNL A   1      43.344  23.406  24.925  1.00  0.00     0.002 A 
ATOM     75  C   UNL A   1      42.118  21.912  26.386  1.00  0.00     0.091 A 
ATOM     76  F   UNL A   1      41.389  22.708  28.514  1.00  0.00    -0.205 F 
ATOM     77  C   UNL A   1      42.759  22.167  25.163  1.00  0.00     0.022 A 
BRANCH  75  78
ATOM     78  S   UNL A   1      41.510  20.244  26.658  1.00  0.00     0.127 S 
ATOM     79  O   UNL A   1      42.243  19.851  27.858  1.00  0.00    -0.237 OA
ATOM     80  O   UNL A   1      40.078  20.474  26.856  1.00  0.00    -0.237 OA
ATOM     81  O   UNL A   1      41.836  19.504  25.446  1.00  0.00    -0.744 OA
ENDBRANCH  75  78
ENDBRANCH  47  71
BRANCH  59  82
ATOM     82  C   UNL A   1      46.958  25.980  32.308  1.00  0.00     0.023 A 
ATOM     83  C   UNL A   1      48.181  26.435  31.779  1.00  0.00     0.012 A 
ATOM     84  C   UNL A   1      46.962  25.044  33.360  1.00  0.00     0.148 A 
ATOM     85  C   UNL A   1      49.391  25.941  32.268  1.00  0.00     0.002 A 
ATOM     86  C   UNL A   1      48.171  24.596  33.878  1.00  0.00     0.091 A 
ATOM     87  F   UNL A   1      45.786  24.613  33.838  1.00  0.00    -0.205 F 
ATOM     88  C   UNL A   1      49.385  25.033  33.325  1.00  0.00     0.022 A 
BRANCH  86  89
ATOM     89  S   UNL A   1      48.262  23.508  35.303  1.00  0.00     0.127 S 
ATOM     90  O   UNL A   1      47.543  24.281  36.314  1.00  0.00    -0.237 OA
ATOM     91  O   UNL A   1      47.556  22.317  34.829  1.00  0.00    -0.237 OA
ATOM     92  O   UNL A   1      49.680  23.305  35.565  1.00  0.00    -0.744 OA
ENDBRANCH  86  89
ENDBRANCH  59  82
ENDBRANCH  33  34
ENDBRANCH  25  28
ENDBRANCH  23  24
ENDBRANCH   1  23
TORSDOF 16
ENDMDL
MODEL 2
REMARK VINA RESULT:     -11.8      2.661      4.340
REMARK SMILES C[C@H]1CC[C@@H]([C@@H](Cc2ccccc2)C(=O)NCCCNC(=O)c2ccc(-c3c4nc(c(-c5cccc(S(=O)(=O)[O-])c5F)c5ccc([nH]5)c(-c5cccc(S(=O)(=O)[O-])c5F)c5nc(c(-c6cccc(S(=O)(=O)[O-])c6F)c6ccc3[nH]6)C=C5)C=C4)cc2)C[C@@H]1C
REMARK SMILES IDX 18 1 17 2 16 3 14 4 15 5 6 7 5 8 1 9 2 10 3 11 87 12 4 13
REMARK SMILES IDX 86 14 88 15 7 16 8 17 9 18 13 19 10 20 12 21 11 22 19 23
REMARK SMILES IDX 20 24 21 25 22 27 23 28 24 29 85 30 25 31 84 32 26 33 27 34
REMARK SMILES IDX 28 35 78 36 29 37 83 38 77 39 79 40 30 41 82 42 76 43 75 44
REMARK SMILES IDX 31 46 63 47 43 48 62 49 44 50 47 51 61 52 80 53 45 54 46 55
REMARK SMILES IDX 60 57 81 58 48 59 32 60 33 61 41 62 34 63 36 64 42 65 35 66
REMARK SMILES IDX 37 67 38 68 39 69 40 70 64 71 65 72 73 73 66 74 68 75 74 76
REMARK SMILES IDX 67 77 69 78 70 79 71 80 72 81 49 82 50 83 58 84 51 85 53 86
REMARK SMILES IDX 59 87 52 88 54 89 55 90 56 91 57 92
REMARK H PARENT 16 6 20 26 79 45 47 56
REMARK Flexibility Score: inf
ROOT
ATOM      1  C   UNL A   1      31.550  28.953  26.061  1.00  0.00     0.042 C 
ENDROOT
BRANCH   1   2
ATOM      2  C   UNL A   1      31.826  27.860  27.074  1.00  0.00     0.117 C 
BRANCH   2   3
ATOM      3  N   UNL A   1      30.799  26.847  27.185  1.00  0.00    -0.356 N 
ATOM      4  C   UNL A   1      30.368  25.932  26.280  1.00  0.00     0.223 C 
ATOM      5  O   UNL A   1      29.647  25.028  26.719  1.00  0.00    -0.275 OA
ATOM      6  H   UNL A   1      30.340  26.818  28.055  1.00  0.00     0.163 HD
BRANCH   4   7
ATOM      7  C   UNL A   1      30.717  25.955  24.785  1.00  0.00     0.086 C 
BRANCH   7   8
ATOM      8  C   UNL A   1      31.868  25.043  24.223  1.00  0.00     0.002 C 
ATOM      9  C   UNL A   1      34.006  28.092  21.895  1.00  0.00     0.008 C 
ATOM     10  C   UNL A   1      33.702  26.684  22.425  1.00  0.00    -0.011 C 
ATOM     11  C   UNL A   1      33.809  26.687  23.951  1.00  0.00     0.004 C 
ATOM     12  C   UNL A   1      32.327  26.167  21.920  1.00  0.00    -0.011 C 
ATOM     13  C   UNL A   1      33.329  25.370  24.540  1.00  0.00     0.005 C 
ATOM     14  C   UNL A   1      31.814  24.921  22.679  1.00  0.00     0.008 C 
ATOM     15  C   UNL A   1      32.414  25.835  20.423  1.00  0.00     0.008 C 
ENDBRANCH   7   8
BRANCH   7  16
ATOM     16  C   UNL A   1      29.460  26.105  23.869  1.00  0.00     0.049 C 
BRANCH  16  17
ATOM     17  C   UNL A   1      29.044  27.488  23.419  1.00  0.00    -0.047 A 
ATOM     18  C   UNL A   1      27.696  27.880  23.481  1.00  0.00     0.004 A 
ATOM     19  C   UNL A   1      29.973  28.370  22.847  1.00  0.00     0.004 A 
ATOM     20  C   UNL A   1      27.273  29.072  22.884  1.00  0.00     0.000 A 
ATOM     21  C   UNL A   1      29.546  29.555  22.241  1.00  0.00     0.000 A 
ATOM     22  C   UNL A   1      28.195  29.893  22.237  1.00  0.00     0.000 A 
ENDBRANCH  16  17
ENDBRANCH   7  16
ENDBRANCH   4   7
ENDBRANCH   2   3
ENDBRANCH   1   2
BRANCH   1  23
ATOM     23  C   UNL A   1      32.763  29.810  25.780  1.00  0.00     0.118 C 
BRANCH  23  24
ATOM     24  N   UNL A   1      32.573  31.197  26.188  1.00  0.00    -0.352 N 
ATOM     25  C   UNL A   1      33.222  31.953  27.139  1.00  0.00     0.251 C 
ATOM     26  H   UNL A   1      31.862  31.674  25.702  1.00  0.00     0.163 HD
ATOM     27  O   UNL A   1      32.742  33.029  27.483  1.00  0.00    -0.269 OA
BRANCH  25  28
ATOM     28  C   UNL A   1      34.474  31.465  27.762  1.00  0.00     0.039 A 
ATOM     29  C   UNL A   1      35.547  32.343  27.940  1.00  0.00     0.014 A 
ATOM     30  C   UNL A   1      34.599  30.137  28.164  1.00  0.00     0.014 A 
ATOM     31  C   UNL A   1      36.705  31.899  28.586  1.00  0.00     0.010 A 
ATOM     32  C   UNL A   1      35.675  29.746  28.945  1.00  0.00     0.010 A 
ATOM     33  C   UNL A   1      36.762  30.607  29.133  1.00  0.00    -0.014 A 
BRANCH  33  34
ATOM     34  C   UNL A   1      37.954  30.103  29.865  1.00  0.00     0.031 A 
ATOM     35  C   UNL A   1      38.232  30.590  31.267  1.00  0.00     0.074 A 
ATOM     36  C   UNL A   1      38.837  29.299  29.241  1.00  0.00     0.049 A 
ATOM     37  N   UNL A   1      39.267  30.357  32.033  1.00  0.00    -0.248 NA
ATOM     38  C   UNL A   1      37.241  31.498  31.874  1.00  0.00     0.031 C 
ATOM     39  C   UNL A   1      38.732  28.835  27.855  1.00  0.00     0.029 A 
ATOM     40  N   UNL A   1      40.013  28.748  29.684  1.00  0.00    -0.354 N 
ATOM     41  C   UNL A   1      39.076  31.126  33.175  1.00  0.00     0.074 A 
ATOM     42  C   UNL A   1      37.857  31.876  32.983  1.00  0.00     0.031 C 
ATOM     43  C   UNL A   1      39.788  28.056  27.569  1.00  0.00     0.029 A 
ATOM     44  C   UNL A   1      40.665  27.996  28.733  1.00  0.00     0.049 A 
ATOM     45  H   UNL A   1      40.360  28.878  30.596  1.00  0.00     0.167 HD
ATOM     46  C   UNL A   1      39.823  31.178  34.302  1.00  0.00     0.034 A 
ATOM     47  C   UNL A   1      41.840  27.340  28.791  1.00  0.00     0.034 A 
ATOM     48  C   UNL A   1      40.995  30.376  34.517  1.00  0.00     0.049 A 
ATOM     49  C   UNL A   1      42.618  27.358  30.078  1.00  0.00     0.074 A 
ATOM     50  C   UNL A   1      41.765  30.267  35.660  1.00  0.00     0.029 A 
ATOM     51  N   UNL A   1      41.567  29.545  33.566  1.00  0.00    -0.354 N 
ATOM     52  N   UNL A   1      42.337  27.967  31.205  1.00  0.00    -0.248 NA
ATOM     53  C   UNL A   1      43.857  26.568  30.117  1.00  0.00     0.031 C 
ATOM     54  C   UNL A   1      42.820  29.390  35.390  1.00  0.00     0.029 A 
ATOM     55  C   UNL A   1      42.685  28.926  34.091  1.00  0.00     0.049 A 
ATOM     56  H   UNL A   1      41.225  29.416  32.651  1.00  0.00     0.167 HD
ATOM     57  C   UNL A   1      43.340  27.607  32.096  1.00  0.00     0.074 A 
ATOM     58  C   UNL A   1      44.226  26.707  31.383  1.00  0.00     0.031 C 
ATOM     59  C   UNL A   1      43.523  27.993  33.383  1.00  0.00     0.034 A 
BRANCH  46  60
ATOM     60  C   UNL A   1      39.360  32.086  35.413  1.00  0.00     0.023 A 
ATOM     61  C   UNL A   1      38.488  31.591  36.405  1.00  0.00     0.012 A 
ATOM     62  C   UNL A   1      39.826  33.413  35.504  1.00  0.00     0.148 A 
ATOM     63  C   UNL A   1      38.052  32.413  37.444  1.00  0.00     0.002 A 
ATOM     64  C   UNL A   1      39.429  34.210  36.572  1.00  0.00     0.091 A 
ATOM     65  F   UNL A   1      40.637  33.874  34.542  1.00  0.00    -0.205 F 
ATOM     66  C   UNL A   1      38.530  33.716  37.534  1.00  0.00     0.022 A 
BRANCH  64  67
ATOM     67  S   UNL A   1      40.052  35.874  36.826  1.00  0.00     0.127 S 
ATOM     68  O   UNL A   1      41.483  35.629  37.007  1.00  0.00    -0.237 OA
ATOM     69  O   UNL A   1      39.700  36.529  35.566  1.00  0.00    -0.237 OA
ATOM     70  O   UNL A   1      39.357  36.391  37.997  1.00  0.00    -0.744 OA
ENDBRANCH  64  67
ENDBRANCH  46  60
BRANCH  47  71
ATOM     71  C   UNL A   1      42.314  26.552  27.618  1.00  0.00     0.023 A 
ATOM     72  C   UNL A   1      43.115  27.178  26.642  1.00  0.00     0.012 A 
ATOM     73  C   UNL A   1      42.003  25.186  27.475  1.00  0.00     0.148 A 
ATOM     74  C   UNL A   1      43.566  26.468  25.528  1.00  0.00     0.002 A 
ATOM     75  C   UNL A   1      42.502  24.470  26.394  1.00  0.00     0.091 A 
ATOM     76  F   UNL A   1      41.234  24.610  28.410  1.00  0.00    -0.205 F 
ATOM     77  C   UNL A   1      43.269  25.114  25.409  1.00  0.00     0.022 A 
BRANCH  75  78
ATOM     78  S   UNL A   1      42.283  22.695  26.227  1.00  0.00     0.127 S 
ATOM     79  O   UNL A   1      42.947  22.430  24.954  1.00  0.00    -0.237 OA
ATOM     80  O   UNL A   1      42.988  22.193  27.408  1.00  0.00    -0.237 OA
ATOM     81  O   UNL A   1      40.844  22.473  26.250  1.00  0.00    -0.744 OA
ENDBRANCH  75  78
ENDBRANCH  47  71
BRANCH  59  82
ATOM     82  C   UNL A   1      44.698  27.416  34.126  1.00  0.00     0.023 A 
ATOM     83  C   UNL A   1      45.932  28.095  34.127  1.00  0.00     0.012 A 
ATOM     84  C   UNL A   1      44.550  26.242  34.890  1.00  0.00     0.148 A 
ATOM     85  C   UNL A   1      47.014  27.593  34.851  1.00  0.00     0.002 A 
ATOM     86  C   UNL A   1      45.615  25.777  35.651  1.00  0.00     0.091 A 
ATOM     87  F   UNL A   1      43.372  25.604  34.861  1.00  0.00    -0.205 F 
ATOM     88  C   UNL A   1      46.851  26.443  35.622  1.00  0.00     0.022 A 
BRANCH  86  89
ATOM     89  S   UNL A   1      45.468  24.366  36.752  1.00  0.00     0.127 S 
ATOM     90  O   UNL A   1      46.834  24.242  37.259  1.00  0.00    -0.237 OA
ATOM     91  O   UNL A   1      44.492  24.841  37.734  1.00  0.00    -0.237 OA
ATOM     92  O   UNL A   1      45.005  23.259  35.927  1.00  0.00    -0.744 OA
ENDBRANCH  86  89
ENDBRANCH  59  82
ENDBRANCH  33  34
ENDBRANCH  25  28
ENDBRANCH  23  24
ENDBRANCH   1  23
TORSDOF 16
ENDMDL
MODEL 3
REMARK VINA RESULT:     -11.8      5.174      9.666
REMARK SMILES C[C@H]1CC[C@@H]([C@@H](Cc2ccccc2)C(=O)NCCCNC(=O)c2ccc(-c3c4nc(c(-c5cccc(S(=O)(=O)[O-])c5F)c5ccc([nH]5)c(-c5cccc(S(=O)(=O)[O-])c5F)c5nc(c(-c6cccc(S(=O)(=O)[O-])c6F)c6ccc3[nH]6)C=C5)C=C4)cc2)C[C@@H]1C
REMARK SMILES IDX 18 1 17 2 16 3 14 4 15 5 6 7 5 8 1 9 2 10 3 11 87 12 4 13
REMARK SMILES IDX 86 14 88 15 7 16 8 17 9 18 13 19 10 20 12 21 11 22 19 23
REMARK SMILES IDX 20 24 21 25 22 27 23 28 24 29 85 30 25 31 84 32 26 33 27 34
REMARK SMILES IDX 28 35 78 36 29 37 83 38 77 39 79 40 30 41 82 42 76 43 75 44
REMARK SMILES IDX 31 46 63 47 43 48 62 49 44 50 47 51 61 52 80 53 45 54 46 55
REMARK SMILES IDX 60 57 81 58 48 59 32 60 33 61 41 62 34 63 36 64 42 65 35 66
REMARK SMILES IDX 37 67 38 68 39 69 40 70 64 71 65 72 73 73 66 74 68 75 74 76
REMARK SMILES IDX 67 77 69 78 70 79 71 80 72 81 49 82 50 83 58 84 51 85 53 86
REMARK SMILES IDX 59 87 52 88 54 89 55 90 56 91 57 92
REMARK H PARENT 16 6 20 26 79 45 47 56
REMARK Flexibility Score: inf
ROOT
ATOM      1  C   UNL A   1      35.019  22.074  26.314  1.00  0.00     0.042 C 
ENDROOT
BRANCH   1   2
ATOM      2  C   UNL A   1      34.103  23.280  26.251  1.00  0.00     0.117 C 
BRANCH   2   3
ATOM      3  N   UNL A   1      32.875  23.163  27.007  1.00  0.00    -0.356 N 
ATOM      4  C   UNL A   1      31.666  23.748  26.812  1.00  0.00     0.223 C 
ATOM      5  O   UNL A   1      30.723  23.283  27.464  1.00  0.00    -0.275 OA
ATOM      6  H   UNL A   1      32.925  22.565  27.786  1.00  0.00     0.163 HD
BRANCH   4   7
ATOM      7  C   UNL A   1      31.410  24.919  25.853  1.00  0.00     0.086 C 
BRANCH   7   8
ATOM      8  C   UNL A   1      30.732  24.670  24.456  1.00  0.00     0.002 C 
ATOM      9  C   UNL A   1      33.450  27.090  21.997  1.00  0.00     0.008 C 
ATOM     10  C   UNL A   1      32.227  26.210  22.292  1.00  0.00    -0.011 C 
ATOM     11  C   UNL A   1      32.699  24.858  22.832  1.00  0.00     0.004 C 
ATOM     12  C   UNL A   1      31.227  26.920  23.243  1.00  0.00    -0.011 C 
ATOM     13  C   UNL A   1      31.528  24.021  23.322  1.00  0.00     0.005 C 
ATOM     14  C   UNL A   1      30.161  25.975  23.845  1.00  0.00     0.008 C 
ATOM     15  C   UNL A   1      30.515  28.058  22.496  1.00  0.00     0.008 C 
ENDBRANCH   7   8
BRANCH   7  16
ATOM     16  C   UNL A   1      30.984  26.229  26.592  1.00  0.00     0.049 C 
BRANCH  16  17
ATOM     17  C   UNL A   1      31.992  27.345  26.741  1.00  0.00    -0.047 A 
ATOM     18  C   UNL A   1      31.615  28.572  27.313  1.00  0.00     0.004 A 
ATOM     19  C   UNL A   1      33.293  27.215  26.232  1.00  0.00     0.004 A 
ATOM     20  C   UNL A   1      32.478  29.673  27.272  1.00  0.00     0.000 A 
ATOM     21  C   UNL A   1      34.149  28.319  26.182  1.00  0.00     0.000 A 
ATOM     22  C   UNL A   1      33.733  29.553  26.677  1.00  0.00     0.000 A 
ENDBRANCH  16  17
ENDBRANCH   7  16
ENDBRANCH   4   7
ENDBRANCH   2   3
ENDBRANCH   1   2
BRANCH   1  23
ATOM     23  C   UNL A   1      36.159  22.154  25.324  1.00  0.00     0.118 C 
BRANCH  23  24
ATOM     24  N   UNL A   1      37.143  21.094  25.520  1.00  0.00    -0.352 N 
ATOM     25  C   UNL A   1      38.478  21.155  25.852  1.00  0.00     0.251 C 
ATOM     26  H   UNL A   1      36.794  20.182  25.394  1.00  0.00     0.163 HD
ATOM     27  O   UNL A   1      39.173  20.151  25.733  1.00  0.00    -0.269 OA
BRANCH  25  28
ATOM     28  C   UNL A   1      39.077  22.424  26.326  1.00  0.00     0.039 A 
ATOM     29  C   UNL A   1      40.177  22.390  27.188  1.00  0.00     0.014 A 
ATOM     30  C   UNL A   1      38.553  23.652  25.930  1.00  0.00     0.014 A 
ATOM     31  C   UNL A   1      40.784  23.586  27.584  1.00  0.00     0.010 A 
ATOM     32  C   UNL A   1      39.250  24.821  26.189  1.00  0.00     0.010 A 
ATOM     33  C   UNL A   1      40.351  24.812  27.052  1.00  0.00    -0.014 A 
BRANCH  33  34
ATOM     34  C   UNL A   1      40.990  26.106  27.409  1.00  0.00     0.031 A 
ATOM     35  C   UNL A   1      42.415  26.377  26.991  1.00  0.00     0.074 A 
ATOM     36  C   UNL A   1      40.336  26.987  28.192  1.00  0.00     0.049 A 
ATOM     37  N   UNL A   1      43.185  27.391  27.291  1.00  0.00    -0.248 NA
ATOM     38  C   UNL A   1      43.081  25.353  26.165  1.00  0.00     0.031 C 
ATOM     39  C   UNL A   1      38.991  26.799  28.743  1.00  0.00     0.029 A 
ATOM     40  N   UNL A   1      40.725  28.207  28.684  1.00  0.00    -0.354 N 
ATOM     41  C   UNL A   1      44.429  27.100  26.741  1.00  0.00     0.074 A 
ATOM     42  C   UNL A   1      44.330  25.792  26.137  1.00  0.00     0.031 C 
ATOM     43  C   UNL A   1      38.661  27.872  29.479  1.00  0.00     0.029 A 
ATOM     44  C   UNL A   1      39.781  28.806  29.487  1.00  0.00     0.049 A 
ATOM     45  H   UNL A   1      41.597  28.616  28.483  1.00  0.00     0.167 HD
ATOM     46  C   UNL A   1      45.544  27.864  26.704  1.00  0.00     0.034 A 
ATOM     47  C   UNL A   1      39.819  29.973  30.161  1.00  0.00     0.034 A 
ATOM     48  C   UNL A   1      45.616  29.193  27.244  1.00  0.00     0.049 A 
ATOM     49  C   UNL A   1      41.046  30.835  30.048  1.00  0.00     0.074 A 
ATOM     50  C   UNL A   1      46.658  30.099  27.167  1.00  0.00     0.029 A 
ATOM     51  N   UNL A   1      44.601  29.808  27.961  1.00  0.00    -0.354 N 
ATOM     52  N   UNL A   1      42.157  30.610  29.389  1.00  0.00    -0.248 NA
ATOM     53  C   UNL A   1      41.013  32.132  30.741  1.00  0.00     0.031 C 
ATOM     54  C   UNL A   1      46.284  31.251  27.863  1.00  0.00     0.029 A 
ATOM     55  C   UNL A   1      44.995  31.078  28.341  1.00  0.00     0.049 A 
ATOM     56  H   UNL A   1      43.730  29.400  28.168  1.00  0.00     0.167 HD
ATOM     57  C   UNL A   1      42.938  31.746  29.556  1.00  0.00     0.074 A 
ATOM     58  C   UNL A   1      42.164  32.669  30.362  1.00  0.00     0.031 C 
ATOM     59  C   UNL A   1      44.189  32.001  29.097  1.00  0.00     0.034 A 
BRANCH  46  60
ATOM     60  C   UNL A   1      46.758  27.306  26.006  1.00  0.00     0.023 A 
ATOM     61  C   UNL A   1      47.545  26.324  26.646  1.00  0.00     0.012 A 
ATOM     62  C   UNL A   1      47.095  27.714  24.701  1.00  0.00     0.148 A 
ATOM     63  C   UNL A   1      48.668  25.790  26.017  1.00  0.00     0.002 A 
ATOM     64  C   UNL A   1      48.186  27.139  24.059  1.00  0.00     0.091 A 
ATOM     65  F   UNL A   1      46.351  28.664  24.116  1.00  0.00    -0.205 F 
ATOM     66  C   UNL A   1      48.982  26.189  24.721  1.00  0.00     0.022 A 
BRANCH  64  67
ATOM     67  S   UNL A   1      48.626  27.521  22.361  1.00  0.00     0.127 S 
ATOM     68  O   UNL A   1      48.716  26.186  21.772  1.00  0.00    -0.237 OA
ATOM     69  O   UNL A   1      47.475  28.307  21.916  1.00  0.00    -0.237 OA
ATOM     70  O   UNL A   1      49.880  28.259  22.425  1.00  0.00    -0.744 OA
ENDBRANCH  64  67
ENDBRANCH  46  60
BRANCH  47  71
ATOM     71  C   UNL A   1      38.631  30.424  30.940  1.00  0.00     0.023 A 
ATOM     72  C   UNL A   1      38.560  30.142  32.318  1.00  0.00     0.012 A 
ATOM     73  C   UNL A   1      37.588  31.151  30.334  1.00  0.00     0.148 A 
ATOM     74  C   UNL A   1      37.456  30.544  33.072  1.00  0.00     0.002 A 
ATOM     75  C   UNL A   1      36.519  31.599  31.101  1.00  0.00     0.091 A 
ATOM     76  F   UNL A   1      37.670  31.403  29.021  1.00  0.00    -0.205 F 
ATOM     77  C   UNL A   1      36.442  31.280  32.467  1.00  0.00     0.022 A 
BRANCH  75  78
ATOM     78  S   UNL A   1      35.234  32.664  30.437  1.00  0.00     0.127 S 
ATOM     79  O   UNL A   1      34.325  32.780  31.573  1.00  0.00    -0.237 OA
ATOM     80  O   UNL A   1      35.986  33.880  30.122  1.00  0.00    -0.237 OA
ATOM     81  O   UNL A   1      34.708  31.966  29.273  1.00  0.00    -0.744 OA
ENDBRANCH  75  78
ENDBRANCH  47  71
BRANCH  59  82
ATOM     82  C   UNL A   1      44.789  33.345  29.412  1.00  0.00     0.023 A 
ATOM     83  C   UNL A   1      45.536  33.523  30.593  1.00  0.00     0.012 A 
ATOM     84  C   UNL A   1      44.678  34.408  28.494  1.00  0.00     0.148 A 
ATOM     85  C   UNL A   1      46.135  34.752  30.871  1.00  0.00     0.002 A 
ATOM     86  C   UNL A   1      45.322  35.611  28.753  1.00  0.00     0.091 A 
ATOM     87  F   UNL A   1      43.949  34.221  27.385  1.00  0.00    -0.205 F 
ATOM     88  C   UNL A   1      46.039  35.789  29.946  1.00  0.00     0.022 A 
BRANCH  86  89
ATOM     89  S   UNL A   1      45.339  36.966  27.574  1.00  0.00     0.127 S 
ATOM     90  O   UNL A   1      43.914  37.269  27.450  1.00  0.00    -0.237 OA
ATOM     91  O   UNL A   1      46.121  37.981  28.281  1.00  0.00    -0.237 OA
ATOM     92  O   UNL A   1      45.973  36.444  26.371  1.00  0.00    -0.744 OA
ENDBRANCH  86  89
ENDBRANCH  59  82
ENDBRANCH  33  34
ENDBRANCH  25  28
ENDBRANCH  23  24
ENDBRANCH   1  23
TORSDOF 16
ENDMDL
