MODEL 1
REMARK VINA RESULT:     -11.0      0.000      0.000
REMARK SMILES C[C@@H](C(=O)NCCCNC(=O)c1ccc(-c2c3nc(c(-c4cccc(S(=O)(=O)[O-])c4F)c4ccc([nH]4)c(-c4cccc(S(=O)(=O)[O-])c4F)c4nc(c(-c5cccc(S(=O)(=O)[O-])c5F)c5ccc2[nH]5)C=C4)C=C3)cc1)N(C)C(=O)NC[C@H]1C[N@H+]2CCC[C@@H]2CO1
REMARK SMILES IDX 6 1 5 2 3 3 4 4 2 6 1 7 75 8 76 9 77 10 78 11 79 12 80 14
REMARK SMILES IDX 81 15 82 16 89 17 83 18 88 19 84 20 87 21 85 23 86 24 7 25
REMARK SMILES IDX 8 26 9 27 10 28 11 30 12 31 13 32 74 33 14 34 73 35 15 36
REMARK SMILES IDX 16 37 17 38 67 39 18 40 72 41 66 42 68 43 19 44 71 45 65 46
REMARK SMILES IDX 64 47 20 49 52 50 32 51 51 52 33 53 36 54 50 55 69 56 34 57
REMARK SMILES IDX 35 58 49 60 70 61 37 62 21 63 22 64 30 65 23 66 25 67 31 68
REMARK SMILES IDX 24 69 26 70 27 71 28 72 29 73 53 74 54 75 62 76 55 77 57 78
REMARK SMILES IDX 63 79 56 80 58 81 59 82 60 83 61 84 38 85 39 86 47 87 40 88
REMARK SMILES IDX 42 89 48 90 41 91 43 92 44 93 45 94 46 95
REMARK H PARENT 5 5 79 13 83 22 9 29 68 48 36 59
REMARK Flexibility Score: inf
ROOT
ATOM      1  C   UNL A   1      32.533  26.390  26.277  1.00  0.00     0.117 C 
ENDROOT
BRANCH   1   2
ATOM      2  N   UNL A   1      33.846  25.939  25.878  1.00  0.00    -0.354 N 
ATOM      3  C   UNL A   1      34.316  24.677  25.668  1.00  0.00     0.242 C 
ATOM      4  O   UNL A   1      35.428  24.604  25.136  1.00  0.00    -0.273 OA
ATOM      5  H   UNL A   1      34.505  26.657  25.736  1.00  0.00     0.163 HD
BRANCH   3   6
ATOM      6  C   UNL A   1      33.430  23.439  25.988  1.00  0.00     0.172 C 
ATOM      7  C   UNL A   1      33.998  22.466  27.023  1.00  0.00     0.042 C 
BRANCH   6   8
ATOM      8  N   UNL A   1      33.039  22.767  24.729  1.00  0.00    -0.316 N 
ATOM      9  C   UNL A   1      33.735  21.525  24.450  1.00  0.00     0.149 C 
BRANCH   8  10
ATOM     10  C   UNL A   1      31.912  23.220  24.091  1.00  0.00     0.317 C 
ATOM     11  O   UNL A   1      30.817  23.304  24.654  1.00  0.00    -0.249 OA
ATOM     12  N   UNL A   1      31.914  23.620  22.805  1.00  0.00    -0.335 N 
ATOM     13  H   UNL A   1      31.031  23.544  22.377  1.00  0.00     0.165 HD
BRANCH  12  14
ATOM     14  C   UNL A   1      32.934  24.136  21.914  1.00  0.00     0.155 C 
BRANCH  14  15
ATOM     15  C   UNL A   1      32.885  25.666  21.717  1.00  0.00     0.192 C 
ATOM     16  C   UNL A   1      31.397  26.108  21.889  1.00  0.00     0.296 C 
ATOM     17  O   UNL A   1      33.774  26.285  22.676  1.00  0.00    -0.364 OA
ATOM     18  N   UNL A   1      31.251  27.547  22.113  1.00  0.00    -0.328 N 
ATOM     19  C   UNL A   1      33.596  27.709  22.747  1.00  0.00     0.225 C 
ATOM     20  C   UNL A   1      29.923  27.974  22.544  1.00  0.00     0.262 C 
ATOM     21  C   UNL A   1      32.164  27.962  23.189  1.00  0.00     0.210 C 
ATOM     22  H   UNL A   1      31.447  27.970  21.206  1.00  0.00     0.348 HD
ATOM     23  C   UNL A   1      30.193  29.241  23.367  1.00  0.00     0.068 C 
ATOM     24  C   UNL A   1      31.716  29.389  23.401  1.00  0.00     0.073 C 
ENDBRANCH  14  15
ENDBRANCH  12  14
ENDBRANCH   8  10
ENDBRANCH   6   8
ENDBRANCH   3   6
ENDBRANCH   1   2
BRANCH   1  25
ATOM     25  C   UNL A   1      32.563  27.782  26.892  1.00  0.00     0.042 C 
BRANCH  25  26
ATOM     26  C   UNL A   1      33.772  28.616  26.484  1.00  0.00     0.118 C 
BRANCH  26  27
ATOM     27  N   UNL A   1      33.674  29.999  26.927  1.00  0.00    -0.352 N 
ATOM     28  C   UNL A   1      34.487  30.715  27.767  1.00  0.00     0.251 C 
ATOM     29  H   UNL A   1      32.905  30.497  26.568  1.00  0.00     0.163 HD
ATOM     30  O   UNL A   1      34.112  31.817  28.166  1.00  0.00    -0.269 OA
BRANCH  28  31
ATOM     31  C   UNL A   1      35.798  30.179  28.196  1.00  0.00     0.039 A 
ATOM     32  C   UNL A   1      35.902  29.585  29.457  1.00  0.00     0.014 A 
ATOM     33  C   UNL A   1      36.935  30.307  27.392  1.00  0.00     0.014 A 
ATOM     34  C   UNL A   1      37.135  29.101  29.898  1.00  0.00     0.010 A 
ATOM     35  C   UNL A   1      38.141  29.741  27.793  1.00  0.00     0.010 A 
ATOM     36  C   UNL A   1      38.264  29.164  29.064  1.00  0.00    -0.014 A 
BRANCH  36  37
ATOM     37  C   UNL A   1      39.589  28.681  29.531  1.00  0.00     0.031 A 
ATOM     38  C   UNL A   1      40.314  29.414  30.630  1.00  0.00     0.074 A 
ATOM     39  C   UNL A   1      40.165  27.622  28.932  1.00  0.00     0.049 A 
ATOM     40  N   UNL A   1      41.481  29.159  31.161  1.00  0.00    -0.248 NA
ATOM     41  C   UNL A   1      39.654  30.609  31.185  1.00  0.00     0.031 C 
ATOM     42  C   UNL A   1      39.608  26.884  27.797  1.00  0.00     0.029 A 
ATOM     43  N   UNL A   1      41.361  26.997  29.180  1.00  0.00    -0.354 N 
ATOM     44  C   UNL A   1      41.710  30.174  32.084  1.00  0.00     0.074 A 
ATOM     45  C   UNL A   1      40.583  31.078  32.003  1.00  0.00     0.031 C 
ATOM     46  C   UNL A   1      40.457  25.904  27.450  1.00  0.00     0.029 A 
ATOM     47  C   UNL A   1      41.627  25.955  28.322  1.00  0.00     0.049 A 
ATOM     48  H   UNL A   1      41.971  27.268  29.903  1.00  0.00     0.167 HD
ATOM     49  C   UNL A   1      42.740  30.323  32.951  1.00  0.00     0.034 A 
ATOM     50  C   UNL A   1      42.692  25.134  28.249  1.00  0.00     0.034 A 
ATOM     51  C   UNL A   1      43.836  29.400  33.056  1.00  0.00     0.049 A 
ATOM     52  C   UNL A   1      43.792  25.275  29.264  1.00  0.00     0.074 A 
ATOM     53  C   UNL A   1      44.896  29.417  33.946  1.00  0.00     0.029 A 
ATOM     54  N   UNL A   1      44.014  28.290  32.244  1.00  0.00    -0.354 N 
ATOM     55  N   UNL A   1      43.916  26.152  30.231  1.00  0.00    -0.248 NA
ATOM     56  C   UNL A   1      44.874  24.282  29.214  1.00  0.00     0.031 C 
ATOM     57  C   UNL A   1      45.723  28.325  33.661  1.00  0.00     0.029 A 
ATOM     58  C   UNL A   1      45.162  27.610  32.614  1.00  0.00     0.049 A 
ATOM     59  H   UNL A   1      43.413  28.025  31.512  1.00  0.00     0.167 HD
ATOM     60  C   UNL A   1      45.065  25.794  30.929  1.00  0.00     0.074 A 
ATOM     61  C   UNL A   1      45.588  24.608  30.283  1.00  0.00     0.031 C 
ATOM     62  C   UNL A   1      45.640  26.399  31.997  1.00  0.00     0.034 A 
BRANCH  49  63
ATOM     63  C   UNL A   1      42.691  31.500  33.892  1.00  0.00     0.023 A 
ATOM     64  C   UNL A   1      43.225  32.740  33.480  1.00  0.00     0.012 A 
ATOM     65  C   UNL A   1      42.093  31.397  35.163  1.00  0.00     0.148 A 
ATOM     66  C   UNL A   1      43.210  33.842  34.334  1.00  0.00     0.002 A 
ATOM     67  C   UNL A   1      42.037  32.515  35.990  1.00  0.00     0.091 A 
ATOM     68  F   UNL A   1      41.607  30.208  35.549  1.00  0.00    -0.205 F 
ATOM     69  C   UNL A   1      42.608  33.732  35.583  1.00  0.00     0.022 A 
BRANCH  67  70
ATOM     70  S   UNL A   1      41.208  32.500  37.583  1.00  0.00     0.127 S 
ATOM     71  O   UNL A   1      42.075  31.613  38.358  1.00  0.00    -0.237 OA
ATOM     72  O   UNL A   1      41.271  33.908  37.977  1.00  0.00    -0.237 OA
ATOM     73  O   UNL A   1      39.865  32.002  37.332  1.00  0.00    -0.744 OA
ENDBRANCH  67  70
ENDBRANCH  49  63
BRANCH  50  74
ATOM     74  C   UNL A   1      42.722  24.053  27.223  1.00  0.00     0.023 A 
ATOM     75  C   UNL A   1      43.402  24.267  26.008  1.00  0.00     0.012 A 
ATOM     76  C   UNL A   1      42.120  22.803  27.464  1.00  0.00     0.148 A 
ATOM     77  C   UNL A   1      43.452  23.267  25.037  1.00  0.00     0.002 A 
ATOM     78  C   UNL A   1      42.222  21.792  26.514  1.00  0.00     0.091 A 
ATOM     79  F   UNL A   1      41.473  22.623  28.624  1.00  0.00    -0.205 F 
ATOM     80  C   UNL A   1      42.873  22.028  25.293  1.00  0.00     0.022 A 
BRANCH  78  81
ATOM     81  S   UNL A   1      41.624  20.126  26.817  1.00  0.00     0.127 S 
ATOM     82  O   UNL A   1      40.291  20.383  27.364  1.00  0.00    -0.237 OA
ATOM     83  O   UNL A   1      41.632  19.555  25.468  1.00  0.00    -0.237 OA
ATOM     84  O   UNL A   1      42.577  19.522  27.731  1.00  0.00    -0.744 OA
ENDBRANCH  78  81
ENDBRANCH  50  74
BRANCH  62  85
ATOM     85  C   UNL A   1      46.877  25.763  32.576  1.00  0.00     0.023 A 
ATOM     86  C   UNL A   1      48.151  26.154  32.119  1.00  0.00     0.012 A 
ATOM     87  C   UNL A   1      46.774  24.822  33.620  1.00  0.00     0.148 A 
ATOM     88  C   UNL A   1      49.303  25.588  32.666  1.00  0.00     0.002 A 
ATOM     89  C   UNL A   1      47.928  24.302  34.195  1.00  0.00     0.091 A 
ATOM     90  F   UNL A   1      45.553  24.448  34.027  1.00  0.00    -0.205 F 
ATOM     91  C   UNL A   1      49.191  24.672  33.710  1.00  0.00     0.022 A 
BRANCH  89  92
ATOM     92  S   UNL A   1      47.876  23.194  35.607  1.00  0.00     0.127 S 
ATOM     93  O   UNL A   1      49.276  22.788  35.720  1.00  0.00    -0.237 OA
ATOM     94  O   UNL A   1      47.409  24.074  36.679  1.00  0.00    -0.237 OA
ATOM     95  O   UNL A   1      46.941  22.135  35.250  1.00  0.00    -0.744 OA
ENDBRANCH  89  92
ENDBRANCH  62  85
ENDBRANCH  36  37
ENDBRANCH  28  31
ENDBRANCH  26  27
ENDBRANCH  25  26
ENDBRANCH   1  25
TORSDOF 17
ENDMDL
MODEL 2
REMARK VINA RESULT:     -10.8      2.181      3.027
REMARK SMILES C[C@@H](C(=O)NCCCNC(=O)c1ccc(-c2c3nc(c(-c4cccc(S(=O)(=O)[O-])c4F)c4ccc([nH]4)c(-c4cccc(S(=O)(=O)[O-])c4F)c4nc(c(-c5cccc(S(=O)(=O)[O-])c5F)c5ccc2[nH]5)C=C4)C=C3)cc1)N(C)C(=O)NC[C@H]1C[N@H+]2CCC[C@@H]2CO1
REMARK SMILES IDX 6 1 5 2 3 3 4 4 2 6 1 7 75 8 76 9 77 10 78 11 79 12 80 14
REMARK SMILES IDX 81 15 82 16 89 17 83 18 88 19 84 20 87 21 85 23 86 24 7 25
REMARK SMILES IDX 8 26 9 27 10 28 11 30 12 31 13 32 74 33 14 34 73 35 15 36
REMARK SMILES IDX 16 37 17 38 67 39 18 40 72 41 66 42 68 43 19 44 71 45 65 46
REMARK SMILES IDX 64 47 20 49 52 50 32 51 51 52 33 53 36 54 50 55 69 56 34 57
REMARK SMILES IDX 35 58 49 60 70 61 37 62 21 63 22 64 30 65 23 66 25 67 31 68
REMARK SMILES IDX 24 69 26 70 27 71 28 72 29 73 53 74 54 75 62 76 55 77 57 78
REMARK SMILES IDX 63 79 56 80 58 81 59 82 60 83 61 84 38 85 39 86 47 87 40 88
REMARK SMILES IDX 42 89 48 90 41 91 43 92 44 93 45 94 46 95
REMARK H PARENT 5 5 79 13 83 22 9 29 68 48 36 59
REMARK Flexibility Score: inf
ROOT
ATOM      1  C   UNL A   1      33.948  27.631  24.516  1.00  0.00     0.117 C 
ENDROOT
BRANCH   1   2
ATOM      2  N   UNL A   1      33.772  27.118  23.176  1.00  0.00    -0.354 N 
ATOM      3  C   UNL A   1      33.703  25.833  22.729  1.00  0.00     0.242 C 
ATOM      4  O   UNL A   1      33.346  25.695  21.556  1.00  0.00    -0.273 OA
ATOM      5  H   UNL A   1      33.689  27.807  22.477  1.00  0.00     0.163 HD
BRANCH   3   6
ATOM      6  C   UNL A   1      33.958  24.642  23.699  1.00  0.00     0.172 C 
ATOM      7  C   UNL A   1      34.705  23.449  23.103  1.00  0.00     0.042 C 
BRANCH   6   8
ATOM      8  N   UNL A   1      32.687  24.251  24.351  1.00  0.00    -0.316 N 
ATOM      9  C   UNL A   1      32.618  24.514  25.776  1.00  0.00     0.149 C 
BRANCH   8  10
ATOM     10  C   UNL A   1      31.629  23.931  23.538  1.00  0.00     0.317 C 
ATOM     11  O   UNL A   1      31.483  22.807  23.049  1.00  0.00    -0.249 OA
ATOM     12  N   UNL A   1      30.663  24.812  23.219  1.00  0.00    -0.335 N 
ATOM     13  H   UNL A   1      30.214  24.600  22.369  1.00  0.00     0.165 HD
BRANCH  12  14
ATOM     14  C   UNL A   1      30.142  26.007  23.854  1.00  0.00     0.155 C 
BRANCH  14  15
ATOM     15  C   UNL A   1      29.831  27.158  22.874  1.00  0.00     0.192 C 
ATOM     16  C   UNL A   1      28.511  27.836  23.360  1.00  0.00     0.296 C 
ATOM     17  O   UNL A   1      30.958  28.065  22.851  1.00  0.00    -0.364 OA
ATOM     18  N   UNL A   1      28.300  29.160  22.773  1.00  0.00    -0.328 N 
ATOM     19  C   UNL A   1      30.656  29.296  22.176  1.00  0.00     0.225 C 
ATOM     20  C   UNL A   1      27.234  29.946  23.387  1.00  0.00     0.262 C 
ATOM     21  C   UNL A   1      29.522  29.961  22.939  1.00  0.00     0.210 C 
ATOM     22  H   UNL A   1      28.045  28.975  21.803  1.00  0.00     0.348 HD
ATOM     23  C   UNL A   1      27.669  31.400  23.157  1.00  0.00     0.068 C 
ATOM     24  C   UNL A   1      29.036  31.314  22.474  1.00  0.00     0.073 C 
ENDBRANCH  14  15
ENDBRANCH  12  14
ENDBRANCH   8  10
ENDBRANCH   6   8
ENDBRANCH   3   6
ENDBRANCH   1   2
BRANCH   1  25
ATOM     25  C   UNL A   1      33.418  29.050  24.665  1.00  0.00     0.042 C 
BRANCH  25  26
ATOM     26  C   UNL A   1      32.739  29.323  26.002  1.00  0.00     0.118 C 
BRANCH  26  27
ATOM     27  N   UNL A   1      32.539  30.742  26.249  1.00  0.00    -0.352 N 
ATOM     28  C   UNL A   1      33.210  31.594  27.089  1.00  0.00     0.251 C 
ATOM     29  H   UNL A   1      31.809  31.156  25.734  1.00  0.00     0.163 HD
ATOM     30  O   UNL A   1      32.750  32.718  27.293  1.00  0.00    -0.269 OA
BRANCH  28  31
ATOM     31  C   UNL A   1      34.469  31.178  27.747  1.00  0.00     0.039 A 
ATOM     32  C   UNL A   1      34.592  29.857  28.187  1.00  0.00     0.014 A 
ATOM     33  C   UNL A   1      35.502  32.090  27.982  1.00  0.00     0.014 A 
ATOM     34  C   UNL A   1      35.757  29.449  28.840  1.00  0.00     0.010 A 
ATOM     35  C   UNL A   1      36.698  31.658  28.548  1.00  0.00     0.010 A 
ATOM     36  C   UNL A   1      36.826  30.343  29.015  1.00  0.00    -0.014 A 
BRANCH  36  37
ATOM     37  C   UNL A   1      38.059  29.932  29.734  1.00  0.00     0.031 A 
ATOM     38  C   UNL A   1      38.338  30.462  31.117  1.00  0.00     0.074 A 
ATOM     39  C   UNL A   1      38.954  29.130  29.126  1.00  0.00     0.049 A 
ATOM     40  N   UNL A   1      39.362  30.234  31.897  1.00  0.00    -0.248 NA
ATOM     41  C   UNL A   1      37.349  31.394  31.688  1.00  0.00     0.031 C 
ATOM     42  C   UNL A   1      38.844  28.625  27.757  1.00  0.00     0.029 A 
ATOM     43  N   UNL A   1      40.145  28.619  29.576  1.00  0.00    -0.354 N 
ATOM     44  C   UNL A   1      39.160  31.016  33.029  1.00  0.00     0.074 A 
ATOM     45  C   UNL A   1      37.941  31.764  32.813  1.00  0.00     0.031 C 
ATOM     46  C   UNL A   1      39.920  27.873  27.478  1.00  0.00     0.029 A 
ATOM     47  C   UNL A   1      40.805  27.857  28.639  1.00  0.00     0.049 A 
ATOM     48  H   UNL A   1      40.494  28.781  30.481  1.00  0.00     0.167 HD
ATOM     49  C   UNL A   1      39.895  31.079  34.165  1.00  0.00     0.034 A 
ATOM     50  C   UNL A   1      41.989  27.218  28.711  1.00  0.00     0.034 A 
ATOM     51  C   UNL A   1      41.083  30.303  34.393  1.00  0.00     0.049 A 
ATOM     52  C   UNL A   1      42.755  27.246  30.005  1.00  0.00     0.074 A 
ATOM     53  C   UNL A   1      41.866  30.237  35.533  1.00  0.00     0.029 A 
ATOM     54  N   UNL A   1      41.662  29.453  33.461  1.00  0.00    -0.354 N 
ATOM     55  N   UNL A   1      42.469  27.872  31.121  1.00  0.00    -0.248 NA
ATOM     56  C   UNL A   1      43.982  26.439  30.068  1.00  0.00     0.031 C 
ATOM     57  C   UNL A   1      42.926  29.358  35.283  1.00  0.00     0.029 A 
ATOM     58  C   UNL A   1      42.787  28.854  34.000  1.00  0.00     0.049 A 
ATOM     59  H   UNL A   1      41.322  29.300  32.551  1.00  0.00     0.167 HD
ATOM     60  C   UNL A   1      43.453  27.502  32.031  1.00  0.00     0.074 A 
ATOM     61  C   UNL A   1      44.333  26.583  31.339  1.00  0.00     0.031 C 
ATOM     62  C   UNL A   1      43.621  27.898  33.317  1.00  0.00     0.034 A 
BRANCH  49  63
ATOM     63  C   UNL A   1      39.395  31.977  35.269  1.00  0.00     0.023 A 
ATOM     64  C   UNL A   1      38.427  31.488  36.174  1.00  0.00     0.012 A 
ATOM     65  C   UNL A   1      39.896  33.281  35.436  1.00  0.00     0.148 A 
ATOM     66  C   UNL A   1      37.932  32.299  37.194  1.00  0.00     0.002 A 
ATOM     67  C   UNL A   1      39.434  34.067  36.488  1.00  0.00     0.091 A 
ATOM     68  F   UNL A   1      40.800  33.739  34.557  1.00  0.00    -0.205 F 
ATOM     69  C   UNL A   1      38.442  33.583  37.356  1.00  0.00     0.022 A 
BRANCH  67  70
ATOM     70  S   UNL A   1      40.088  35.703  36.834  1.00  0.00     0.127 S 
ATOM     71  O   UNL A   1      39.665  36.447  35.648  1.00  0.00    -0.237 OA
ATOM     72  O   UNL A   1      39.381  36.064  38.064  1.00  0.00    -0.237 OA
ATOM     73  O   UNL A   1      41.525  35.536  36.990  1.00  0.00    -0.744 OA
ENDBRANCH  67  70
ENDBRANCH  49  63
BRANCH  50  74
ATOM     74  C   UNL A   1      42.475  26.431  27.542  1.00  0.00     0.023 A 
ATOM     75  C   UNL A   1      43.345  27.032  26.612  1.00  0.00     0.012 A 
ATOM     76  C   UNL A   1      42.115  25.079  27.374  1.00  0.00     0.148 A 
ATOM     77  C   UNL A   1      43.821  26.312  25.516  1.00  0.00     0.002 A 
ATOM     78  C   UNL A   1      42.638  24.352  26.311  1.00  0.00     0.091 A 
ATOM     79  F   UNL A   1      41.282  24.529  28.268  1.00  0.00    -0.205 F 
ATOM     80  C   UNL A   1      43.476  24.971  25.371  1.00  0.00     0.022 A 
BRANCH  78  81
ATOM     81  S   UNL A   1      42.357  22.588  26.123  1.00  0.00     0.127 S 
ATOM     82  O   UNL A   1      42.956  22.060  27.349  1.00  0.00    -0.237 OA
ATOM     83  O   UNL A   1      40.894  22.521  26.079  1.00  0.00    -0.237 OA
ATOM     84  O   UNL A   1      43.013  22.211  24.885  1.00  0.00    -0.744 OA
ENDBRANCH  78  81
ENDBRANCH  50  74
BRANCH  62  85
ATOM     85  C   UNL A   1      44.771  27.301  34.086  1.00  0.00     0.023 A 
ATOM     86  C   UNL A   1      46.009  27.970  34.136  1.00  0.00     0.012 A 
ATOM     87  C   UNL A   1      44.600  26.105  34.811  1.00  0.00     0.148 A 
ATOM     88  C   UNL A   1      47.073  27.438  34.865  1.00  0.00     0.002 A 
ATOM     89  C   UNL A   1      45.648  25.608  35.577  1.00  0.00     0.091 A 
ATOM     90  F   UNL A   1      43.421  25.472  34.735  1.00  0.00    -0.205 F 
ATOM     91  C   UNL A   1      46.889  26.264  35.593  1.00  0.00     0.022 A 
BRANCH  89  92
ATOM     92  S   UNL A   1      45.466  24.159  36.622  1.00  0.00     0.127 S 
ATOM     93  O   UNL A   1      46.847  23.909  37.030  1.00  0.00    -0.237 OA
ATOM     94  O   UNL A   1      44.595  24.651  37.690  1.00  0.00    -0.237 OA
ATOM     95  O   UNL A   1      44.864  23.133  35.780  1.00  0.00    -0.744 OA
ENDBRANCH  89  92
ENDBRANCH  62  85
ENDBRANCH  36  37
ENDBRANCH  28  31
ENDBRANCH  26  27
ENDBRANCH  25  26
ENDBRANCH   1  25
TORSDOF 17
ENDMDL
MODEL 3
REMARK VINA RESULT:     -10.8      4.647      9.474
REMARK SMILES C[C@@H](C(=O)NCCCNC(=O)c1ccc(-c2c3nc(c(-c4cccc(S(=O)(=O)[O-])c4F)c4ccc([nH]4)c(-c4cccc(S(=O)(=O)[O-])c4F)c4nc(c(-c5cccc(S(=O)(=O)[O-])c5F)c5ccc2[nH]5)C=C4)C=C3)cc1)N(C)C(=O)NC[C@H]1C[N@H+]2CCC[C@@H]2CO1
REMARK SMILES IDX 6 1 5 2 3 3 4 4 2 6 1 7 75 8 76 9 77 10 78 11 79 12 80 14
REMARK SMILES IDX 81 15 82 16 89 17 83 18 88 19 84 20 87 21 85 23 86 24 7 25
REMARK SMILES IDX 8 26 9 27 10 28 11 30 12 31 13 32 74 33 14 34 73 35 15 36
REMARK SMILES IDX 16 37 17 38 67 39 18 40 72 41 66 42 68 43 19 44 71 45 65 46
REMARK SMILES IDX 64 47 20 49 52 50 32 51 51 52 33 53 36 54 50 55 69 56 34 57
REMARK SMILES IDX 35 58 49 60 70 61 37 62 21 63 22 64 30 65 23 66 25 67 31 68
REMARK SMILES IDX 24 69 26 70 27 71 28 72 29 73 53 74 54 75 62 76 55 77 57 78
REMARK SMILES IDX 63 79 56 80 58 81 59 82 60 83 61 84 38 85 39 86 47 87 40 88
REMARK SMILES IDX 42 89 48 90 41 91 43 92 44 93 45 94 46 95
REMARK H PARENT 5 5 79 13 83 22 9 29 68 48 36 59
REMARK Flexibility Score: inf
ROOT
ATOM      1  C   UNL A   1      34.808  25.081  24.907  1.00  0.00     0.117 C 
ENDROOT
BRANCH   1   2
ATOM      2  N   UNL A   1      33.659  25.402  25.722  1.00  0.00    -0.354 N 
ATOM      3  C   UNL A   1      33.162  26.613  26.102  1.00  0.00     0.242 C 
ATOM      4  O   UNL A   1      32.049  26.589  26.634  1.00  0.00    -0.273 OA
ATOM      5  H   UNL A   1      33.157  24.623  26.056  1.00  0.00     0.163 HD
BRANCH   3   6
ATOM      6  C   UNL A   1      33.930  27.925  25.767  1.00  0.00     0.172 C 
ATOM      7  C   UNL A   1      34.513  28.676  26.964  1.00  0.00     0.042 C 
BRANCH   6   8
ATOM      8  N   UNL A   1      33.089  28.787  24.907  1.00  0.00    -0.316 N 
ATOM      9  C   UNL A   1      32.235  29.722  25.617  1.00  0.00     0.149 C 
BRANCH   8  10
ATOM     10  C   UNL A   1      33.370  28.812  23.564  1.00  0.00     0.317 C 
ATOM     11  O   UNL A   1      34.502  28.608  23.118  1.00  0.00    -0.249 OA
ATOM     12  N   UNL A   1      32.431  29.050  22.628  1.00  0.00    -0.335 N 
ATOM     13  H   UNL A   1      32.804  29.416  21.794  1.00  0.00     0.165 HD
BRANCH  12  14
ATOM     14  C   UNL A   1      30.992  28.884  22.583  1.00  0.00     0.155 C 
BRANCH  14  15
ATOM     15  C   UNL A   1      30.529  27.418  22.447  1.00  0.00     0.192 C 
ATOM     16  C   UNL A   1      31.738  26.600  21.891  1.00  0.00     0.296 C 
ATOM     17  O   UNL A   1      30.078  26.953  23.741  1.00  0.00    -0.364 OA
ATOM     18  N   UNL A   1      31.581  25.157  22.072  1.00  0.00    -0.328 N 
ATOM     19  C   UNL A   1      29.879  25.531  23.772  1.00  0.00     0.225 C 
ATOM     20  C   UNL A   1      32.783  24.367  21.820  1.00  0.00     0.262 C 
ATOM     21  C   UNL A   1      31.220  24.883  23.472  1.00  0.00     0.210 C 
ATOM     22  H   UNL A   1      30.870  24.887  21.392  1.00  0.00     0.348 HD
ATOM     23  C   UNL A   1      32.611  23.136  22.719  1.00  0.00     0.068 C 
ATOM     24  C   UNL A   1      31.314  23.375  23.495  1.00  0.00     0.073 C 
ENDBRANCH  14  15
ENDBRANCH  12  14
ENDBRANCH   8  10
ENDBRANCH   6   8
ENDBRANCH   3   6
ENDBRANCH   1   2
BRANCH   1  25
ATOM     25  C   UNL A   1      35.756  24.113  25.601  1.00  0.00     0.042 C 
BRANCH  25  26
ATOM     26  C   UNL A   1      36.996  23.765  24.786  1.00  0.00     0.118 C 
BRANCH  26  27
ATOM     27  N   UNL A   1      37.798  22.721  25.406  1.00  0.00    -0.352 N 
ATOM     28  C   UNL A   1      38.887  22.819  26.232  1.00  0.00     0.251 C 
ATOM     29  H   UNL A   1      37.514  21.801  25.199  1.00  0.00     0.163 HD
ATOM     30  O   UNL A   1      39.539  21.806  26.486  1.00  0.00    -0.269 OA
BRANCH  28  31
ATOM     31  C   UNL A   1      39.285  24.120  26.815  1.00  0.00     0.039 A 
ATOM     32  C   UNL A   1      40.009  25.017  26.025  1.00  0.00     0.014 A 
ATOM     33  C   UNL A   1      38.999  24.438  28.146  1.00  0.00     0.014 A 
ATOM     34  C   UNL A   1      40.424  26.238  26.563  1.00  0.00     0.010 A 
ATOM     35  C   UNL A   1      39.331  25.692  28.650  1.00  0.00     0.010 A 
ATOM     36  C   UNL A   1      40.077  26.591  27.877  1.00  0.00    -0.014 A 
BRANCH  36  37
ATOM     37  C   UNL A   1      40.537  27.872  28.472  1.00  0.00     0.031 A 
ATOM     38  C   UNL A   1      42.011  28.136  28.648  1.00  0.00     0.074 A 
ATOM     39  C   UNL A   1      39.634  28.773  28.905  1.00  0.00     0.049 A 
ATOM     40  N   UNL A   1      42.606  29.181  29.161  1.00  0.00    -0.248 NA
ATOM     41  C   UNL A   1      42.936  27.072  28.220  1.00  0.00     0.031 C 
ATOM     42  C   UNL A   1      38.182  28.596  28.874  1.00  0.00     0.029 A 
ATOM     43  N   UNL A   1      39.808  30.007  29.477  1.00  0.00    -0.354 N 
ATOM     44  C   UNL A   1      43.966  28.889  29.147  1.00  0.00     0.074 A 
ATOM     45  C   UNL A   1      44.104  27.548  28.624  1.00  0.00     0.031 C 
ATOM     46  C   UNL A   1      37.596  29.683  29.400  1.00  0.00     0.029 A 
ATOM     47  C   UNL A   1      38.628  30.625  29.823  1.00  0.00     0.049 A 
ATOM     48  H   UNL A   1      40.692  30.413  29.627  1.00  0.00     0.167 HD
ATOM     49  C   UNL A   1      45.011  29.676  29.498  1.00  0.00     0.034 A 
ATOM     50  C   UNL A   1      38.406  31.816  30.412  1.00  0.00     0.034 A 
ATOM     51  C   UNL A   1      44.872  31.024  29.978  1.00  0.00     0.049 A 
ATOM     52  C   UNL A   1      39.579  32.702  30.730  1.00  0.00     0.074 A 
ATOM     53  C   UNL A   1      45.865  31.934  30.296  1.00  0.00     0.029 A 
ATOM     54  N   UNL A   1      43.660  31.658  30.209  1.00  0.00    -0.354 N 
ATOM     55  N   UNL A   1      40.859  32.468  30.568  1.00  0.00    -0.248 NA
ATOM     56  C   UNL A   1      39.277  34.037  31.264  1.00  0.00     0.031 C 
ATOM     57  C   UNL A   1      45.252  33.113  30.734  1.00  0.00     0.029 A 
ATOM     58  C   UNL A   1      43.878  32.949  30.659  1.00  0.00     0.049 A 
ATOM     59  H   UNL A   1      42.775  31.250  30.073  1.00  0.00     0.167 HD
ATOM     60  C   UNL A   1      41.513  33.637  30.940  1.00  0.00     0.074 A 
ATOM     61  C   UNL A   1      40.484  34.585  31.317  1.00  0.00     0.031 C 
ATOM     62  C   UNL A   1      42.843  33.899  30.977  1.00  0.00     0.034 A 
BRANCH  49  63
ATOM     63  C   UNL A   1      46.398  29.113  29.314  1.00  0.00     0.023 A 
ATOM     64  C   UNL A   1      46.976  28.346  30.349  1.00  0.00     0.012 A 
ATOM     65  C   UNL A   1      47.115  29.308  28.119  1.00  0.00     0.148 A 
ATOM     66  C   UNL A   1      48.263  27.825  30.217  1.00  0.00     0.002 A 
ATOM     67  C   UNL A   1      48.379  28.742  27.975  1.00  0.00     0.091 A 
ATOM     68  F   UNL A   1      46.562  30.055  27.153  1.00  0.00    -0.205 F 
ATOM     69  C   UNL A   1      48.959  28.016  29.027  1.00  0.00     0.022 A 
BRANCH  67  70
ATOM     70  S   UNL A   1      49.323  28.858  26.451  1.00  0.00     0.127 S 
ATOM     71  O   UNL A   1      50.425  27.935  26.716  1.00  0.00    -0.237 OA
ATOM     72  O   UNL A   1      48.359  28.384  25.455  1.00  0.00    -0.237 OA
ATOM     73  O   UNL A   1      49.694  30.258  26.314  1.00  0.00    -0.744 OA
ENDBRANCH  67  70
ENDBRANCH  49  63
BRANCH  50  74
ATOM     74  C   UNL A   1      37.007  32.267  30.659  1.00  0.00     0.023 A 
ATOM     75  C   UNL A   1      36.457  32.150  31.950  1.00  0.00     0.012 A 
ATOM     76  C   UNL A   1      36.239  32.853  29.634  1.00  0.00     0.148 A 
ATOM     77  C   UNL A   1      35.153  32.575  32.208  1.00  0.00     0.002 A 
ATOM     78  C   UNL A   1      34.961  33.325  29.912  1.00  0.00     0.091 A 
ATOM     79  F   UNL A   1      36.781  32.950  28.412  1.00  0.00    -0.205 F 
ATOM     80  C   UNL A   1      34.410  33.171  31.193  1.00  0.00     0.022 A 
BRANCH  78  81
ATOM     81  S   UNL A   1      33.986  34.227  28.703  1.00  0.00     0.127 S 
ATOM     82  O   UNL A   1      33.719  33.192  27.704  1.00  0.00    -0.237 OA
ATOM     83  O   UNL A   1      32.821  34.628  29.496  1.00  0.00    -0.237 OA
ATOM     84  O   UNL A   1      34.821  35.330  28.263  1.00  0.00    -0.744 OA
ENDBRANCH  78  81
ENDBRANCH  50  74
BRANCH  62  85
ATOM     85  C   UNL A   1      43.269  35.282  31.393  1.00  0.00     0.023 A 
ATOM     86  C   UNL A   1      43.530  35.563  32.749  1.00  0.00     0.012 A 
ATOM     87  C   UNL A   1      43.473  36.287  30.426  1.00  0.00     0.148 A 
ATOM     88  C   UNL A   1      43.949  36.835  33.141  1.00  0.00     0.002 A 
ATOM     89  C   UNL A   1      43.941  37.536  30.819  1.00  0.00     0.091 A 
ATOM     90  F   UNL A   1      43.201  36.007  29.143  1.00  0.00    -0.205 F 
ATOM     91  C   UNL A   1      44.165  37.816  32.175  1.00  0.00     0.022 A 
BRANCH  89  92
ATOM     92  S   UNL A   1      44.339  38.823  29.632  1.00  0.00     0.127 S 
ATOM     93  O   UNL A   1      43.029  39.109  29.049  1.00  0.00    -0.237 OA
ATOM     94  O   UNL A   1      44.870  39.886  30.488  1.00  0.00    -0.237 OA
ATOM     95  O   UNL A   1      45.317  38.240  28.723  1.00  0.00    -0.744 OA
ENDBRANCH  89  92
ENDBRANCH  62  85
ENDBRANCH  36  37
ENDBRANCH  28  31
ENDBRANCH  26  27
ENDBRANCH  25  26
ENDBRANCH   1  25
TORSDOF 17
ENDMDL
