MODEL 1
REMARK VINA RESULT:     -11.8      0.000      0.000
REMARK SMILES O=C(NCCCNC(=O)[C@@H]1C[C@@H](O)CN1C(=O)c1ccccc1)c1ccc(-c2c3nc(c(-c4cccc(S(=O)(=O)[O-])c4F)c4ccc([nH]4)c(-c4cccc(S(=O)(=O)[O-])c4F)c4nc(c(-c5cccc(S(=O)(=O)[O-])c5F)c5ccc2[nH]5)C=C4)C=C3)cc1
REMARK SMILES IDX 4 1 3 2 1 3 2 4 24 6 25 7 86 8 26 9 85 10 27 11 28 12 29 13
REMARK SMILES IDX 79 14 30 15 84 16 78 17 80 18 31 19 83 20 77 21 76 22 32 24
REMARK SMILES IDX 64 25 44 26 63 27 45 28 48 29 62 30 81 31 46 32 47 33 61 35
REMARK SMILES IDX 82 36 49 37 33 38 34 39 42 40 35 41 37 42 43 43 36 44 38 45
REMARK SMILES IDX 39 46 40 47 41 48 65 49 66 50 74 51 67 52 69 53 75 54 68 55
REMARK SMILES IDX 70 56 71 57 72 58 73 59 50 60 51 61 59 62 52 63 54 64 60 65
REMARK SMILES IDX 53 66 55 67 56 68 57 69 58 70 5 71 6 72 7 73 8 74 9 76 10 77
REMARK SMILES IDX 11 78 15 79 12 80 14 81 16 82 17 83 18 84 19 85 23 86 20 87
REMARK SMILES IDX 22 88 21 89 13 90
REMARK H PARENT 3 5 80 23 48 34 7 75 13 91
REMARK Flexibility Score: inf
ROOT
ATOM      1  C   UNL A   1      32.770  32.612  27.207  1.00  0.00     0.118 C 
ENDROOT
BRANCH   1   2
ATOM      2  N   UNL A   1      32.599  33.982  27.662  1.00  0.00    -0.352 N 
ATOM      3  O   UNL A   1      32.762  35.731  29.063  1.00  0.00    -0.269 OA
ATOM      4  C   UNL A   1      33.194  34.634  28.715  1.00  0.00     0.251 C 
ATOM      5  H   UNL A   1      31.963  34.522  27.139  1.00  0.00     0.163 HD
BRANCH   4   6
ATOM      6  C   UNL A   1      34.331  34.014  29.436  1.00  0.00     0.039 A 
ATOM      7  C   UNL A   1      34.111  33.107  30.475  1.00  0.00     0.014 A 
ATOM      8  C   UNL A   1      35.638  34.317  29.040  1.00  0.00     0.014 A 
ATOM      9  C   UNL A   1      35.187  32.609  31.201  1.00  0.00     0.010 A 
ATOM     10  C   UNL A   1      36.721  33.744  29.715  1.00  0.00     0.010 A 
ATOM     11  C   UNL A   1      36.507  32.903  30.817  1.00  0.00    -0.014 A 
BRANCH  11  12
ATOM     12  C   UNL A   1      37.629  32.235  31.523  1.00  0.00     0.031 A 
ATOM     13  C   UNL A   1      38.419  31.128  30.883  1.00  0.00     0.074 A 
ATOM     14  C   UNL A   1      37.941  32.657  32.766  1.00  0.00     0.049 A 
ATOM     15  N   UNL A   1      39.464  30.492  31.350  1.00  0.00    -0.248 NA
ATOM     16  C   UNL A   1      37.983  30.667  29.556  1.00  0.00     0.031 C 
ATOM     17  C   UNL A   1      37.207  33.684  33.512  1.00  0.00     0.029 A 
ATOM     18  N   UNL A   1      38.949  32.287  33.618  1.00  0.00    -0.354 N 
ATOM     19  C   UNL A   1      39.793  29.538  30.394  1.00  0.00     0.074 A 
ATOM     20  C   UNL A   1      38.830  29.671  29.322  1.00  0.00     0.031 C 
ATOM     21  C   UNL A   1      37.806  33.884  34.694  1.00  0.00     0.029 A 
ATOM     22  C   UNL A   1      38.937  32.971  34.812  1.00  0.00     0.049 A 
ATOM     23  H   UNL A   1      39.617  31.599  33.398  1.00  0.00     0.167 HD
ATOM     24  C   UNL A   1      40.817  28.650  30.402  1.00  0.00     0.034 A 
ATOM     25  C   UNL A   1      39.740  32.871  35.888  1.00  0.00     0.034 A 
ATOM     26  C   UNL A   1      41.791  28.547  31.458  1.00  0.00     0.049 A 
ATOM     27  C   UNL A   1      40.886  31.902  35.848  1.00  0.00     0.074 A 
ATOM     28  C   UNL A   1      42.896  27.717  31.528  1.00  0.00     0.029 A 
ATOM     29  N   UNL A   1      41.776  29.290  32.628  1.00  0.00    -0.354 N 
ATOM     30  N   UNL A   1      41.261  31.109  34.874  1.00  0.00    -0.248 NA
ATOM     31  C   UNL A   1      41.736  31.834  37.044  1.00  0.00     0.031 C 
ATOM     32  C   UNL A   1      43.543  27.949  32.747  1.00  0.00     0.029 A 
ATOM     33  C   UNL A   1      42.849  28.935  33.430  1.00  0.00     0.049 A 
ATOM     34  H   UNL A   1      41.103  29.971  32.856  1.00  0.00     0.167 HD
ATOM     35  C   UNL A   1      42.399  30.459  35.333  1.00  0.00     0.074 A 
ATOM     36  C   UNL A   1      42.675  30.982  36.656  1.00  0.00     0.031 C 
ATOM     37  C   UNL A   1      43.135  29.496  34.725  1.00  0.00     0.034 A 
BRANCH  24  38
ATOM     38  C   UNL A   1      40.979  27.747  29.206  1.00  0.00     0.023 A 
ATOM     39  C   UNL A   1      40.257  26.539  29.152  1.00  0.00     0.012 A 
ATOM     40  C   UNL A   1      41.762  28.135  28.101  1.00  0.00     0.148 A 
ATOM     41  C   UNL A   1      40.325  25.719  28.026  1.00  0.00     0.002 A 
ATOM     42  C   UNL A   1      41.798  27.330  26.967  1.00  0.00     0.091 A 
ATOM     43  F   UNL A   1      42.455  29.280  28.179  1.00  0.00    -0.205 F 
ATOM     44  C   UNL A   1      41.086  26.120  26.930  1.00  0.00     0.022 A 
BRANCH  42  45
ATOM     45  S   UNL A   1      42.689  27.789  25.475  1.00  0.00     0.127 S 
ATOM     46  O   UNL A   1      42.536  26.585  24.660  1.00  0.00    -0.237 OA
ATOM     47  O   UNL A   1      41.925  28.945  25.004  1.00  0.00    -0.237 OA
ATOM     48  O   UNL A   1      44.050  28.090  25.896  1.00  0.00    -0.744 OA
ENDBRANCH  42  45
ENDBRANCH  24  38
BRANCH  25  49
ATOM     49  C   UNL A   1      39.510  33.751  37.068  1.00  0.00     0.023 A 
ATOM     50  C   UNL A   1      39.907  35.100  37.017  1.00  0.00     0.012 A 
ATOM     51  C   UNL A   1      38.864  33.268  38.222  1.00  0.00     0.148 A 
ATOM     52  C   UNL A   1      39.689  35.947  38.106  1.00  0.00     0.002 A 
ATOM     53  C   UNL A   1      38.594  34.131  39.277  1.00  0.00     0.091 A 
ATOM     54  F   UNL A   1      38.513  31.975  38.264  1.00  0.00    -0.205 F 
ATOM     55  C   UNL A   1      39.021  35.466  39.229  1.00  0.00     0.022 A 
BRANCH  53  56
ATOM     56  S   UNL A   1      37.605  33.618  40.685  1.00  0.00     0.127 S 
ATOM     57  O   UNL A   1      38.489  32.657  41.339  1.00  0.00    -0.237 OA
ATOM     58  O   UNL A   1      37.419  34.876  41.410  1.00  0.00    -0.237 OA
ATOM     59  O   UNL A   1      36.379  33.077  40.112  1.00  0.00    -0.744 OA
ENDBRANCH  53  56
ENDBRANCH  25  49
BRANCH  37  60
ATOM     60  C   UNL A   1      44.315  28.952  35.485  1.00  0.00     0.023 A 
ATOM     61  C   UNL A   1      45.589  29.519  35.283  1.00  0.00     0.012 A 
ATOM     62  C   UNL A   1      44.158  27.916  36.425  1.00  0.00     0.148 A 
ATOM     63  C   UNL A   1      46.697  29.038  35.980  1.00  0.00     0.002 A 
ATOM     64  C   UNL A   1      45.259  27.472  37.148  1.00  0.00     0.091 A 
ATOM     65  F   UNL A   1      42.942  27.374  36.585  1.00  0.00    -0.205 F 
ATOM     66  C   UNL A   1      46.530  28.022  36.919  1.00  0.00     0.022 A 
BRANCH  64  67
ATOM     67  S   UNL A   1      45.116  26.229  38.437  1.00  0.00     0.127 S 
ATOM     68  O   UNL A   1      46.493  26.140  38.920  1.00  0.00    -0.237 OA
ATOM     69  O   UNL A   1      44.180  26.854  39.372  1.00  0.00    -0.237 OA
ATOM     70  O   UNL A   1      44.601  25.034  37.780  1.00  0.00    -0.744 OA
ENDBRANCH  64  67
ENDBRANCH  37  60
ENDBRANCH  11  12
ENDBRANCH   4   6
ENDBRANCH   1   2
BRANCH   1  71
ATOM     71  C   UNL A   1      31.521  32.069  26.524  1.00  0.00     0.042 C 
BRANCH  71  72
ATOM     72  C   UNL A   1      31.439  30.546  26.531  1.00  0.00     0.117 C 
BRANCH  72  73
ATOM     73  N   UNL A   1      32.464  29.955  25.690  1.00  0.00    -0.354 N 
ATOM     74  C   UNL A   1      32.526  28.688  25.173  1.00  0.00     0.242 C 
ATOM     75  H   UNL A   1      33.218  30.545  25.459  1.00  0.00     0.163 HD
ATOM     76  O   UNL A   1      33.575  28.327  24.635  1.00  0.00    -0.273 OA
BRANCH  74  77
ATOM     77  C   UNL A   1      31.313  27.757  25.359  1.00  0.00     0.177 C 
ATOM     78  C   UNL A   1      31.592  26.744  26.478  1.00  0.00     0.069 C 
ATOM     79  N   UNL A   1      31.040  26.936  24.178  1.00  0.00    -0.324 N 
ATOM     80  C   UNL A   1      30.957  25.456  25.975  1.00  0.00     0.136 C 
ATOM     81  C   UNL A   1      31.203  25.516  24.471  1.00  0.00     0.152 C 
BRANCH  79  82
ATOM     82  C   UNL A   1      30.601  27.516  23.007  1.00  0.00     0.254 C 
ATOM     83  O   UNL A   1      31.077  27.267  21.904  1.00  0.00    -0.269 OA
BRANCH  82  84
ATOM     84  C   UNL A   1      29.510  28.499  23.100  1.00  0.00     0.040 A 
ATOM     85  C   UNL A   1      29.815  29.859  23.165  1.00  0.00     0.014 A 
ATOM     86  C   UNL A   1      28.185  28.056  23.146  1.00  0.00     0.014 A 
ATOM     87  C   UNL A   1      28.777  30.788  23.251  1.00  0.00     0.001 A 
ATOM     88  C   UNL A   1      27.153  28.989  23.224  1.00  0.00     0.001 A 
ATOM     89  C   UNL A   1      27.450  30.353  23.275  1.00  0.00     0.000 A 
ENDBRANCH  82  84
ENDBRANCH  79  82
BRANCH  80  90
ATOM     90  O   UNL A   1      29.554  25.478  26.255  1.00  0.00    -0.391 OA
ATOM     91  H   UNL A   1      29.389  26.025  27.040  1.00  0.00     0.211 HD
ENDBRANCH  80  90
ENDBRANCH  74  77
ENDBRANCH  72  73
ENDBRANCH  71  72
ENDBRANCH   1  71
TORSDOF 16
ENDMDL
MODEL 2
REMARK VINA RESULT:     -11.6      1.524      7.922
REMARK SMILES O=C(NCCCNC(=O)[C@@H]1C[C@@H](O)CN1C(=O)c1ccccc1)c1ccc(-c2c3nc(c(-c4cccc(S(=O)(=O)[O-])c4F)c4ccc([nH]4)c(-c4cccc(S(=O)(=O)[O-])c4F)c4nc(c(-c5cccc(S(=O)(=O)[O-])c5F)c5ccc2[nH]5)C=C4)C=C3)cc1
REMARK SMILES IDX 4 1 3 2 1 3 2 4 24 6 25 7 86 8 26 9 85 10 27 11 28 12 29 13
REMARK SMILES IDX 79 14 30 15 84 16 78 17 80 18 31 19 83 20 77 21 76 22 32 24
REMARK SMILES IDX 64 25 44 26 63 27 45 28 48 29 62 30 81 31 46 32 47 33 61 35
REMARK SMILES IDX 82 36 49 37 33 38 34 39 42 40 35 41 37 42 43 43 36 44 38 45
REMARK SMILES IDX 39 46 40 47 41 48 65 49 66 50 74 51 67 52 69 53 75 54 68 55
REMARK SMILES IDX 70 56 71 57 72 58 73 59 50 60 51 61 59 62 52 63 54 64 60 65
REMARK SMILES IDX 53 66 55 67 56 68 57 69 58 70 5 71 6 72 7 73 8 74 9 76 10 77
REMARK SMILES IDX 11 78 15 79 12 80 14 81 16 82 17 83 18 84 19 85 23 86 20 87
REMARK SMILES IDX 22 88 21 89 13 90
REMARK H PARENT 3 5 80 23 48 34 7 75 13 91
REMARK Flexibility Score: inf
ROOT
ATOM      1  C   UNL A   1      32.687  32.535  26.841  1.00  0.00     0.118 C 
ENDROOT
BRANCH   1   2
ATOM      2  N   UNL A   1      32.545  33.861  27.422  1.00  0.00    -0.352 N 
ATOM      3  O   UNL A   1      32.794  35.484  28.956  1.00  0.00    -0.269 OA
ATOM      4  C   UNL A   1      33.202  34.422  28.490  1.00  0.00     0.251 C 
ATOM      5  H   UNL A   1      31.880  34.442  26.986  1.00  0.00     0.163 HD
BRANCH   4   6
ATOM      6  C   UNL A   1      34.378  33.746  29.087  1.00  0.00     0.039 A 
ATOM      7  C   UNL A   1      35.672  34.209  28.839  1.00  0.00     0.014 A 
ATOM      8  C   UNL A   1      34.180  32.654  29.939  1.00  0.00     0.014 A 
ATOM      9  C   UNL A   1      36.767  33.505  29.329  1.00  0.00     0.010 A 
ATOM     10  C   UNL A   1      35.281  32.002  30.505  1.00  0.00     0.010 A 
ATOM     11  C   UNL A   1      36.585  32.407  30.186  1.00  0.00    -0.014 A 
BRANCH  11  12
ATOM     12  C   UNL A   1      37.776  31.774  30.809  1.00  0.00     0.031 A 
ATOM     13  C   UNL A   1      38.177  32.069  32.227  1.00  0.00     0.074 A 
ATOM     14  C   UNL A   1      38.495  30.904  30.069  1.00  0.00     0.049 A 
ATOM     15  N   UNL A   1      39.154  31.547  32.927  1.00  0.00    -0.248 NA
ATOM     16  C   UNL A   1      37.394  33.079  32.956  1.00  0.00     0.031 C 
ATOM     17  C   UNL A   1      38.236  30.585  28.662  1.00  0.00     0.029 A 
ATOM     18  N   UNL A   1      39.579  30.129  30.390  1.00  0.00    -0.354 N 
ATOM     19  C   UNL A   1      39.124  32.183  34.163  1.00  0.00     0.074 A 
ATOM     20  C   UNL A   1      38.037  33.139  34.116  1.00  0.00     0.031 C 
ATOM     21  C   UNL A   1      39.113  29.659  28.251  1.00  0.00     0.029 A 
ATOM     22  C   UNL A   1      40.025  29.352  29.346  1.00  0.00     0.049 A 
ATOM     23  H   UNL A   1      39.998  30.128  31.280  1.00  0.00     0.167 HD
ATOM     24  C   UNL A   1      39.916  31.973  35.242  1.00  0.00     0.034 A 
ATOM     25  C   UNL A   1      41.059  28.492  29.272  1.00  0.00     0.034 A 
ATOM     26  C   UNL A   1      40.974  30.997  35.293  1.00  0.00     0.049 A 
ATOM     27  C   UNL A   1      41.894  28.256  30.497  1.00  0.00     0.074 A 
ATOM     28  C   UNL A   1      41.793  30.673  36.360  1.00  0.00     0.029 A 
ATOM     29  N   UNL A   1      41.364  30.193  34.232  1.00  0.00    -0.354 N 
ATOM     30  N   UNL A   1      41.758  28.767  31.697  1.00  0.00    -0.248 NA
ATOM     31  C   UNL A   1      43.006  27.306  30.367  1.00  0.00     0.031 C 
ATOM     32  C   UNL A   1      42.687  29.681  35.942  1.00  0.00     0.029 A 
ATOM     33  C   UNL A   1      42.415  29.377  34.618  1.00  0.00     0.049 A 
ATOM     34  H   UNL A   1      40.954  30.200  33.338  1.00  0.00     0.167 HD
ATOM     35  C   UNL A   1      42.757  28.189  32.469  1.00  0.00     0.074 A 
ATOM     36  C   UNL A   1      43.463  27.259  31.611  1.00  0.00     0.031 C 
ATOM     37  C   UNL A   1      43.079  28.425  33.765  1.00  0.00     0.034 A 
BRANCH  24  38
ATOM     38  C   UNL A   1      39.640  32.775  36.488  1.00  0.00     0.023 A 
ATOM     39  C   UNL A   1      40.253  34.033  36.649  1.00  0.00     0.012 A 
ATOM     40  C   UNL A   1      38.706  32.333  37.448  1.00  0.00     0.148 A 
ATOM     41  C   UNL A   1      39.958  34.832  37.753  1.00  0.00     0.002 A 
ATOM     42  C   UNL A   1      38.391  33.151  38.528  1.00  0.00     0.091 A 
ATOM     43  F   UNL A   1      38.147  31.126  37.286  1.00  0.00    -0.205 F 
ATOM     44  C   UNL A   1      39.020  34.396  38.685  1.00  0.00     0.022 A 
BRANCH  42  45
ATOM     45  S   UNL A   1      37.144  32.715  39.747  1.00  0.00     0.127 S 
ATOM     46  O   UNL A   1      35.934  32.674  38.926  1.00  0.00    -0.237 OA
ATOM     47  O   UNL A   1      37.610  31.409  40.211  1.00  0.00    -0.237 OA
ATOM     48  O   UNL A   1      37.181  33.767  40.753  1.00  0.00    -0.744 OA
ENDBRANCH  42  45
ENDBRANCH  24  38
BRANCH  25  49
ATOM     49  C   UNL A   1      41.323  27.759  28.002  1.00  0.00     0.023 A 
ATOM     50  C   UNL A   1      41.846  28.453  26.895  1.00  0.00     0.012 A 
ATOM     51  C   UNL A   1      41.098  26.373  27.900  1.00  0.00     0.148 A 
ATOM     52  C   UNL A   1      42.115  27.784  25.700  1.00  0.00     0.002 A 
ATOM     53  C   UNL A   1      41.425  25.703  26.727  1.00  0.00     0.091 A 
ATOM     54  F   UNL A   1      40.578  25.731  28.956  1.00  0.00    -0.205 F 
ATOM     55  C   UNL A   1      41.918  26.408  25.620  1.00  0.00     0.022 A 
BRANCH  53  56
ATOM     56  S   UNL A   1      41.340  23.912  26.611  1.00  0.00     0.127 S 
ATOM     57  O   UNL A   1      39.905  23.688  26.468  1.00  0.00    -0.237 OA
ATOM     58  O   UNL A   1      42.128  23.642  25.407  1.00  0.00    -0.237 OA
ATOM     59  O   UNL A   1      41.949  23.422  27.840  1.00  0.00    -0.744 OA
ENDBRANCH  53  56
ENDBRANCH  25  49
BRANCH  37  60
ATOM     60  C   UNL A   1      44.242  27.658  34.334  1.00  0.00     0.023 A 
ATOM     61  C   UNL A   1      45.546  28.174  34.194  1.00  0.00     0.012 A 
ATOM     62  C   UNL A   1      44.044  26.457  35.041  1.00  0.00     0.148 A 
ATOM     63  C   UNL A   1      46.640  27.487  34.718  1.00  0.00     0.002 A 
ATOM     64  C   UNL A   1      45.135  25.801  35.599  1.00  0.00     0.091 A 
ATOM     65  F   UNL A   1      42.798  25.970  35.143  1.00  0.00    -0.205 F 
ATOM     66  C   UNL A   1      46.433  26.307  35.429  1.00  0.00     0.022 A 
BRANCH  64  67
ATOM     67  S   UNL A   1      44.948  24.323  36.602  1.00  0.00     0.127 S 
ATOM     68  O   UNL A   1      44.134  24.816  37.712  1.00  0.00    -0.237 OA
ATOM     69  O   UNL A   1      44.251  23.413  35.693  1.00  0.00    -0.237 OA
ATOM     70  O   UNL A   1      46.300  23.905  36.950  1.00  0.00    -0.744 OA
ENDBRANCH  64  67
ENDBRANCH  37  60
ENDBRANCH  11  12
ENDBRANCH   4   6
ENDBRANCH   1   2
BRANCH   1  71
ATOM     71  C   UNL A   1      31.380  31.753  26.862  1.00  0.00     0.042 C 
BRANCH  71  72
ATOM     72  C   UNL A   1      31.215  30.816  25.670  1.00  0.00     0.117 C 
BRANCH  72  73
ATOM     73  N   UNL A   1      32.438  30.084  25.395  1.00  0.00    -0.354 N 
ATOM     74  C   UNL A   1      32.632  28.730  25.322  1.00  0.00     0.242 C 
ATOM     75  H   UNL A   1      33.239  30.637  25.238  1.00  0.00     0.163 HD
ATOM     76  O   UNL A   1      33.789  28.308  25.260  1.00  0.00    -0.273 OA
BRANCH  74  77
ATOM     77  C   UNL A   1      31.402  27.806  25.400  1.00  0.00     0.177 C 
ATOM     78  C   UNL A   1      31.529  26.860  26.604  1.00  0.00     0.069 C 
ATOM     79  N   UNL A   1      31.285  26.916  24.243  1.00  0.00    -0.324 N 
ATOM     80  C   UNL A   1      30.962  25.542  26.097  1.00  0.00     0.136 C 
ATOM     81  C   UNL A   1      31.404  25.516  24.637  1.00  0.00     0.152 C 
BRANCH  79  82
ATOM     82  C   UNL A   1      31.006  27.425  22.993  1.00  0.00     0.254 C 
ATOM     83  O   UNL A   1      31.681  27.191  21.996  1.00  0.00    -0.269 OA
BRANCH  82  84
ATOM     84  C   UNL A   1      29.838  28.312  22.863  1.00  0.00     0.040 A 
ATOM     85  C   UNL A   1      28.578  27.846  23.238  1.00  0.00     0.014 A 
ATOM     86  C   UNL A   1      30.004  29.598  22.342  1.00  0.00     0.014 A 
ATOM     87  C   UNL A   1      27.473  28.690  23.115  1.00  0.00     0.001 A 
ATOM     88  C   UNL A   1      28.899  30.439  22.228  1.00  0.00     0.001 A 
ATOM     89  C   UNL A   1      27.636  29.985  22.616  1.00  0.00     0.000 A 
ENDBRANCH  82  84
ENDBRANCH  79  82
BRANCH  80  90
ATOM     90  O   UNL A   1      29.535  25.574  26.188  1.00  0.00    -0.391 OA
ATOM     91  H   UNL A   1      29.266  26.234  26.846  1.00  0.00     0.211 HD
ENDBRANCH  80  90
ENDBRANCH  74  77
ENDBRANCH  72  73
ENDBRANCH  71  72
ENDBRANCH   1  71
TORSDOF 16
ENDMDL
MODEL 3
REMARK VINA RESULT:     -11.6      6.458      9.693
REMARK SMILES O=C(NCCCNC(=O)[C@@H]1C[C@@H](O)CN1C(=O)c1ccccc1)c1ccc(-c2c3nc(c(-c4cccc(S(=O)(=O)[O-])c4F)c4ccc([nH]4)c(-c4cccc(S(=O)(=O)[O-])c4F)c4nc(c(-c5cccc(S(=O)(=O)[O-])c5F)c5ccc2[nH]5)C=C4)C=C3)cc1
REMARK SMILES IDX 4 1 3 2 1 3 2 4 24 6 25 7 86 8 26 9 85 10 27 11 28 12 29 13
REMARK SMILES IDX 79 14 30 15 84 16 78 17 80 18 31 19 83 20 77 21 76 22 32 24
REMARK SMILES IDX 64 25 44 26 63 27 45 28 48 29 62 30 81 31 46 32 47 33 61 35
REMARK SMILES IDX 82 36 49 37 33 38 34 39 42 40 35 41 37 42 43 43 36 44 38 45
REMARK SMILES IDX 39 46 40 47 41 48 65 49 66 50 74 51 67 52 69 53 75 54 68 55
REMARK SMILES IDX 70 56 71 57 72 58 73 59 50 60 51 61 59 62 52 63 54 64 60 65
REMARK SMILES IDX 53 66 55 67 56 68 57 69 58 70 5 71 6 72 7 73 8 74 9 76 10 77
REMARK SMILES IDX 11 78 15 79 12 80 14 81 16 82 17 83 18 84 19 85 23 86 20 87
REMARK SMILES IDX 22 88 21 89 13 90
REMARK H PARENT 3 5 80 23 48 34 7 75 13 91
REMARK Flexibility Score: inf
ROOT
ATOM      1  C   UNL A   1      38.538  21.337  25.673  1.00  0.00     0.118 C 
ENDROOT
BRANCH   1   2
ATOM      2  N   UNL A   1      39.499  20.416  26.257  1.00  0.00    -0.352 N 
ATOM      3  O   UNL A   1      41.474  19.742  27.092  1.00  0.00    -0.269 OA
ATOM      4  C   UNL A   1      40.714  20.676  26.844  1.00  0.00     0.251 C 
ATOM      5  H   UNL A   1      39.242  19.466  26.228  1.00  0.00     0.163 HD
BRANCH   4   6
ATOM      6  C   UNL A   1      41.113  22.069  27.157  1.00  0.00     0.039 A 
ATOM      7  C   UNL A   1      41.769  22.374  28.351  1.00  0.00     0.014 A 
ATOM      8  C   UNL A   1      40.859  23.079  26.223  1.00  0.00     0.014 A 
ATOM      9  C   UNL A   1      42.050  23.698  28.670  1.00  0.00     0.010 A 
ATOM     10  C   UNL A   1      41.225  24.399  26.507  1.00  0.00     0.010 A 
ATOM     11  C   UNL A   1      41.802  24.725  27.743  1.00  0.00    -0.014 A 
BRANCH  11  12
ATOM     12  C   UNL A   1      42.252  26.105  28.059  1.00  0.00     0.031 A 
ATOM     13  C   UNL A   1      43.625  26.593  27.691  1.00  0.00     0.074 A 
ATOM     14  C   UNL A   1      41.384  26.931  28.681  1.00  0.00     0.049 A 
ATOM     15  N   UNL A   1      44.138  27.788  27.845  1.00  0.00    -0.248 NA
ATOM     16  C   UNL A   1      44.546  25.622  27.079  1.00  0.00     0.031 C 
ATOM     17  C   UNL A   1      40.045  26.550  29.140  1.00  0.00     0.029 A 
ATOM     18  N   UNL A   1      41.490  28.252  29.029  1.00  0.00    -0.354 N 
ATOM     19  C   UNL A   1      45.445  27.708  27.380  1.00  0.00     0.074 A 
ATOM     20  C   UNL A   1      45.653  26.342  26.947  1.00  0.00     0.031 C 
ATOM     21  C   UNL A   1      39.443  27.619  29.679  1.00  0.00     0.029 A 
ATOM     22  C   UNL A   1      40.365  28.748  29.648  1.00  0.00     0.049 A 
ATOM     23  H   UNL A   1      42.292  28.795  28.854  1.00  0.00     0.167 HD
ATOM     24  C   UNL A   1      46.377  28.689  27.304  1.00  0.00     0.034 A 
ATOM     25  C   UNL A   1      40.104  29.972  30.144  1.00  0.00     0.034 A 
ATOM     26  C   UNL A   1      46.153  30.053  27.706  1.00  0.00     0.049 A 
ATOM     27  C   UNL A   1      41.146  31.045  30.009  1.00  0.00     0.074 A 
ATOM     28  C   UNL A   1      47.018  31.130  27.613  1.00  0.00     0.029 A 
ATOM     29  N   UNL A   1      44.985  30.529  28.282  1.00  0.00    -0.354 N 
ATOM     30  N   UNL A   1      42.325  30.981  29.439  1.00  0.00    -0.248 NA
ATOM     31  C   UNL A   1      40.812  32.364  30.561  1.00  0.00     0.031 C 
ATOM     32  C   UNL A   1      46.377  32.254  28.145  1.00  0.00     0.029 A 
ATOM     33  C   UNL A   1      45.108  31.882  28.555  1.00  0.00     0.049 A 
ATOM     34  H   UNL A   1      44.185  29.986  28.468  1.00  0.00     0.167 HD
ATOM     35  C   UNL A   1      42.867  32.255  29.549  1.00  0.00     0.074 A 
ATOM     36  C   UNL A   1      41.871  33.078  30.204  1.00  0.00     0.031 C 
ATOM     37  C   UNL A   1      44.090  32.698  29.167  1.00  0.00     0.034 A 
BRANCH  24  38
ATOM     38  C   UNL A   1      47.720  28.343  26.710  1.00  0.00     0.023 A 
ATOM     39  C   UNL A   1      48.833  28.199  27.562  1.00  0.00     0.012 A 
ATOM     40  C   UNL A   1      47.860  28.068  25.335  1.00  0.00     0.148 A 
ATOM     41  C   UNL A   1      50.070  27.805  27.053  1.00  0.00     0.002 A 
ATOM     42  C   UNL A   1      49.088  27.642  24.841  1.00  0.00     0.091 A 
ATOM     43  F   UNL A   1      46.794  28.229  24.540  1.00  0.00    -0.205 F 
ATOM     44  C   UNL A   1      50.195  27.516  25.697  1.00  0.00     0.022 A 
BRANCH  42  45
ATOM     45  S   UNL A   1      49.337  27.175  23.123  1.00  0.00     0.127 S 
ATOM     46  O   UNL A   1      48.410  26.053  22.987  1.00  0.00    -0.237 OA
ATOM     47  O   UNL A   1      48.935  28.388  22.413  1.00  0.00    -0.237 OA
ATOM     48  O   UNL A   1      50.749  26.838  22.999  1.00  0.00    -0.744 OA
ENDBRANCH  42  45
ENDBRANCH  24  38
BRANCH  25  49
ATOM     49  C   UNL A   1      38.780  30.252  30.766  1.00  0.00     0.023 A 
ATOM     50  C   UNL A   1      38.540  29.858  32.095  1.00  0.00     0.012 A 
ATOM     51  C   UNL A   1      37.776  30.943  30.063  1.00  0.00     0.148 A 
ATOM     52  C   UNL A   1      37.312  30.122  32.704  1.00  0.00     0.002 A 
ATOM     53  C   UNL A   1      36.578  31.258  30.695  1.00  0.00     0.091 A 
ATOM     54  F   UNL A   1      38.012  31.293  28.790  1.00  0.00    -0.205 F 
ATOM     55  C   UNL A   1      36.337  30.833  32.010  1.00  0.00     0.022 A 
BRANCH  53  56
ATOM     56  S   UNL A   1      35.345  32.302  29.911  1.00  0.00     0.127 S 
ATOM     57  O   UNL A   1      34.395  32.513  30.999  1.00  0.00    -0.237 OA
ATOM     58  O   UNL A   1      36.127  33.482  29.540  1.00  0.00    -0.237 OA
ATOM     59  O   UNL A   1      34.860  31.530  28.775  1.00  0.00    -0.744 OA
ENDBRANCH  53  56
ENDBRANCH  25  49
BRANCH  37  60
ATOM     60  C   UNL A   1      44.414  34.141  29.442  1.00  0.00     0.023 A 
ATOM     61  C   UNL A   1      44.909  34.511  30.709  1.00  0.00     0.012 A 
ATOM     62  C   UNL A   1      44.273  35.121  28.440  1.00  0.00     0.148 A 
ATOM     63  C   UNL A   1      45.223  35.840  30.986  1.00  0.00     0.002 A 
ATOM     64  C   UNL A   1      44.631  36.436  28.711  1.00  0.00     0.091 A 
ATOM     65  F   UNL A   1      43.779  34.753  27.248  1.00  0.00    -0.205 F 
ATOM     66  C   UNL A   1      45.094  36.800  29.984  1.00  0.00     0.022 A 
BRANCH  64  67
ATOM     67  S   UNL A   1      44.577  37.718  27.453  1.00  0.00     0.127 S 
ATOM     68  O   UNL A   1      45.646  37.293  26.549  1.00  0.00    -0.237 OA
ATOM     69  O   UNL A   1      43.226  37.569  26.911  1.00  0.00    -0.237 OA
ATOM     70  O   UNL A   1      44.808  38.973  28.154  1.00  0.00    -0.744 OA
ENDBRANCH  64  67
ENDBRANCH  37  60
ENDBRANCH  11  12
ENDBRANCH   4   6
ENDBRANCH   1   2
BRANCH   1  71
ATOM     71  C   UNL A   1      37.664  20.669  24.620  1.00  0.00     0.042 C 
BRANCH  71  72
ATOM     72  C   UNL A   1      36.218  20.474  25.065  1.00  0.00     0.117 C 
BRANCH  72  73
ATOM     73  N   UNL A   1      35.725  21.631  25.790  1.00  0.00    -0.354 N 
ATOM     74  C   UNL A   1      34.840  22.591  25.376  1.00  0.00     0.242 C 
ATOM     75  H   UNL A   1      36.073  21.740  26.705  1.00  0.00     0.163 HD
ATOM     76  O   UNL A   1      34.694  23.594  26.079  1.00  0.00    -0.273 OA
BRANCH  74  77
ATOM     77  C   UNL A   1      34.135  22.406  24.020  1.00  0.00     0.177 C 
ATOM     78  C   UNL A   1      34.334  23.653  23.146  1.00  0.00     0.069 C 
ATOM     79  N   UNL A   1      32.682  22.274  24.148  1.00  0.00    -0.324 N 
ATOM     80  C   UNL A   1      33.000  23.821  22.435  1.00  0.00     0.136 C 
ATOM     81  C   UNL A   1      31.989  23.376  23.488  1.00  0.00     0.152 C 
BRANCH  79  82
ATOM     82  C   UNL A   1      32.129  21.165  24.752  1.00  0.00     0.254 C 
ATOM     83  O   UNL A   1      31.366  21.222  25.710  1.00  0.00    -0.269 OA
BRANCH  82  84
ATOM     84  C   UNL A   1      32.496  19.843  24.219  1.00  0.00     0.040 A 
ATOM     85  C   UNL A   1      33.228  18.961  25.016  1.00  0.00     0.014 A 
ATOM     86  C   UNL A   1      32.128  19.499  22.916  1.00  0.00     0.014 A 
ATOM     87  C   UNL A   1      33.573  17.708  24.507  1.00  0.00     0.001 A 
ATOM     88  C   UNL A   1      32.468  18.243  22.416  1.00  0.00     0.001 A 
ATOM     89  C   UNL A   1      33.188  17.349  23.213  1.00  0.00     0.000 A 
ENDBRANCH  82  84
ENDBRANCH  79  82
BRANCH  80  90
ATOM     90  O   UNL A   1      32.955  22.952  21.299  1.00  0.00    -0.391 OA
ATOM     91  H   UNL A   1      32.325  23.300  20.649  1.00  0.00     0.211 HD
ENDBRANCH  80  90
ENDBRANCH  74  77
ENDBRANCH  72  73
ENDBRANCH  71  72
ENDBRANCH   1  71
TORSDOF 16
ENDMDL
