MODEL 1
REMARK VINA RESULT:     -11.3      0.000      0.000
REMARK SMILES CCCc1cc(OC(F)(F)F)cc2c1O[C@@H](C(F)(F)F)C(C(=O)NCCCNC(=O)c1ccc(-c3c4nc(c(-c5cccc(S(=O)(=O)[O-])c5F)c5ccc([nH]5)c(-c5cccc(S(=O)(=O)[O-])c5F)c5nc(c(-c6cccc(S(=O)(=O)[O-])c6F)c6ccc3[nH]6)C=C5)C=C4)cc1)=C2
REMARK SMILES IDX 26 1 25 2 24 3 22 4 23 5 21 7 4 8 5 9 14 10 6 11 13 12 15 13
REMARK SMILES IDX 12 14 94 15 16 16 3 17 2 18 1 19 7 20 8 21 9 22 10 23 11 24
REMARK SMILES IDX 17 25 18 26 19 27 20 28 27 29 28 30 29 31 30 33 31 34 32 35
REMARK SMILES IDX 93 36 33 37 92 38 34 39 35 40 36 41 86 42 37 43 91 44 85 45
REMARK SMILES IDX 87 46 38 47 90 48 84 49 83 50 39 52 71 53 51 54 70 55 52 56
REMARK SMILES IDX 55 57 69 58 88 59 53 60 54 61 68 63 89 64 56 65 40 66 41 67
REMARK SMILES IDX 49 68 42 69 44 70 50 71 43 72 45 73 46 74 47 75 48 76 72 77
REMARK SMILES IDX 73 78 81 79 74 80 76 81 82 82 75 83 77 84 78 85 79 86 80 87
REMARK SMILES IDX 57 88 58 89 66 90 59 91 61 92 67 93 60 94 62 95 63 96 64 97
REMARK SMILES IDX 65 98
REMARK H PARENT 24 6 28 32 87 51 55 62
REMARK Flexibility Score: inf
ROOT
ATOM      1  C   UNL A   1      36.733  23.432  23.989  1.00  0.00     0.042 C 
ENDROOT
BRANCH   1   2
ATOM      2  C   UNL A   1      35.362  22.878  23.589  1.00  0.00     0.118 C 
BRANCH   2   3
ATOM      3  N   UNL A   1      34.639  22.389  24.754  1.00  0.00    -0.352 N 
ATOM      4  C   UNL A   1      33.684  22.938  25.548  1.00  0.00     0.251 C 
ATOM      5  O   UNL A   1      33.324  22.303  26.537  1.00  0.00    -0.270 OA
ATOM      6  H   UNL A   1      34.894  21.476  25.020  1.00  0.00     0.163 HD
BRANCH   4   7
ATOM      7  C   UNL A   1      33.010  24.224  25.233  1.00  0.00     0.067 C 
ATOM      8  C   UNL A   1      31.091  27.751  23.950  1.00  0.00    -0.002 A 
ATOM      9  C   UNL A   1      31.529  28.976  24.483  1.00  0.00     0.054 A 
ATOM     10  C   UNL A   1      31.723  26.572  24.387  1.00  0.00     0.131 A 
ATOM     11  C   UNL A   1      32.609  29.040  25.367  1.00  0.00     0.130 A 
ATOM     12  C   UNL A   1      32.772  26.622  25.306  1.00  0.00     0.021 A 
ATOM     13  O   UNL A   1      31.323  25.391  23.823  1.00  0.00    -0.475 OA
ATOM     14  C   UNL A   1      33.214  27.857  25.788  1.00  0.00     0.058 A 
ATOM     15  C   UNL A   1      33.462  25.401  25.687  1.00  0.00     0.025 C 
ATOM     16  C   UNL A   1      31.669  24.151  24.511  1.00  0.00     0.314 C 
BRANCH   8  17
ATOM     17  C   UNL A   1      29.956  27.652  22.948  1.00  0.00     0.039 C 
BRANCH  17  18
ATOM     18  C   UNL A   1      28.512  27.629  23.471  1.00  0.00     0.001 C 
ATOM     19  C   UNL A   1      27.692  28.843  23.049  1.00  0.00     0.004 C 
ENDBRANCH  17  18
ENDBRANCH   8  17
BRANCH  11  20
ATOM     20  O   UNL A   1      33.169  30.175  25.879  1.00  0.00    -0.406 OA
BRANCH  20  21
ATOM     21  C   UNL A   1      32.606  30.715  27.062  1.00  0.00     0.573 C 
ATOM     22  F   UNL A   1      31.970  31.883  26.817  1.00  0.00    -0.132 F 
ATOM     23  F   UNL A   1      31.738  29.846  27.623  1.00  0.00    -0.132 F 
ATOM     24  F   UNL A   1      33.595  30.960  27.949  1.00  0.00    -0.132 F 
ENDBRANCH  20  21
ENDBRANCH  11  20
BRANCH  16  25
ATOM     25  C   UNL A   1      31.481  23.009  23.487  1.00  0.00     0.429 C 
ATOM     26  F   UNL A   1      30.308  23.082  22.819  1.00  0.00    -0.167 F 
ATOM     27  F   UNL A   1      32.442  23.067  22.522  1.00  0.00    -0.167 F 
ATOM     28  F   UNL A   1      31.576  21.783  24.051  1.00  0.00    -0.167 F 
ENDBRANCH  16  25
ENDBRANCH   4   7
ENDBRANCH   2   3
ENDBRANCH   1   2
BRANCH   1  29
ATOM     29  C   UNL A   1      36.944  23.505  25.499  1.00  0.00     0.118 C 
BRANCH  29  30
ATOM     30  N   UNL A   1      37.915  22.522  25.957  1.00  0.00    -0.352 N 
ATOM     31  C   UNL A   1      39.163  22.706  26.497  1.00  0.00     0.251 C 
ATOM     32  H   UNL A   1      37.633  21.584  25.866  1.00  0.00     0.163 HD
ATOM     33  O   UNL A   1      39.919  21.742  26.596  1.00  0.00    -0.269 OA
BRANCH  31  34
ATOM     34  C   UNL A   1      39.603  24.043  26.956  1.00  0.00     0.039 A 
ATOM     35  C   UNL A   1      40.160  24.924  26.024  1.00  0.00     0.014 A 
ATOM     36  C   UNL A   1      39.524  24.412  28.301  1.00  0.00     0.014 A 
ATOM     37  C   UNL A   1      40.596  26.187  26.433  1.00  0.00     0.010 A 
ATOM     38  C   UNL A   1      39.896  25.695  28.696  1.00  0.00     0.010 A 
ATOM     39  C   UNL A   1      40.446  26.593  27.769  1.00  0.00    -0.014 A 
BRANCH  39  40
ATOM     40  C   UNL A   1      40.862  27.947  28.216  1.00  0.00     0.031 A 
ATOM     41  C   UNL A   1      42.323  28.305  28.295  1.00  0.00     0.074 A 
ATOM     42  C   UNL A   1      39.927  28.829  28.625  1.00  0.00     0.049 A 
ATOM     43  N   UNL A   1      42.881  29.406  28.726  1.00  0.00    -0.248 NA
ATOM     44  C   UNL A   1      43.285  27.282  27.851  1.00  0.00     0.031 C 
ATOM     45  C   UNL A   1      38.485  28.577  28.656  1.00  0.00     0.029 A 
ATOM     46  N   UNL A   1      40.051  30.104  29.116  1.00  0.00    -0.354 N 
ATOM     47  C   UNL A   1      44.253  29.201  28.634  1.00  0.00     0.074 A 
ATOM     48  C   UNL A   1      44.445  27.855  28.140  1.00  0.00     0.031 C 
ATOM     49  C   UNL A   1      37.859  29.664  29.136  1.00  0.00     0.029 A 
ATOM     50  C   UNL A   1      38.853  30.675  29.476  1.00  0.00     0.049 A 
ATOM     51  H   UNL A   1      40.916  30.566  29.204  1.00  0.00     0.167 HD
ATOM     52  C   UNL A   1      45.262  30.065  28.902  1.00  0.00     0.034 A 
ATOM     53  C   UNL A   1      38.587  31.878  30.023  1.00  0.00     0.034 A 
ATOM     54  C   UNL A   1      45.065  31.416  29.354  1.00  0.00     0.049 A 
ATOM     55  C   UNL A   1      39.727  32.824  30.291  1.00  0.00     0.074 A 
ATOM     56  C   UNL A   1      46.018  32.390  29.598  1.00  0.00     0.029 A 
ATOM     57  N   UNL A   1      43.832  31.987  29.628  1.00  0.00    -0.354 N 
ATOM     58  N   UNL A   1      41.008  32.660  30.066  1.00  0.00    -0.248 NA
ATOM     59  C   UNL A   1      39.381  34.137  30.855  1.00  0.00     0.031 C 
ATOM     60  C   UNL A   1      45.360  33.546  30.030  1.00  0.00     0.029 A 
ATOM     61  C   UNL A   1      43.998  33.299  30.036  1.00  0.00     0.049 A 
ATOM     62  H   UNL A   1      42.966  31.527  29.544  1.00  0.00     0.167 HD
ATOM     63  C   UNL A   1      41.614  33.860  30.420  1.00  0.00     0.074 A 
ATOM     64  C   UNL A   1      40.558  34.750  30.854  1.00  0.00     0.031 C 
ATOM     65  C   UNL A   1      42.928  34.191  30.403  1.00  0.00     0.034 A 
BRANCH  52  66
ATOM     66  C   UNL A   1      46.671  29.597  28.646  1.00  0.00     0.023 A 
ATOM     67  C   UNL A   1      47.267  29.859  27.395  1.00  0.00     0.012 A 
ATOM     68  C   UNL A   1      47.429  28.963  29.650  1.00  0.00     0.148 A 
ATOM     69  C   UNL A   1      48.580  29.469  27.135  1.00  0.00     0.002 A 
ATOM     70  C   UNL A   1      48.751  28.615  29.399  1.00  0.00     0.091 A 
ATOM     71  F   UNL A   1      46.841  28.706  30.828  1.00  0.00    -0.205 F 
ATOM     72  C   UNL A   1      49.324  28.857  28.139  1.00  0.00     0.022 A 
BRANCH  70  73
ATOM     73  S   UNL A   1      49.822  27.890  30.646  1.00  0.00     0.127 S 
ATOM     74  O   UNL A   1      49.234  26.562  30.804  1.00  0.00    -0.237 OA
ATOM     75  O   UNL A   1      51.125  27.906  29.981  1.00  0.00    -0.237 OA
ATOM     76  O   UNL A   1      49.725  28.758  31.813  1.00  0.00    -0.744 OA
ENDBRANCH  70  73
ENDBRANCH  52  66
BRANCH  53  77
ATOM     77  C   UNL A   1      37.179  32.289  30.287  1.00  0.00     0.023 A 
ATOM     78  C   UNL A   1      36.586  31.961  31.522  1.00  0.00     0.012 A 
ATOM     79  C   UNL A   1      36.427  33.005  29.336  1.00  0.00     0.148 A 
ATOM     80  C   UNL A   1      35.260  32.302  31.790  1.00  0.00     0.002 A 
ATOM     81  C   UNL A   1      35.123  33.391  29.630  1.00  0.00     0.091 A 
ATOM     82  F   UNL A   1      37.000  33.297  28.160  1.00  0.00    -0.205 F 
ATOM     83  C   UNL A   1      34.531  33.024  30.849  1.00  0.00     0.022 A 
BRANCH  81  84
ATOM     84  S   UNL A   1      34.163  34.435  28.529  1.00  0.00     0.127 S 
ATOM     85  O   UNL A   1      32.823  34.314  29.092  1.00  0.00    -0.237 OA
ATOM     86  O   UNL A   1      34.796  35.742  28.715  1.00  0.00    -0.237 OA
ATOM     87  O   UNL A   1      34.351  33.868  27.198  1.00  0.00    -0.744 OA
ENDBRANCH  81  84
ENDBRANCH  53  77
BRANCH  65  88
ATOM     88  C   UNL A   1      43.301  35.588  30.824  1.00  0.00     0.023 A 
ATOM     89  C   UNL A   1      43.628  35.851  32.169  1.00  0.00     0.012 A 
ATOM     90  C   UNL A   1      43.395  36.624  29.875  1.00  0.00     0.148 A 
ATOM     91  C   UNL A   1      44.011  37.130  32.568  1.00  0.00     0.002 A 
ATOM     92  C   UNL A   1      43.824  37.885  30.270  1.00  0.00     0.091 A 
ATOM     93  F   UNL A   1      43.060  36.359  28.603  1.00  0.00    -0.205 F 
ATOM     94  C   UNL A   1      44.120  38.142  31.618  1.00  0.00     0.022 A 
BRANCH  92  95
ATOM     95  S   UNL A   1      44.085  39.223  29.101  1.00  0.00     0.127 S 
ATOM     96  O   UNL A   1      42.713  39.557  28.719  1.00  0.00    -0.237 OA
ATOM     97  O   UNL A   1      44.749  40.232  29.926  1.00  0.00    -0.237 OA
ATOM     98  O   UNL A   1      44.915  38.671  28.039  1.00  0.00    -0.744 OA
ENDBRANCH  92  95
ENDBRANCH  65  88
ENDBRANCH  39  40
ENDBRANCH  31  34
ENDBRANCH  29  30
ENDBRANCH   1  29
TORSDOF 18
ENDMDL
MODEL 2
REMARK VINA RESULT:     -11.2      2.962      7.900
REMARK SMILES CCCc1cc(OC(F)(F)F)cc2c1O[C@@H](C(F)(F)F)C(C(=O)NCCCNC(=O)c1ccc(-c3c4nc(c(-c5cccc(S(=O)(=O)[O-])c5F)c5ccc([nH]5)c(-c5cccc(S(=O)(=O)[O-])c5F)c5nc(c(-c6cccc(S(=O)(=O)[O-])c6F)c6ccc3[nH]6)C=C5)C=C4)cc1)=C2
REMARK SMILES IDX 26 1 25 2 24 3 22 4 23 5 21 7 4 8 5 9 14 10 6 11 13 12 15 13
REMARK SMILES IDX 12 14 94 15 16 16 3 17 2 18 1 19 7 20 8 21 9 22 10 23 11 24
REMARK SMILES IDX 17 25 18 26 19 27 20 28 27 29 28 30 29 31 30 33 31 34 32 35
REMARK SMILES IDX 93 36 33 37 92 38 34 39 35 40 36 41 86 42 37 43 91 44 85 45
REMARK SMILES IDX 87 46 38 47 90 48 84 49 83 50 39 52 71 53 51 54 70 55 52 56
REMARK SMILES IDX 55 57 69 58 88 59 53 60 54 61 68 63 89 64 56 65 40 66 41 67
REMARK SMILES IDX 49 68 42 69 44 70 50 71 43 72 45 73 46 74 47 75 48 76 72 77
REMARK SMILES IDX 73 78 81 79 74 80 76 81 82 82 75 83 77 84 78 85 79 86 80 87
REMARK SMILES IDX 57 88 58 89 66 90 59 91 61 92 67 93 60 94 62 95 63 96 64 97
REMARK SMILES IDX 65 98
REMARK H PARENT 24 6 28 32 87 51 55 62
REMARK Flexibility Score: inf
ROOT
ATOM      1  C   UNL A   1      36.246  22.199  23.755  1.00  0.00     0.042 C 
ENDROOT
BRANCH   1   2
ATOM      2  C   UNL A   1      35.214  23.272  23.391  1.00  0.00     0.118 C 
BRANCH   2   3
ATOM      3  N   UNL A   1      33.916  22.674  23.121  1.00  0.00    -0.352 N 
ATOM      4  C   UNL A   1      32.641  23.120  23.274  1.00  0.00     0.251 C 
ATOM      5  O   UNL A   1      31.726  22.333  23.043  1.00  0.00    -0.270 OA
ATOM      6  H   UNL A   1      33.971  21.762  22.754  1.00  0.00     0.163 HD
BRANCH   4   7
ATOM      7  C   UNL A   1      32.313  24.524  23.632  1.00  0.00     0.067 C 
ATOM      8  C   UNL A   1      31.213  28.361  24.986  1.00  0.00    -0.002 A 
ATOM      9  C   UNL A   1      30.683  29.268  24.051  1.00  0.00     0.054 A 
ATOM     10  C   UNL A   1      31.593  27.084  24.532  1.00  0.00     0.131 A 
ATOM     11  C   UNL A   1      30.465  28.897  22.722  1.00  0.00     0.130 A 
ATOM     12  C   UNL A   1      31.423  26.722  23.196  1.00  0.00     0.021 A 
ATOM     13  O   UNL A   1      32.059  26.194  25.461  1.00  0.00    -0.475 OA
ATOM     14  C   UNL A   1      30.854  27.628  22.297  1.00  0.00     0.058 A 
ATOM     15  C   UNL A   1      31.749  25.373  22.763  1.00  0.00     0.025 C 
ATOM     16  C   UNL A   1      32.805  25.034  24.983  1.00  0.00     0.314 C 
BRANCH   8  17
ATOM     17  C   UNL A   1      31.414  28.715  26.449  1.00  0.00     0.039 C 
BRANCH  17  18
ATOM     18  C   UNL A   1      32.640  29.550  26.843  1.00  0.00     0.001 C 
ATOM     19  C   UNL A   1      33.885  28.713  27.114  1.00  0.00     0.004 C 
ENDBRANCH  17  18
ENDBRANCH   8  17
BRANCH  11  20
ATOM     20  O   UNL A   1      29.882  29.664  21.754  1.00  0.00    -0.406 OA
BRANCH  20  21
ATOM     21  C   UNL A   1      28.512  29.994  21.908  1.00  0.00     0.573 C 
ATOM     22  F   UNL A   1      27.947  30.321  20.724  1.00  0.00    -0.132 F 
ATOM     23  F   UNL A   1      27.828  28.968  22.459  1.00  0.00    -0.132 F 
ATOM     24  F   UNL A   1      28.406  31.063  22.727  1.00  0.00    -0.132 F 
ENDBRANCH  20  21
ENDBRANCH  11  20
BRANCH  16  25
ATOM     25  C   UNL A   1      32.840  24.019  26.148  1.00  0.00     0.429 C 
ATOM     26  F   UNL A   1      34.094  23.682  26.522  1.00  0.00    -0.167 F 
ATOM     27  F   UNL A   1      32.269  24.552  27.265  1.00  0.00    -0.167 F 
ATOM     28  F   UNL A   1      32.156  22.885  25.872  1.00  0.00    -0.167 F 
ENDBRANCH  16  25
ENDBRANCH   4   7
ENDBRANCH   2   3
ENDBRANCH   1   2
BRANCH   1  29
ATOM     29  C   UNL A   1      36.618  22.190  25.236  1.00  0.00     0.118 C 
BRANCH  29  30
ATOM     30  N   UNL A   1      37.488  21.072  25.568  1.00  0.00    -0.352 N 
ATOM     31  C   UNL A   1      38.799  21.070  25.975  1.00  0.00     0.251 C 
ATOM     32  H   UNL A   1      37.074  20.182  25.488  1.00  0.00     0.163 HD
ATOM     33  O   UNL A   1      39.424  20.012  25.972  1.00  0.00    -0.269 OA
BRANCH  31  34
ATOM     34  C   UNL A   1      39.461  22.321  26.410  1.00  0.00     0.039 A 
ATOM     35  C   UNL A   1      40.495  22.244  27.348  1.00  0.00     0.014 A 
ATOM     36  C   UNL A   1      39.033  23.568  25.946  1.00  0.00     0.014 A 
ATOM     37  C   UNL A   1      41.127  23.411  27.785  1.00  0.00     0.010 A 
ATOM     38  C   UNL A   1      39.708  24.724  26.331  1.00  0.00     0.010 A 
ATOM     39  C   UNL A   1      40.754  24.660  27.263  1.00  0.00    -0.014 A 
BRANCH  39  40
ATOM     40  C   UNL A   1      41.442  25.909  27.681  1.00  0.00     0.031 A 
ATOM     41  C   UNL A   1      40.702  26.955  28.472  1.00  0.00     0.074 A 
ATOM     42  C   UNL A   1      42.711  26.134  27.284  1.00  0.00     0.049 A 
ATOM     43  N   UNL A   1      41.109  28.134  28.865  1.00  0.00    -0.248 NA
ATOM     44  C   UNL A   1      39.312  26.645  28.851  1.00  0.00     0.031 C 
ATOM     45  C   UNL A   1      43.514  25.226  26.461  1.00  0.00     0.029 A 
ATOM     46  N   UNL A   1      43.540  27.207  27.495  1.00  0.00    -0.354 N 
ATOM     47  C   UNL A   1      40.024  28.717  29.511  1.00  0.00     0.074 A 
ATOM     48  C   UNL A   1      38.927  27.777  29.423  1.00  0.00     0.031 C 
ATOM     49  C   UNL A   1      44.718  25.778  26.242  1.00  0.00     0.029 A 
ATOM     50  C   UNL A   1      44.764  27.089  26.879  1.00  0.00     0.049 A 
ATOM     51  H   UNL A   1      43.281  27.989  28.035  1.00  0.00     0.167 HD
ATOM     52  C   UNL A   1      39.954  29.910  30.148  1.00  0.00     0.034 A 
ATOM     53  C   UNL A   1      45.804  27.944  26.830  1.00  0.00     0.034 A 
ATOM     54  C   UNL A   1      41.059  30.824  30.267  1.00  0.00     0.049 A 
ATOM     55  C   UNL A   1      45.706  29.254  27.565  1.00  0.00     0.074 A 
ATOM     56  C   UNL A   1      41.109  32.032  30.942  1.00  0.00     0.029 A 
ATOM     57  N   UNL A   1      42.309  30.632  29.701  1.00  0.00    -0.354 N 
ATOM     58  N   UNL A   1      44.717  29.725  28.286  1.00  0.00    -0.248 NA
ATOM     59  C   UNL A   1      46.880  30.136  27.510  1.00  0.00     0.031 C 
ATOM     60  C   UNL A   1      42.387  32.574  30.774  1.00  0.00     0.029 A 
ATOM     61  C   UNL A   1      43.138  31.695  30.011  1.00  0.00     0.049 A 
ATOM     62  H   UNL A   1      42.569  29.853  29.158  1.00  0.00     0.167 HD
ATOM     63  C   UNL A   1      45.165  30.935  28.803  1.00  0.00     0.074 A 
ATOM     64  C   UNL A   1      46.522  31.115  28.331  1.00  0.00     0.031 C 
ATOM     65  C   UNL A   1      44.509  31.826  29.586  1.00  0.00     0.034 A 
BRANCH  52  66
ATOM     66  C   UNL A   1      38.658  30.267  30.828  1.00  0.00     0.023 A 
ATOM     67  C   UNL A   1      38.441  29.852  32.158  1.00  0.00     0.012 A 
ATOM     68  C   UNL A   1      37.686  31.061  30.188  1.00  0.00     0.148 A 
ATOM     69  C   UNL A   1      37.268  30.191  32.829  1.00  0.00     0.002 A 
ATOM     70  C   UNL A   1      36.537  31.432  30.877  1.00  0.00     0.091 A 
ATOM     71  F   UNL A   1      37.901  31.433  28.917  1.00  0.00    -0.205 F 
ATOM     72  C   UNL A   1      36.321  30.989  32.192  1.00  0.00     0.022 A 
BRANCH  70  73
ATOM     73  S   UNL A   1      35.289  32.519  30.176  1.00  0.00     0.127 S 
ATOM     74  O   UNL A   1      36.072  33.718  29.885  1.00  0.00    -0.237 OA
ATOM     75  O   UNL A   1      34.857  31.771  28.996  1.00  0.00    -0.237 OA
ATOM     76  O   UNL A   1      34.269  32.674  31.204  1.00  0.00    -0.744 OA
ENDBRANCH  70  73
ENDBRANCH  52  66
BRANCH  53  77
ATOM     77  C   UNL A   1      47.058  27.563  26.120  1.00  0.00     0.023 A 
ATOM     78  C   UNL A   1      48.094  26.937  26.841  1.00  0.00     0.012 A 
ATOM     79  C   UNL A   1      47.232  27.805  24.744  1.00  0.00     0.148 A 
ATOM     80  C   UNL A   1      49.294  26.596  26.215  1.00  0.00     0.002 A 
ATOM     81  C   UNL A   1      48.408  27.413  24.114  1.00  0.00     0.091 A 
ATOM     82  F   UNL A   1      46.243  28.415  24.075  1.00  0.00    -0.205 F 
ATOM     83  C   UNL A   1      49.447  26.825  24.850  1.00  0.00     0.022 A 
BRANCH  81  84
ATOM     84  S   UNL A   1      48.633  27.551  22.337  1.00  0.00     0.127 S 
ATOM     85  O   UNL A   1      48.678  26.150  21.930  1.00  0.00    -0.237 OA
ATOM     86  O   UNL A   1      47.428  28.274  21.930  1.00  0.00    -0.237 OA
ATOM     87  O   UNL A   1      49.868  28.307  22.162  1.00  0.00    -0.744 OA
ENDBRANCH  81  84
ENDBRANCH  53  77
BRANCH  65  88
ATOM     88  C   UNL A   1      45.258  33.057  30.021  1.00  0.00     0.023 A 
ATOM     89  C   UNL A   1      46.009  33.035  31.214  1.00  0.00     0.012 A 
ATOM     90  C   UNL A   1      45.276  34.211  29.214  1.00  0.00     0.148 A 
ATOM     91  C   UNL A   1      46.739  34.154  31.612  1.00  0.00     0.002 A 
ATOM     92  C   UNL A   1      46.043  35.305  29.592  1.00  0.00     0.091 A 
ATOM     93  F   UNL A   1      44.539  34.219  28.093  1.00  0.00    -0.205 F 
ATOM     94  C   UNL A   1      46.765  35.283  30.797  1.00  0.00     0.022 A 
BRANCH  92  95
ATOM     95  S   UNL A   1      46.214  36.765  28.559  1.00  0.00     0.127 S 
ATOM     96  O   UNL A   1      44.817  37.102  28.287  1.00  0.00    -0.237 OA
ATOM     97  O   UNL A   1      46.903  37.698  29.451  1.00  0.00    -0.237 OA
ATOM     98  O   UNL A   1      46.995  36.348  27.403  1.00  0.00    -0.744 OA
ENDBRANCH  92  95
ENDBRANCH  65  88
ENDBRANCH  39  40
ENDBRANCH  31  34
ENDBRANCH  29  30
ENDBRANCH   1  29
TORSDOF 18
ENDMDL
MODEL 3
REMARK VINA RESULT:     -11.1      1.936      2.491
REMARK SMILES CCCc1cc(OC(F)(F)F)cc2c1O[C@@H](C(F)(F)F)C(C(=O)NCCCNC(=O)c1ccc(-c3c4nc(c(-c5cccc(S(=O)(=O)[O-])c5F)c5ccc([nH]5)c(-c5cccc(S(=O)(=O)[O-])c5F)c5nc(c(-c6cccc(S(=O)(=O)[O-])c6F)c6ccc3[nH]6)C=C5)C=C4)cc1)=C2
REMARK SMILES IDX 26 1 25 2 24 3 22 4 23 5 21 7 4 8 5 9 14 10 6 11 13 12 15 13
REMARK SMILES IDX 12 14 94 15 16 16 3 17 2 18 1 19 7 20 8 21 9 22 10 23 11 24
REMARK SMILES IDX 17 25 18 26 19 27 20 28 27 29 28 30 29 31 30 33 31 34 32 35
REMARK SMILES IDX 93 36 33 37 92 38 34 39 35 40 36 41 86 42 37 43 91 44 85 45
REMARK SMILES IDX 87 46 38 47 90 48 84 49 83 50 39 52 71 53 51 54 70 55 52 56
REMARK SMILES IDX 55 57 69 58 88 59 53 60 54 61 68 63 89 64 56 65 40 66 41 67
REMARK SMILES IDX 49 68 42 69 44 70 50 71 43 72 45 73 46 74 47 75 48 76 72 77
REMARK SMILES IDX 73 78 81 79 74 80 76 81 82 82 75 83 77 84 78 85 79 86 80 87
REMARK SMILES IDX 57 88 58 89 66 90 59 91 61 92 67 93 60 94 62 95 63 96 64 97
REMARK SMILES IDX 65 98
REMARK H PARENT 24 6 28 32 87 51 55 62
REMARK Flexibility Score: inf
ROOT
ATOM      1  C   UNL A   1      35.243  22.116  26.209  1.00  0.00     0.042 C 
ENDROOT
BRANCH   1   2
ATOM      2  C   UNL A   1      34.301  23.322  26.133  1.00  0.00     0.118 C 
BRANCH   2   3
ATOM      3  N   UNL A   1      33.025  23.027  26.767  1.00  0.00    -0.352 N 
ATOM      4  C   UNL A   1      31.875  23.736  26.909  1.00  0.00     0.251 C 
ATOM      5  O   UNL A   1      30.980  23.247  27.593  1.00  0.00    -0.270 OA
ATOM      6  H   UNL A   1      32.988  22.132  27.177  1.00  0.00     0.163 HD
BRANCH   4   7
ATOM      7  C   UNL A   1      31.631  25.028  26.216  1.00  0.00     0.067 C 
ATOM      8  C   UNL A   1      31.087  28.517  23.916  1.00  0.00    -0.002 A 
ATOM      9  C   UNL A   1      31.425  29.753  24.494  1.00  0.00     0.054 A 
ATOM     10  C   UNL A   1      31.256  27.352  24.688  1.00  0.00     0.131 A 
ATOM     11  C   UNL A   1      31.985  29.828  25.772  1.00  0.00     0.130 A 
ATOM     12  C   UNL A   1      31.770  27.423  25.983  1.00  0.00     0.021 A 
ATOM     13  O   UNL A   1      30.972  26.152  24.096  1.00  0.00    -0.475 OA
ATOM     14  C   UNL A   1      32.138  28.661  26.517  1.00  0.00     0.058 A 
ATOM     15  C   UNL A   1      32.010  26.203  26.735  1.00  0.00     0.025 C 
ATOM     16  C   UNL A   1      30.767  24.994  24.960  1.00  0.00     0.314 C 
BRANCH   8  17
ATOM     17  C   UNL A   1      30.526  28.396  22.510  1.00  0.00     0.039 C 
BRANCH  17  18
ATOM     18  C   UNL A   1      29.626  29.520  21.977  1.00  0.00     0.001 C 
ATOM     19  C   UNL A   1      28.185  29.429  22.466  1.00  0.00     0.004 C 
ENDBRANCH  17  18
ENDBRANCH   8  17
BRANCH  11  20
ATOM     20  O   UNL A   1      32.427  30.960  26.396  1.00  0.00    -0.406 OA
BRANCH  20  21
ATOM     21  C   UNL A   1      31.491  32.001  26.619  1.00  0.00     0.573 C 
ATOM     22  F   UNL A   1      32.079  33.082  27.178  1.00  0.00    -0.132 F 
ATOM     23  F   UNL A   1      30.893  32.367  25.465  1.00  0.00    -0.132 F 
ATOM     24  F   UNL A   1      30.538  31.561  27.470  1.00  0.00    -0.132 F 
ENDBRANCH  20  21
ENDBRANCH  11  20
BRANCH  16  25
ATOM     25  C   UNL A   1      30.883  23.743  24.059  1.00  0.00     0.429 C 
ATOM     26  F   UNL A   1      30.510  22.604  24.682  1.00  0.00    -0.167 F 
ATOM     27  F   UNL A   1      30.051  23.848  22.985  1.00  0.00    -0.167 F 
ATOM     28  F   UNL A   1      32.130  23.572  23.564  1.00  0.00    -0.167 F 
ENDBRANCH  16  25
ENDBRANCH   4   7
ENDBRANCH   2   3
ENDBRANCH   1   2
BRANCH   1  29
ATOM     29  C   UNL A   1      36.542  22.308  25.430  1.00  0.00     0.118 C 
BRANCH  29  30
ATOM     30  N   UNL A   1      37.499  21.247  25.705  1.00  0.00    -0.352 N 
ATOM     31  C   UNL A   1      38.827  21.327  26.043  1.00  0.00     0.251 C 
ATOM     32  H   UNL A   1      37.139  20.333  25.639  1.00  0.00     0.163 HD
ATOM     33  O   UNL A   1      39.517  20.312  25.998  1.00  0.00    -0.269 OA
BRANCH  31  34
ATOM     34  C   UNL A   1      39.429  22.615  26.455  1.00  0.00     0.039 A 
ATOM     35  C   UNL A   1      40.404  22.612  27.458  1.00  0.00     0.014 A 
ATOM     36  C   UNL A   1      39.001  23.826  25.904  1.00  0.00     0.014 A 
ATOM     37  C   UNL A   1      40.979  23.816  27.874  1.00  0.00     0.010 A 
ATOM     38  C   UNL A   1      39.622  25.018  26.272  1.00  0.00     0.010 A 
ATOM     39  C   UNL A   1      40.609  25.027  27.269  1.00  0.00    -0.014 A 
BRANCH  39  40
ATOM     40  C   UNL A   1      41.238  26.314  27.665  1.00  0.00     0.031 A 
ATOM     41  C   UNL A   1      42.685  26.581  27.345  1.00  0.00     0.074 A 
ATOM     42  C   UNL A   1      40.528  27.209  28.381  1.00  0.00     0.049 A 
ATOM     43  N   UNL A   1      43.426  27.608  27.670  1.00  0.00    -0.248 NA
ATOM     44  C   UNL A   1      43.401  25.546  26.579  1.00  0.00     0.031 C 
ATOM     45  C   UNL A   1      39.137  27.038  28.807  1.00  0.00     0.029 A 
ATOM     46  N   UNL A   1      40.884  28.429  28.898  1.00  0.00    -0.354 N 
ATOM     47  C   UNL A   1      44.697  27.335  27.175  1.00  0.00     0.074 A 
ATOM     48  C   UNL A   1      44.636  26.026  26.561  1.00  0.00     0.031 C 
ATOM     49  C   UNL A   1      38.758  28.113  29.516  1.00  0.00     0.029 A 
ATOM     50  C   UNL A   1      39.884  29.035  29.622  1.00  0.00     0.049 A 
ATOM     51  H   UNL A   1      41.772  28.832  28.764  1.00  0.00     0.167 HD
ATOM     52  C   UNL A   1      45.805  28.114  27.199  1.00  0.00     0.034 A 
ATOM     53  C   UNL A   1      39.877  30.200  30.299  1.00  0.00     0.034 A 
ATOM     54  C   UNL A   1      45.849  29.432  27.775  1.00  0.00     0.049 A 
ATOM     55  C   UNL A   1      41.116  31.055  30.290  1.00  0.00     0.074 A 
ATOM     56  C   UNL A   1      46.905  30.326  27.799  1.00  0.00     0.029 A 
ATOM     57  N   UNL A   1      44.792  30.046  28.426  1.00  0.00    -0.354 N 
ATOM     58  N   UNL A   1      42.266  30.838  29.697  1.00  0.00    -0.248 NA
ATOM     59  C   UNL A   1      41.047  32.333  31.013  1.00  0.00     0.031 C 
ATOM     60  C   UNL A   1      46.488  31.477  28.475  1.00  0.00     0.029 A 
ATOM     61  C   UNL A   1      45.167  31.307  28.855  1.00  0.00     0.049 A 
ATOM     62  H   UNL A   1      43.903  29.644  28.564  1.00  0.00     0.167 HD
ATOM     63  C   UNL A   1      43.039  31.967  29.940  1.00  0.00     0.074 A 
ATOM     64  C   UNL A   1      42.220  32.875  30.715  1.00  0.00     0.031 C 
ATOM     65  C   UNL A   1      44.317  32.224  29.569  1.00  0.00     0.034 A 
BRANCH  52  66
ATOM     66  C   UNL A   1      47.044  27.591  26.520  1.00  0.00     0.023 A 
ATOM     67  C   UNL A   1      47.291  27.937  25.175  1.00  0.00     0.012 A 
ATOM     68  C   UNL A   1      47.993  26.818  27.218  1.00  0.00     0.148 A 
ATOM     69  C   UNL A   1      48.444  27.498  24.526  1.00  0.00     0.002 A 
ATOM     70  C   UNL A   1      49.161  26.419  26.578  1.00  0.00     0.091 A 
ATOM     71  F   UNL A   1      47.734  26.484  28.490  1.00  0.00    -0.205 F 
ATOM     72  C   UNL A   1      49.382  26.748  25.229  1.00  0.00     0.022 A 
BRANCH  70  73
ATOM     73  S   UNL A   1      50.470  25.514  27.413  1.00  0.00     0.127 S 
ATOM     74  O   UNL A   1      49.776  24.292  27.810  1.00  0.00    -0.237 OA
ATOM     75  O   UNL A   1      51.453  25.339  26.343  1.00  0.00    -0.237 OA
ATOM     76  O   UNL A   1      50.911  26.367  28.509  1.00  0.00    -0.744 OA
ENDBRANCH  70  73
ENDBRANCH  52  66
BRANCH  53  77
ATOM     77  C   UNL A   1      38.637  30.666  30.981  1.00  0.00     0.023 A 
ATOM     78  C   UNL A   1      38.485  30.440  32.363  1.00  0.00     0.012 A 
ATOM     79  C   UNL A   1      37.614  31.335  30.281  1.00  0.00     0.148 A 
ATOM     80  C   UNL A   1      37.323  30.835  33.027  1.00  0.00     0.002 A 
ATOM     81  C   UNL A   1      36.482  31.775  30.959  1.00  0.00     0.091 A 
ATOM     82  F   UNL A   1      37.766  31.529  28.963  1.00  0.00    -0.205 F 
ATOM     83  C   UNL A   1      36.326  31.509  32.328  1.00  0.00     0.022 A 
BRANCH  81  84
ATOM     84  S   UNL A   1      35.215  32.766  30.161  1.00  0.00     0.127 S 
ATOM     85  O   UNL A   1      34.738  31.863  29.119  1.00  0.00    -0.237 OA
ATOM     86  O   UNL A   1      34.272  32.998  31.257  1.00  0.00    -0.237 OA
ATOM     87  O   UNL A   1      35.898  33.969  29.700  1.00  0.00    -0.744 OA
ENDBRANCH  81  84
ENDBRANCH  53  77
BRANCH  65  88
ATOM     88  C   UNL A   1      44.901  33.557  29.956  1.00  0.00     0.023 A 
ATOM     89  C   UNL A   1      45.613  33.686  31.165  1.00  0.00     0.012 A 
ATOM     90  C   UNL A   1      44.804  34.663  29.089  1.00  0.00     0.148 A 
ATOM     91  C   UNL A   1      46.192  34.904  31.520  1.00  0.00     0.002 A 
ATOM     92  C   UNL A   1      45.424  35.860  29.426  1.00  0.00     0.091 A 
ATOM     93  F   UNL A   1      44.105  34.526  27.952  1.00  0.00    -0.205 F 
ATOM     94  C   UNL A   1      46.107  35.985  30.646  1.00  0.00     0.022 A 
BRANCH  92  95
ATOM     95  S   UNL A   1      45.449  37.275  28.321  1.00  0.00     0.127 S 
ATOM     96  O   UNL A   1      44.028  37.609  28.231  1.00  0.00    -0.237 OA
ATOM     97  O   UNL A   1      46.255  38.240  29.069  1.00  0.00    -0.237 OA
ATOM     98  O   UNL A   1      46.062  36.808  27.085  1.00  0.00    -0.744 OA
ENDBRANCH  92  95
ENDBRANCH  65  88
ENDBRANCH  39  40
ENDBRANCH  31  34
ENDBRANCH  29  30
ENDBRANCH   1  29
TORSDOF 18
ENDMDL
