MODEL 1
REMARK VINA RESULT:     -13.4      0.000      0.000
REMARK SMILES CC[C@@]1(CC(=O)NCCCNC(=O)c2ccc(-c3c4nc(c(-c5cccc(S(=O)(=O)[O-])c5F)c5ccc([nH]5)c(-c5cccc(S(=O)(=O)[O-])c5F)c5nc(c(-c6cccc(S(=O)(=O)[O-])c6F)c6ccc3[nH]6)C=C5)C=C4)cc2)OC[C@H](Cc2ccccc2)c2c1[nH]c1ccccc21
REMARK SMILES IDX 9 1 8 2 7 3 5 4 6 5 4 7 3 8 77 9 88 10 78 11 87 12 89 13
REMARK SMILES IDX 79 14 95 15 90 16 94 18 91 19 93 20 92 21 2 22 1 23 80 24
REMARK SMILES IDX 81 25 82 26 86 27 83 28 85 29 84 30 10 31 11 32 12 33 13 35
REMARK SMILES IDX 14 36 15 37 76 38 16 39 75 40 17 41 18 42 19 43 69 44 20 45
REMARK SMILES IDX 74 46 68 47 70 48 21 49 73 50 67 51 66 52 22 54 54 55 34 56
REMARK SMILES IDX 53 57 35 58 38 59 52 60 71 61 36 62 37 63 51 65 72 66 39 67
REMARK SMILES IDX 23 68 24 69 32 70 25 71 27 72 33 73 26 74 28 75 29 76 30 77
REMARK SMILES IDX 31 78 55 79 56 80 64 81 57 82 59 83 65 84 58 85 60 86 61 87
REMARK SMILES IDX 62 88 63 89 40 90 41 91 49 92 42 93 44 94 50 95 43 96 45 97
REMARK SMILES IDX 46 98 47 99 48 100
REMARK H PARENT 7 6 89 17 11 34 70 53 38 64
REMARK Flexibility Score: inf
ROOT
ATOM      1  C   UNL A   1      32.011  29.514  27.032  1.00  0.00     0.042 C 
ENDROOT
BRANCH   1   2
ATOM      2  C   UNL A   1      32.017  28.030  27.393  1.00  0.00     0.117 C 
BRANCH   2   3
ATOM      3  N   UNL A   1      31.011  27.280  26.673  1.00  0.00    -0.356 N 
ATOM      4  C   UNL A   1      31.006  26.008  26.204  1.00  0.00     0.223 C 
ATOM      5  O   UNL A   1      29.924  25.591  25.770  1.00  0.00    -0.275 OA
ATOM      6  H   UNL A   1      30.185  27.783  26.492  1.00  0.00     0.163 HD
BRANCH   4   7
ATOM      7  C   UNL A   1      32.217  25.080  26.249  1.00  0.00     0.142 C 
BRANCH   7   8
ATOM      8  C   UNL A   1      33.086  24.937  24.967  1.00  0.00     0.117 C 
ATOM      9  O   UNL A   1      32.336  24.387  23.860  1.00  0.00    -0.368 OA
ATOM     10  C   UNL A   1      34.231  23.956  25.186  1.00  0.00     0.052 A 
ATOM     11  C   UNL A   1      31.934  23.009  23.992  1.00  0.00     0.170 C 
ATOM     12  C   UNL A   1      34.275  22.642  24.761  1.00  0.00    -0.011 A 
ATOM     13  N   UNL A   1      35.430  24.224  25.800  1.00  0.00    -0.356 N 
ATOM     14  C   UNL A   1      33.104  21.994  24.093  1.00  0.00     0.052 C 
ATOM     15  C   UNL A   1      35.598  22.156  24.974  1.00  0.00     0.003 A 
ATOM     16  C   UNL A   1      36.303  23.173  25.616  1.00  0.00     0.046 A 
ATOM     17  H   UNL A   1      35.635  25.047  26.299  1.00  0.00     0.166 HD
ATOM     18  C   UNL A   1      36.279  20.964  24.650  1.00  0.00     0.010 A 
ATOM     19  C   UNL A   1      37.658  23.061  25.947  1.00  0.00     0.026 A 
ATOM     20  C   UNL A   1      37.636  20.839  24.967  1.00  0.00     0.001 A 
ATOM     21  C   UNL A   1      38.314  21.874  25.604  1.00  0.00     0.002 A 
BRANCH   8  22
ATOM     22  C   UNL A   1      33.686  26.322  24.546  1.00  0.00     0.039 C 
ATOM     23  C   UNL A   1      33.119  26.967  23.290  1.00  0.00     0.007 C 
ENDBRANCH   8  22
BRANCH  14  24
ATOM     24  C   UNL A   1      32.658  20.729  24.865  1.00  0.00     0.046 C 
BRANCH  24  25
ATOM     25  C   UNL A   1      32.991  19.423  24.186  1.00  0.00    -0.047 A 
ATOM     26  C   UNL A   1      33.958  18.564  24.720  1.00  0.00     0.004 A 
ATOM     27  C   UNL A   1      32.335  19.056  23.003  1.00  0.00     0.004 A 
ATOM     28  C   UNL A   1      34.281  17.372  24.070  1.00  0.00     0.000 A 
ATOM     29  C   UNL A   1      32.653  17.861  22.357  1.00  0.00     0.000 A 
ATOM     30  C   UNL A   1      33.630  17.022  22.888  1.00  0.00     0.000 A 
ENDBRANCH  24  25
ENDBRANCH  14  24
ENDBRANCH   7   8
ENDBRANCH   4   7
ENDBRANCH   2   3
ENDBRANCH   1   2
BRANCH   1  31
ATOM     31  C   UNL A   1      33.395  30.153  26.921  1.00  0.00     0.118 C 
BRANCH  31  32
ATOM     32  N   UNL A   1      33.670  31.159  27.922  1.00  0.00    -0.352 N 
ATOM     33  C   UNL A   1      34.771  31.566  28.618  1.00  0.00     0.251 C 
ATOM     34  H   UNL A   1      32.867  31.676  28.161  1.00  0.00     0.163 HD
ATOM     35  O   UNL A   1      34.597  32.559  29.331  1.00  0.00    -0.269 OA
BRANCH  33  36
ATOM     36  C   UNL A   1      36.097  30.891  28.631  1.00  0.00     0.039 A 
ATOM     37  C   UNL A   1      36.331  29.521  28.477  1.00  0.00     0.014 A 
ATOM     38  C   UNL A   1      37.193  31.733  28.898  1.00  0.00     0.014 A 
ATOM     39  C   UNL A   1      37.603  28.993  28.702  1.00  0.00     0.010 A 
ATOM     40  C   UNL A   1      38.463  31.216  29.102  1.00  0.00     0.010 A 
ATOM     41  C   UNL A   1      38.653  29.839  29.065  1.00  0.00    -0.014 A 
BRANCH  41  42
ATOM     42  C   UNL A   1      39.963  29.268  29.360  1.00  0.00     0.031 A 
ATOM     43  C   UNL A   1      40.412  29.354  30.780  1.00  0.00     0.074 A 
ATOM     44  C   UNL A   1      40.643  28.542  28.448  1.00  0.00     0.049 A 
ATOM     45  N   UNL A   1      41.482  29.908  31.255  1.00  0.00    -0.248 NA
ATOM     46  C   UNL A   1      39.510  28.817  31.811  1.00  0.00     0.031 C 
ATOM     47  C   UNL A   1      40.188  28.112  27.121  1.00  0.00     0.029 A 
ATOM     48  N   UNL A   1      41.839  27.903  28.581  1.00  0.00    -0.354 N 
ATOM     49  C   UNL A   1      41.484  29.624  32.622  1.00  0.00     0.074 A 
ATOM     50  C   UNL A   1      40.190  29.072  32.929  1.00  0.00     0.031 C 
ATOM     51  C   UNL A   1      40.966  27.095  26.692  1.00  0.00     0.029 A 
ATOM     52  C   UNL A   1      42.045  26.895  27.641  1.00  0.00     0.049 A 
ATOM     53  H   UNL A   1      42.497  28.132  29.277  1.00  0.00     0.167 HD
ATOM     54  C   UNL A   1      42.608  29.680  33.389  1.00  0.00     0.034 A 
ATOM     55  C   UNL A   1      42.989  25.923  27.699  1.00  0.00     0.034 A 
ATOM     56  C   UNL A   1      43.679  30.384  32.745  1.00  0.00     0.049 A 
ATOM     57  C   UNL A   1      44.037  26.401  28.632  1.00  0.00     0.074 A 
ATOM     58  C   UNL A   1      43.867  31.672  32.286  1.00  0.00     0.029 A 
ATOM     59  N   UNL A   1      44.668  29.628  32.164  1.00  0.00    -0.354 N 
ATOM     60  N   UNL A   1      44.808  27.426  28.397  1.00  0.00    -0.248 NA
ATOM     61  C   UNL A   1      43.961  25.975  30.020  1.00  0.00     0.031 C 
ATOM     62  C   UNL A   1      44.624  31.523  31.089  1.00  0.00     0.029 A 
ATOM     63  C   UNL A   1      44.885  30.161  30.922  1.00  0.00     0.049 A 
ATOM     64  H   UNL A   1      45.130  28.856  32.562  1.00  0.00     0.167 HD
ATOM     65  C   UNL A   1      44.968  28.031  29.636  1.00  0.00     0.074 A 
ATOM     66  C   UNL A   1      44.515  27.039  30.607  1.00  0.00     0.031 C 
ATOM     67  C   UNL A   1      45.180  29.374  29.745  1.00  0.00     0.034 A 
BRANCH  54  68
ATOM     68  C   UNL A   1      42.847  28.840  34.615  1.00  0.00     0.023 A 
ATOM     69  C   UNL A   1      43.234  29.486  35.810  1.00  0.00     0.012 A 
ATOM     70  C   UNL A   1      42.957  27.433  34.575  1.00  0.00     0.148 A 
ATOM     71  C   UNL A   1      43.713  28.763  36.908  1.00  0.00     0.002 A 
ATOM     72  C   UNL A   1      43.363  26.714  35.693  1.00  0.00     0.091 A 
ATOM     73  F   UNL A   1      42.791  26.792  33.412  1.00  0.00    -0.205 F 
ATOM     74  C   UNL A   1      43.763  27.375  36.856  1.00  0.00     0.022 A 
BRANCH  72  75
ATOM     75  S   UNL A   1      43.407  24.919  35.687  1.00  0.00     0.127 S 
ATOM     76  O   UNL A   1      44.310  24.651  34.574  1.00  0.00    -0.237 OA
ATOM     77  O   UNL A   1      43.950  24.625  37.013  1.00  0.00    -0.237 OA
ATOM     78  O   UNL A   1      42.019  24.504  35.508  1.00  0.00    -0.744 OA
ENDBRANCH  72  75
ENDBRANCH  54  68
BRANCH  55  79
ATOM     79  C   UNL A   1      42.956  24.517  27.219  1.00  0.00     0.023 A 
ATOM     80  C   UNL A   1      41.756  23.781  27.326  1.00  0.00     0.012 A 
ATOM     81  C   UNL A   1      43.985  23.983  26.410  1.00  0.00     0.148 A 
ATOM     82  C   UNL A   1      41.568  22.588  26.617  1.00  0.00     0.002 A 
ATOM     83  C   UNL A   1      43.799  22.786  25.719  1.00  0.00     0.091 A 
ATOM     84  F   UNL A   1      45.109  24.689  26.235  1.00  0.00    -0.205 F 
ATOM     85  C   UNL A   1      42.585  22.095  25.806  1.00  0.00     0.022 A 
BRANCH  83  86
ATOM     86  S   UNL A   1      45.070  22.093  24.651  1.00  0.00     0.127 S 
ATOM     87  O   UNL A   1      44.470  20.820  24.246  1.00  0.00    -0.237 OA
ATOM     88  O   UNL A   1      45.155  23.094  23.591  1.00  0.00    -0.237 OA
ATOM     89  O   UNL A   1      46.254  21.953  25.489  1.00  0.00    -0.744 OA
ENDBRANCH  83  86
ENDBRANCH  55  79
BRANCH  67  90
ATOM     90  C   UNL A   1      45.442  30.162  28.486  1.00  0.00     0.023 A 
ATOM     91  C   UNL A   1      44.385  30.680  27.709  1.00  0.00     0.012 A 
ATOM     92  C   UNL A   1      46.754  30.590  28.228  1.00  0.00     0.148 A 
ATOM     93  C   UNL A   1      44.630  31.609  26.694  1.00  0.00     0.002 A 
ATOM     94  C   UNL A   1      46.990  31.544  27.246  1.00  0.00     0.091 A 
ATOM     95  F   UNL A   1      47.740  30.099  28.992  1.00  0.00    -0.205 F 
ATOM     96  C   UNL A   1      45.932  32.053  26.475  1.00  0.00     0.022 A 
BRANCH  94  97
ATOM     97  S   UNL A   1      48.614  32.261  26.987  1.00  0.00     0.127 S 
ATOM     98  O   UNL A   1      48.344  33.274  25.969  1.00  0.00    -0.237 OA
ATOM     99  O   UNL A   1      48.930  32.795  28.312  1.00  0.00    -0.237 OA
ATOM    100  O   UNL A   1      49.478  31.168  26.558  1.00  0.00    -0.744 OA
ENDBRANCH  94  97
ENDBRANCH  67  90
ENDBRANCH  41  42
ENDBRANCH  33  36
ENDBRANCH  31  32
ENDBRANCH   1  31
TORSDOF 17
ENDMDL
MODEL 2
REMARK VINA RESULT:     -13.0      2.962      9.132
REMARK SMILES CC[C@@]1(CC(=O)NCCCNC(=O)c2ccc(-c3c4nc(c(-c5cccc(S(=O)(=O)[O-])c5F)c5ccc([nH]5)c(-c5cccc(S(=O)(=O)[O-])c5F)c5nc(c(-c6cccc(S(=O)(=O)[O-])c6F)c6ccc3[nH]6)C=C5)C=C4)cc2)OC[C@H](Cc2ccccc2)c2c1[nH]c1ccccc21
REMARK SMILES IDX 9 1 8 2 7 3 5 4 6 5 4 7 3 8 77 9 88 10 78 11 87 12 89 13
REMARK SMILES IDX 79 14 95 15 90 16 94 18 91 19 93 20 92 21 2 22 1 23 80 24
REMARK SMILES IDX 81 25 82 26 86 27 83 28 85 29 84 30 10 31 11 32 12 33 13 35
REMARK SMILES IDX 14 36 15 37 76 38 16 39 75 40 17 41 18 42 19 43 69 44 20 45
REMARK SMILES IDX 74 46 68 47 70 48 21 49 73 50 67 51 66 52 22 54 54 55 34 56
REMARK SMILES IDX 53 57 35 58 38 59 52 60 71 61 36 62 37 63 51 65 72 66 39 67
REMARK SMILES IDX 23 68 24 69 32 70 25 71 27 72 33 73 26 74 28 75 29 76 30 77
REMARK SMILES IDX 31 78 55 79 56 80 64 81 57 82 59 83 65 84 58 85 60 86 61 87
REMARK SMILES IDX 62 88 63 89 40 90 41 91 49 92 42 93 44 94 50 95 43 96 45 97
REMARK SMILES IDX 46 98 47 99 48 100
REMARK H PARENT 7 6 89 17 11 34 70 53 38 64
REMARK Flexibility Score: inf
ROOT
ATOM      1  C   UNL A   1      36.772  23.235  24.721  1.00  0.00     0.042 C 
ENDROOT
BRANCH   1   2
ATOM      2  C   UNL A   1      36.226  22.841  23.349  1.00  0.00     0.117 C 
BRANCH   2   3
ATOM      3  N   UNL A   1      34.939  22.185  23.433  1.00  0.00    -0.356 N 
ATOM      4  C   UNL A   1      33.683  22.686  23.530  1.00  0.00     0.223 C 
ATOM      5  O   UNL A   1      32.760  21.869  23.414  1.00  0.00    -0.275 OA
ATOM      6  H   UNL A   1      34.984  21.203  23.416  1.00  0.00     0.163 HD
BRANCH   4   7
ATOM      7  C   UNL A   1      33.369  24.170  23.702  1.00  0.00     0.142 C 
BRANCH   7   8
ATOM      8  C   UNL A   1      32.479  24.602  24.902  1.00  0.00     0.117 C 
ATOM      9  O   UNL A   1      31.072  24.395  24.637  1.00  0.00    -0.368 OA
ATOM     10  C   UNL A   1      32.607  26.096  25.172  1.00  0.00     0.052 A 
ATOM     11  C   UNL A   1      30.487  25.243  23.630  1.00  0.00     0.170 C 
ATOM     12  C   UNL A   1      31.709  27.075  24.795  1.00  0.00    -0.011 A 
ATOM     13  N   UNL A   1      33.611  26.715  25.875  1.00  0.00    -0.356 N 
ATOM     14  C   UNL A   1      30.508  26.759  23.960  1.00  0.00     0.052 C 
ATOM     15  C   UNL A   1      32.093  28.291  25.431  1.00  0.00     0.003 A 
ATOM     16  C   UNL A   1      33.282  28.032  26.111  1.00  0.00     0.046 A 
ATOM     17  H   UNL A   1      34.445  26.280  26.168  1.00  0.00     0.166 HD
ATOM     18  C   UNL A   1      31.528  29.580  25.528  1.00  0.00     0.010 A 
ATOM     19  C   UNL A   1      33.934  28.997  26.888  1.00  0.00     0.026 A 
ATOM     20  C   UNL A   1      32.162  30.553  26.308  1.00  0.00     0.001 A 
ATOM     21  C   UNL A   1      33.346  30.263  26.979  1.00  0.00     0.002 A 
BRANCH   8  22
ATOM     22  C   UNL A   1      32.880  23.821  26.200  1.00  0.00     0.039 C 
ATOM     23  C   UNL A   1      31.794  22.989  26.868  1.00  0.00     0.007 C 
ENDBRANCH   8  22
BRANCH  14  24
ATOM     24  C   UNL A   1      30.505  27.597  22.658  1.00  0.00     0.046 C 
BRANCH  24  25
ATOM     25  C   UNL A   1      29.496  28.719  22.630  1.00  0.00    -0.047 A 
ATOM     26  C   UNL A   1      29.849  29.989  22.162  1.00  0.00     0.004 A 
ATOM     27  C   UNL A   1      28.186  28.499  23.080  1.00  0.00     0.004 A 
ATOM     28  C   UNL A   1      28.917  31.028  22.166  1.00  0.00     0.000 A 
ATOM     29  C   UNL A   1      27.253  29.537  23.078  1.00  0.00     0.000 A 
ATOM     30  C   UNL A   1      27.621  30.802  22.627  1.00  0.00     0.000 A 
ENDBRANCH  24  25
ENDBRANCH  14  24
ENDBRANCH   7   8
ENDBRANCH   4   7
ENDBRANCH   2   3
ENDBRANCH   1   2
BRANCH   1  31
ATOM     31  C   UNL A   1      37.069  22.063  25.654  1.00  0.00     0.118 C 
BRANCH  31  32
ATOM     32  N   UNL A   1      38.444  21.614  25.630  1.00  0.00    -0.352 N 
ATOM     33  C   UNL A   1      39.613  22.022  26.204  1.00  0.00     0.251 C 
ATOM     34  H   UNL A   1      38.567  20.821  25.059  1.00  0.00     0.163 HD
ATOM     35  O   UNL A   1      40.579  21.281  25.999  1.00  0.00    -0.269 OA
BRANCH  33  36
ATOM     36  C   UNL A   1      39.817  23.277  26.976  1.00  0.00     0.039 A 
ATOM     37  C   UNL A   1      38.998  24.410  26.946  1.00  0.00     0.014 A 
ATOM     38  C   UNL A   1      40.996  23.321  27.743  1.00  0.00     0.014 A 
ATOM     39  C   UNL A   1      39.406  25.591  27.568  1.00  0.00     0.010 A 
ATOM     40  C   UNL A   1      41.396  24.486  28.380  1.00  0.00     0.010 A 
ATOM     41  C   UNL A   1      40.629  25.637  28.239  1.00  0.00    -0.014 A 
BRANCH  41  42
ATOM     42  C   UNL A   1      41.075  26.895  28.830  1.00  0.00     0.031 A 
ATOM     43  C   UNL A   1      42.399  27.405  28.368  1.00  0.00     0.074 A 
ATOM     44  C   UNL A   1      40.260  27.645  29.601  1.00  0.00     0.049 A 
ATOM     45  N   UNL A   1      43.449  27.675  29.077  1.00  0.00    -0.248 NA
ATOM     46  C   UNL A   1      42.598  27.561  26.920  1.00  0.00     0.031 C 
ATOM     47  C   UNL A   1      38.836  27.427  29.882  1.00  0.00     0.029 A 
ATOM     48  N   UNL A   1      40.501  28.856  30.177  1.00  0.00    -0.354 N 
ATOM     49  C   UNL A   1      44.380  28.215  28.187  1.00  0.00     0.074 A 
ATOM     50  C   UNL A   1      43.857  27.997  26.863  1.00  0.00     0.031 C 
ATOM     51  C   UNL A   1      38.293  28.574  30.343  1.00  0.00     0.029 A 
ATOM     52  C   UNL A   1      39.346  29.557  30.517  1.00  0.00     0.049 A 
ATOM     53  H   UNL A   1      41.407  29.204  30.340  1.00  0.00     0.167 HD
ATOM     54  C   UNL A   1      45.433  28.979  28.590  1.00  0.00     0.034 A 
ATOM     55  C   UNL A   1      39.269  30.874  30.834  1.00  0.00     0.034 A 
ATOM     56  C   UNL A   1      45.683  28.874  29.998  1.00  0.00     0.049 A 
ATOM     57  C   UNL A   1      40.632  31.297  31.234  1.00  0.00     0.074 A 
ATOM     58  C   UNL A   1      46.030  27.851  30.856  1.00  0.00     0.029 A 
ATOM     59  N   UNL A   1      45.229  29.897  30.794  1.00  0.00    -0.354 N 
ATOM     60  N   UNL A   1      41.245  30.862  32.298  1.00  0.00    -0.248 NA
ATOM     61  C   UNL A   1      41.479  31.911  30.225  1.00  0.00     0.031 C 
ATOM     62  C   UNL A   1      45.307  28.121  32.053  1.00  0.00     0.029 A 
ATOM     63  C   UNL A   1      44.601  29.311  31.861  1.00  0.00     0.049 A 
ATOM     64  H   UNL A   1      45.335  30.861  30.631  1.00  0.00     0.167 HD
ATOM     65  C   UNL A   1      42.575  30.755  31.914  1.00  0.00     0.074 A 
ATOM     66  C   UNL A   1      42.674  31.512  30.668  1.00  0.00     0.031 C 
ATOM     67  C   UNL A   1      43.403  29.832  32.481  1.00  0.00     0.034 A 
BRANCH  54  68
ATOM     68  C   UNL A   1      46.069  30.062  27.760  1.00  0.00     0.023 A 
ATOM     69  C   UNL A   1      47.477  30.169  27.755  1.00  0.00     0.012 A 
ATOM     70  C   UNL A   1      45.337  31.129  27.194  1.00  0.00     0.148 A 
ATOM     71  C   UNL A   1      48.122  31.289  27.218  1.00  0.00     0.002 A 
ATOM     72  C   UNL A   1      45.983  32.204  26.596  1.00  0.00     0.091 A 
ATOM     73  F   UNL A   1      44.007  31.169  27.347  1.00  0.00    -0.205 F 
ATOM     74  C   UNL A   1      47.376  32.301  26.624  1.00  0.00     0.022 A 
BRANCH  72  75
ATOM     75  S   UNL A   1      45.065  33.515  25.784  1.00  0.00     0.127 S 
ATOM     76  O   UNL A   1      44.340  34.105  26.904  1.00  0.00    -0.237 OA
ATOM     77  O   UNL A   1      46.139  34.341  25.233  1.00  0.00    -0.237 OA
ATOM     78  O   UNL A   1      44.255  32.843  24.773  1.00  0.00    -0.744 OA
ENDBRANCH  72  75
ENDBRANCH  54  68
BRANCH  55  79
ATOM     79  C   UNL A   1      38.185  31.862  30.591  1.00  0.00     0.023 A 
ATOM     80  C   UNL A   1      37.680  32.021  29.283  1.00  0.00     0.012 A 
ATOM     81  C   UNL A   1      37.454  32.441  31.654  1.00  0.00     0.148 A 
ATOM     82  C   UNL A   1      36.469  32.685  29.046  1.00  0.00     0.002 A 
ATOM     83  C   UNL A   1      36.259  33.115  31.411  1.00  0.00     0.091 A 
ATOM     84  F   UNL A   1      37.873  32.251  32.911  1.00  0.00    -0.205 F 
ATOM     85  C   UNL A   1      35.754  33.224  30.110  1.00  0.00     0.022 A 
BRANCH  83  86
ATOM     86  S   UNL A   1      35.281  33.833  32.740  1.00  0.00     0.127 S 
ATOM     87  O   UNL A   1      36.087  34.995  33.121  1.00  0.00    -0.237 OA
ATOM     88  O   UNL A   1      34.030  34.153  32.059  1.00  0.00    -0.237 OA
ATOM     89  O   UNL A   1      35.200  32.802  33.768  1.00  0.00    -0.744 OA
ENDBRANCH  83  86
ENDBRANCH  55  79
BRANCH  67  90
ATOM     90  C   UNL A   1      42.907  29.064  33.680  1.00  0.00     0.023 A 
ATOM     91  C   UNL A   1      41.872  28.113  33.567  1.00  0.00     0.012 A 
ATOM     92  C   UNL A   1      43.654  29.124  34.867  1.00  0.00     0.148 A 
ATOM     93  C   UNL A   1      41.588  27.236  34.617  1.00  0.00     0.002 A 
ATOM     94  C   UNL A   1      43.396  28.224  35.893  1.00  0.00     0.091 A 
ATOM     95  F   UNL A   1      44.646  30.024  34.943  1.00  0.00    -0.205 F 
ATOM     96  C   UNL A   1      42.362  27.281  35.773  1.00  0.00     0.022 A 
BRANCH  94  97
ATOM     97  S   UNL A   1      44.427  28.133  37.359  1.00  0.00     0.127 S 
ATOM     98  O   UNL A   1      44.215  29.446  37.964  1.00  0.00    -0.237 OA
ATOM     99  O   UNL A   1      43.825  27.018  38.090  1.00  0.00    -0.237 OA
ATOM    100  O   UNL A   1      45.783  27.880  36.888  1.00  0.00    -0.744 OA
ENDBRANCH  94  97
ENDBRANCH  67  90
ENDBRANCH  41  42
ENDBRANCH  33  36
ENDBRANCH  31  32
ENDBRANCH   1  31
TORSDOF 17
ENDMDL
MODEL 3
REMARK VINA RESULT:     -12.9      1.549      2.868
REMARK SMILES CC[C@@]1(CC(=O)NCCCNC(=O)c2ccc(-c3c4nc(c(-c5cccc(S(=O)(=O)[O-])c5F)c5ccc([nH]5)c(-c5cccc(S(=O)(=O)[O-])c5F)c5nc(c(-c6cccc(S(=O)(=O)[O-])c6F)c6ccc3[nH]6)C=C5)C=C4)cc2)OC[C@H](Cc2ccccc2)c2c1[nH]c1ccccc21
REMARK SMILES IDX 9 1 8 2 7 3 5 4 6 5 4 7 3 8 77 9 88 10 78 11 87 12 89 13
REMARK SMILES IDX 79 14 95 15 90 16 94 18 91 19 93 20 92 21 2 22 1 23 80 24
REMARK SMILES IDX 81 25 82 26 86 27 83 28 85 29 84 30 10 31 11 32 12 33 13 35
REMARK SMILES IDX 14 36 15 37 76 38 16 39 75 40 17 41 18 42 19 43 69 44 20 45
REMARK SMILES IDX 74 46 68 47 70 48 21 49 73 50 67 51 66 52 22 54 54 55 34 56
REMARK SMILES IDX 53 57 35 58 38 59 52 60 71 61 36 62 37 63 51 65 72 66 39 67
REMARK SMILES IDX 23 68 24 69 32 70 25 71 27 72 33 73 26 74 28 75 29 76 30 77
REMARK SMILES IDX 31 78 55 79 56 80 64 81 57 82 59 83 65 84 58 85 60 86 61 87
REMARK SMILES IDX 62 88 63 89 40 90 41 91 49 92 42 93 44 94 50 95 43 96 45 97
REMARK SMILES IDX 46 98 47 99 48 100
REMARK H PARENT 7 6 89 17 11 34 70 53 38 64
REMARK Flexibility Score: inf
ROOT
ATOM      1  C   UNL A   1      33.987  28.476  25.841  1.00  0.00     0.042 C 
ENDROOT
BRANCH   1   2
ATOM      2  C   UNL A   1      32.789  28.024  25.009  1.00  0.00     0.117 C 
BRANCH   2   3
ATOM      3  N   UNL A   1      33.157  27.670  23.655  1.00  0.00    -0.356 N 
ATOM      4  C   UNL A   1      33.431  26.470  23.086  1.00  0.00     0.223 C 
ATOM      5  O   UNL A   1      33.552  26.467  21.854  1.00  0.00    -0.275 OA
ATOM      6  H   UNL A   1      33.218  28.435  23.040  1.00  0.00     0.163 HD
BRANCH   4   7
ATOM      7  C   UNL A   1      33.526  25.161  23.864  1.00  0.00     0.142 C 
BRANCH   7   8
ATOM      8  C   UNL A   1      32.212  24.389  24.177  1.00  0.00     0.117 C 
ATOM      9  O   UNL A   1      31.778  24.585  25.542  1.00  0.00    -0.368 OA
ATOM     10  C   UNL A   1      32.412  22.885  24.045  1.00  0.00     0.052 A 
ATOM     11  C   UNL A   1      32.611  23.996  26.560  1.00  0.00     0.170 C 
ATOM     12  C   UNL A   1      32.597  21.991  25.082  1.00  0.00    -0.011 A 
ATOM     13  N   UNL A   1      32.397  22.159  22.880  1.00  0.00    -0.356 N 
ATOM     14  C   UNL A   1      32.719  22.449  26.501  1.00  0.00     0.052 C 
ATOM     15  C   UNL A   1      32.522  20.674  24.543  1.00  0.00     0.003 A 
ATOM     16  C   UNL A   1      32.385  20.809  23.163  1.00  0.00     0.046 A 
ATOM     17  H   UNL A   1      32.396  22.545  21.975  1.00  0.00     0.166 HD
ATOM     18  C   UNL A   1      32.520  19.376  25.097  1.00  0.00     0.010 A 
ATOM     19  C   UNL A   1      32.240  19.712  22.306  1.00  0.00     0.026 A 
ATOM     20  C   UNL A   1      32.367  18.269  24.255  1.00  0.00     0.001 A 
ATOM     21  C   UNL A   1      32.227  18.437  22.881  1.00  0.00     0.002 A 
BRANCH   8  22
ATOM     22  C   UNL A   1      31.065  24.830  23.203  1.00  0.00     0.039 C 
ATOM     23  C   UNL A   1      29.931  25.651  23.799  1.00  0.00     0.007 C 
ENDBRANCH   8  22
BRANCH  14  24
ATOM     24  C   UNL A   1      34.055  21.976  27.122  1.00  0.00     0.046 C 
BRANCH  24  25
ATOM     25  C   UNL A   1      35.264  22.156  26.236  1.00  0.00    -0.047 A 
ATOM     26  C   UNL A   1      35.807  21.074  25.534  1.00  0.00     0.004 A 
ATOM     27  C   UNL A   1      35.864  23.418  26.111  1.00  0.00     0.004 A 
ATOM     28  C   UNL A   1      36.943  21.244  24.741  1.00  0.00     0.000 A 
ATOM     29  C   UNL A   1      36.995  23.588  25.313  1.00  0.00     0.000 A 
ATOM     30  C   UNL A   1      37.538  22.500  24.633  1.00  0.00     0.000 A 
ENDBRANCH  24  25
ENDBRANCH  14  24
ENDBRANCH   7   8
ENDBRANCH   4   7
ENDBRANCH   2   3
ENDBRANCH   1   2
BRANCH   1  31
ATOM     31  C   UNL A   1      33.651  28.903  27.269  1.00  0.00     0.118 C 
BRANCH  31  32
ATOM     32  N   UNL A   1      33.805  30.319  27.521  1.00  0.00    -0.352 N 
ATOM     33  C   UNL A   1      34.829  31.136  27.902  1.00  0.00     0.251 C 
ATOM     34  H   UNL A   1      32.964  30.814  27.384  1.00  0.00     0.163 HD
ATOM     35  O   UNL A   1      34.558  32.341  27.906  1.00  0.00    -0.269 OA
BRANCH  33  36
ATOM     36  C   UNL A   1      36.175  30.697  28.357  1.00  0.00     0.039 A 
ATOM     37  C   UNL A   1      37.181  31.514  28.881  1.00  0.00     0.014 A 
ATOM     38  C   UNL A   1      36.457  29.332  28.157  1.00  0.00     0.014 A 
ATOM     39  C   UNL A   1      38.465  31.009  29.088  1.00  0.00     0.010 A 
ATOM     40  C   UNL A   1      37.726  28.820  28.381  1.00  0.00     0.010 A 
ATOM     41  C   UNL A   1      38.744  29.675  28.788  1.00  0.00    -0.014 A 
BRANCH  41  42
ATOM     42  C   UNL A   1      40.106  29.174  28.946  1.00  0.00     0.031 A 
ATOM     43  C   UNL A   1      40.602  29.054  30.348  1.00  0.00     0.074 A 
ATOM     44  C   UNL A   1      40.804  28.675  27.905  1.00  0.00     0.049 A 
ATOM     45  N   UNL A   1      41.643  29.607  30.884  1.00  0.00    -0.248 NA
ATOM     46  C   UNL A   1      39.787  28.275  31.292  1.00  0.00     0.031 C 
ATOM     47  C   UNL A   1      40.331  28.440  26.535  1.00  0.00     0.029 A 
ATOM     48  N   UNL A   1      42.050  28.124  27.895  1.00  0.00    -0.354 N 
ATOM     49  C   UNL A   1      41.722  29.095  32.181  1.00  0.00     0.074 A 
ATOM     50  C   UNL A   1      40.488  28.392  32.420  1.00  0.00     0.031 C 
ATOM     51  C   UNL A   1      41.170  27.580  25.917  1.00  0.00     0.029 A 
ATOM     52  C   UNL A   1      42.298  27.313  26.789  1.00  0.00     0.049 A 
ATOM     53  H   UNL A   1      42.715  28.286  28.602  1.00  0.00     0.167 HD
ATOM     54  C   UNL A   1      42.868  29.114  32.916  1.00  0.00     0.034 A 
ATOM     55  C   UNL A   1      43.317  26.428  26.654  1.00  0.00     0.034 A 
ATOM     56  C   UNL A   1      43.854  30.004  32.378  1.00  0.00     0.049 A 
ATOM     57  C   UNL A   1      44.360  26.826  27.629  1.00  0.00     0.074 A 
ATOM     58  C   UNL A   1      43.922  31.362  32.144  1.00  0.00     0.029 A 
ATOM     59  N   UNL A   1      44.875  29.445  31.649  1.00  0.00    -0.354 N 
ATOM     60  N   UNL A   1      45.038  27.937  27.555  1.00  0.00    -0.248 NA
ATOM     61  C   UNL A   1      44.372  26.165  28.923  1.00  0.00     0.031 C 
ATOM     62  C   UNL A   1      44.640  31.484  30.921  1.00  0.00     0.029 A 
ATOM     63  C   UNL A   1      45.000  30.197  30.513  1.00  0.00     0.049 A 
ATOM     64  H   UNL A   1      45.411  28.657  31.896  1.00  0.00     0.167 HD
ATOM     65  C   UNL A   1      45.199  28.333  28.876  1.00  0.00     0.074 A 
ATOM     66  C   UNL A   1      44.864  27.155  29.671  1.00  0.00     0.031 C 
ATOM     67  C   UNL A   1      45.310  29.651  29.210  1.00  0.00     0.034 A 
BRANCH  54  68
ATOM     68  C   UNL A   1      43.220  28.100  33.972  1.00  0.00     0.023 A 
ATOM     69  C   UNL A   1      43.428  28.548  35.295  1.00  0.00     0.012 A 
ATOM     70  C   UNL A   1      43.604  26.775  33.670  1.00  0.00     0.148 A 
ATOM     71  C   UNL A   1      43.998  27.717  36.266  1.00  0.00     0.002 A 
ATOM     72  C   UNL A   1      44.101  25.930  34.655  1.00  0.00     0.091 A 
ATOM     73  F   UNL A   1      43.611  26.365  32.395  1.00  0.00    -0.205 F 
ATOM     74  C   UNL A   1      44.320  26.402  35.952  1.00  0.00     0.022 A 
BRANCH  72  75
ATOM     75  S   UNL A   1      44.496  24.214  34.306  1.00  0.00     0.127 S 
ATOM     76  O   UNL A   1      45.069  23.780  35.575  1.00  0.00    -0.237 OA
ATOM     77  O   UNL A   1      43.180  23.657  33.995  1.00  0.00    -0.237 OA
ATOM     78  O   UNL A   1      45.408  24.257  33.167  1.00  0.00    -0.744 OA
ENDBRANCH  72  75
ENDBRANCH  54  68
BRANCH  55  79
ATOM     79  C   UNL A   1      43.375  25.127  25.938  1.00  0.00     0.023 A 
ATOM     80  C   UNL A   1      44.421  24.892  25.020  1.00  0.00     0.012 A 
ATOM     81  C   UNL A   1      42.594  24.019  26.342  1.00  0.00     0.148 A 
ATOM     82  C   UNL A   1      44.713  23.601  24.563  1.00  0.00     0.002 A 
ATOM     83  C   UNL A   1      42.877  22.739  25.870  1.00  0.00     0.091 A 
ATOM     84  F   UNL A   1      41.637  24.198  27.261  1.00  0.00    -0.205 F 
ATOM     85  C   UNL A   1      43.948  22.523  24.994  1.00  0.00     0.022 A 
BRANCH  83  86
ATOM     86  S   UNL A   1      41.931  21.299  26.390  1.00  0.00     0.127 S 
ATOM     87  O   UNL A   1      40.567  21.677  26.013  1.00  0.00    -0.237 OA
ATOM     88  O   UNL A   1      42.519  20.239  25.577  1.00  0.00    -0.237 OA
ATOM     89  O   UNL A   1      42.142  21.189  27.828  1.00  0.00    -0.744 OA
ENDBRANCH  83  86
ENDBRANCH  55  79
BRANCH  67  90
ATOM     90  C   UNL A   1      45.459  30.662  28.101  1.00  0.00     0.023 A 
ATOM     91  C   UNL A   1      44.336  31.286  27.519  1.00  0.00     0.012 A 
ATOM     92  C   UNL A   1      46.740  31.161  27.822  1.00  0.00     0.148 A 
ATOM     93  C   UNL A   1      44.488  32.390  26.676  1.00  0.00     0.002 A 
ATOM     94  C   UNL A   1      46.885  32.284  27.016  1.00  0.00     0.091 A 
ATOM     95  F   UNL A   1      47.791  30.564  28.403  1.00  0.00    -0.205 F 
ATOM     96  C   UNL A   1      45.762  32.899  26.439  1.00  0.00     0.022 A 
BRANCH  94  97
ATOM     97  S   UNL A   1      48.476  33.075  26.766  1.00  0.00     0.127 S 
ATOM     98  O   UNL A   1      48.164  34.072  25.743  1.00  0.00    -0.237 OA
ATOM     99  O   UNL A   1      48.758  33.627  28.091  1.00  0.00    -0.237 OA
ATOM    100  O   UNL A   1      49.393  32.023  26.345  1.00  0.00    -0.744 OA
ENDBRANCH  94  97
ENDBRANCH  67  90
ENDBRANCH  41  42
ENDBRANCH  33  36
ENDBRANCH  31  32
ENDBRANCH   1  31
TORSDOF 17
ENDMDL
