MODEL 1
REMARK VINA RESULT:     -11.5      0.000      0.000
REMARK SMILES Cc1cc(C(=O)N[C@](C)(C(=O)NCCCNC(=O)c2ccc(-c3c4nc(c(-c5cccc(S(=O)(=O)[O-])c5F)c5ccc([nH]5)c(-c5cccc(S(=O)(=O)[O-])c5F)c5nc(c(-c6cccc(S(=O)(=O)[O-])c6F)c6ccc3[nH]6)C=C5)C=C4)cc2)C(F)(F)F)no1
REMARK SMILES IDX 14 1 13 2 12 3 10 4 11 5 8 7 9 8 7 9 5 10 6 11 4 13 1 14
REMARK SMILES IDX 2 15 3 16 87 17 86 18 82 19 83 20 84 21 85 22 15 23 16 24
REMARK SMILES IDX 17 25 18 27 19 28 20 29 81 30 21 31 80 32 22 33 23 34 24 35
REMARK SMILES IDX 74 36 25 37 79 38 73 39 75 40 26 41 78 42 72 43 71 44 27 46
REMARK SMILES IDX 59 47 39 48 58 49 40 50 43 51 57 52 76 53 41 54 42 55 56 57
REMARK SMILES IDX 77 58 44 59 28 60 29 61 37 62 30 63 32 64 38 65 31 66 33 67
REMARK SMILES IDX 34 68 35 69 36 70 60 71 61 72 69 73 62 74 64 75 70 76 63 77
REMARK SMILES IDX 65 78 66 79 67 80 68 81 45 82 46 83 54 84 47 85 49 86 55 87
REMARK SMILES IDX 48 88 50 89 51 90 52 91 53 92
REMARK H PARENT 12 6 7 12 16 26 75 45 43 56
REMARK Flexibility Score: inf
ROOT
ATOM      1  C   UNL A   1      32.997  29.386  24.597  1.00  0.00     0.042 C 
ENDROOT
BRANCH   1   2
ATOM      2  C   UNL A   1      32.771  28.002  24.015  1.00  0.00     0.117 C 
BRANCH   2   3
ATOM      3  N   UNL A   1      31.465  27.462  24.372  1.00  0.00    -0.354 N 
ATOM      4  C   UNL A   1      31.104  26.201  24.749  1.00  0.00     0.254 C 
ATOM      5  O   UNL A   1      29.918  26.032  25.036  1.00  0.00    -0.272 OA
ATOM      6  H   UNL A   1      30.726  28.111  24.335  1.00  0.00     0.163 HD
BRANCH   4   7
ATOM      7  C   UNL A   1      32.109  25.041  24.699  1.00  0.00     0.212 C 
ATOM      8  C   UNL A   1      31.283  23.736  24.851  1.00  0.00     0.056 C 
BRANCH   7   9
ATOM      9  N   UNL A   1      32.902  24.953  23.424  1.00  0.00    -0.329 N 
ATOM     10  C   UNL A   1      33.501  23.848  22.841  1.00  0.00     0.274 C 
ATOM     11  O   UNL A   1      33.420  23.750  21.616  1.00  0.00    -0.267 OA
ATOM     12  H   UNL A   1      33.011  25.799  22.935  1.00  0.00     0.165 HD
BRANCH  10  13
ATOM     13  C   UNL A   1      34.370  22.989  23.643  1.00  0.00     0.171 A 
ATOM     14  C   UNL A   1      37.342  21.229  24.868  1.00  0.00     0.091 C 
ATOM     15  C   UNL A   1      36.073  21.881  24.502  1.00  0.00     0.134 A 
ATOM     16  C   UNL A   1      35.737  23.114  23.996  1.00  0.00     0.082 A 
ATOM     17  O   UNL A   1      34.953  21.125  24.612  1.00  0.00    -0.361 OA
ATOM     18  N   UNL A   1      33.879  21.822  24.100  1.00  0.00    -0.074 NA
ENDBRANCH  10  13
ENDBRANCH   7   9
BRANCH   7  19
ATOM     19  C   UNL A   1      33.046  25.155  25.922  1.00  0.00     0.420 C 
ATOM     20  F   UNL A   1      34.288  25.585  25.622  1.00  0.00    -0.168 F 
ATOM     21  F   UNL A   1      32.531  26.061  26.800  1.00  0.00    -0.168 F 
ATOM     22  F   UNL A   1      33.150  23.989  26.600  1.00  0.00    -0.168 F 
ENDBRANCH   7  19
ENDBRANCH   4   7
ENDBRANCH   2   3
ENDBRANCH   1   2
BRANCH   1  23
ATOM     23  C   UNL A   1      32.554  29.526  26.048  1.00  0.00     0.118 C 
BRANCH  23  24
ATOM     24  N   UNL A   1      32.306  30.899  26.466  1.00  0.00    -0.352 N 
ATOM     25  C   UNL A   1      33.111  31.706  27.244  1.00  0.00     0.251 C 
ATOM     26  H   UNL A   1      31.463  31.301  26.155  1.00  0.00     0.163 HD
ATOM     27  O   UNL A   1      32.739  32.820  27.598  1.00  0.00    -0.269 OA
BRANCH  25  28
ATOM     28  C   UNL A   1      34.424  31.187  27.681  1.00  0.00     0.039 A 
ATOM     29  C   UNL A   1      35.472  32.085  27.896  1.00  0.00     0.014 A 
ATOM     30  C   UNL A   1      34.579  29.831  27.979  1.00  0.00     0.014 A 
ATOM     31  C   UNL A   1      36.647  31.636  28.504  1.00  0.00     0.010 A 
ATOM     32  C   UNL A   1      35.714  29.407  28.663  1.00  0.00     0.010 A 
ATOM     33  C   UNL A   1      36.756  30.306  28.943  1.00  0.00    -0.014 A 
BRANCH  33  34
ATOM     34  C   UNL A   1      37.933  29.836  29.720  1.00  0.00     0.031 A 
ATOM     35  C   UNL A   1      38.192  30.382  31.098  1.00  0.00     0.074 A 
ATOM     36  C   UNL A   1      38.825  29.000  29.146  1.00  0.00     0.049 A 
ATOM     37  N   UNL A   1      39.214  30.172  31.888  1.00  0.00    -0.248 NA
ATOM     38  C   UNL A   1      37.190  31.310  31.648  1.00  0.00     0.031 C 
ATOM     39  C   UNL A   1      38.736  28.468  27.784  1.00  0.00     0.029 A 
ATOM     40  N   UNL A   1      39.999  28.474  29.628  1.00  0.00    -0.354 N 
ATOM     41  C   UNL A   1      38.993  30.963  33.009  1.00  0.00     0.074 A 
ATOM     42  C   UNL A   1      37.764  31.690  32.781  1.00  0.00     0.031 C 
ATOM     43  C   UNL A   1      39.806  27.691  27.542  1.00  0.00     0.029 A 
ATOM     44  C   UNL A   1      40.670  27.687  28.718  1.00  0.00     0.049 A 
ATOM     45  H   UNL A   1      40.330  28.643  30.539  1.00  0.00     0.167 HD
ATOM     46  C   UNL A   1      39.725  31.049  34.145  1.00  0.00     0.034 A 
ATOM     47  C   UNL A   1      41.849  27.041  28.819  1.00  0.00     0.034 A 
ATOM     48  C   UNL A   1      40.913  30.283  34.398  1.00  0.00     0.049 A 
ATOM     49  C   UNL A   1      42.611  27.111  30.115  1.00  0.00     0.074 A 
ATOM     50  C   UNL A   1      41.684  30.247  35.547  1.00  0.00     0.029 A 
ATOM     51  N   UNL A   1      41.497  29.408  33.496  1.00  0.00    -0.354 N 
ATOM     52  N   UNL A   1      42.304  27.749  31.220  1.00  0.00    -0.248 NA
ATOM     53  C   UNL A   1      43.863  26.342  30.196  1.00  0.00     0.031 C 
ATOM     54  C   UNL A   1      42.736  29.348  35.338  1.00  0.00     0.029 A 
ATOM     55  C   UNL A   1      42.614  28.821  34.063  1.00  0.00     0.049 A 
ATOM     56  H   UNL A   1      41.166  29.231  32.586  1.00  0.00     0.167 HD
ATOM     57  C   UNL A   1      43.301  27.428  32.134  1.00  0.00     0.074 A 
ATOM     58  C   UNL A   1      44.209  26.520  31.463  1.00  0.00     0.031 C 
ATOM     59  C   UNL A   1      43.465  27.863  33.407  1.00  0.00     0.034 A 
BRANCH  46  60
ATOM     60  C   UNL A   1      39.213  31.945  35.241  1.00  0.00     0.023 A 
ATOM     61  C   UNL A   1      38.243  31.446  36.135  1.00  0.00     0.012 A 
ATOM     62  C   UNL A   1      39.734  33.239  35.436  1.00  0.00     0.148 A 
ATOM     63  C   UNL A   1      37.780  32.229  37.190  1.00  0.00     0.002 A 
ATOM     64  C   UNL A   1      39.296  33.998  36.514  1.00  0.00     0.091 A 
ATOM     65  F   UNL A   1      40.641  33.701  34.564  1.00  0.00    -0.205 F 
ATOM     66  C   UNL A   1      38.313  33.499  37.386  1.00  0.00     0.022 A 
BRANCH  64  67
ATOM     67  S   UNL A   1      39.969  35.619  36.900  1.00  0.00     0.127 S 
ATOM     68  O   UNL A   1      41.389  35.315  37.073  1.00  0.00    -0.237 OA
ATOM     69  O   UNL A   1      39.651  36.379  35.691  1.00  0.00    -0.237 OA
ATOM     70  O   UNL A   1      39.278  36.066  38.101  1.00  0.00    -0.744 OA
ENDBRANCH  64  67
ENDBRANCH  46  60
BRANCH  47  71
ATOM     71  C   UNL A   1      42.351  26.210  27.687  1.00  0.00     0.023 A 
ATOM     72  C   UNL A   1      43.251  26.776  26.763  1.00  0.00     0.012 A 
ATOM     73  C   UNL A   1      41.950  24.871  27.517  1.00  0.00     0.148 A 
ATOM     74  C   UNL A   1      43.709  26.040  25.670  1.00  0.00     0.002 A 
ATOM     75  C   UNL A   1      42.454  24.125  26.456  1.00  0.00     0.091 A 
ATOM     76  F   UNL A   1      41.079  24.350  28.393  1.00  0.00    -0.205 F 
ATOM     77  C   UNL A   1      43.319  24.712  25.521  1.00  0.00     0.022 A 
BRANCH  75  78
ATOM     78  S   UNL A   1      42.100  22.373  26.284  1.00  0.00     0.127 S 
ATOM     79  O   UNL A   1      40.648  22.371  26.140  1.00  0.00    -0.237 OA
ATOM     80  O   UNL A   1      42.840  22.021  25.071  1.00  0.00    -0.237 OA
ATOM     81  O   UNL A   1      42.627  21.757  27.497  1.00  0.00    -0.744 OA
ENDBRANCH  75  78
ENDBRANCH  47  71
BRANCH  59  82
ATOM     82  C   UNL A   1      44.644  27.339  34.180  1.00  0.00     0.023 A 
ATOM     83  C   UNL A   1      45.867  28.036  34.140  1.00  0.00     0.012 A 
ATOM     84  C   UNL A   1      44.517  26.208  35.010  1.00  0.00     0.148 A 
ATOM     85  C   UNL A   1      46.956  27.599  34.894  1.00  0.00     0.002 A 
ATOM     86  C   UNL A   1      45.593  25.805  35.792  1.00  0.00     0.091 A 
ATOM     87  F   UNL A   1      43.349  25.547  35.018  1.00  0.00    -0.205 F 
ATOM     88  C   UNL A   1      46.815  26.493  35.728  1.00  0.00     0.022 A 
BRANCH  86  89
ATOM     89  S   UNL A   1      45.472  24.447  36.963  1.00  0.00     0.127 S 
ATOM     90  O   UNL A   1      46.808  24.446  37.555  1.00  0.00    -0.237 OA
ATOM     91  O   UNL A   1      44.408  24.901  37.859  1.00  0.00    -0.237 OA
ATOM     92  O   UNL A   1      45.134  23.270  36.175  1.00  0.00    -0.744 OA
ENDBRANCH  86  89
ENDBRANCH  59  82
ENDBRANCH  33  34
ENDBRANCH  25  28
ENDBRANCH  23  24
ENDBRANCH   1  23
TORSDOF 16
ENDMDL
MODEL 2
REMARK VINA RESULT:     -11.5      4.742     10.008
REMARK SMILES Cc1cc(C(=O)N[C@](C)(C(=O)NCCCNC(=O)c2ccc(-c3c4nc(c(-c5cccc(S(=O)(=O)[O-])c5F)c5ccc([nH]5)c(-c5cccc(S(=O)(=O)[O-])c5F)c5nc(c(-c6cccc(S(=O)(=O)[O-])c6F)c6ccc3[nH]6)C=C5)C=C4)cc2)C(F)(F)F)no1
REMARK SMILES IDX 14 1 13 2 12 3 10 4 11 5 8 7 9 8 7 9 5 10 6 11 4 13 1 14
REMARK SMILES IDX 2 15 3 16 87 17 86 18 82 19 83 20 84 21 85 22 15 23 16 24
REMARK SMILES IDX 17 25 18 27 19 28 20 29 81 30 21 31 80 32 22 33 23 34 24 35
REMARK SMILES IDX 74 36 25 37 79 38 73 39 75 40 26 41 78 42 72 43 71 44 27 46
REMARK SMILES IDX 59 47 39 48 58 49 40 50 43 51 57 52 76 53 41 54 42 55 56 57
REMARK SMILES IDX 77 58 44 59 28 60 29 61 37 62 30 63 32 64 38 65 31 66 33 67
REMARK SMILES IDX 34 68 35 69 36 70 60 71 61 72 69 73 62 74 64 75 70 76 63 77
REMARK SMILES IDX 65 78 66 79 67 80 68 81 45 82 46 83 54 84 47 85 49 86 55 87
REMARK SMILES IDX 48 88 50 89 51 90 52 91 53 92
REMARK H PARENT 12 6 7 12 16 26 75 45 43 56
REMARK Flexibility Score: inf
ROOT
ATOM      1  C   UNL A   1      35.843  21.584  24.376  1.00  0.00     0.042 C 
ENDROOT
BRANCH   1   2
ATOM      2  C   UNL A   1      34.474  21.366  24.995  1.00  0.00     0.117 C 
BRANCH   2   3
ATOM      3  N   UNL A   1      33.455  21.088  23.990  1.00  0.00    -0.354 N 
ATOM      4  C   UNL A   1      32.499  21.901  23.454  1.00  0.00     0.254 C 
ATOM      5  O   UNL A   1      31.785  21.407  22.580  1.00  0.00    -0.272 OA
ATOM      6  H   UNL A   1      33.457  20.166  23.643  1.00  0.00     0.163 HD
BRANCH   4   7
ATOM      7  C   UNL A   1      32.261  23.315  24.005  1.00  0.00     0.212 C 
ATOM      8  C   UNL A   1      30.857  23.751  23.509  1.00  0.00     0.056 C 
BRANCH   7   9
ATOM      9  N   UNL A   1      32.284  23.415  25.506  1.00  0.00    -0.329 N 
ATOM     10  C   UNL A   1      31.602  24.290  26.335  1.00  0.00     0.274 C 
ATOM     11  O   UNL A   1      31.138  23.826  27.377  1.00  0.00    -0.267 OA
ATOM     12  H   UNL A   1      32.866  22.768  25.963  1.00  0.00     0.165 HD
BRANCH  10  13
ATOM     13  C   UNL A   1      31.649  25.726  26.066  1.00  0.00     0.171 A 
ATOM     14  C   UNL A   1      31.122  28.978  24.460  1.00  0.00     0.091 C 
ATOM     15  C   UNL A   1      31.401  27.749  25.224  1.00  0.00     0.134 A 
ATOM     16  C   UNL A   1      30.696  26.597  25.481  1.00  0.00     0.082 A 
ATOM     17  O   UNL A   1      32.637  27.648  25.772  1.00  0.00    -0.361 OA
ATOM     18  N   UNL A   1      32.790  26.393  26.324  1.00  0.00    -0.074 NA
ENDBRANCH  10  13
ENDBRANCH   7   9
BRANCH   7  19
ATOM     19  C   UNL A   1      33.304  24.265  23.375  1.00  0.00     0.420 C 
ATOM     20  F   UNL A   1      32.799  25.455  22.991  1.00  0.00    -0.168 F 
ATOM     21  F   UNL A   1      34.273  24.540  24.293  1.00  0.00    -0.168 F 
ATOM     22  F   UNL A   1      33.933  23.708  22.315  1.00  0.00    -0.168 F 
ENDBRANCH   7  19
ENDBRANCH   4   7
ENDBRANCH   2   3
ENDBRANCH   1   2
BRANCH   1  23
ATOM     23  C   UNL A   1      36.927  21.942  25.386  1.00  0.00     0.118 C 
BRANCH  23  24
ATOM     24  N   UNL A   1      37.958  20.924  25.539  1.00  0.00    -0.352 N 
ATOM     25  C   UNL A   1      39.215  21.068  26.089  1.00  0.00     0.251 C 
ATOM     26  H   UNL A   1      37.731  20.024  25.211  1.00  0.00     0.163 HD
ATOM     27  O   UNL A   1      40.024  20.145  26.074  1.00  0.00    -0.269 OA
BRANCH  25  28
ATOM     28  C   UNL A   1      39.591  22.376  26.666  1.00  0.00     0.039 A 
ATOM     29  C   UNL A   1      40.626  22.432  27.602  1.00  0.00     0.014 A 
ATOM     30  C   UNL A   1      38.992  23.548  26.199  1.00  0.00     0.014 A 
ATOM     31  C   UNL A   1      41.128  23.676  27.996  1.00  0.00     0.010 A 
ATOM     32  C   UNL A   1      39.550  24.779  26.527  1.00  0.00     0.010 A 
ATOM     33  C   UNL A   1      40.631  24.857  27.420  1.00  0.00    -0.014 A 
BRANCH  33  34
ATOM     34  C   UNL A   1      41.239  26.182  27.712  1.00  0.00     0.031 A 
ATOM     35  C   UNL A   1      42.664  26.461  27.311  1.00  0.00     0.074 A 
ATOM     36  C   UNL A   1      40.549  27.095  28.428  1.00  0.00     0.049 A 
ATOM     37  N   UNL A   1      43.399  27.512  27.565  1.00  0.00    -0.248 NA
ATOM     38  C   UNL A   1      43.363  25.408  26.556  1.00  0.00     0.031 C 
ATOM     39  C   UNL A   1      39.193  26.913  28.952  1.00  0.00     0.029 A 
ATOM     40  N   UNL A   1      40.905  28.347  28.864  1.00  0.00    -0.354 N 
ATOM     41  C   UNL A   1      44.652  27.235  27.031  1.00  0.00     0.074 A 
ATOM     42  C   UNL A   1      44.591  25.900  26.476  1.00  0.00     0.031 C 
ATOM     43  C   UNL A   1      38.832  28.013  29.635  1.00  0.00     0.029 A 
ATOM     44  C   UNL A   1      39.935  28.968  29.621  1.00  0.00     0.049 A 
ATOM     45  H   UNL A   1      41.772  28.763  28.656  1.00  0.00     0.167 HD
ATOM     46  C   UNL A   1      45.744  28.032  26.970  1.00  0.00     0.034 A 
ATOM     47  C   UNL A   1      39.939  30.167  30.236  1.00  0.00     0.034 A 
ATOM     48  C   UNL A   1      45.788  29.379  27.465  1.00  0.00     0.049 A 
ATOM     49  C   UNL A   1      41.148  31.054  30.102  1.00  0.00     0.074 A 
ATOM     50  C   UNL A   1      46.825  30.292  27.386  1.00  0.00     0.029 A 
ATOM     51  N   UNL A   1      44.745  30.014  28.123  1.00  0.00    -0.354 N 
ATOM     52  N   UNL A   1      42.269  30.828  29.461  1.00  0.00    -0.248 NA
ATOM     53  C   UNL A   1      41.080  32.377  30.743  1.00  0.00     0.031 C 
ATOM     54  C   UNL A   1      46.409  31.480  27.996  1.00  0.00     0.029 A 
ATOM     55  C   UNL A   1      45.111  31.308  28.448  1.00  0.00     0.049 A 
ATOM     56  H   UNL A   1      43.874  29.604  28.327  1.00  0.00     0.167 HD
ATOM     57  C   UNL A   1      43.021  31.990  29.589  1.00  0.00     0.074 A 
ATOM     58  C   UNL A   1      42.219  32.928  30.348  1.00  0.00     0.031 C 
ATOM     59  C   UNL A   1      44.273  32.252  29.139  1.00  0.00     0.034 A 
BRANCH  46  60
ATOM     60  C   UNL A   1      46.962  27.498  26.265  1.00  0.00     0.023 A 
ATOM     61  C   UNL A   1      47.138  27.781  24.894  1.00  0.00     0.012 A 
ATOM     62  C   UNL A   1      47.960  26.787  26.959  1.00  0.00     0.148 A 
ATOM     63  C   UNL A   1      48.275  27.343  24.219  1.00  0.00     0.002 A 
ATOM     64  C   UNL A   1      49.110  26.389  26.288  1.00  0.00     0.091 A 
ATOM     65  F   UNL A   1      47.764  26.513  28.257  1.00  0.00    -0.205 F 
ATOM     66  C   UNL A   1      49.265  26.658  24.917  1.00  0.00     0.022 A 
BRANCH  64  67
ATOM     67  S   UNL A   1      50.479  25.564  27.107  1.00  0.00     0.127 S 
ATOM     68  O   UNL A   1      51.404  25.350  25.995  1.00  0.00    -0.237 OA
ATOM     69  O   UNL A   1      50.911  26.572  28.075  1.00  0.00    -0.237 OA
ATOM     70  O   UNL A   1      49.925  24.353  27.697  1.00  0.00    -0.744 OA
ENDBRANCH  64  67
ENDBRANCH  46  60
BRANCH  47  71
ATOM     71  C   UNL A   1      38.731  30.637  30.976  1.00  0.00     0.023 A 
ATOM     72  C   UNL A   1      38.650  30.424  32.366  1.00  0.00     0.012 A 
ATOM     73  C   UNL A   1      37.670  31.289  30.321  1.00  0.00     0.148 A 
ATOM     74  C   UNL A   1      37.517  30.814  33.083  1.00  0.00     0.002 A 
ATOM     75  C   UNL A   1      36.568  31.726  31.051  1.00  0.00     0.091 A 
ATOM     76  F   UNL A   1      37.752  31.469  28.995  1.00  0.00    -0.205 F 
ATOM     77  C   UNL A   1      36.481  31.473  32.428  1.00  0.00     0.022 A 
BRANCH  75  78
ATOM     78  S   UNL A   1      35.262  32.700  30.294  1.00  0.00     0.127 S 
ATOM     79  O   UNL A   1      34.817  31.822  29.216  1.00  0.00    -0.237 OA
ATOM     80  O   UNL A   1      34.310  32.855  31.395  1.00  0.00    -0.237 OA
ATOM     81  O   UNL A   1      35.903  33.944  29.888  1.00  0.00    -0.744 OA
ENDBRANCH  75  78
ENDBRANCH  47  71
BRANCH  59  82
ATOM     82  C   UNL A   1      44.846  33.615  29.416  1.00  0.00     0.023 A 
ATOM     83  C   UNL A   1      45.721  33.793  30.505  1.00  0.00     0.012 A 
ATOM     84  C   UNL A   1      44.585  34.696  28.551  1.00  0.00     0.148 A 
ATOM     85  C   UNL A   1      46.308  35.035  30.745  1.00  0.00     0.002 A 
ATOM     86  C   UNL A   1      45.208  35.919  28.772  1.00  0.00     0.091 A 
ATOM     87  F   UNL A   1      43.733  34.510  27.532  1.00  0.00    -0.205 F 
ATOM     88  C   UNL A   1      46.061  36.093  29.873  1.00  0.00     0.022 A 
BRANCH  86  89
ATOM     89  S   UNL A   1      45.020  37.308  27.648  1.00  0.00     0.127 S 
ATOM     90  O   UNL A   1      45.147  38.445  28.557  1.00  0.00    -0.237 OA
ATOM     91  O   UNL A   1      46.150  37.127  26.736  1.00  0.00    -0.237 OA
ATOM     92  O   UNL A   1      43.713  37.144  27.026  1.00  0.00    -0.744 OA
ENDBRANCH  86  89
ENDBRANCH  59  82
ENDBRANCH  33  34
ENDBRANCH  25  28
ENDBRANCH  23  24
ENDBRANCH   1  23
TORSDOF 16
ENDMDL
MODEL 3
REMARK VINA RESULT:     -11.5      5.171      7.846
REMARK SMILES Cc1cc(C(=O)N[C@](C)(C(=O)NCCCNC(=O)c2ccc(-c3c4nc(c(-c5cccc(S(=O)(=O)[O-])c5F)c5ccc([nH]5)c(-c5cccc(S(=O)(=O)[O-])c5F)c5nc(c(-c6cccc(S(=O)(=O)[O-])c6F)c6ccc3[nH]6)C=C5)C=C4)cc2)C(F)(F)F)no1
REMARK SMILES IDX 14 1 13 2 12 3 10 4 11 5 8 7 9 8 7 9 5 10 6 11 4 13 1 14
REMARK SMILES IDX 2 15 3 16 87 17 86 18 82 19 83 20 84 21 85 22 15 23 16 24
REMARK SMILES IDX 17 25 18 27 19 28 20 29 81 30 21 31 80 32 22 33 23 34 24 35
REMARK SMILES IDX 74 36 25 37 79 38 73 39 75 40 26 41 78 42 72 43 71 44 27 46
REMARK SMILES IDX 59 47 39 48 58 49 40 50 43 51 57 52 76 53 41 54 42 55 56 57
REMARK SMILES IDX 77 58 44 59 28 60 29 61 37 62 30 63 32 64 38 65 31 66 33 67
REMARK SMILES IDX 34 68 35 69 36 70 60 71 61 72 69 73 62 74 64 75 70 76 63 77
REMARK SMILES IDX 65 78 66 79 67 80 68 81 45 82 46 83 54 84 47 85 49 86 55 87
REMARK SMILES IDX 48 88 50 89 51 90 52 91 53 92
REMARK H PARENT 12 6 7 12 16 26 75 45 43 56
REMARK Flexibility Score: inf
ROOT
ATOM      1  C   UNL A   1      35.825  21.438  24.586  1.00  0.00     0.042 C 
ENDROOT
BRANCH   1   2
ATOM      2  C   UNL A   1      34.400  21.510  25.105  1.00  0.00     0.117 C 
BRANCH   2   3
ATOM      3  N   UNL A   1      33.423  21.189  24.073  1.00  0.00    -0.354 N 
ATOM      4  C   UNL A   1      32.474  21.971  23.481  1.00  0.00     0.254 C 
ATOM      5  O   UNL A   1      31.800  21.442  22.596  1.00  0.00    -0.272 OA
ATOM      6  H   UNL A   1      33.452  20.258  23.751  1.00  0.00     0.163 HD
BRANCH   4   7
ATOM      7  C   UNL A   1      32.194  23.394  23.984  1.00  0.00     0.212 C 
ATOM      8  C   UNL A   1      30.839  23.824  23.361  1.00  0.00     0.056 C 
BRANCH   7   9
ATOM      9  N   UNL A   1      32.087  23.521  25.479  1.00  0.00    -0.329 N 
ATOM     10  C   UNL A   1      31.296  24.374  26.231  1.00  0.00     0.274 C 
ATOM     11  O   UNL A   1      30.771  23.905  27.241  1.00  0.00    -0.267 OA
ATOM     12  H   UNL A   1      32.661  22.913  25.997  1.00  0.00     0.165 HD
BRANCH  10  13
ATOM     13  C   UNL A   1      31.294  25.806  25.937  1.00  0.00     0.171 A 
ATOM     14  C   UNL A   1      30.891  28.985  24.159  1.00  0.00     0.091 C 
ATOM     15  C   UNL A   1      31.086  27.793  25.001  1.00  0.00     0.134 A 
ATOM     16  C   UNL A   1      30.430  26.592  25.133  1.00  0.00     0.082 A 
ATOM     17  O   UNL A   1      32.176  27.796  25.807  1.00  0.00    -0.361 OA
ATOM     18  N   UNL A   1      32.298  26.564  26.415  1.00  0.00    -0.074 NA
ENDBRANCH  10  13
ENDBRANCH   7   9
BRANCH   7  19
ATOM     19  C   UNL A   1      33.290  24.332  23.430  1.00  0.00     0.420 C 
ATOM     20  F   UNL A   1      34.030  23.786  22.444  1.00  0.00    -0.168 F 
ATOM     21  F   UNL A   1      32.704  25.441  22.897  1.00  0.00    -0.168 F 
ATOM     22  F   UNL A   1      34.126  24.772  24.397  1.00  0.00    -0.168 F 
ENDBRANCH   7  19
ENDBRANCH   4   7
ENDBRANCH   2   3
ENDBRANCH   1   2
BRANCH   1  23
ATOM     23  C   UNL A   1      36.885  21.630  25.665  1.00  0.00     0.118 C 
BRANCH  23  24
ATOM     24  N   UNL A   1      37.933  20.618  25.659  1.00  0.00    -0.352 N 
ATOM     25  C   UNL A   1      39.242  20.752  26.068  1.00  0.00     0.251 C 
ATOM     26  H   UNL A   1      37.674  19.730  25.322  1.00  0.00     0.163 HD
ATOM     27  O   UNL A   1      40.050  19.839  25.924  1.00  0.00    -0.269 OA
BRANCH  25  28
ATOM     28  C   UNL A   1      39.675  22.040  26.652  1.00  0.00     0.039 A 
ATOM     29  C   UNL A   1      40.691  22.044  27.609  1.00  0.00     0.014 A 
ATOM     30  C   UNL A   1      39.148  23.241  26.170  1.00  0.00     0.014 A 
ATOM     31  C   UNL A   1      41.249  23.260  28.013  1.00  0.00     0.010 A 
ATOM     32  C   UNL A   1      39.763  24.442  26.509  1.00  0.00     0.010 A 
ATOM     33  C   UNL A   1      40.827  24.465  27.425  1.00  0.00    -0.014 A 
BRANCH  33  34
ATOM     34  C   UNL A   1      41.499  25.757  27.728  1.00  0.00     0.031 A 
ATOM     35  C   UNL A   1      40.751  26.841  28.456  1.00  0.00     0.074 A 
ATOM     36  C   UNL A   1      42.742  25.993  27.257  1.00  0.00     0.049 A 
ATOM     37  N   UNL A   1      41.128  28.065  28.723  1.00  0.00    -0.248 NA
ATOM     38  C   UNL A   1      39.389  26.520  28.916  1.00  0.00     0.031 C 
ATOM     39  C   UNL A   1      43.541  25.057  26.461  1.00  0.00     0.029 A 
ATOM     40  N   UNL A   1      43.540  27.106  27.356  1.00  0.00    -0.354 N 
ATOM     41  C   UNL A   1      40.044  28.667  29.350  1.00  0.00     0.074 A 
ATOM     42  C   UNL A   1      38.978  27.689  29.387  1.00  0.00     0.031 C 
ATOM     43  C   UNL A   1      44.713  25.634  26.148  1.00  0.00     0.029 A 
ATOM     44  C   UNL A   1      44.743  26.986  26.695  1.00  0.00     0.049 A 
ATOM     45  H   UNL A   1      43.278  27.914  27.852  1.00  0.00     0.167 HD
ATOM     46  C   UNL A   1      39.953  29.907  29.884  1.00  0.00     0.034 A 
ATOM     47  C   UNL A   1      45.752  27.868  26.545  1.00  0.00     0.034 A 
ATOM     48  C   UNL A   1      41.030  30.857  29.903  1.00  0.00     0.049 A 
ATOM     49  C   UNL A   1      45.645  29.219  27.199  1.00  0.00     0.074 A 
ATOM     50  C   UNL A   1      41.059  32.113  30.483  1.00  0.00     0.029 A 
ATOM     51  N   UNL A   1      42.274  30.655  29.325  1.00  0.00    -0.354 N 
ATOM     52  N   UNL A   1      44.665  29.712  27.918  1.00  0.00    -0.248 NA
ATOM     53  C   UNL A   1      46.796  30.124  27.055  1.00  0.00     0.031 C 
ATOM     54  C   UNL A   1      42.322  32.670  30.257  1.00  0.00     0.029 A 
ATOM     55  C   UNL A   1      43.081  31.758  29.542  1.00  0.00     0.049 A 
ATOM     56  H   UNL A   1      42.543  29.845  28.834  1.00  0.00     0.167 HD
ATOM     57  C   UNL A   1      45.096  30.964  28.342  1.00  0.00     0.074 A 
ATOM     58  C   UNL A   1      46.435  31.145  27.820  1.00  0.00     0.031 C 
ATOM     59  C   UNL A   1      44.437  31.891  29.078  1.00  0.00     0.034 A 
BRANCH  46  60
ATOM     60  C   UNL A   1      38.668  30.280  30.573  1.00  0.00     0.023 A 
ATOM     61  C   UNL A   1      38.510  29.973  31.940  1.00  0.00     0.012 A 
ATOM     62  C   UNL A   1      37.655  30.993  29.902  1.00  0.00     0.148 A 
ATOM     63  C   UNL A   1      37.354  30.344  32.623  1.00  0.00     0.002 A 
ATOM     64  C   UNL A   1      36.523  31.395  30.601  1.00  0.00     0.091 A 
ATOM     65  F   UNL A   1      37.817  31.259  28.598  1.00  0.00    -0.205 F 
ATOM     66  C   UNL A   1      36.367  31.063  31.958  1.00  0.00     0.022 A 
BRANCH  64  67
ATOM     67  S   UNL A   1      35.223  32.387  29.858  1.00  0.00     0.127 S 
ATOM     68  O   UNL A   1      34.331  32.605  30.996  1.00  0.00    -0.237 OA
ATOM     69  O   UNL A   1      35.955  33.576  29.421  1.00  0.00    -0.237 OA
ATOM     70  O   UNL A   1      34.669  31.583  28.778  1.00  0.00    -0.744 OA
ENDBRANCH  64  67
ENDBRANCH  46  60
BRANCH  47  71
ATOM     71  C   UNL A   1      46.987  27.479  25.804  1.00  0.00     0.023 A 
ATOM     72  C   UNL A   1      48.014  26.796  26.487  1.00  0.00     0.012 A 
ATOM     73  C   UNL A   1      47.155  27.776  24.439  1.00  0.00     0.148 A 
ATOM     74  C   UNL A   1      49.199  26.454  25.835  1.00  0.00     0.002 A 
ATOM     75  C   UNL A   1      48.316  27.382  23.780  1.00  0.00     0.091 A 
ATOM     76  F   UNL A   1      46.178  28.443  23.805  1.00  0.00    -0.205 F 
ATOM     77  C   UNL A   1      49.347  26.738  24.480  1.00  0.00     0.022 A 
BRANCH  75  78
ATOM     78  S   UNL A   1      48.513  27.595  22.008  1.00  0.00     0.127 S 
ATOM     79  O   UNL A   1      48.646  26.215  21.550  1.00  0.00    -0.237 OA
ATOM     80  O   UNL A   1      47.261  28.252  21.630  1.00  0.00    -0.237 OA
ATOM     81  O   UNL A   1      49.692  28.440  21.855  1.00  0.00    -0.744 OA
ENDBRANCH  75  78
ENDBRANCH  47  71
BRANCH  59  82
ATOM     82  C   UNL A   1      45.157  33.171  29.401  1.00  0.00     0.023 A 
ATOM     83  C   UNL A   1      45.943  33.252  30.567  1.00  0.00     0.012 A 
ATOM     84  C   UNL A   1      45.123  34.262  28.510  1.00  0.00     0.148 A 
ATOM     85  C   UNL A   1      46.665  34.410  30.855  1.00  0.00     0.002 A 
ATOM     86  C   UNL A   1      45.879  35.396  28.782  1.00  0.00     0.091 A 
ATOM     87  F   UNL A   1      44.352  34.172  27.416  1.00  0.00    -0.205 F 
ATOM     88  C   UNL A   1      46.642  35.475  29.958  1.00  0.00     0.022 A 
BRANCH  86  89
ATOM     89  S   UNL A   1      45.982  36.778  27.639  1.00  0.00     0.127 S 
ATOM     90  O   UNL A   1      47.008  37.608  28.267  1.00  0.00    -0.237 OA
ATOM     91  O   UNL A   1      46.402  36.126  26.398  1.00  0.00    -0.237 OA
ATOM     92  O   UNL A   1      44.647  37.358  27.593  1.00  0.00    -0.744 OA
ENDBRANCH  86  89
ENDBRANCH  59  82
ENDBRANCH  33  34
ENDBRANCH  25  28
ENDBRANCH  23  24
ENDBRANCH   1  23
TORSDOF 16
ENDMDL
