MODEL 1
REMARK VINA RESULT:     -13.4      0.000      0.000
REMARK SMILES C[C@@H](C(=O)NCCCNC(=O)c1ccc(-c2c3nc(c(-c4cccc(S(=O)(=O)[O-])c4F)c4ccc([nH]4)c(-c4cccc(S(=O)(=O)[O-])c4F)c4nc(c(-c5cccc(S(=O)(=O)[O-])c5F)c5ccc2[nH]5)C=C4)C=C3)cc1)c1ccc2c3cc(Cl)ccc3n(C(=O)c3ccc(Cl)cc3)c2c1
REMARK SMILES IDX 7 1 6 2 5 3 3 4 4 5 2 7 1 8 75 9 76 10 97 11 77 12 96 13
REMARK SMILES IDX 78 14 86 15 79 16 85 17 80 18 84 19 81 20 83 21 82 22 87 23
REMARK SMILES IDX 88 24 89 25 90 26 95 27 91 28 94 29 92 30 93 31 8 32 9 33
REMARK SMILES IDX 10 34 11 36 12 37 13 38 74 39 14 40 73 41 15 42 16 43 17 44
REMARK SMILES IDX 67 45 18 46 72 47 66 48 68 49 19 50 71 51 65 52 64 53 20 55
REMARK SMILES IDX 52 56 32 57 51 58 33 59 36 60 50 61 69 62 34 63 35 64 49 66
REMARK SMILES IDX 70 67 37 68 21 69 22 70 30 71 23 72 25 73 31 74 24 75 26 76
REMARK SMILES IDX 27 77 28 78 29 79 53 80 54 81 62 82 55 83 57 84 63 85 56 86
REMARK SMILES IDX 58 87 59 88 60 89 61 90 38 91 39 92 47 93 40 94 42 95 48 96
REMARK SMILES IDX 41 97 43 98 44 99 45 100 46 101
REMARK H PARENT 5 6 9 35 68 54 36 65
REMARK Flexibility Score: inf
ROOT
ATOM      1  C   UNL A   1      32.636  29.332  24.420  1.00  0.00     0.042 C 
ENDROOT
BRANCH   1   2
ATOM      2  C   UNL A   1      31.297  28.652  24.154  1.00  0.00     0.117 C 
BRANCH   2   3
ATOM      3  N   UNL A   1      30.910  27.781  25.246  1.00  0.00    -0.356 N 
ATOM      4  C   UNL A   1      30.827  26.421  25.311  1.00  0.00     0.227 C 
ATOM      5  O   UNL A   1      30.424  25.958  26.381  1.00  0.00    -0.274 OA
ATOM      6  H   UNL A   1      30.668  28.248  26.078  1.00  0.00     0.163 HD
BRANCH   4   7
ATOM      7  C   UNL A   1      31.285  25.567  24.119  1.00  0.00     0.105 C 
ATOM      8  C   UNL A   1      30.274  24.497  23.698  1.00  0.00     0.023 C 
BRANCH   7   9
ATOM      9  C   UNL A   1      32.619  24.854  24.320  1.00  0.00    -0.034 A 
ATOM     10  C   UNL A   1      33.749  25.517  24.801  1.00  0.00     0.005 A 
ATOM     11  C   UNL A   1      32.663  23.461  24.139  1.00  0.00     0.032 A 
ATOM     12  C   UNL A   1      34.913  24.814  25.117  1.00  0.00     0.011 A 
ATOM     13  C   UNL A   1      33.847  22.756  24.430  1.00  0.00     0.057 A 
ATOM     14  C   UNL A   1      34.954  23.416  24.950  1.00  0.00     0.008 A 
ATOM     15  N   UNL A   1      34.145  21.387  24.337  1.00  0.00    -0.276 N 
ATOM     16  C   UNL A   1      35.957  22.442  25.186  1.00  0.00     0.009 A 
ATOM     17  C   UNL A   1      35.484  21.208  24.717  1.00  0.00     0.057 A 
ATOM     18  C   UNL A   1      37.263  22.548  25.710  1.00  0.00     0.031 A 
ATOM     19  C   UNL A   1      36.359  20.107  24.629  1.00  0.00     0.029 A 
ATOM     20  C   UNL A   1      38.101  21.440  25.678  1.00  0.00     0.041 A 
ATOM     21  C   UNL A   1      37.667  20.245  25.121  1.00  0.00     0.023 A 
ATOM     22  Cl  UNL A   1      39.705  21.576  26.289  1.00  0.00    -0.084 Cl
BRANCH  15  23
ATOM     23  C   UNL A   1      33.210  20.428  23.858  1.00  0.00     0.262 C 
ATOM     24  O   UNL A   1      32.356  20.857  23.077  1.00  0.00    -0.268 OA
BRANCH  23  25
ATOM     25  C   UNL A   1      33.077  18.977  24.192  1.00  0.00     0.040 A 
ATOM     26  C   UNL A   1      32.829  18.660  25.546  1.00  0.00     0.015 A 
ATOM     27  C   UNL A   1      33.312  17.926  23.301  1.00  0.00     0.015 A 
ATOM     28  C   UNL A   1      32.790  17.340  25.995  1.00  0.00     0.021 A 
ATOM     29  C   UNL A   1      33.240  16.594  23.746  1.00  0.00     0.021 A 
ATOM     30  C   UNL A   1      32.985  16.308  25.088  1.00  0.00     0.041 A 
ATOM     31  Cl  UNL A   1      32.935  14.677  25.633  1.00  0.00    -0.084 Cl
ENDBRANCH  23  25
ENDBRANCH  15  23
ENDBRANCH   7   9
ENDBRANCH   4   7
ENDBRANCH   2   3
ENDBRANCH   1   2
BRANCH   1  32
ATOM     32  C   UNL A   1      32.924  29.581  25.895  1.00  0.00     0.118 C 
BRANCH  32  33
ATOM     33  N   UNL A   1      32.752  30.975  26.274  1.00  0.00    -0.352 N 
ATOM     34  C   UNL A   1      33.442  31.718  27.202  1.00  0.00     0.251 C 
ATOM     35  H   UNL A   1      32.038  31.457  25.796  1.00  0.00     0.163 HD
ATOM     36  O   UNL A   1      33.035  32.825  27.525  1.00  0.00    -0.269 OA
BRANCH  34  37
ATOM     37  C   UNL A   1      34.664  31.158  27.819  1.00  0.00     0.039 A 
ATOM     38  C   UNL A   1      35.761  31.997  28.029  1.00  0.00     0.014 A 
ATOM     39  C   UNL A   1      34.717  29.816  28.201  1.00  0.00     0.014 A 
ATOM     40  C   UNL A   1      36.889  31.502  28.686  1.00  0.00     0.010 A 
ATOM     41  C   UNL A   1      35.805  29.350  28.929  1.00  0.00     0.010 A 
ATOM     42  C   UNL A   1      36.905  30.186  29.175  1.00  0.00    -0.014 A 
BRANCH  42  43
ATOM     43  C   UNL A   1      38.053  29.657  29.953  1.00  0.00     0.031 A 
ATOM     44  C   UNL A   1      38.264  30.099  31.375  1.00  0.00     0.074 A 
ATOM     45  C   UNL A   1      38.966  28.873  29.348  1.00  0.00     0.049 A 
ATOM     46  N   UNL A   1      39.262  29.843  32.179  1.00  0.00    -0.248 NA
ATOM     47  C   UNL A   1      37.233  30.975  31.958  1.00  0.00     0.031 C 
ATOM     48  C   UNL A   1      38.915  28.443  27.949  1.00  0.00     0.029 A 
ATOM     49  N   UNL A   1      40.139  28.336  29.818  1.00  0.00    -0.354 N 
ATOM     50  C   UNL A   1      39.004  30.558  33.342  1.00  0.00     0.074 A 
ATOM     51  C   UNL A   1      37.772  31.285  33.127  1.00  0.00     0.031 C 
ATOM     52  C   UNL A   1      40.012  27.722  27.670  1.00  0.00     0.029 A 
ATOM     53  C   UNL A   1      40.863  27.671  28.857  1.00  0.00     0.049 A 
ATOM     54  H   UNL A   1      40.434  28.420  30.754  1.00  0.00     0.167 HD
ATOM     55  C   UNL A   1      39.714  30.587  34.496  1.00  0.00     0.034 A 
ATOM     56  C   UNL A   1      42.085  27.105  28.912  1.00  0.00     0.034 A 
ATOM     57  C   UNL A   1      40.919  29.835  34.715  1.00  0.00     0.049 A 
ATOM     58  C   UNL A   1      42.840  27.119  30.212  1.00  0.00     0.074 A 
ATOM     59  C   UNL A   1      41.658  29.718  35.878  1.00  0.00     0.029 A 
ATOM     60  N   UNL A   1      41.571  29.087  33.747  1.00  0.00    -0.354 N 
ATOM     61  N   UNL A   1      42.500  27.663  31.356  1.00  0.00    -0.248 NA
ATOM     62  C   UNL A   1      44.129  26.414  30.244  1.00  0.00     0.031 C 
ATOM     63  C   UNL A   1      42.778  28.926  35.603  1.00  0.00     0.029 A 
ATOM     64  C   UNL A   1      42.714  28.518  34.280  1.00  0.00     0.049 A 
ATOM     65  H   UNL A   1      41.266  28.976  32.818  1.00  0.00     0.167 HD
ATOM     66  C   UNL A   1      43.513  27.339  32.250  1.00  0.00     0.074 A 
ATOM     67  C   UNL A   1      44.472  26.537  31.519  1.00  0.00     0.031 C 
ATOM     68  C   UNL A   1      43.638  27.681  33.556  1.00  0.00     0.034 A 
BRANCH  55  69
ATOM     69  C   UNL A   1      39.180  31.437  35.621  1.00  0.00     0.023 A 
ATOM     70  C   UNL A   1      38.270  30.883  36.546  1.00  0.00     0.012 A 
ATOM     71  C   UNL A   1      39.602  32.771  35.785  1.00  0.00     0.148 A 
ATOM     72  C   UNL A   1      37.750  31.655  37.584  1.00  0.00     0.002 A 
ATOM     73  C   UNL A   1      39.119  33.519  36.851  1.00  0.00     0.091 A 
ATOM     74  F   UNL A   1      40.451  33.289  34.886  1.00  0.00    -0.205 F 
ATOM     75  C   UNL A   1      38.182  32.969  37.741  1.00  0.00     0.022 A 
BRANCH  73  76
ATOM     76  S   UNL A   1      39.680  35.191  37.190  1.00  0.00     0.127 S 
ATOM     77  O   UNL A   1      38.969  35.495  38.431  1.00  0.00    -0.237 OA
ATOM     78  O   UNL A   1      41.123  35.008  37.343  1.00  0.00    -0.237 OA
ATOM     79  O   UNL A   1      39.290  35.985  36.032  1.00  0.00    -0.744 OA
ENDBRANCH  73  76
ENDBRANCH  55  69
BRANCH  56  80
ATOM     80  C   UNL A   1      42.645  26.447  27.698  1.00  0.00     0.023 A 
ATOM     81  C   UNL A   1      43.265  27.230  26.705  1.00  0.00     0.012 A 
ATOM     82  C   UNL A   1      42.615  25.046  27.551  1.00  0.00     0.148 A 
ATOM     83  C   UNL A   1      43.824  26.630  25.576  1.00  0.00     0.002 A 
ATOM     84  C   UNL A   1      43.224  24.453  26.453  1.00  0.00     0.091 A 
ATOM     85  F   UNL A   1      42.014  24.322  28.506  1.00  0.00    -0.205 F 
ATOM     86  C   UNL A   1      43.814  25.243  25.454  1.00  0.00     0.022 A 
BRANCH  84  87
ATOM     87  S   UNL A   1      43.384  22.671  26.285  1.00  0.00     0.127 S 
ATOM     88  O   UNL A   1      42.647  22.194  27.453  1.00  0.00    -0.237 OA
ATOM     89  O   UNL A   1      42.725  22.431  25.001  1.00  0.00    -0.237 OA
ATOM     90  O   UNL A   1      44.815  22.399  26.286  1.00  0.00    -0.744 OA
ENDBRANCH  84  87
ENDBRANCH  56  80
BRANCH  68  91
ATOM     91  C   UNL A   1      44.834  27.162  34.311  1.00  0.00     0.023 A 
ATOM     92  C   UNL A   1      46.005  27.939  34.396  1.00  0.00     0.012 A 
ATOM     93  C   UNL A   1      44.754  25.948  35.022  1.00  0.00     0.148 A 
ATOM     94  C   UNL A   1      47.087  27.506  35.163  1.00  0.00     0.002 A 
ATOM     95  C   UNL A   1      45.815  25.548  35.823  1.00  0.00     0.091 A 
ATOM     96  F   UNL A   1      43.635  25.216  34.911  1.00  0.00    -0.205 F 
ATOM     97  C   UNL A   1      46.986  26.320  35.886  1.00  0.00     0.022 A 
BRANCH  95  98
ATOM     98  S   UNL A   1      45.740  24.090  36.869  1.00  0.00     0.127 S 
ATOM     99  O   UNL A   1      47.144  23.914  37.237  1.00  0.00    -0.237 OA
ATOM    100  O   UNL A   1      44.874  24.537  37.960  1.00  0.00    -0.237 OA
ATOM    101  O   UNL A   1      45.178  23.029  36.044  1.00  0.00    -0.744 OA
ENDBRANCH  95  98
ENDBRANCH  68  91
ENDBRANCH  42  43
ENDBRANCH  34  37
ENDBRANCH  32  33
ENDBRANCH   1  32
TORSDOF 16
ENDMDL
MODEL 2
REMARK VINA RESULT:     -13.3      5.592      9.450
REMARK SMILES C[C@@H](C(=O)NCCCNC(=O)c1ccc(-c2c3nc(c(-c4cccc(S(=O)(=O)[O-])c4F)c4ccc([nH]4)c(-c4cccc(S(=O)(=O)[O-])c4F)c4nc(c(-c5cccc(S(=O)(=O)[O-])c5F)c5ccc2[nH]5)C=C4)C=C3)cc1)c1ccc2c3cc(Cl)ccc3n(C(=O)c3ccc(Cl)cc3)c2c1
REMARK SMILES IDX 7 1 6 2 5 3 3 4 4 5 2 7 1 8 75 9 76 10 97 11 77 12 96 13
REMARK SMILES IDX 78 14 86 15 79 16 85 17 80 18 84 19 81 20 83 21 82 22 87 23
REMARK SMILES IDX 88 24 89 25 90 26 95 27 91 28 94 29 92 30 93 31 8 32 9 33
REMARK SMILES IDX 10 34 11 36 12 37 13 38 74 39 14 40 73 41 15 42 16 43 17 44
REMARK SMILES IDX 67 45 18 46 72 47 66 48 68 49 19 50 71 51 65 52 64 53 20 55
REMARK SMILES IDX 52 56 32 57 51 58 33 59 36 60 50 61 69 62 34 63 35 64 49 66
REMARK SMILES IDX 70 67 37 68 21 69 22 70 30 71 23 72 25 73 31 74 24 75 26 76
REMARK SMILES IDX 27 77 28 78 29 79 53 80 54 81 62 82 55 83 57 84 63 85 56 86
REMARK SMILES IDX 58 87 59 88 60 89 61 90 38 91 39 92 47 93 40 94 42 95 48 96
REMARK SMILES IDX 41 97 43 98 44 99 45 100 46 101
REMARK H PARENT 5 6 9 35 68 54 36 65
REMARK Flexibility Score: inf
ROOT
ATOM      1  C   UNL A   1      37.958  20.637  25.099  1.00  0.00     0.042 C 
ENDROOT
BRANCH   1   2
ATOM      2  C   UNL A   1      36.819  21.629  25.315  1.00  0.00     0.117 C 
BRANCH   2   3
ATOM      3  N   UNL A   1      36.458  22.308  24.086  1.00  0.00    -0.356 N 
ATOM      4  C   UNL A   1      35.261  22.807  23.666  1.00  0.00     0.227 C 
ATOM      5  O   UNL A   1      35.252  23.305  22.537  1.00  0.00    -0.274 OA
ATOM      6  H   UNL A   1      37.199  22.428  23.450  1.00  0.00     0.163 HD
BRANCH   4   7
ATOM      7  C   UNL A   1      34.047  22.787  24.609  1.00  0.00     0.105 C 
ATOM      8  C   UNL A   1      33.371  21.419  24.719  1.00  0.00     0.023 C 
BRANCH   7   9
ATOM      9  C   UNL A   1      32.952  23.791  24.261  1.00  0.00    -0.034 A 
ATOM     10  C   UNL A   1      31.659  23.391  23.922  1.00  0.00     0.005 A 
ATOM     11  C   UNL A   1      33.230  25.159  24.418  1.00  0.00     0.032 A 
ATOM     12  C   UNL A   1      30.639  24.327  23.753  1.00  0.00     0.011 A 
ATOM     13  C   UNL A   1      32.207  26.107  24.220  1.00  0.00     0.057 A 
ATOM     14  C   UNL A   1      30.911  25.699  23.925  1.00  0.00     0.008 A 
ATOM     15  N   UNL A   1      32.224  27.508  24.315  1.00  0.00    -0.276 N 
ATOM     16  C   UNL A   1      30.108  26.865  23.837  1.00  0.00     0.009 A 
ATOM     17  C   UNL A   1      30.945  27.980  23.985  1.00  0.00     0.057 A 
ATOM     18  C   UNL A   1      28.733  27.038  23.576  1.00  0.00     0.031 A 
ATOM     19  C   UNL A   1      30.445  29.272  23.726  1.00  0.00     0.029 A 
ATOM     20  C   UNL A   1      28.234  28.320  23.383  1.00  0.00     0.041 A 
ATOM     21  C   UNL A   1      29.080  29.420  23.429  1.00  0.00     0.023 A 
ATOM     22  Cl  UNL A   1      26.561  28.533  23.034  1.00  0.00    -0.084 Cl
BRANCH  15  23
ATOM     23  C   UNL A   1      33.402  28.243  24.626  1.00  0.00     0.262 C 
ATOM     24  O   UNL A   1      34.308  28.179  23.790  1.00  0.00    -0.268 OA
BRANCH  23  25
ATOM     25  C   UNL A   1      33.727  29.053  25.839  1.00  0.00     0.040 A 
ATOM     26  C   UNL A   1      32.893  30.163  26.100  1.00  0.00     0.015 A 
ATOM     27  C   UNL A   1      34.857  28.875  26.642  1.00  0.00     0.015 A 
ATOM     28  C   UNL A   1      33.159  31.052  27.141  1.00  0.00     0.021 A 
ATOM     29  C   UNL A   1      35.108  29.751  27.712  1.00  0.00     0.021 A 
ATOM     30  C   UNL A   1      34.264  30.836  27.953  1.00  0.00     0.041 A 
ATOM     31  Cl  UNL A   1      34.598  31.925  29.242  1.00  0.00    -0.084 Cl
ENDBRANCH  23  25
ENDBRANCH  15  23
ENDBRANCH   7   9
ENDBRANCH   4   7
ENDBRANCH   2   3
ENDBRANCH   1   2
BRANCH   1  32
ATOM     32  C   UNL A   1      39.161  20.865  26.006  1.00  0.00     0.118 C 
BRANCH  32  33
ATOM     33  N   UNL A   1      40.077  19.735  26.018  1.00  0.00    -0.352 N 
ATOM     34  C   UNL A   1      41.448  19.724  26.114  1.00  0.00     0.251 C 
ATOM     35  H   UNL A   1      39.653  18.848  25.949  1.00  0.00     0.163 HD
ATOM     36  O   UNL A   1      42.068  18.690  25.916  1.00  0.00    -0.269 OA
BRANCH  34  37
ATOM     37  C   UNL A   1      42.164  20.978  26.436  1.00  0.00     0.039 A 
ATOM     38  C   UNL A   1      42.499  21.850  25.399  1.00  0.00     0.014 A 
ATOM     39  C   UNL A   1      42.484  21.294  27.758  1.00  0.00     0.014 A 
ATOM     40  C   UNL A   1      43.100  23.075  25.697  1.00  0.00     0.010 A 
ATOM     41  C   UNL A   1      43.003  22.548  28.059  1.00  0.00     0.010 A 
ATOM     42  C   UNL A   1      43.321  23.450  27.032  1.00  0.00    -0.014 A 
BRANCH  42  43
ATOM     43  C   UNL A   1      43.876  24.780  27.387  1.00  0.00     0.031 A 
ATOM     44  C   UNL A   1      42.974  25.846  27.945  1.00  0.00     0.074 A 
ATOM     45  C   UNL A   1      45.161  25.066  27.100  1.00  0.00     0.049 A 
ATOM     46  N   UNL A   1      43.241  27.099  28.208  1.00  0.00    -0.248 NA
ATOM     47  C   UNL A   1      41.577  25.462  28.209  1.00  0.00     0.031 C 
ATOM     48  C   UNL A   1      46.114  24.142  26.482  1.00  0.00     0.029 A 
ATOM     49  N   UNL A   1      45.875  26.229  27.249  1.00  0.00    -0.354 N 
ATOM     50  C   UNL A   1      42.042  27.662  28.624  1.00  0.00     0.074 A 
ATOM     51  C   UNL A   1      41.037  26.623  28.547  1.00  0.00     0.031 C 
ATOM     52  C   UNL A   1      47.281  24.776  26.290  1.00  0.00     0.029 A 
ATOM     53  C   UNL A   1      47.149  26.161  26.735  1.00  0.00     0.049 A 
ATOM     54  H   UNL A   1      45.510  27.035  27.681  1.00  0.00     0.167 HD
ATOM     55  C   UNL A   1      41.801  28.922  29.057  1.00  0.00     0.034 A 
ATOM     56  C   UNL A   1      48.098  27.111  26.611  1.00  0.00     0.034 A 
ATOM     57  C   UNL A   1      42.810  29.940  29.164  1.00  0.00     0.049 A 
ATOM     58  C   UNL A   1      47.821  28.494  27.129  1.00  0.00     0.074 A 
ATOM     59  C   UNL A   1      42.691  31.217  29.683  1.00  0.00     0.029 A 
ATOM     60  N   UNL A   1      44.119  29.804  28.729  1.00  0.00    -0.354 N 
ATOM     61  N   UNL A   1      46.726  28.965  27.675  1.00  0.00    -0.248 NA
ATOM     62  C   UNL A   1      48.918  29.470  27.049  1.00  0.00     0.031 C 
ATOM     63  C   UNL A   1      43.921  31.865  29.528  1.00  0.00     0.029 A 
ATOM     64  C   UNL A   1      44.816  30.978  28.951  1.00  0.00     0.049 A 
ATOM     65  H   UNL A   1      44.497  28.991  28.323  1.00  0.00     0.167 HD
ATOM     66  C   UNL A   1      47.011  30.277  28.034  1.00  0.00     0.074 A 
ATOM     67  C   UNL A   1      48.387  30.523  27.657  1.00  0.00     0.031 C 
ATOM     68  C   UNL A   1      46.201  31.196  28.616  1.00  0.00     0.034 A 
BRANCH  55  69
ATOM     69  C   UNL A   1      40.393  29.257  29.481  1.00  0.00     0.023 A 
ATOM     70  C   UNL A   1      39.488  29.795  28.541  1.00  0.00     0.012 A 
ATOM     71  C   UNL A   1      39.954  29.010  30.797  1.00  0.00     0.148 A 
ATOM     72  C   UNL A   1      38.187  30.128  28.915  1.00  0.00     0.002 A 
ATOM     73  C   UNL A   1      38.640  29.297  31.149  1.00  0.00     0.091 A 
ATOM     74  F   UNL A   1      40.830  28.518  31.683  1.00  0.00    -0.205 F 
ATOM     75  C   UNL A   1      37.761  29.870  30.215  1.00  0.00     0.022 A 
BRANCH  73  76
ATOM     76  S   UNL A   1      37.972  28.922  32.773  1.00  0.00     0.127 S 
ATOM     77  O   UNL A   1      36.605  29.424  32.652  1.00  0.00    -0.237 OA
ATOM     78  O   UNL A   1      38.084  27.464  32.824  1.00  0.00    -0.237 OA
ATOM     79  O   UNL A   1      38.819  29.627  33.726  1.00  0.00    -0.744 OA
ENDBRANCH  73  76
ENDBRANCH  55  69
BRANCH  56  80
ATOM     80  C   UNL A   1      49.410  26.761  25.998  1.00  0.00     0.023 A 
ATOM     81  C   UNL A   1      50.337  25.992  26.728  1.00  0.00     0.012 A 
ATOM     82  C   UNL A   1      49.719  27.140  24.676  1.00  0.00     0.148 A 
ATOM     83  C   UNL A   1      51.558  25.627  26.160  1.00  0.00     0.002 A 
ATOM     84  C   UNL A   1      50.912  26.724  24.099  1.00  0.00     0.091 A 
ATOM     85  F   UNL A   1      48.825  27.878  24.003  1.00  0.00    -0.205 F 
ATOM     86  C   UNL A   1      51.842  25.982  24.844  1.00  0.00     0.022 A 
BRANCH  84  87
ATOM     87  S   UNL A   1      51.298  27.014  22.368  1.00  0.00     0.127 S 
ATOM     88  O   UNL A   1      50.012  26.748  21.727  1.00  0.00    -0.237 OA
ATOM     89  O   UNL A   1      51.700  28.420  22.382  1.00  0.00    -0.237 OA
ATOM     90  O   UNL A   1      52.371  26.085  22.040  1.00  0.00    -0.744 OA
ENDBRANCH  84  87
ENDBRANCH  56  80
BRANCH  68  91
ATOM     91  C   UNL A   1      46.780  32.551  28.929  1.00  0.00     0.023 A 
ATOM     92  C   UNL A   1      47.461  32.763  30.143  1.00  0.00     0.012 A 
ATOM     93  C   UNL A   1      46.738  33.581  27.969  1.00  0.00     0.148 A 
ATOM     94  C   UNL A   1      48.074  33.988  30.406  1.00  0.00     0.002 A 
ATOM     95  C   UNL A   1      47.393  34.780  28.216  1.00  0.00     0.091 A 
ATOM     96  F   UNL A   1      46.069  33.363  26.827  1.00  0.00    -0.205 F 
ATOM     97  C   UNL A   1      48.052  34.990  29.438  1.00  0.00     0.022 A 
BRANCH  95  98
ATOM     98  S   UNL A   1      47.507  36.090  26.991  1.00  0.00     0.127 S 
ATOM     99  O   UNL A   1      48.287  37.099  27.706  1.00  0.00    -0.237 OA
ATOM    100  O   UNL A   1      48.219  35.429  25.898  1.00  0.00    -0.237 OA
ATOM    101  O   UNL A   1      46.136  36.472  26.679  1.00  0.00    -0.744 OA
ENDBRANCH  95  98
ENDBRANCH  68  91
ENDBRANCH  42  43
ENDBRANCH  34  37
ENDBRANCH  32  33
ENDBRANCH   1  32
TORSDOF 16
ENDMDL
MODEL 3
REMARK VINA RESULT:     -13.3      5.447      9.163
REMARK SMILES C[C@@H](C(=O)NCCCNC(=O)c1ccc(-c2c3nc(c(-c4cccc(S(=O)(=O)[O-])c4F)c4ccc([nH]4)c(-c4cccc(S(=O)(=O)[O-])c4F)c4nc(c(-c5cccc(S(=O)(=O)[O-])c5F)c5ccc2[nH]5)C=C4)C=C3)cc1)c1ccc2c3cc(Cl)ccc3n(C(=O)c3ccc(Cl)cc3)c2c1
REMARK SMILES IDX 7 1 6 2 5 3 3 4 4 5 2 7 1 8 75 9 76 10 97 11 77 12 96 13
REMARK SMILES IDX 78 14 86 15 79 16 85 17 80 18 84 19 81 20 83 21 82 22 87 23
REMARK SMILES IDX 88 24 89 25 90 26 95 27 91 28 94 29 92 30 93 31 8 32 9 33
REMARK SMILES IDX 10 34 11 36 12 37 13 38 74 39 14 40 73 41 15 42 16 43 17 44
REMARK SMILES IDX 67 45 18 46 72 47 66 48 68 49 19 50 71 51 65 52 64 53 20 55
REMARK SMILES IDX 52 56 32 57 51 58 33 59 36 60 50 61 69 62 34 63 35 64 49 66
REMARK SMILES IDX 70 67 37 68 21 69 22 70 30 71 23 72 25 73 31 74 24 75 26 76
REMARK SMILES IDX 27 77 28 78 29 79 53 80 54 81 62 82 55 83 57 84 63 85 56 86
REMARK SMILES IDX 58 87 59 88 60 89 61 90 38 91 39 92 47 93 40 94 42 95 48 96
REMARK SMILES IDX 41 97 43 98 44 99 45 100 46 101
REMARK H PARENT 5 6 9 35 68 54 36 65
REMARK Flexibility Score: inf
ROOT
ATOM      1  C   UNL A   1      37.700  20.604  24.912  1.00  0.00     0.042 C 
ENDROOT
BRANCH   1   2
ATOM      2  C   UNL A   1      36.619  21.679  24.934  1.00  0.00     0.117 C 
BRANCH   2   3
ATOM      3  N   UNL A   1      35.327  21.135  25.306  1.00  0.00    -0.356 N 
ATOM      4  C   UNL A   1      34.065  21.562  25.014  1.00  0.00     0.227 C 
ATOM      5  O   UNL A   1      33.147  20.906  25.512  1.00  0.00    -0.274 OA
ATOM      6  H   UNL A   1      35.368  20.325  25.862  1.00  0.00     0.163 HD
BRANCH   4   7
ATOM      7  C   UNL A   1      33.859  22.751  24.062  1.00  0.00     0.105 C 
ATOM      8  C   UNL A   1      34.924  22.862  22.969  1.00  0.00     0.023 C 
BRANCH   7   9
ATOM      9  C   UNL A   1      33.791  24.113  24.747  1.00  0.00    -0.034 A 
ATOM     10  C   UNL A   1      34.828  24.592  25.549  1.00  0.00     0.005 A 
ATOM     11  C   UNL A   1      32.706  24.953  24.449  1.00  0.00     0.032 A 
ATOM     12  C   UNL A   1      34.808  25.897  26.043  1.00  0.00     0.011 A 
ATOM     13  C   UNL A   1      32.672  26.262  24.971  1.00  0.00     0.057 A 
ATOM     14  C   UNL A   1      33.728  26.748  25.732  1.00  0.00     0.008 A 
ATOM     15  N   UNL A   1      31.719  27.283  24.824  1.00  0.00    -0.276 N 
ATOM     16  C   UNL A   1      33.429  28.094  26.063  1.00  0.00     0.009 A 
ATOM     17  C   UNL A   1      32.146  28.385  25.579  1.00  0.00     0.057 A 
ATOM     18  C   UNL A   1      34.146  29.060  26.800  1.00  0.00     0.031 A 
ATOM     19  C   UNL A   1      31.509  29.585  25.954  1.00  0.00     0.029 A 
ATOM     20  C   UNL A   1      33.535  30.267  27.114  1.00  0.00     0.041 A 
ATOM     21  C   UNL A   1      32.226  30.517  26.722  1.00  0.00     0.023 A 
ATOM     22  Cl  UNL A   1      34.396  31.435  28.040  1.00  0.00    -0.084 Cl
BRANCH  15  23
ATOM     23  C   UNL A   1      30.519  27.113  24.078  1.00  0.00     0.262 C 
ATOM     24  O   UNL A   1      30.032  25.979  24.100  1.00  0.00    -0.268 OA
BRANCH  23  25
ATOM     25  C   UNL A   1      29.775  28.096  23.232  1.00  0.00     0.040 A 
ATOM     26  C   UNL A   1      30.556  28.945  22.417  1.00  0.00     0.015 A 
ATOM     27  C   UNL A   1      28.398  28.321  23.292  1.00  0.00     0.015 A 
ATOM     28  C   UNL A   1      29.982  29.970  21.665  1.00  0.00     0.021 A 
ATOM     29  C   UNL A   1      27.814  29.332  22.508  1.00  0.00     0.021 A 
ATOM     30  C   UNL A   1      28.607  30.154  21.705  1.00  0.00     0.041 A 
ATOM     31  Cl  UNL A   1      27.890  31.413  20.777  1.00  0.00    -0.084 Cl
ENDBRANCH  23  25
ENDBRANCH  15  23
ENDBRANCH   7   9
ENDBRANCH   4   7
ENDBRANCH   2   3
ENDBRANCH   1   2
BRANCH   1  32
ATOM     32  C   UNL A   1      38.894  20.905  25.809  1.00  0.00     0.118 C 
BRANCH  32  33
ATOM     33  N   UNL A   1      39.831  19.794  25.889  1.00  0.00    -0.352 N 
ATOM     34  C   UNL A   1      41.196  19.815  26.048  1.00  0.00     0.251 C 
ATOM     35  H   UNL A   1      39.428  18.898  25.820  1.00  0.00     0.163 HD
ATOM     36  O   UNL A   1      41.845  18.789  25.902  1.00  0.00    -0.269 OA
BRANCH  34  37
ATOM     37  C   UNL A   1      41.871  21.090  26.374  1.00  0.00     0.039 A 
ATOM     38  C   UNL A   1      42.129  22.000  25.347  1.00  0.00     0.014 A 
ATOM     39  C   UNL A   1      42.230  21.387  27.690  1.00  0.00     0.014 A 
ATOM     40  C   UNL A   1      42.689  23.242  25.654  1.00  0.00     0.010 A 
ATOM     41  C   UNL A   1      42.708  22.654  28.003  1.00  0.00     0.010 A 
ATOM     42  C   UNL A   1      42.948  23.593  26.989  1.00  0.00    -0.014 A 
BRANCH  42  43
ATOM     43  C   UNL A   1      43.461  24.937  27.356  1.00  0.00     0.031 A 
ATOM     44  C   UNL A   1      42.517  25.984  27.880  1.00  0.00     0.074 A 
ATOM     45  C   UNL A   1      44.747  25.251  27.109  1.00  0.00     0.049 A 
ATOM     46  N   UNL A   1      42.746  27.243  28.147  1.00  0.00    -0.248 NA
ATOM     47  C   UNL A   1      41.121  25.569  28.101  1.00  0.00     0.031 C 
ATOM     48  C   UNL A   1      45.740  24.347  26.526  1.00  0.00     0.029 A 
ATOM     49  N   UNL A   1      45.429  26.431  27.277  1.00  0.00    -0.354 N 
ATOM     50  C   UNL A   1      41.522  27.780  28.522  1.00  0.00     0.074 A 
ATOM     51  C   UNL A   1      40.544  26.718  28.417  1.00  0.00     0.031 C 
ATOM     52  C   UNL A   1      46.898  25.007  26.369  1.00  0.00     0.029 A 
ATOM     53  C   UNL A   1      46.720  26.390  26.805  1.00  0.00     0.049 A 
ATOM     54  H   UNL A   1      45.032  27.230  27.693  1.00  0.00     0.167 HD
ATOM     55  C   UNL A   1      41.238  29.036  28.942  1.00  0.00     0.034 A 
ATOM     56  C   UNL A   1      47.651  27.361  26.707  1.00  0.00     0.034 A 
ATOM     57  C   UNL A   1      42.220  30.077  29.077  1.00  0.00     0.049 A 
ATOM     58  C   UNL A   1      47.326  28.739  27.211  1.00  0.00     0.074 A 
ATOM     59  C   UNL A   1      42.056  31.352  29.587  1.00  0.00     0.029 A 
ATOM     60  N   UNL A   1      43.546  29.969  28.686  1.00  0.00    -0.354 N 
ATOM     61  N   UNL A   1      46.203  29.187  27.720  1.00  0.00    -0.248 NA
ATOM     62  C   UNL A   1      48.402  29.739  27.163  1.00  0.00     0.031 C 
ATOM     63  C   UNL A   1      43.275  32.028  29.470  1.00  0.00     0.029 A 
ATOM     64  C   UNL A   1      44.208  31.160  28.925  1.00  0.00     0.049 A 
ATOM     65  H   UNL A   1      43.955  29.164  28.295  1.00  0.00     0.167 HD
ATOM     66  C   UNL A   1      46.447  30.506  28.082  1.00  0.00     0.074 A 
ATOM     67  C   UNL A   1      47.829  30.782  27.749  1.00  0.00     0.031 C 
ATOM     68  C   UNL A   1      45.598  31.408  28.634  1.00  0.00     0.034 A 
BRANCH  55  69
ATOM     69  C   UNL A   1      39.810  29.340  29.319  1.00  0.00     0.023 A 
ATOM     70  C   UNL A   1      38.842  29.517  28.308  1.00  0.00     0.012 A 
ATOM     71  C   UNL A   1      39.418  29.418  30.670  1.00  0.00     0.148 A 
ATOM     72  C   UNL A   1      37.520  29.816  28.633  1.00  0.00     0.002 A 
ATOM     73  C   UNL A   1      38.088  29.665  30.986  1.00  0.00     0.091 A 
ATOM     74  F   UNL A   1      40.353  29.268  31.618  1.00  0.00    -0.205 F 
ATOM     75  C   UNL A   1      37.142  29.880  29.971  1.00  0.00     0.022 A 
BRANCH  73  76
ATOM     76  S   UNL A   1      37.484  29.683  32.678  1.00  0.00     0.127 S 
ATOM     77  O   UNL A   1      38.521  30.462  33.352  1.00  0.00    -0.237 OA
ATOM     78  O   UNL A   1      36.199  30.368  32.540  1.00  0.00    -0.237 OA
ATOM     79  O   UNL A   1      37.385  28.287  33.081  1.00  0.00    -0.744 OA
ENDBRANCH  73  76
ENDBRANCH  55  69
BRANCH  56  80
ATOM     80  C   UNL A   1      48.990  27.039  26.138  1.00  0.00     0.023 A 
ATOM     81  C   UNL A   1      49.914  26.303  26.905  1.00  0.00     0.012 A 
ATOM     82  C   UNL A   1      49.329  27.411  24.822  1.00  0.00     0.148 A 
ATOM     83  C   UNL A   1      51.161  25.964  26.379  1.00  0.00     0.002 A 
ATOM     84  C   UNL A   1      50.550  27.021  24.286  1.00  0.00     0.091 A 
ATOM     85  F   UNL A   1      48.437  28.117  24.113  1.00  0.00    -0.205 F 
ATOM     86  C   UNL A   1      51.475  26.312  25.068  1.00  0.00     0.022 A 
BRANCH  84  87
ATOM     87  S   UNL A   1      50.980  27.301  22.564  1.00  0.00     0.127 S 
ATOM     88  O   UNL A   1      50.992  28.761  22.493  1.00  0.00    -0.237 OA
ATOM     89  O   UNL A   1      52.297  26.670  22.479  1.00  0.00    -0.237 OA
ATOM     90  O   UNL A   1      49.944  26.639  21.784  1.00  0.00    -0.744 OA
ENDBRANCH  84  87
ENDBRANCH  56  80
BRANCH  68  91
ATOM     91  C   UNL A   1      46.136  32.777  28.960  1.00  0.00     0.023 A 
ATOM     92  C   UNL A   1      46.809  32.998  30.177  1.00  0.00     0.012 A 
ATOM     93  C   UNL A   1      46.063  33.814  28.010  1.00  0.00     0.148 A 
ATOM     94  C   UNL A   1      47.385  34.239  30.452  1.00  0.00     0.002 A 
ATOM     95  C   UNL A   1      46.682  35.030  28.269  1.00  0.00     0.091 A 
ATOM     96  F   UNL A   1      45.401  33.587  26.865  1.00  0.00    -0.205 F 
ATOM     97  C   UNL A   1      47.333  35.248  29.493  1.00  0.00     0.022 A 
BRANCH  95  98
ATOM     98  S   UNL A   1      46.756  36.354  27.056  1.00  0.00     0.127 S 
ATOM     99  O   UNL A   1      45.352  36.751  26.962  1.00  0.00    -0.237 OA
ATOM    100  O   UNL A   1      47.623  37.330  27.718  1.00  0.00    -0.237 OA
ATOM    101  O   UNL A   1      47.317  35.765  25.848  1.00  0.00    -0.744 OA
ENDBRANCH  95  98
ENDBRANCH  68  91
ENDBRANCH  42  43
ENDBRANCH  34  37
ENDBRANCH  32  33
ENDBRANCH   1  32
TORSDOF 16
ENDMDL
