MODEL 1
REMARK VINA RESULT:     -12.2      0.000      0.000
REMARK SMILES COc1cc2cc(C(=O)NCCCNC(=O)c3ccc(-c4c5nc(c(-c6cccc(S(=O)(=O)[O-])c6F)c6ccc([nH]6)c(-c6cccc(S(=O)(=O)[O-])c6F)c6nc(c(-c7cccc(S(=O)(=O)[O-])c7F)c7ccc4[nH]7)C=C6)C=C5)cc3)n(Cc3ccccc3)c2c(OC)c1OC
REMARK SMILES IDX 12 1 11 2 10 3 8 4 9 5 7 7 3 8 4 9 92 10 5 11 89 12 6 13
REMARK SMILES IDX 88 14 80 15 2 16 1 17 93 18 94 19 90 20 91 21 81 22 82 23
REMARK SMILES IDX 83 24 87 25 84 26 86 27 85 28 13 29 14 30 15 31 16 33 17 34
REMARK SMILES IDX 18 35 79 36 19 37 78 38 20 39 21 40 22 41 72 42 23 43 77 44
REMARK SMILES IDX 71 45 73 46 24 47 76 48 70 49 69 50 25 52 57 53 37 54 56 55
REMARK SMILES IDX 38 56 41 57 55 58 74 59 39 60 40 61 54 63 75 64 42 65 26 66
REMARK SMILES IDX 27 67 35 68 28 69 30 70 36 71 29 72 31 73 32 74 33 75 34 76
REMARK SMILES IDX 58 77 59 78 67 79 60 80 62 81 68 82 61 83 63 84 64 85 65 86
REMARK SMILES IDX 66 87 43 88 44 89 52 90 45 91 47 92 53 93 46 94 48 95 49 96
REMARK SMILES IDX 50 97 51 98
REMARK H PARENT 10 6 14 32 73 51 41 62
REMARK Flexibility Score: inf
ROOT
ATOM      1  C   UNL A   1      32.284  30.082  27.150  1.00  0.00     0.042 C 
ENDROOT
BRANCH   1   2
ATOM      2  C   UNL A   1      31.696  29.717  25.781  1.00  0.00     0.118 C 
BRANCH   2   3
ATOM      3  N   UNL A   1      32.674  29.721  24.706  1.00  0.00    -0.351 N 
ATOM      4  C   UNL A   1      33.278  28.772  23.926  1.00  0.00     0.267 C 
ATOM      5  O   UNL A   1      33.813  29.246  22.915  1.00  0.00    -0.268 OA
ATOM      6  H   UNL A   1      32.978  30.632  24.484  1.00  0.00     0.163 HD
BRANCH   4   7
ATOM      7  C   UNL A   1      33.339  27.332  24.173  1.00  0.00     0.108 A 
ATOM      8  C   UNL A   1      34.107  23.021  25.813  1.00  0.00     0.165 A 
ATOM      9  C   UNL A   1      34.336  24.367  26.157  1.00  0.00     0.061 A 
ATOM     10  C   UNL A   1      33.477  22.667  24.609  1.00  0.00     0.205 A 
ATOM     11  C   UNL A   1      33.897  25.390  25.297  1.00  0.00     0.008 A 
ATOM     12  C   UNL A   1      33.079  23.695  23.714  1.00  0.00     0.189 A 
ATOM     13  C   UNL A   1      34.013  26.800  25.279  1.00  0.00     0.042 A 
ATOM     14  C   UNL A   1      33.213  25.044  24.145  1.00  0.00     0.096 A 
ATOM     15  N   UNL A   1      32.664  26.238  23.645  1.00  0.00    -0.329 N 
BRANCH   8  16
ATOM     16  O   UNL A   1      34.505  22.093  26.745  1.00  0.00    -0.493 OA
ATOM     17  C   UNL A   1      33.604  22.065  27.851  1.00  0.00     0.278 C 
ENDBRANCH   8  16
BRANCH  10  18
ATOM     18  O   UNL A   1      33.226  21.391  24.186  1.00  0.00    -0.490 OA
ATOM     19  C   UNL A   1      32.124  20.633  24.650  1.00  0.00     0.278 C 
ENDBRANCH  10  18
BRANCH  12  20
ATOM     20  O   UNL A   1      32.624  23.543  22.433  1.00  0.00    -0.491 OA
ATOM     21  C   UNL A   1      33.526  23.399  21.347  1.00  0.00     0.278 C 
ENDBRANCH  12  20
BRANCH  15  22
ATOM     22  C   UNL A   1      31.491  26.198  22.771  1.00  0.00     0.158 C 
BRANCH  22  23
ATOM     23  C   UNL A   1      30.264  27.020  23.102  1.00  0.00    -0.028 A 
ATOM     24  C   UNL A   1      29.980  28.312  22.646  1.00  0.00     0.005 A 
ATOM     25  C   UNL A   1      29.253  26.330  23.808  1.00  0.00     0.005 A 
ATOM     26  C   UNL A   1      28.692  28.841  22.779  1.00  0.00     0.000 A 
ATOM     27  C   UNL A   1      27.977  26.867  23.959  1.00  0.00     0.000 A 
ATOM     28  C   UNL A   1      27.689  28.114  23.418  1.00  0.00     0.000 A 
ENDBRANCH  22  23
ENDBRANCH  15  22
ENDBRANCH   4   7
ENDBRANCH   2   3
ENDBRANCH   1   2
BRANCH   1  29
ATOM     29  C   UNL A   1      33.642  30.774  27.145  1.00  0.00     0.118 C 
BRANCH  29  30
ATOM     30  N   UNL A   1      33.870  31.592  28.310  1.00  0.00    -0.352 N 
ATOM     31  C   UNL A   1      34.927  31.766  29.160  1.00  0.00     0.251 C 
ATOM     32  H   UNL A   1      33.092  32.148  28.546  1.00  0.00     0.163 HD
ATOM     33  O   UNL A   1      34.752  32.609  30.046  1.00  0.00    -0.269 OA
BRANCH  31  34
ATOM     34  C   UNL A   1      36.206  30.997  29.138  1.00  0.00     0.039 A 
ATOM     35  C   UNL A   1      36.356  29.611  29.008  1.00  0.00     0.014 A 
ATOM     36  C   UNL A   1      37.365  31.783  29.265  1.00  0.00     0.014 A 
ATOM     37  C   UNL A   1      37.624  29.025  29.101  1.00  0.00     0.010 A 
ATOM     38  C   UNL A   1      38.626  31.209  29.337  1.00  0.00     0.010 A 
ATOM     39  C   UNL A   1      38.752  29.824  29.310  1.00  0.00    -0.014 A 
BRANCH  39  40
ATOM     40  C   UNL A   1      40.082  29.216  29.389  1.00  0.00     0.031 A 
ATOM     41  C   UNL A   1      40.629  29.065  30.768  1.00  0.00     0.074 A 
ATOM     42  C   UNL A   1      40.681  28.647  28.317  1.00  0.00     0.049 A 
ATOM     43  N   UNL A   1      41.708  29.583  31.264  1.00  0.00    -0.248 NA
ATOM     44  C   UNL A   1      39.817  28.328  31.752  1.00  0.00     0.031 C 
ATOM     45  C   UNL A   1      40.115  28.466  26.975  1.00  0.00     0.029 A 
ATOM     46  N   UNL A   1      41.867  27.977  28.234  1.00  0.00    -0.354 N 
ATOM     47  C   UNL A   1      41.824  29.051  32.549  1.00  0.00     0.074 A 
ATOM     48  C   UNL A   1      40.561  28.431  32.853  1.00  0.00     0.031 C 
ATOM     49  C   UNL A   1      40.831  27.537  26.306  1.00  0.00     0.029 A 
ATOM     50  C   UNL A   1      41.979  27.157  27.108  1.00  0.00     0.049 A 
ATOM     51  H   UNL A   1      42.581  28.063  28.907  1.00  0.00     0.167 HD
ATOM     52  C   UNL A   1      43.023  28.942  33.185  1.00  0.00     0.034 A 
ATOM     53  C   UNL A   1      42.907  26.190  26.891  1.00  0.00     0.034 A 
ATOM     54  C   UNL A   1      44.044  29.734  32.561  1.00  0.00     0.049 A 
ATOM     55  C   UNL A   1      44.053  26.499  27.774  1.00  0.00     0.074 A 
ATOM     56  C   UNL A   1      44.230  31.078  32.311  1.00  0.00     0.029 A 
ATOM     57  N   UNL A   1      44.921  29.068  31.741  1.00  0.00    -0.354 N 
ATOM     58  N   UNL A   1      44.794  27.564  27.653  1.00  0.00    -0.248 NA
ATOM     59  C   UNL A   1      44.129  25.817  29.054  1.00  0.00     0.031 C 
ATOM     60  C   UNL A   1      44.854  31.128  31.032  1.00  0.00     0.029 A 
ATOM     61  C   UNL A   1      45.063  29.815  30.604  1.00  0.00     0.049 A 
ATOM     62  H   UNL A   1      45.365  28.212  31.937  1.00  0.00     0.167 HD
ATOM     63  C   UNL A   1      45.064  27.939  28.961  1.00  0.00     0.074 A 
ATOM     64  C   UNL A   1      44.729  26.770  29.771  1.00  0.00     0.031 C 
ATOM     65  C   UNL A   1      45.254  29.249  29.288  1.00  0.00     0.034 A 
BRANCH  52  66
ATOM     66  C   UNL A   1      43.374  27.842  34.156  1.00  0.00     0.023 A 
ATOM     67  C   UNL A   1      43.744  28.201  35.470  1.00  0.00     0.012 A 
ATOM     68  C   UNL A   1      43.622  26.509  33.756  1.00  0.00     0.148 A 
ATOM     69  C   UNL A   1      44.341  27.279  36.339  1.00  0.00     0.002 A 
ATOM     70  C   UNL A   1      44.147  25.579  34.645  1.00  0.00     0.091 A 
ATOM     71  F   UNL A   1      43.477  26.167  32.471  1.00  0.00    -0.205 F 
ATOM     72  C   UNL A   1      44.530  25.964  35.931  1.00  0.00     0.022 A 
BRANCH  70  73
ATOM     73  S   UNL A   1      44.391  23.862  34.179  1.00  0.00     0.127 S 
ATOM     74  O   UNL A   1      45.217  23.996  32.986  1.00  0.00    -0.237 OA
ATOM     75  O   UNL A   1      45.076  23.327  35.355  1.00  0.00    -0.237 OA
ATOM     76  O   UNL A   1      43.048  23.324  33.976  1.00  0.00    -0.744 OA
ENDBRANCH  70  73
ENDBRANCH  52  66
BRANCH  53  77
ATOM     77  C   UNL A   1      42.794  24.876  26.198  1.00  0.00     0.023 A 
ATOM     78  C   UNL A   1      43.853  24.434  25.372  1.00  0.00     0.012 A 
ATOM     79  C   UNL A   1      41.814  23.929  26.569  1.00  0.00     0.148 A 
ATOM     80  C   UNL A   1      43.961  23.092  24.980  1.00  0.00     0.002 A 
ATOM     81  C   UNL A   1      41.917  22.600  26.164  1.00  0.00     0.091 A 
ATOM     82  F   UNL A   1      40.833  24.303  27.399  1.00  0.00    -0.205 F 
ATOM     83  C   UNL A   1      43.000  22.173  25.385  1.00  0.00     0.022 A 
BRANCH  81  84
ATOM     84  S   UNL A   1      40.712  21.356  26.651  1.00  0.00     0.127 S 
ATOM     85  O   UNL A   1      39.490  21.849  26.016  1.00  0.00    -0.237 OA
ATOM     86  O   UNL A   1      41.266  20.145  26.054  1.00  0.00    -0.237 OA
ATOM     87  O   UNL A   1      40.680  21.389  28.108  1.00  0.00    -0.744 OA
ENDBRANCH  81  84
ENDBRANCH  53  77
BRANCH  65  88
ATOM     88  C   UNL A   1      45.412  30.246  28.168  1.00  0.00     0.023 A 
ATOM     89  C   UNL A   1      44.301  30.826  27.521  1.00  0.00     0.012 A 
ATOM     90  C   UNL A   1      46.692  30.770  27.934  1.00  0.00     0.148 A 
ATOM     91  C   UNL A   1      44.466  31.917  26.662  1.00  0.00     0.002 A 
ATOM     92  C   UNL A   1      46.847  31.877  27.112  1.00  0.00     0.091 A 
ATOM     93  F   UNL A   1      47.728  30.210  28.575  1.00  0.00    -0.205 F 
ATOM     94  C   UNL A   1      45.738  32.453  26.470  1.00  0.00     0.022 A 
BRANCH  92  95
ATOM     95  S   UNL A   1      48.430  32.695  26.913  1.00  0.00     0.127 S 
ATOM     96  O   UNL A   1      49.282  31.605  26.438  1.00  0.00    -0.237 OA
ATOM     97  O   UNL A   1      48.124  33.713  25.906  1.00  0.00    -0.237 OA
ATOM     98  O   UNL A   1      48.783  33.228  28.222  1.00  0.00    -0.744 OA
ENDBRANCH  92  95
ENDBRANCH  65  88
ENDBRANCH  39  40
ENDBRANCH  31  34
ENDBRANCH  29  30
ENDBRANCH   1  29
TORSDOF 18
ENDMDL
MODEL 2
REMARK VINA RESULT:     -11.9      3.433      8.725
REMARK SMILES COc1cc2cc(C(=O)NCCCNC(=O)c3ccc(-c4c5nc(c(-c6cccc(S(=O)(=O)[O-])c6F)c6ccc([nH]6)c(-c6cccc(S(=O)(=O)[O-])c6F)c6nc(c(-c7cccc(S(=O)(=O)[O-])c7F)c7ccc4[nH]7)C=C6)C=C5)cc3)n(Cc3ccccc3)c2c(OC)c1OC
REMARK SMILES IDX 12 1 11 2 10 3 8 4 9 5 7 7 3 8 4 9 92 10 5 11 89 12 6 13
REMARK SMILES IDX 88 14 80 15 2 16 1 17 93 18 94 19 90 20 91 21 81 22 82 23
REMARK SMILES IDX 83 24 87 25 84 26 86 27 85 28 13 29 14 30 15 31 16 33 17 34
REMARK SMILES IDX 18 35 79 36 19 37 78 38 20 39 21 40 22 41 72 42 23 43 77 44
REMARK SMILES IDX 71 45 73 46 24 47 76 48 70 49 69 50 25 52 57 53 37 54 56 55
REMARK SMILES IDX 38 56 41 57 55 58 74 59 39 60 40 61 54 63 75 64 42 65 26 66
REMARK SMILES IDX 27 67 35 68 28 69 30 70 36 71 29 72 31 73 32 74 33 75 34 76
REMARK SMILES IDX 58 77 59 78 67 79 60 80 62 81 68 82 61 83 63 84 64 85 65 86
REMARK SMILES IDX 66 87 43 88 44 89 52 90 45 91 47 92 53 93 46 94 48 95 49 96
REMARK SMILES IDX 50 97 51 98
REMARK H PARENT 10 6 14 32 73 51 41 62
REMARK Flexibility Score: inf
ROOT
ATOM      1  C   UNL A   1      37.695  21.270  24.939  1.00  0.00     0.042 C 
ENDROOT
BRANCH   1   2
ATOM      2  C   UNL A   1      36.182  21.145  25.161  1.00  0.00     0.118 C 
BRANCH   2   3
ATOM      3  N   UNL A   1      35.729  21.710  26.421  1.00  0.00    -0.351 N 
ATOM      4  C   UNL A   1      34.774  22.613  26.804  1.00  0.00     0.267 C 
ATOM      5  O   UNL A   1      34.517  22.561  28.014  1.00  0.00    -0.268 OA
ATOM      6  H   UNL A   1      36.234  21.356  27.190  1.00  0.00     0.163 HD
BRANCH   4   7
ATOM      7  C   UNL A   1      34.074  23.575  25.952  1.00  0.00     0.108 A 
ATOM      8  C   UNL A   1      32.798  27.108  23.168  1.00  0.00     0.165 A 
ATOM      9  C   UNL A   1      33.951  26.558  23.761  1.00  0.00     0.061 A 
ATOM     10  C   UNL A   1      31.524  26.562  23.394  1.00  0.00     0.205 A 
ATOM     11  C   UNL A   1      33.840  25.417  24.574  1.00  0.00     0.008 A 
ATOM     12  C   UNL A   1      31.401  25.440  24.257  1.00  0.00     0.189 A 
ATOM     13  C   UNL A   1      34.736  24.661  25.367  1.00  0.00     0.042 A 
ATOM     14  C   UNL A   1      32.594  24.836  24.741  1.00  0.00     0.096 A 
ATOM     15  N   UNL A   1      32.824  23.588  25.347  1.00  0.00    -0.329 N 
BRANCH   8  16
ATOM     16  O   UNL A   1      33.011  28.178  22.333  1.00  0.00    -0.493 OA
ATOM     17  C   UNL A   1      34.184  28.895  22.715  1.00  0.00     0.278 C 
ENDBRANCH   8  16
BRANCH  10  18
ATOM     18  O   UNL A   1      30.351  27.035  22.874  1.00  0.00    -0.490 OA
ATOM     19  C   UNL A   1      29.731  28.219  23.339  1.00  0.00     0.278 C 
ENDBRANCH  10  18
BRANCH  12  20
ATOM     20  O   UNL A   1      30.243  24.892  24.736  1.00  0.00    -0.491 OA
ATOM     21  C   UNL A   1      29.608  25.414  25.892  1.00  0.00     0.278 C 
ENDBRANCH  12  20
BRANCH  15  22
ATOM     22  C   UNL A   1      31.843  22.512  25.207  1.00  0.00     0.158 C 
BRANCH  22  23
ATOM     23  C   UNL A   1      32.238  21.198  24.566  1.00  0.00    -0.028 A 
ATOM     24  C   UNL A   1      32.534  20.004  25.230  1.00  0.00     0.005 A 
ATOM     25  C   UNL A   1      32.129  21.163  23.157  1.00  0.00     0.005 A 
ATOM     26  C   UNL A   1      32.592  18.797  24.525  1.00  0.00     0.000 A 
ATOM     27  C   UNL A   1      32.210  19.965  22.453  1.00  0.00     0.000 A 
ATOM     28  C   UNL A   1      32.413  18.775  23.143  1.00  0.00     0.000 A 
ENDBRANCH  22  23
ENDBRANCH  15  22
ENDBRANCH   4   7
ENDBRANCH   2   3
ENDBRANCH   1   2
BRANCH   1  29
ATOM     29  C   UNL A   1      38.499  21.904  26.068  1.00  0.00     0.118 C 
BRANCH  29  30
ATOM     30  N   UNL A   1      39.923  21.861  25.850  1.00  0.00    -0.352 N 
ATOM     31  C   UNL A   1      40.963  22.686  26.176  1.00  0.00     0.251 C 
ATOM     32  H   UNL A   1      40.211  21.058  25.356  1.00  0.00     0.163 HD
ATOM     33  O   UNL A   1      42.080  22.277  25.840  1.00  0.00    -0.269 OA
BRANCH  31  34
ATOM     34  C   UNL A   1      40.849  24.025  26.826  1.00  0.00     0.039 A 
ATOM     35  C   UNL A   1      39.960  25.053  26.493  1.00  0.00     0.014 A 
ATOM     36  C   UNL A   1      41.750  24.241  27.885  1.00  0.00     0.014 A 
ATOM     37  C   UNL A   1      40.038  26.293  27.138  1.00  0.00     0.010 A 
ATOM     38  C   UNL A   1      41.819  25.461  28.540  1.00  0.00     0.010 A 
ATOM     39  C   UNL A   1      41.000  26.508  28.130  1.00  0.00    -0.014 A 
BRANCH  39  40
ATOM     40  C   UNL A   1      41.072  27.799  28.819  1.00  0.00     0.031 A 
ATOM     41  C   UNL A   1      42.104  28.739  28.294  1.00  0.00     0.074 A 
ATOM     42  C   UNL A   1      40.144  28.188  29.722  1.00  0.00     0.049 A 
ATOM     43  N   UNL A   1      43.119  29.246  28.919  1.00  0.00    -0.248 NA
ATOM     44  C   UNL A   1      42.059  29.077  26.861  1.00  0.00     0.031 C 
ATOM     45  C   UNL A   1      38.918  27.476  30.100  1.00  0.00     0.029 A 
ATOM     46  N   UNL A   1      40.020  29.372  30.390  1.00  0.00    -0.354 N 
ATOM     47  C   UNL A   1      43.704  30.141  28.022  1.00  0.00     0.074 A 
ATOM     48  C   UNL A   1      43.123  29.871  26.733  1.00  0.00     0.031 C 
ATOM     49  C   UNL A   1      38.072  28.331  30.715  1.00  0.00     0.029 A 
ATOM     50  C   UNL A   1      38.740  29.605  30.900  1.00  0.00     0.049 A 
ATOM     51  H   UNL A   1      40.765  30.006  30.503  1.00  0.00     0.167 HD
ATOM     52  C   UNL A   1      44.448  31.204  28.436  1.00  0.00     0.034 A 
ATOM     53  C   UNL A   1      38.250  30.781  31.370  1.00  0.00     0.034 A 
ATOM     54  C   UNL A   1      44.843  31.088  29.811  1.00  0.00     0.049 A 
ATOM     55  C   UNL A   1      39.420  31.612  31.731  1.00  0.00     0.074 A 
ATOM     56  C   UNL A   1      45.598  30.197  30.544  1.00  0.00     0.029 A 
ATOM     57  N   UNL A   1      44.114  31.812  30.721  1.00  0.00    -0.354 N 
ATOM     58  N   UNL A   1      40.256  31.310  32.685  1.00  0.00    -0.248 NA
ATOM     59  C   UNL A   1      39.892  32.582  30.759  1.00  0.00     0.031 C 
ATOM     60  C   UNL A   1      44.934  30.105  31.801  1.00  0.00     0.029 A 
ATOM     61  C   UNL A   1      43.851  30.986  31.780  1.00  0.00     0.049 A 
ATOM     62  H   UNL A   1      43.833  32.750  30.628  1.00  0.00     0.167 HD
ATOM     63  C   UNL A   1      41.492  31.689  32.183  1.00  0.00     0.074 A 
ATOM     64  C   UNL A   1      41.194  32.565  31.053  1.00  0.00     0.031 C 
ATOM     65  C   UNL A   1      42.628  31.028  32.549  1.00  0.00     0.034 A 
BRANCH  52  66
ATOM     66  C   UNL A   1      44.520  32.525  27.713  1.00  0.00     0.023 A 
ATOM     67  C   UNL A   1      45.654  32.794  26.917  1.00  0.00     0.012 A 
ATOM     68  C   UNL A   1      43.661  33.611  28.001  1.00  0.00     0.148 A 
ATOM     69  C   UNL A   1      45.926  34.082  26.441  1.00  0.00     0.002 A 
ATOM     70  C   UNL A   1      43.895  34.872  27.466  1.00  0.00     0.091 A 
ATOM     71  F   UNL A   1      42.688  33.461  28.906  1.00  0.00    -0.205 F 
ATOM     72  C   UNL A   1      45.038  35.119  26.704  1.00  0.00     0.022 A 
BRANCH  70  73
ATOM     73  S   UNL A   1      42.771  36.243  27.755  1.00  0.00     0.127 S 
ATOM     74  O   UNL A   1      43.000  36.517  29.168  1.00  0.00    -0.237 OA
ATOM     75  O   UNL A   1      43.286  37.252  26.832  1.00  0.00    -0.237 OA
ATOM     76  O   UNL A   1      41.447  35.734  27.404  1.00  0.00    -0.744 OA
ENDBRANCH  70  73
ENDBRANCH  52  66
BRANCH  53  77
ATOM     77  C   UNL A   1      36.881  31.364  31.286  1.00  0.00     0.023 A 
ATOM     78  C   UNL A   1      36.287  31.907  32.448  1.00  0.00     0.012 A 
ATOM     79  C   UNL A   1      36.282  31.664  30.043  1.00  0.00     0.148 A 
ATOM     80  C   UNL A   1      35.177  32.761  32.368  1.00  0.00     0.002 A 
ATOM     81  C   UNL A   1      35.170  32.500  29.970  1.00  0.00     0.091 A 
ATOM     82  F   UNL A   1      36.858  31.213  28.922  1.00  0.00    -0.205 F 
ATOM     83  C   UNL A   1      34.625  33.066  31.129  1.00  0.00     0.022 A 
BRANCH  81  84
ATOM     84  S   UNL A   1      34.406  32.939  28.401  1.00  0.00     0.127 S 
ATOM     85  O   UNL A   1      35.546  33.449  27.638  1.00  0.00    -0.237 OA
ATOM     86  O   UNL A   1      33.890  31.652  27.944  1.00  0.00    -0.237 OA
ATOM     87  O   UNL A   1      33.404  33.948  28.720  1.00  0.00    -0.744 OA
ENDBRANCH  81  84
ENDBRANCH  53  77
BRANCH  65  88
ATOM     88  C   UNL A   1      42.543  30.048  33.691  1.00  0.00     0.023 A 
ATOM     89  C   UNL A   1      42.084  28.726  33.510  1.00  0.00     0.012 A 
ATOM     90  C   UNL A   1      43.155  30.401  34.903  1.00  0.00     0.148 A 
ATOM     91  C   UNL A   1      42.242  27.772  34.520  1.00  0.00     0.002 A 
ATOM     92  C   UNL A   1      43.346  29.441  35.887  1.00  0.00     0.091 A 
ATOM     93  F   UNL A   1      43.597  31.659  35.042  1.00  0.00    -0.205 F 
ATOM     94  C   UNL A   1      42.888  28.126  35.703  1.00  0.00     0.022 A 
BRANCH  92  95
ATOM     95  S   UNL A   1      44.273  29.789  37.382  1.00  0.00     0.127 S 
ATOM     96  O   UNL A   1      44.336  28.472  38.017  1.00  0.00    -0.237 OA
ATOM     97  O   UNL A   1      45.547  30.270  36.847  1.00  0.00    -0.237 OA
ATOM     98  O   UNL A   1      43.508  30.790  38.114  1.00  0.00    -0.744 OA
ENDBRANCH  92  95
ENDBRANCH  65  88
ENDBRANCH  39  40
ENDBRANCH  31  34
ENDBRANCH  29  30
ENDBRANCH   1  29
TORSDOF 18
ENDMDL
MODEL 3
REMARK VINA RESULT:     -11.7      3.205      8.831
REMARK SMILES COc1cc2cc(C(=O)NCCCNC(=O)c3ccc(-c4c5nc(c(-c6cccc(S(=O)(=O)[O-])c6F)c6ccc([nH]6)c(-c6cccc(S(=O)(=O)[O-])c6F)c6nc(c(-c7cccc(S(=O)(=O)[O-])c7F)c7ccc4[nH]7)C=C6)C=C5)cc3)n(Cc3ccccc3)c2c(OC)c1OC
REMARK SMILES IDX 12 1 11 2 10 3 8 4 9 5 7 7 3 8 4 9 92 10 5 11 89 12 6 13
REMARK SMILES IDX 88 14 80 15 2 16 1 17 93 18 94 19 90 20 91 21 81 22 82 23
REMARK SMILES IDX 83 24 87 25 84 26 86 27 85 28 13 29 14 30 15 31 16 33 17 34
REMARK SMILES IDX 18 35 79 36 19 37 78 38 20 39 21 40 22 41 72 42 23 43 77 44
REMARK SMILES IDX 71 45 73 46 24 47 76 48 70 49 69 50 25 52 57 53 37 54 56 55
REMARK SMILES IDX 38 56 41 57 55 58 74 59 39 60 40 61 54 63 75 64 42 65 26 66
REMARK SMILES IDX 27 67 35 68 28 69 30 70 36 71 29 72 31 73 32 74 33 75 34 76
REMARK SMILES IDX 58 77 59 78 67 79 60 80 62 81 68 82 61 83 63 84 64 85 65 86
REMARK SMILES IDX 66 87 43 88 44 89 52 90 45 91 47 92 53 93 46 94 48 95 49 96
REMARK SMILES IDX 50 97 51 98
REMARK H PARENT 10 6 14 32 73 51 41 62
REMARK Flexibility Score: inf
ROOT
ATOM      1  C   UNL A   1      39.290  22.973  26.842  1.00  0.00     0.042 C 
ENDROOT
BRANCH   1   2
ATOM      2  C   UNL A   1      37.990  23.070  26.033  1.00  0.00     0.118 C 
BRANCH   2   3
ATOM      3  N   UNL A   1      37.332  21.790  25.830  1.00  0.00    -0.351 N 
ATOM      4  C   UNL A   1      36.220  21.354  25.161  1.00  0.00     0.267 C 
ATOM      5  O   UNL A   1      36.209  20.128  24.991  1.00  0.00    -0.268 OA
ATOM      6  H   UNL A   1      37.802  21.054  26.287  1.00  0.00     0.163 HD
BRANCH   4   7
ATOM      7  C   UNL A   1      35.114  22.169  24.660  1.00  0.00     0.108 A 
ATOM      8  C   UNL A   1      32.324  25.183  22.426  1.00  0.00     0.165 A 
ATOM      9  C   UNL A   1      33.652  24.715  22.402  1.00  0.00     0.061 A 
ATOM     10  C   UNL A   1      31.399  24.724  23.378  1.00  0.00     0.205 A 
ATOM     11  C   UNL A   1      34.063  23.741  23.329  1.00  0.00     0.008 A 
ATOM     12  C   UNL A   1      31.826  23.779  24.349  1.00  0.00     0.189 A 
ATOM     13  C   UNL A   1      35.292  23.112  23.642  1.00  0.00     0.042 A 
ATOM     14  C   UNL A   1      33.134  23.237  24.223  1.00  0.00     0.096 A 
ATOM     15  N   UNL A   1      33.734  22.111  24.815  1.00  0.00    -0.329 N 
BRANCH   8  16
ATOM     16  O   UNL A   1      31.992  26.080  21.439  1.00  0.00    -0.493 OA
ATOM     17  C   UNL A   1      32.351  25.577  20.153  1.00  0.00     0.278 C 
ENDBRANCH   8  16
BRANCH  10  18
ATOM     18  O   UNL A   1      30.098  25.131  23.486  1.00  0.00    -0.490 OA
ATOM     19  C   UNL A   1      29.723  26.330  24.139  1.00  0.00     0.278 C 
ENDBRANCH  10  18
BRANCH  12  20
ATOM     20  O   UNL A   1      31.132  23.360  25.451  1.00  0.00    -0.491 OA
ATOM     21  C   UNL A   1      31.262  24.027  26.696  1.00  0.00     0.278 C 
ENDBRANCH  12  20
BRANCH  15  22
ATOM     22  C   UNL A   1      32.903  21.056  25.396  1.00  0.00     0.158 C 
BRANCH  22  23
ATOM     23  C   UNL A   1      32.697  19.752  24.656  1.00  0.00    -0.028 A 
ATOM     24  C   UNL A   1      32.405  19.603  23.296  1.00  0.00     0.005 A 
ATOM     25  C   UNL A   1      32.995  18.587  25.400  1.00  0.00     0.005 A 
ATOM     26  C   UNL A   1      32.532  18.355  22.678  1.00  0.00     0.000 A 
ATOM     27  C   UNL A   1      33.100  17.341  24.788  1.00  0.00     0.000 A 
ATOM     28  C   UNL A   1      32.896  17.231  23.418  1.00  0.00     0.000 A 
ENDBRANCH  22  23
ENDBRANCH  15  22
ENDBRANCH   4   7
ENDBRANCH   2   3
ENDBRANCH   1   2
BRANCH   1  29
ATOM     29  C   UNL A   1      40.183  21.772  26.553  1.00  0.00     0.118 C 
BRANCH  29  30
ATOM     30  N   UNL A   1      41.269  22.071  25.653  1.00  0.00    -0.352 N 
ATOM     31  C   UNL A   1      42.194  23.075  25.576  1.00  0.00     0.251 C 
ATOM     32  H   UNL A   1      41.365  21.404  24.934  1.00  0.00     0.163 HD
ATOM     33  O   UNL A   1      43.012  22.962  24.657  1.00  0.00    -0.269 OA
BRANCH  31  34
ATOM     34  C   UNL A   1      42.247  24.286  26.447  1.00  0.00     0.039 A 
ATOM     35  C   UNL A   1      42.895  24.411  27.682  1.00  0.00     0.014 A 
ATOM     36  C   UNL A   1      41.562  25.404  25.938  1.00  0.00     0.014 A 
ATOM     37  C   UNL A   1      42.775  25.590  28.427  1.00  0.00     0.010 A 
ATOM     38  C   UNL A   1      41.456  26.581  26.664  1.00  0.00     0.010 A 
ATOM     39  C   UNL A   1      42.017  26.657  27.934  1.00  0.00    -0.014 A 
BRANCH  39  40
ATOM     40  C   UNL A   1      41.905  27.898  28.704  1.00  0.00     0.031 A 
ATOM     41  C   UNL A   1      42.883  28.963  28.335  1.00  0.00     0.074 A 
ATOM     42  C   UNL A   1      40.869  28.139  29.540  1.00  0.00     0.049 A 
ATOM     43  N   UNL A   1      43.786  29.515  29.082  1.00  0.00    -0.248 NA
ATOM     44  C   UNL A   1      42.930  29.394  26.928  1.00  0.00     0.031 C 
ATOM     45  C   UNL A   1      39.689  27.294  29.758  1.00  0.00     0.029 A 
ATOM     46  N   UNL A   1      40.573  29.258  30.264  1.00  0.00    -0.354 N 
ATOM     47  C   UNL A   1      44.358  30.519  28.299  1.00  0.00     0.074 A 
ATOM     48  C   UNL A   1      43.919  30.287  26.947  1.00  0.00     0.031 C 
ATOM     49  C   UNL A   1      38.715  28.024  30.343  1.00  0.00     0.029 A 
ATOM     50  C   UNL A   1      39.238  29.338  30.666  1.00  0.00     0.049 A 
ATOM     51  H   UNL A   1      41.242  29.947  30.483  1.00  0.00     0.167 HD
ATOM     52  C   UNL A   1      44.957  31.613  28.844  1.00  0.00     0.034 A 
ATOM     53  C   UNL A   1      38.598  30.429  31.160  1.00  0.00     0.034 A 
ATOM     54  C   UNL A   1      45.241  31.439  30.239  1.00  0.00     0.049 A 
ATOM     55  C   UNL A   1      39.647  31.336  31.678  1.00  0.00     0.074 A 
ATOM     56  C   UNL A   1      46.012  30.571  30.984  1.00  0.00     0.029 A 
ATOM     57  N   UNL A   1      44.369  32.029  31.120  1.00  0.00    -0.354 N 
ATOM     58  N   UNL A   1      40.422  31.045  32.684  1.00  0.00    -0.248 NA
ATOM     59  C   UNL A   1      40.105  32.410  30.814  1.00  0.00     0.031 C 
ATOM     60  C   UNL A   1      45.253  30.333  32.167  1.00  0.00     0.029 A 
ATOM     61  C   UNL A   1      44.096  31.112  32.098  1.00  0.00     0.049 A 
ATOM     62  H   UNL A   1      44.008  32.942  31.059  1.00  0.00     0.167 HD
ATOM     63  C   UNL A   1      41.655  31.569  32.323  1.00  0.00     0.074 A 
ATOM     64  C   UNL A   1      41.373  32.490  31.225  1.00  0.00     0.031 C 
ATOM     65  C   UNL A   1      42.813  30.989  32.751  1.00  0.00     0.034 A 
BRANCH  52  66
ATOM     66  C   UNL A   1      44.963  32.983  28.212  1.00  0.00     0.023 A 
ATOM     67  C   UNL A   1      43.725  33.622  27.985  1.00  0.00     0.012 A 
ATOM     68  C   UNL A   1      46.102  33.540  27.587  1.00  0.00     0.148 A 
ATOM     69  C   UNL A   1      43.625  34.753  27.166  1.00  0.00     0.002 A 
ATOM     70  C   UNL A   1      46.010  34.706  26.835  1.00  0.00     0.091 A 
ATOM     71  F   UNL A   1      47.259  32.870  27.603  1.00  0.00    -0.205 F 
ATOM     72  C   UNL A   1      44.770  35.304  26.602  1.00  0.00     0.022 A 
BRANCH  70  73
ATOM     73  S   UNL A   1      47.459  35.472  26.101  1.00  0.00     0.127 S 
ATOM     74  O   UNL A   1      46.938  36.779  25.721  1.00  0.00    -0.237 OA
ATOM     75  O   UNL A   1      48.396  35.476  27.224  1.00  0.00    -0.237 OA
ATOM     76  O   UNL A   1      47.847  34.589  25.005  1.00  0.00    -0.744 OA
ENDBRANCH  70  73
ENDBRANCH  52  66
BRANCH  53  77
ATOM     77  C   UNL A   1      37.192  30.890  30.985  1.00  0.00     0.023 A 
ATOM     78  C   UNL A   1      36.427  31.230  32.124  1.00  0.00     0.012 A 
ATOM     79  C   UNL A   1      36.697  31.285  29.722  1.00  0.00     0.148 A 
ATOM     80  C   UNL A   1      35.248  31.981  32.013  1.00  0.00     0.002 A 
ATOM     81  C   UNL A   1      35.517  32.019  29.617  1.00  0.00     0.091 A 
ATOM     82  F   UNL A   1      37.429  31.031  28.631  1.00  0.00    -0.205 F 
ATOM     83  C   UNL A   1      34.799  32.385  30.761  1.00  0.00     0.022 A 
BRANCH  81  84
ATOM     84  S   UNL A   1      34.878  32.576  28.030  1.00  0.00     0.127 S 
ATOM     85  O   UNL A   1      34.714  31.315  27.306  1.00  0.00    -0.237 OA
ATOM     86  O   UNL A   1      33.629  33.226  28.416  1.00  0.00    -0.237 OA
ATOM     87  O   UNL A   1      35.905  33.451  27.477  1.00  0.00    -0.744 OA
ENDBRANCH  81  84
ENDBRANCH  53  77
BRANCH  65  88
ATOM     88  C   UNL A   1      42.725  29.928  33.819  1.00  0.00     0.023 A 
ATOM     89  C   UNL A   1      42.239  28.632  33.547  1.00  0.00     0.012 A 
ATOM     90  C   UNL A   1      43.359  30.180  35.046  1.00  0.00     0.148 A 
ATOM     91  C   UNL A   1      42.392  27.603  34.482  1.00  0.00     0.002 A 
ATOM     92  C   UNL A   1      43.544  29.147  35.953  1.00  0.00     0.091 A 
ATOM     93  F   UNL A   1      43.826  31.416  35.271  1.00  0.00    -0.205 F 
ATOM     94  C   UNL A   1      43.060  27.857  35.678  1.00  0.00     0.022 A 
BRANCH  92  95
ATOM     95  S   UNL A   1      44.496  29.366  37.456  1.00  0.00     0.127 S 
ATOM     96  O   UNL A   1      45.808  29.750  36.935  1.00  0.00    -0.237 OA
ATOM     97  O   UNL A   1      43.767  30.442  38.127  1.00  0.00    -0.237 OA
ATOM     98  O   UNL A   1      44.461  28.086  38.153  1.00  0.00    -0.744 OA
ENDBRANCH  92  95
ENDBRANCH  65  88
ENDBRANCH  39  40
ENDBRANCH  31  34
ENDBRANCH  29  30
ENDBRANCH   1  29
TORSDOF 18
ENDMDL
