MODEL 1
REMARK VINA RESULT:     -11.4      0.000      0.000
REMARK SMILES C[C@H]1C[C@H]([N@@H+]2CCOC[C@@H]2C(=O)NCCCNC(=O)c2ccc(-c3c4nc(c(-c5cccc(S(=O)(=O)[O-])c5F)c5ccc([nH]5)c(-c5cccc(S(=O)(=O)[O-])c5F)c5nc(c(-c6cccc(S(=O)(=O)[O-])c6F)c6ccc3[nH]6)C=C5)C=C4)cc2)CS1
REMARK SMILES IDX 16 1 15 2 14 3 13 4 11 5 12 6 10 8 5 9 6 10 7 12 9 13 8 14
REMARK SMILES IDX 4 15 1 16 2 17 3 18 84 19 83 20 17 21 18 22 19 24 20 25
REMARK SMILES IDX 21 26 82 27 22 28 81 29 23 30 24 31 25 32 75 33 26 34 80 35
REMARK SMILES IDX 74 36 76 37 27 38 79 39 73 40 72 41 28 43 60 44 40 45 59 46
REMARK SMILES IDX 41 47 44 48 58 49 77 50 42 51 43 52 57 54 78 55 45 56 29 57
REMARK SMILES IDX 30 58 38 59 31 60 33 61 39 62 32 63 34 64 35 65 36 66 37 67
REMARK SMILES IDX 61 68 62 69 70 70 63 71 65 72 71 73 64 74 66 75 67 76 68 77
REMARK SMILES IDX 69 78 46 79 47 80 55 81 48 82 50 83 56 84 49 85 51 86 52 87
REMARK SMILES IDX 53 88 54 89
REMARK H PARENT 13 7 5 11 17 23 76 42 44 53
REMARK Flexibility Score: inf
ROOT
ATOM      1  C   UNL A   1      36.573  23.575  25.770  1.00  0.00     0.118 C 
ENDROOT
BRANCH   1   2
ATOM      2  C   UNL A   1      35.273  23.270  26.500  1.00  0.00     0.042 C 
BRANCH   2   3
ATOM      3  C   UNL A   1      34.049  23.581  25.656  1.00  0.00     0.118 C 
BRANCH   3   4
ATOM      4  N   UNL A   1      32.842  23.546  26.454  1.00  0.00    -0.351 N 
ATOM      5  C   UNL A   1      31.683  24.243  26.449  1.00  0.00     0.280 C 
ATOM      6  O   UNL A   1      30.886  23.942  27.350  1.00  0.00    -0.268 OA
ATOM      7  H   UNL A   1      32.871  22.861  27.160  1.00  0.00     0.163 HD
BRANCH   5   8
ATOM      8  C   UNL A   1      31.294  25.312  25.417  1.00  0.00     0.300 C 
ATOM      9  N   UNL A   1      32.319  26.390  25.266  1.00  0.00    -0.318 N 
ATOM     10  C   UNL A   1      31.986  27.180  24.061  1.00  0.00     0.292 C 
ATOM     11  H   UNL A   1      33.188  25.865  25.173  1.00  0.00     0.349 HD
ATOM     12  C   UNL A   1      30.519  27.626  23.965  1.00  0.00     0.221 C 
ATOM     13  C   UNL A   1      29.847  25.809  25.315  1.00  0.00     0.235 C 
ATOM     14  O   UNL A   1      29.623  26.515  24.082  1.00  0.00    -0.369 OA
BRANCH   9  15
ATOM     15  C   UNL A   1      32.791  27.191  26.411  1.00  0.00     0.195 C 
ATOM     16  C   UNL A   1      34.697  30.091  27.635  1.00  0.00     0.019 C 
ATOM     17  C   UNL A   1      33.814  29.527  26.527  1.00  0.00     0.049 C 
ATOM     18  C   UNL A   1      34.067  28.038  26.289  1.00  0.00     0.080 C 
ATOM     19  S   UNL A   1      32.077  29.745  26.971  1.00  0.00    -0.152 SA
ATOM     20  C   UNL A   1      31.717  27.990  27.168  1.00  0.00     0.134 C 
ENDBRANCH   9  15
ENDBRANCH   5   8
ENDBRANCH   3   4
ENDBRANCH   2   3
ENDBRANCH   1   2
BRANCH   1  21
ATOM     21  N   UNL A   1      37.604  22.584  26.059  1.00  0.00    -0.352 N 
ATOM     22  C   UNL A   1      38.912  22.765  26.434  1.00  0.00     0.251 C 
ATOM     23  H   UNL A   1      37.319  21.646  25.974  1.00  0.00     0.163 HD
ATOM     24  O   UNL A   1      39.696  21.824  26.381  1.00  0.00    -0.269 OA
BRANCH  22  25
ATOM     25  C   UNL A   1      39.365  24.093  26.901  1.00  0.00     0.039 A 
ATOM     26  C   UNL A   1      39.187  24.445  28.240  1.00  0.00     0.014 A 
ATOM     27  C   UNL A   1      39.938  25.001  26.007  1.00  0.00     0.014 A 
ATOM     28  C   UNL A   1      39.612  25.699  28.683  1.00  0.00     0.010 A 
ATOM     29  C   UNL A   1      40.466  26.194  26.475  1.00  0.00     0.010 A 
ATOM     30  C   UNL A   1      40.269  26.578  27.806  1.00  0.00    -0.014 A 
BRANCH  30  31
ATOM     31  C   UNL A   1      40.695  27.930  28.243  1.00  0.00     0.031 A 
ATOM     32  C   UNL A   1      42.157  28.296  28.221  1.00  0.00     0.074 A 
ATOM     33  C   UNL A   1      39.783  28.800  28.718  1.00  0.00     0.049 A 
ATOM     34  N   UNL A   1      42.734  29.411  28.586  1.00  0.00    -0.248 NA
ATOM     35  C   UNL A   1      43.103  27.261  27.766  1.00  0.00     0.031 C 
ATOM     36  C   UNL A   1      38.352  28.527  28.877  1.00  0.00     0.029 A 
ATOM     37  N   UNL A   1      39.928  30.085  29.171  1.00  0.00    -0.354 N 
ATOM     38  C   UNL A   1      44.101  29.196  28.444  1.00  0.00     0.074 A 
ATOM     39  C   UNL A   1      44.273  27.827  28.015  1.00  0.00     0.031 C 
ATOM     40  C   UNL A   1      37.749  29.620  29.372  1.00  0.00     0.029 A 
ATOM     41  C   UNL A   1      38.751  30.659  29.589  1.00  0.00     0.049 A 
ATOM     42  H   UNL A   1      40.794  30.554  29.195  1.00  0.00     0.167 HD
ATOM     43  C   UNL A   1      45.122  30.067  28.615  1.00  0.00     0.034 A 
ATOM     44  C   UNL A   1      38.508  31.888  30.083  1.00  0.00     0.034 A 
ATOM     45  C   UNL A   1      44.941  31.443  28.987  1.00  0.00     0.049 A 
ATOM     46  C   UNL A   1      39.650  32.863  30.190  1.00  0.00     0.074 A 
ATOM     47  C   UNL A   1      45.894  32.438  29.105  1.00  0.00     0.029 A 
ATOM     48  N   UNL A   1      43.719  32.019  29.301  1.00  0.00    -0.354 N 
ATOM     49  N   UNL A   1      40.917  32.688  29.903  1.00  0.00    -0.248 NA
ATOM     50  C   UNL A   1      39.318  34.221  30.644  1.00  0.00     0.031 C 
ATOM     51  C   UNL A   1      45.250  33.612  29.511  1.00  0.00     0.029 A 
ATOM     52  C   UNL A   1      43.891  33.357  29.611  1.00  0.00     0.049 A 
ATOM     53  H   UNL A   1      42.856  31.546  29.303  1.00  0.00     0.167 HD
ATOM     54  C   UNL A   1      41.526  33.923  30.097  1.00  0.00     0.074 A 
ATOM     55  C   UNL A   1      40.481  34.841  30.504  1.00  0.00     0.031 C 
ATOM     56  C   UNL A   1      42.831  34.265  29.962  1.00  0.00     0.034 A 
BRANCH  43  57
ATOM     57  C   UNL A   1      46.520  29.570  28.344  1.00  0.00     0.023 A 
ATOM     58  C   UNL A   1      47.057  29.667  27.044  1.00  0.00     0.012 A 
ATOM     59  C   UNL A   1      47.315  29.041  29.379  1.00  0.00     0.148 A 
ATOM     60  C   UNL A   1      48.344  29.206  26.767  1.00  0.00     0.002 A 
ATOM     61  C   UNL A   1      48.616  28.633  29.107  1.00  0.00     0.091 A 
ATOM     62  F   UNL A   1      46.784  28.935  30.606  1.00  0.00    -0.205 F 
ATOM     63  C   UNL A   1      49.126  28.699  27.801  1.00  0.00     0.022 A 
BRANCH  61  64
ATOM     64  S   UNL A   1      49.736  28.045  30.383  1.00  0.00     0.127 S 
ATOM     65  O   UNL A   1      49.068  26.820  30.822  1.00  0.00    -0.237 OA
ATOM     66  O   UNL A   1      50.972  27.830  29.630  1.00  0.00    -0.237 OA
ATOM     67  O   UNL A   1      49.807  29.107  31.377  1.00  0.00    -0.744 OA
ENDBRANCH  61  64
ENDBRANCH  43  57
BRANCH  44  68
ATOM     68  C   UNL A   1      37.115  32.295  30.426  1.00  0.00     0.023 A 
ATOM     69  C   UNL A   1      36.624  32.057  31.725  1.00  0.00     0.012 A 
ATOM     70  C   UNL A   1      36.284  32.929  29.483  1.00  0.00     0.148 A 
ATOM     71  C   UNL A   1      35.318  32.406  32.067  1.00  0.00     0.002 A 
ATOM     72  C   UNL A   1      35.003  33.326  29.848  1.00  0.00     0.091 A 
ATOM     73  F   UNL A   1      36.769  33.142  28.252  1.00  0.00    -0.205 F 
ATOM     74  C   UNL A   1      34.511  33.047  31.132  1.00  0.00     0.022 A 
BRANCH  72  75
ATOM     75  S   UNL A   1      33.940  34.273  28.754  1.00  0.00     0.127 S 
ATOM     76  O   UNL A   1      33.571  33.273  27.755  1.00  0.00    -0.237 OA
ATOM     77  O   UNL A   1      32.858  34.672  29.655  1.00  0.00    -0.237 OA
ATOM     78  O   UNL A   1      34.756  35.379  28.271  1.00  0.00    -0.744 OA
ENDBRANCH  72  75
ENDBRANCH  44  68
BRANCH  56  79
ATOM     79  C   UNL A   1      43.198  35.707  30.204  1.00  0.00     0.023 A 
ATOM     80  C   UNL A   1      43.725  36.104  31.449  1.00  0.00     0.012 A 
ATOM     81  C   UNL A   1      43.062  36.659  29.174  1.00  0.00     0.148 A 
ATOM     82  C   UNL A   1      44.062  37.436  31.681  1.00  0.00     0.002 A 
ATOM     83  C   UNL A   1      43.454  37.973  29.396  1.00  0.00     0.091 A 
ATOM     84  F   UNL A   1      42.541  36.267  28.002  1.00  0.00    -0.205 F 
ATOM     85  C   UNL A   1      43.937  38.368  30.653  1.00  0.00     0.022 A 
BRANCH  83  86
ATOM     86  S   UNL A   1      43.422  39.210  28.094  1.00  0.00     0.127 S 
ATOM     87  O   UNL A   1      44.249  38.582  27.065  1.00  0.00    -0.237 OA
ATOM     88  O   UNL A   1      41.997  39.286  27.770  1.00  0.00    -0.237 OA
ATOM     89  O   UNL A   1      43.968  40.424  28.686  1.00  0.00    -0.744 OA
ENDBRANCH  83  86
ENDBRANCH  56  79
ENDBRANCH  30  31
ENDBRANCH  22  25
ENDBRANCH   1  21
TORSDOF 14
ENDMDL
MODEL 2
REMARK VINA RESULT:     -11.4      4.861     10.032
REMARK SMILES C[C@H]1C[C@H]([N@@H+]2CCOC[C@@H]2C(=O)NCCCNC(=O)c2ccc(-c3c4nc(c(-c5cccc(S(=O)(=O)[O-])c5F)c5ccc([nH]5)c(-c5cccc(S(=O)(=O)[O-])c5F)c5nc(c(-c6cccc(S(=O)(=O)[O-])c6F)c6ccc3[nH]6)C=C5)C=C4)cc2)CS1
REMARK SMILES IDX 16 1 15 2 14 3 13 4 11 5 12 6 10 8 5 9 6 10 7 12 9 13 8 14
REMARK SMILES IDX 4 15 1 16 2 17 3 18 84 19 83 20 17 21 18 22 19 24 20 25
REMARK SMILES IDX 21 26 82 27 22 28 81 29 23 30 24 31 25 32 75 33 26 34 80 35
REMARK SMILES IDX 74 36 76 37 27 38 79 39 73 40 72 41 28 43 60 44 40 45 59 46
REMARK SMILES IDX 41 47 44 48 58 49 77 50 42 51 43 52 57 54 78 55 45 56 29 57
REMARK SMILES IDX 30 58 38 59 31 60 33 61 39 62 32 63 34 64 35 65 36 66 37 67
REMARK SMILES IDX 61 68 62 69 70 70 63 71 65 72 71 73 64 74 66 75 67 76 68 77
REMARK SMILES IDX 69 78 46 79 47 80 55 81 48 82 50 83 56 84 49 85 51 86 52 87
REMARK SMILES IDX 53 88 54 89
REMARK H PARENT 13 7 5 11 17 23 76 42 44 53
REMARK Flexibility Score: inf
ROOT
ATOM      1  C   UNL A   1      33.866  28.786  26.236  1.00  0.00     0.118 C 
ENDROOT
BRANCH   1   2
ATOM      2  C   UNL A   1      33.651  28.524  24.753  1.00  0.00     0.042 C 
BRANCH   2   3
ATOM      3  C   UNL A   1      33.072  27.144  24.488  1.00  0.00     0.118 C 
BRANCH   3   4
ATOM      4  N   UNL A   1      33.310  26.732  23.120  1.00  0.00    -0.351 N 
ATOM      5  C   UNL A   1      33.367  25.539  22.487  1.00  0.00     0.280 C 
ATOM      6  O   UNL A   1      33.650  25.598  21.281  1.00  0.00    -0.268 OA
ATOM      7  H   UNL A   1      33.464  27.493  22.514  1.00  0.00     0.163 HD
BRANCH   5   8
ATOM      8  C   UNL A   1      33.078  24.176  23.133  1.00  0.00     0.300 C 
ATOM      9  N   UNL A   1      33.889  23.919  24.363  1.00  0.00    -0.318 N 
ATOM     10  C   UNL A   1      33.326  22.739  25.052  1.00  0.00     0.292 C 
ATOM     11  H   UNL A   1      33.778  24.784  24.892  1.00  0.00     0.349 HD
ATOM     12  C   UNL A   1      33.069  21.524  24.148  1.00  0.00     0.221 C 
ATOM     13  C   UNL A   1      32.852  22.932  22.266  1.00  0.00     0.235 C 
ATOM     14  O   UNL A   1      32.251  21.868  23.024  1.00  0.00    -0.369 OA
BRANCH   9  15
ATOM     15  C   UNL A   1      35.363  23.978  24.358  1.00  0.00     0.195 C 
ATOM     16  C   UNL A   1      38.532  23.375  26.130  1.00  0.00     0.019 C 
ATOM     17  C   UNL A   1      37.099  22.908  25.894  1.00  0.00     0.049 C 
ATOM     18  C   UNL A   1      36.138  24.079  25.681  1.00  0.00     0.080 C 
ATOM     19  S   UNL A   1      37.043  21.853  24.430  1.00  0.00    -0.152 SA
ATOM     20  C   UNL A   1      36.078  22.991  23.419  1.00  0.00     0.134 C 
ENDBRANCH   9  15
ENDBRANCH   5   8
ENDBRANCH   3   4
ENDBRANCH   2   3
ENDBRANCH   1   2
BRANCH   1  21
ATOM     21  N   UNL A   1      33.853  30.213  26.542  1.00  0.00    -0.352 N 
ATOM     22  C   UNL A   1      34.629  30.926  27.421  1.00  0.00     0.251 C 
ATOM     23  H   UNL A   1      33.191  30.743  26.042  1.00  0.00     0.163 HD
ATOM     24  O   UNL A   1      34.302  32.066  27.734  1.00  0.00    -0.269 OA
BRANCH  22  25
ATOM     25  C   UNL A   1      35.852  30.316  27.984  1.00  0.00     0.039 A 
ATOM     26  C   UNL A   1      35.797  29.704  29.238  1.00  0.00     0.014 A 
ATOM     27  C   UNL A   1      37.060  30.376  27.285  1.00  0.00     0.014 A 
ATOM     28  C   UNL A   1      36.951  29.129  29.773  1.00  0.00     0.010 A 
ATOM     29  C   UNL A   1      38.173  29.701  27.764  1.00  0.00     0.010 A 
ATOM     30  C   UNL A   1      38.146  29.110  29.033  1.00  0.00    -0.014 A 
BRANCH  30  31
ATOM     31  C   UNL A   1      39.393  28.539  29.595  1.00  0.00     0.031 A 
ATOM     32  C   UNL A   1      39.986  29.128  30.850  1.00  0.00     0.074 A 
ATOM     33  C   UNL A   1      40.026  27.542  28.947  1.00  0.00     0.049 A 
ATOM     34  N   UNL A   1      41.079  28.791  31.483  1.00  0.00    -0.248 NA
ATOM     35  C   UNL A   1      39.280  30.271  31.455  1.00  0.00     0.031 C 
ATOM     36  C   UNL A   1      39.601  26.954  27.674  1.00  0.00     0.029 A 
ATOM     37  N   UNL A   1      41.171  26.859  29.262  1.00  0.00    -0.354 N 
ATOM     38  C   UNL A   1      41.211  29.700  32.526  1.00  0.00     0.074 A 
ATOM     39  C   UNL A   1      40.118  30.639  32.411  1.00  0.00     0.031 C 
ATOM     40  C   UNL A   1      40.464  25.984  27.328  1.00  0.00     0.029 A 
ATOM     41  C   UNL A   1      41.513  25.899  28.338  1.00  0.00     0.049 A 
ATOM     42  H   UNL A   1      41.700  27.038  30.073  1.00  0.00     0.167 HD
ATOM     43  C   UNL A   1      42.132  29.732  33.518  1.00  0.00     0.034 A 
ATOM     44  C   UNL A   1      42.553  25.044  28.316  1.00  0.00     0.034 A 
ATOM     45  C   UNL A   1      43.182  28.762  33.660  1.00  0.00     0.049 A 
ATOM     46  C   UNL A   1      43.519  25.048  29.470  1.00  0.00     0.074 A 
ATOM     47  C   UNL A   1      44.117  28.645  34.672  1.00  0.00     0.029 A 
ATOM     48  N   UNL A   1      43.434  27.738  32.760  1.00  0.00    -0.354 N 
ATOM     49  N   UNL A   1      43.537  25.818  30.531  1.00  0.00    -0.248 NA
ATOM     50  C   UNL A   1      44.581  24.032  29.447  1.00  0.00     0.031 C 
ATOM     51  C   UNL A   1      44.949  27.561  34.372  1.00  0.00     0.029 A 
ATOM     52  C   UNL A   1      44.509  26.981  33.192  1.00  0.00     0.049 A 
ATOM     53  H   UNL A   1      42.924  27.573  31.934  1.00  0.00     0.167 HD
ATOM     54  C   UNL A   1      44.580  25.353  31.323  1.00  0.00     0.074 A 
ATOM     55  C   UNL A   1      45.154  24.218  30.627  1.00  0.00     0.031 C 
ATOM     56  C   UNL A   1      45.031  25.825  32.512  1.00  0.00     0.034 A 
BRANCH  43  57
ATOM     57  C   UNL A   1      42.005  30.818  34.556  1.00  0.00     0.023 A 
ATOM     58  C   UNL A   1      41.225  30.596  35.710  1.00  0.00     0.012 A 
ATOM     59  C   UNL A   1      42.685  32.043  34.411  1.00  0.00     0.148 A 
ATOM     60  C   UNL A   1      41.087  31.588  36.680  1.00  0.00     0.002 A 
ATOM     61  C   UNL A   1      42.585  33.008  35.407  1.00  0.00     0.091 A 
ATOM     62  F   UNL A   1      43.405  32.249  33.298  1.00  0.00    -0.205 F 
ATOM     63  C   UNL A   1      41.775  32.789  36.533  1.00  0.00     0.022 A 
BRANCH  61  64
ATOM     64  S   UNL A   1      43.499  34.554  35.356  1.00  0.00     0.127 S 
ATOM     65  O   UNL A   1      42.876  35.228  34.218  1.00  0.00    -0.237 OA
ATOM     66  O   UNL A   1      43.183  35.139  36.660  1.00  0.00    -0.237 OA
ATOM     67  O   UNL A   1      44.897  34.189  35.177  1.00  0.00    -0.744 OA
ENDBRANCH  61  64
ENDBRANCH  43  57
BRANCH  44  68
ATOM     68  C   UNL A   1      42.681  24.052  27.210  1.00  0.00     0.023 A 
ATOM     69  C   UNL A   1      43.438  24.381  26.068  1.00  0.00     0.012 A 
ATOM     70  C   UNL A   1      42.076  22.783  27.291  1.00  0.00     0.148 A 
ATOM     71  C   UNL A   1      43.556  23.481  25.009  1.00  0.00     0.002 A 
ATOM     72  C   UNL A   1      42.245  21.870  26.256  1.00  0.00     0.091 A 
ATOM     73  F   UNL A   1      41.356  22.491  28.382  1.00  0.00    -0.205 F 
ATOM     74  C   UNL A   1      42.967  22.224  25.106  1.00  0.00     0.022 A 
BRANCH  72  75
ATOM     75  S   UNL A   1      41.634  20.184  26.350  1.00  0.00     0.127 S 
ATOM     76  O   UNL A   1      40.198  20.375  26.167  1.00  0.00    -0.237 OA
ATOM     77  O   UNL A   1      42.321  19.552  25.222  1.00  0.00    -0.237 OA
ATOM     78  O   UNL A   1      42.046  19.688  27.656  1.00  0.00    -0.744 OA
ENDBRANCH  72  75
ENDBRANCH  44  68
BRANCH  56  79
ATOM     79  C   UNL A   1      46.168  25.083  33.166  1.00  0.00     0.023 A 
ATOM     80  C   UNL A   1      47.495  25.527  32.993  1.00  0.00     0.012 A 
ATOM     81  C   UNL A   1      45.912  23.971  33.992  1.00  0.00     0.148 A 
ATOM     82  C   UNL A   1      48.552  24.843  33.591  1.00  0.00     0.002 A 
ATOM     83  C   UNL A   1      46.967  23.330  34.630  1.00  0.00     0.091 A 
ATOM     84  F   UNL A   1      44.646  23.552  34.130  1.00  0.00    -0.205 F 
ATOM     85  C   UNL A   1      48.288  23.753  34.417  1.00  0.00     0.022 A 
BRANCH  83  86
ATOM     86  S   UNL A   1      46.703  21.985  35.790  1.00  0.00     0.127 S 
ATOM     87  O   UNL A   1      48.073  21.635  36.159  1.00  0.00    -0.237 OA
ATOM     88  O   UNL A   1      45.933  22.635  36.852  1.00  0.00    -0.237 OA
ATOM     89  O   UNL A   1      45.968  20.965  35.055  1.00  0.00    -0.744 OA
ENDBRANCH  83  86
ENDBRANCH  56  79
ENDBRANCH  30  31
ENDBRANCH  22  25
ENDBRANCH   1  21
TORSDOF 14
ENDMDL
MODEL 3
REMARK VINA RESULT:     -11.3      4.867      9.782
REMARK SMILES C[C@H]1C[C@H]([N@@H+]2CCOC[C@@H]2C(=O)NCCCNC(=O)c2ccc(-c3c4nc(c(-c5cccc(S(=O)(=O)[O-])c5F)c5ccc([nH]5)c(-c5cccc(S(=O)(=O)[O-])c5F)c5nc(c(-c6cccc(S(=O)(=O)[O-])c6F)c6ccc3[nH]6)C=C5)C=C4)cc2)CS1
REMARK SMILES IDX 16 1 15 2 14 3 13 4 11 5 12 6 10 8 5 9 6 10 7 12 9 13 8 14
REMARK SMILES IDX 4 15 1 16 2 17 3 18 84 19 83 20 17 21 18 22 19 24 20 25
REMARK SMILES IDX 21 26 82 27 22 28 81 29 23 30 24 31 25 32 75 33 26 34 80 35
REMARK SMILES IDX 74 36 76 37 27 38 79 39 73 40 72 41 28 43 60 44 40 45 59 46
REMARK SMILES IDX 41 47 44 48 58 49 77 50 42 51 43 52 57 54 78 55 45 56 29 57
REMARK SMILES IDX 30 58 38 59 31 60 33 61 39 62 32 63 34 64 35 65 36 66 37 67
REMARK SMILES IDX 61 68 62 69 70 70 63 71 65 72 71 73 64 74 66 75 67 76 68 77
REMARK SMILES IDX 69 78 46 79 47 80 55 81 48 82 50 83 56 84 49 85 51 86 52 87
REMARK SMILES IDX 53 88 54 89
REMARK H PARENT 13 7 5 11 17 23 76 42 44 53
REMARK Flexibility Score: inf
ROOT
ATOM      1  C   UNL A   1      33.137  29.024  25.517  1.00  0.00     0.118 C 
ENDROOT
BRANCH   1   2
ATOM      2  C   UNL A   1      33.837  28.974  24.166  1.00  0.00     0.042 C 
BRANCH   2   3
ATOM      3  C   UNL A   1      32.855  28.915  23.008  1.00  0.00     0.118 C 
BRANCH   3   4
ATOM      4  N   UNL A   1      33.171  27.824  22.111  1.00  0.00    -0.351 N 
ATOM      5  C   UNL A   1      33.024  26.480  22.165  1.00  0.00     0.280 C 
ATOM      6  O   UNL A   1      33.475  25.863  21.189  1.00  0.00    -0.268 OA
ATOM      7  H   UNL A   1      33.585  28.128  21.271  1.00  0.00     0.163 HD
BRANCH   5   8
ATOM      8  C   UNL A   1      32.329  25.708  23.297  1.00  0.00     0.300 C 
ATOM      9  N   UNL A   1      33.247  25.355  24.423  1.00  0.00    -0.318 N 
ATOM     10  C   UNL A   1      32.426  24.890  25.562  1.00  0.00     0.292 C 
ATOM     11  H   UNL A   1      33.728  26.234  24.609  1.00  0.00     0.349 HD
ATOM     12  C   UNL A   1      31.360  23.843  25.206  1.00  0.00     0.221 C 
ATOM     13  C   UNL A   1      31.287  24.630  22.981  1.00  0.00     0.235 C 
ATOM     14  O   UNL A   1      30.511  24.296  24.145  1.00  0.00    -0.369 OA
BRANCH   9  15
ATOM     15  C   UNL A   1      34.490  24.588  24.213  1.00  0.00     0.195 C 
ATOM     16  C   UNL A   1      37.200  22.554  25.647  1.00  0.00     0.019 C 
ATOM     17  C   UNL A   1      35.724  22.932  25.713  1.00  0.00     0.049 C 
ATOM     18  C   UNL A   1      35.489  24.403  25.365  1.00  0.00     0.080 C 
ATOM     19  S   UNL A   1      34.789  21.916  24.551  1.00  0.00    -0.152 SA
ATOM     20  C   UNL A   1      34.347  23.265  23.441  1.00  0.00     0.134 C 
ENDBRANCH   9  15
ENDBRANCH   5   8
ENDBRANCH   3   4
ENDBRANCH   2   3
ENDBRANCH   1   2
BRANCH   1  21
ATOM     21  N   UNL A   1      32.739  30.381  25.872  1.00  0.00    -0.352 N 
ATOM     22  C   UNL A   1      33.184  31.186  26.890  1.00  0.00     0.251 C 
ATOM     23  H   UNL A   1      32.050  30.781  25.293  1.00  0.00     0.163 HD
ATOM     24  O   UNL A   1      32.551  32.193  27.191  1.00  0.00    -0.269 OA
BRANCH  22  25
ATOM     25  C   UNL A   1      34.422  30.834  27.618  1.00  0.00     0.039 A 
ATOM     26  C   UNL A   1      35.435  31.786  27.747  1.00  0.00     0.014 A 
ATOM     27  C   UNL A   1      34.593  29.552  28.145  1.00  0.00     0.014 A 
ATOM     28  C   UNL A   1      36.606  31.456  28.431  1.00  0.00     0.010 A 
ATOM     29  C   UNL A   1      35.704  29.266  28.925  1.00  0.00     0.010 A 
ATOM     30  C   UNL A   1      36.743  30.197  29.039  1.00  0.00    -0.014 A 
BRANCH  30  31
ATOM     31  C   UNL A   1      37.992  29.809  29.738  1.00  0.00     0.031 A 
ATOM     32  C   UNL A   1      38.263  30.327  31.128  1.00  0.00     0.074 A 
ATOM     33  C   UNL A   1      38.907  29.049  29.106  1.00  0.00     0.049 A 
ATOM     34  N   UNL A   1      39.302  30.127  31.895  1.00  0.00    -0.248 NA
ATOM     35  C   UNL A   1      37.251  31.220  31.721  1.00  0.00     0.031 C 
ATOM     36  C   UNL A   1      38.801  28.565  27.727  1.00  0.00     0.029 A 
ATOM     37  N   UNL A   1      40.115  28.565  29.534  1.00  0.00    -0.354 N 
ATOM     38  C   UNL A   1      39.089  30.897  33.033  1.00  0.00     0.074 A 
ATOM     39  C   UNL A   1      37.849  31.613  32.835  1.00  0.00     0.031 C 
ATOM     40  C   UNL A   1      39.889  27.836  27.431  1.00  0.00     0.029 A 
ATOM     41  C   UNL A   1      40.780  27.822  28.588  1.00  0.00     0.049 A 
ATOM     42  H   UNL A   1      40.473  28.733  30.436  1.00  0.00     0.167 HD
ATOM     43  C   UNL A   1      39.832  30.974  34.161  1.00  0.00     0.034 A 
ATOM     44  C   UNL A   1      41.970  27.195  28.650  1.00  0.00     0.034 A 
ATOM     45  C   UNL A   1      41.034  30.215  34.376  1.00  0.00     0.049 A 
ATOM     46  C   UNL A   1      42.740  27.232  29.943  1.00  0.00     0.074 A 
ATOM     47  C   UNL A   1      41.820  30.147  35.511  1.00  0.00     0.029 A 
ATOM     48  N   UNL A   1      41.622  29.389  33.431  1.00  0.00    -0.354 N 
ATOM     49  N   UNL A   1      42.444  27.843  31.065  1.00  0.00    -0.248 NA
ATOM     50  C   UNL A   1      43.986  26.454  29.992  1.00  0.00     0.031 C 
ATOM     51  C   UNL A   1      42.897  29.296  35.244  1.00  0.00     0.029 A 
ATOM     52  C   UNL A   1      42.762  28.805  33.955  1.00  0.00     0.049 A 
ATOM     53  H   UNL A   1      41.280  29.241  32.519  1.00  0.00     0.167 HD
ATOM     54  C   UNL A   1      43.440  27.486  31.968  1.00  0.00     0.074 A 
ATOM     55  C   UNL A   1      44.334  26.588  31.264  1.00  0.00     0.031 C 
ATOM     56  C   UNL A   1      43.608  27.873  33.256  1.00  0.00     0.034 A 
BRANCH  43  57
ATOM     57  C   UNL A   1      39.333  31.866  35.270  1.00  0.00     0.023 A 
ATOM     58  C   UNL A   1      38.401  31.366  36.204  1.00  0.00     0.012 A 
ATOM     59  C   UNL A   1      39.810  33.184  35.411  1.00  0.00     0.148 A 
ATOM     60  C   UNL A   1      37.919  32.175  37.233  1.00  0.00     0.002 A 
ATOM     61  C   UNL A   1      39.364  33.967  36.470  1.00  0.00     0.091 A 
ATOM     62  F   UNL A   1      40.678  33.652  34.503  1.00  0.00    -0.205 F 
ATOM     63  C   UNL A   1      38.408  33.471  37.371  1.00  0.00     0.022 A 
BRANCH  61  64
ATOM     64  S   UNL A   1      39.995  35.618  36.788  1.00  0.00     0.127 S 
ATOM     65  O   UNL A   1      41.437  35.380  36.833  1.00  0.00    -0.237 OA
ATOM     66  O   UNL A   1      39.534  36.354  35.611  1.00  0.00    -0.237 OA
ATOM     67  O   UNL A   1      39.394  36.044  38.044  1.00  0.00    -0.744 OA
ENDBRANCH  61  64
ENDBRANCH  43  57
BRANCH  44  68
ATOM     68  C   UNL A   1      42.461  26.404  27.486  1.00  0.00     0.023 A 
ATOM     69  C   UNL A   1      43.287  27.023  26.527  1.00  0.00     0.012 A 
ATOM     70  C   UNL A   1      42.130  25.044  27.333  1.00  0.00     0.148 A 
ATOM     71  C   UNL A   1      43.742  26.313  25.415  1.00  0.00     0.002 A 
ATOM     72  C   UNL A   1      42.634  24.328  26.253  1.00  0.00     0.091 A 
ATOM     73  F   UNL A   1      41.340  24.476  28.253  1.00  0.00    -0.205 F 
ATOM     74  C   UNL A   1      43.423  24.966  25.283  1.00  0.00     0.022 A 
BRANCH  72  75
ATOM     75  S   UNL A   1      42.384  22.560  26.069  1.00  0.00     0.127 S 
ATOM     76  O   UNL A   1      43.042  22.295  24.792  1.00  0.00    -0.237 OA
ATOM     77  O   UNL A   1      43.082  22.033  27.243  1.00  0.00    -0.237 OA
ATOM     78  O   UNL A   1      40.941  22.361  26.092  1.00  0.00    -0.744 OA
ENDBRANCH  72  75
ENDBRANCH  44  68
BRANCH  56  79
ATOM     79  C   UNL A   1      44.772  27.286  34.010  1.00  0.00     0.023 A 
ATOM     80  C   UNL A   1      46.029  27.925  33.983  1.00  0.00     0.012 A 
ATOM     81  C   UNL A   1      44.605  26.121  34.786  1.00  0.00     0.148 A 
ATOM     82  C   UNL A   1      47.111  27.385  34.675  1.00  0.00     0.002 A 
ATOM     83  C   UNL A   1      45.675  25.622  35.517  1.00  0.00     0.091 A 
ATOM     84  F   UNL A   1      43.408  25.517  34.785  1.00  0.00    -0.205 F 
ATOM     85  C   UNL A   1      46.933  26.241  35.449  1.00  0.00     0.022 A 
BRANCH  83  86
ATOM     86  S   UNL A   1      45.502  24.215  36.620  1.00  0.00     0.127 S 
ATOM     87  O   UNL A   1      44.467  24.683  37.540  1.00  0.00    -0.237 OA
ATOM     88  O   UNL A   1      45.073  23.154  35.708  1.00  0.00    -0.237 OA
ATOM     89  O   UNL A   1      46.819  24.006  37.208  1.00  0.00    -0.744 OA
ENDBRANCH  83  86
ENDBRANCH  56  79
ENDBRANCH  30  31
ENDBRANCH  22  25
ENDBRANCH   1  21
TORSDOF 14
ENDMDL
