MODEL 1
REMARK VINA RESULT:     -12.5      0.000      0.000
REMARK SMILES O=C(C[C@@H]1C[N@@H+]([C@H]2CCCc3sccc32)CCO1)NCCCNC(=O)c1ccc(-c2c3nc(c(-c4cccc(S(=O)(=O)[O-])c4F)c4ccc([nH]4)c(-c4cccc(S(=O)(=O)[O-])c4F)c4nc(c(-c5cccc(S(=O)(=O)[O-])c5F)c5ccc2[nH]5)C=C4)C=C3)cc1
REMARK SMILES IDX 21 1 20 2 19 3 1 4 2 5 3 7 4 8 5 9 18 10 6 11 17 12 16 13
REMARK SMILES IDX 7 15 8 16 15 17 9 18 11 19 14 20 10 21 12 22 13 23 22 24
REMARK SMILES IDX 23 25 24 26 25 28 26 29 27 30 88 31 28 32 87 33 29 34 30 35
REMARK SMILES IDX 31 36 81 37 32 38 86 39 80 40 82 41 33 42 85 43 79 44 78 45
REMARK SMILES IDX 34 47 66 48 46 49 65 50 47 51 50 52 64 53 83 54 48 55 49 56
REMARK SMILES IDX 63 58 84 59 51 60 35 61 36 62 44 63 37 64 39 65 45 66 38 67
REMARK SMILES IDX 40 68 41 69 42 70 43 71 67 72 68 73 76 74 69 75 71 76 77 77
REMARK SMILES IDX 70 78 72 79 73 80 74 81 75 82 52 83 53 84 61 85 54 86 56 87
REMARK SMILES IDX 62 88 55 89 57 90 58 91 59 92 60 93
REMARK H PARENT 19 6 6 14 23 27 82 46 50 57
REMARK Flexibility Score: inf
ROOT
ATOM      1  C   UNL A   1      31.591  30.669  26.011  1.00  0.00     0.042 C 
ENDROOT
BRANCH   1   2
ATOM      2  C   UNL A   1      32.167  29.687  25.002  1.00  0.00     0.117 C 
BRANCH   2   3
ATOM      3  N   UNL A   1      31.273  28.574  24.758  1.00  0.00    -0.356 N 
ATOM      4  O   UNL A   1      30.796  29.083  22.564  1.00  0.00    -0.275 OA
ATOM      5  C   UNL A   1      30.688  28.339  23.532  1.00  0.00     0.222 C 
ATOM      6  H   UNL A   1      31.073  27.958  25.500  1.00  0.00     0.163 HD
BRANCH   5   7
ATOM      7  C   UNL A   1      29.924  27.035  23.487  1.00  0.00     0.138 C 
BRANCH   7   8
ATOM      8  C   UNL A   1      30.718  25.843  24.030  1.00  0.00     0.182 C 
ATOM      9  C   UNL A   1      30.376  24.471  23.399  1.00  0.00     0.295 C 
ATOM     10  O   UNL A   1      30.553  25.770  25.455  1.00  0.00    -0.366 OA
ATOM     11  N   UNL A   1      31.163  23.343  23.925  1.00  0.00    -0.325 N 
ATOM     12  C   UNL A   1      31.454  24.802  26.000  1.00  0.00     0.222 C 
ATOM     13  C   UNL A   1      31.258  23.400  25.388  1.00  0.00     0.291 C 
ATOM     14  H   UNL A   1      30.649  22.474  23.787  1.00  0.00     0.348 HD
BRANCH  11  15
ATOM     15  C   UNL A   1      32.320  22.955  23.112  1.00  0.00     0.216 C 
ATOM     16  C   UNL A   1      33.268  24.062  22.596  1.00  0.00     0.071 C 
ATOM     17  C   UNL A   1      33.120  21.881  23.822  1.00  0.00     0.023 A 
ATOM     18  C   UNL A   1      34.319  24.509  23.618  1.00  0.00     0.012 C 
ATOM     19  C   UNL A   1      34.413  22.092  24.270  1.00  0.00     0.014 A 
ATOM     20  C   UNL A   1      32.713  20.527  24.054  1.00  0.00     0.022 A 
ATOM     21  C   UNL A   1      35.201  23.354  24.106  1.00  0.00     0.047 C 
ATOM     22  S   UNL A   1      35.100  20.708  24.984  1.00  0.00    -0.148 S 
ATOM     23  C   UNL A   1      33.698  19.782  24.665  1.00  0.00     0.065 A 
ENDBRANCH  11  15
ENDBRANCH   7   8
ENDBRANCH   5   7
ENDBRANCH   2   3
ENDBRANCH   1   2
BRANCH   1  24
ATOM     24  C   UNL A   1      32.541  31.052  27.142  1.00  0.00     0.118 C 
BRANCH  24  25
ATOM     25  N   UNL A   1      32.786  32.485  27.238  1.00  0.00    -0.352 N 
ATOM     26  C   UNL A   1      33.880  33.150  27.744  1.00  0.00     0.251 C 
ATOM     27  H   UNL A   1      32.066  33.061  26.890  1.00  0.00     0.163 HD
ATOM     28  O   UNL A   1      33.856  34.371  27.862  1.00  0.00    -0.269 OA
BRANCH  26  29
ATOM     29  C   UNL A   1      35.070  32.385  28.179  1.00  0.00     0.039 A 
ATOM     30  C   UNL A   1      36.302  33.039  28.250  1.00  0.00     0.014 A 
ATOM     31  C   UNL A   1      34.962  31.043  28.551  1.00  0.00     0.014 A 
ATOM     32  C   UNL A   1      37.408  32.370  28.783  1.00  0.00     0.010 A 
ATOM     33  C   UNL A   1      36.043  30.406  29.154  1.00  0.00     0.010 A 
ATOM     34  C   UNL A   1      37.275  31.066  29.288  1.00  0.00    -0.014 A 
BRANCH  34  35
ATOM     35  C   UNL A   1      38.395  30.395  30.002  1.00  0.00     0.031 A 
ATOM     36  C   UNL A   1      38.757  30.796  31.406  1.00  0.00     0.074 A 
ATOM     37  C   UNL A   1      39.151  29.490  29.347  1.00  0.00     0.049 A 
ATOM     38  N   UNL A   1      39.745  30.378  32.153  1.00  0.00    -0.248 NA
ATOM     39  C   UNL A   1      37.913  31.819  32.046  1.00  0.00     0.031 C 
ATOM     40  C   UNL A   1      38.953  29.067  27.958  1.00  0.00     0.029 A 
ATOM     41  N   UNL A   1      40.259  28.786  29.750  1.00  0.00    -0.354 N 
ATOM     42  C   UNL A   1      39.666  31.106  33.333  1.00  0.00     0.074 A 
ATOM     43  C   UNL A   1      38.549  32.016  33.192  1.00  0.00     0.031 C 
ATOM     44  C   UNL A   1      39.904  28.180  27.628  1.00  0.00     0.029 A 
ATOM     45  C   UNL A   1      40.802  27.998  28.762  1.00  0.00     0.049 A 
ATOM     46  H   UNL A   1      40.630  28.841  30.661  1.00  0.00     0.167 HD
ATOM     47  C   UNL A   1      40.435  31.011  34.444  1.00  0.00     0.034 A 
ATOM     48  C   UNL A   1      41.910  27.229  28.761  1.00  0.00     0.034 A 
ATOM     49  C   UNL A   1      41.525  30.085  34.595  1.00  0.00     0.049 A 
ATOM     50  C   UNL A   1      42.738  27.131  30.013  1.00  0.00     0.074 A 
ATOM     51  C   UNL A   1      42.305  29.852  35.716  1.00  0.00     0.029 A 
ATOM     52  N   UNL A   1      42.003  29.250  33.597  1.00  0.00    -0.354 N 
ATOM     53  N   UNL A   1      42.550  27.709  31.174  1.00  0.00    -0.248 NA
ATOM     54  C   UNL A   1      43.916  26.252  29.963  1.00  0.00     0.031 C 
ATOM     55  C   UNL A   1      43.277  28.903  35.383  1.00  0.00     0.029 A 
ATOM     56  C   UNL A   1      43.080  28.517  34.067  1.00  0.00     0.049 A 
ATOM     57  H   UNL A   1      41.631  29.188  32.688  1.00  0.00     0.167 HD
ATOM     58  C   UNL A   1      43.563  27.240  32.002  1.00  0.00     0.074 A 
ATOM     59  C   UNL A   1      44.349  26.311  31.216  1.00  0.00     0.031 C 
ATOM     60  C   UNL A   1      43.829  27.562  33.292  1.00  0.00     0.034 A 
BRANCH  47  61
ATOM     61  C   UNL A   1      40.099  31.908  35.608  1.00  0.00     0.023 A 
ATOM     62  C   UNL A   1      40.830  33.098  35.805  1.00  0.00     0.012 A 
ATOM     63  C   UNL A   1      39.024  31.608  36.467  1.00  0.00     0.148 A 
ATOM     64  C   UNL A   1      40.520  33.956  36.859  1.00  0.00     0.002 A 
ATOM     65  C   UNL A   1      38.690  32.492  37.487  1.00  0.00     0.091 A 
ATOM     66  F   UNL A   1      38.352  30.463  36.276  1.00  0.00    -0.205 F 
ATOM     67  C   UNL A   1      39.444  33.659  37.692  1.00  0.00     0.022 A 
BRANCH  65  68
ATOM     68  S   UNL A   1      37.276  32.240  38.565  1.00  0.00     0.127 S 
ATOM     69  O   UNL A   1      37.718  32.904  39.791  1.00  0.00    -0.237 OA
ATOM     70  O   UNL A   1      36.212  32.938  37.843  1.00  0.00    -0.237 OA
ATOM     71  O   UNL A   1      37.099  30.798  38.667  1.00  0.00    -0.744 OA
ENDBRANCH  65  68
ENDBRANCH  47  61
BRANCH  48  72
ATOM     72  C   UNL A   1      42.277  26.453  27.541  1.00  0.00     0.023 A 
ATOM     73  C   UNL A   1      42.953  27.098  26.486  1.00  0.00     0.012 A 
ATOM     74  C   UNL A   1      41.975  25.083  27.428  1.00  0.00     0.148 A 
ATOM     75  C   UNL A   1      43.291  26.399  25.327  1.00  0.00     0.002 A 
ATOM     76  C   UNL A   1      42.366  24.379  26.294  1.00  0.00     0.091 A 
ATOM     77  F   UNL A   1      41.321  24.491  28.437  1.00  0.00    -0.205 F 
ATOM     78  C   UNL A   1      43.008  25.039  25.236  1.00  0.00     0.022 A 
BRANCH  76  79
ATOM     79  S   UNL A   1      42.159  22.602  26.144  1.00  0.00     0.127 S 
ATOM     80  O   UNL A   1      42.812  22.332  24.866  1.00  0.00    -0.237 OA
ATOM     81  O   UNL A   1      42.881  22.115  27.321  1.00  0.00    -0.237 OA
ATOM     82  O   UNL A   1      40.722  22.368  26.183  1.00  0.00    -0.744 OA
ENDBRANCH  76  79
ENDBRANCH  48  72
BRANCH  60  83
ATOM     83  C   UNL A   1      45.001  26.885  33.955  1.00  0.00     0.023 A 
ATOM     84  C   UNL A   1      46.286  27.455  33.864  1.00  0.00     0.012 A 
ATOM     85  C   UNL A   1      44.816  25.722  34.729  1.00  0.00     0.148 A 
ATOM     86  C   UNL A   1      47.374  26.860  34.504  1.00  0.00     0.002 A 
ATOM     87  C   UNL A   1      45.893  25.164  35.406  1.00  0.00     0.091 A 
ATOM     88  F   UNL A   1      43.588  25.184  34.790  1.00  0.00    -0.205 F 
ATOM     89  C   UNL A   1      47.175  25.723  35.283  1.00  0.00     0.022 A 
BRANCH  87  90
ATOM     90  S   UNL A   1      45.718  23.758  36.510  1.00  0.00     0.127 S 
ATOM     91  O   UNL A   1      47.099  23.541  36.938  1.00  0.00    -0.237 OA
ATOM     92  O   UNL A   1      44.834  24.289  37.548  1.00  0.00    -0.237 OA
ATOM     93  O   UNL A   1      45.138  22.687  35.711  1.00  0.00    -0.744 OA
ENDBRANCH  87  90
ENDBRANCH  60  83
ENDBRANCH  34  35
ENDBRANCH  26  29
ENDBRANCH  24  25
ENDBRANCH   1  24
TORSDOF 15
ENDMDL
MODEL 2
REMARK VINA RESULT:     -12.5      1.449      7.735
REMARK SMILES O=C(C[C@@H]1C[N@@H+]([C@H]2CCCc3sccc32)CCO1)NCCCNC(=O)c1ccc(-c2c3nc(c(-c4cccc(S(=O)(=O)[O-])c4F)c4ccc([nH]4)c(-c4cccc(S(=O)(=O)[O-])c4F)c4nc(c(-c5cccc(S(=O)(=O)[O-])c5F)c5ccc2[nH]5)C=C4)C=C3)cc1
REMARK SMILES IDX 21 1 20 2 19 3 1 4 2 5 3 7 4 8 5 9 18 10 6 11 17 12 16 13
REMARK SMILES IDX 7 15 8 16 15 17 9 18 11 19 14 20 10 21 12 22 13 23 22 24
REMARK SMILES IDX 23 25 24 26 25 28 26 29 27 30 88 31 28 32 87 33 29 34 30 35
REMARK SMILES IDX 31 36 81 37 32 38 86 39 80 40 82 41 33 42 85 43 79 44 78 45
REMARK SMILES IDX 34 47 66 48 46 49 65 50 47 51 50 52 64 53 83 54 48 55 49 56
REMARK SMILES IDX 63 58 84 59 51 60 35 61 36 62 44 63 37 64 39 65 45 66 38 67
REMARK SMILES IDX 40 68 41 69 42 70 43 71 67 72 68 73 76 74 69 75 71 76 77 77
REMARK SMILES IDX 70 78 72 79 73 80 74 81 75 82 52 83 53 84 61 85 54 86 56 87
REMARK SMILES IDX 62 88 55 89 57 90 58 91 59 92 60 93
REMARK H PARENT 19 6 6 14 23 27 82 46 50 57
REMARK Flexibility Score: inf
ROOT
ATOM      1  C   UNL A   1      33.288  29.332  24.391  1.00  0.00     0.042 C 
ENDROOT
BRANCH   1   2
ATOM      2  C   UNL A   1      32.280  28.878  23.345  1.00  0.00     0.117 C 
BRANCH   2   3
ATOM      3  N   UNL A   1      31.376  27.872  23.863  1.00  0.00    -0.356 N 
ATOM      4  O   UNL A   1      29.676  28.231  22.353  1.00  0.00    -0.275 OA
ATOM      5  C   UNL A   1      30.151  27.601  23.290  1.00  0.00     0.222 C 
ATOM      6  H   UNL A   1      31.646  27.359  24.658  1.00  0.00     0.163 HD
BRANCH   5   7
ATOM      7  C   UNL A   1      29.464  26.409  23.915  1.00  0.00     0.138 C 
BRANCH   7   8
ATOM      8  C   UNL A   1      30.437  25.353  24.448  1.00  0.00     0.182 C 
ATOM      9  C   UNL A   1      30.633  24.110  23.545  1.00  0.00     0.295 C 
ATOM     10  O   UNL A   1      30.015  24.934  25.755  1.00  0.00    -0.366 OA
ATOM     11  N   UNL A   1      31.585  23.118  24.071  1.00  0.00    -0.325 N 
ATOM     12  C   UNL A   1      31.024  24.115  26.353  1.00  0.00     0.222 C 
ATOM     13  C   UNL A   1      31.362  22.875  25.500  1.00  0.00     0.291 C 
ATOM     14  H   UNL A   1      31.377  22.202  23.674  1.00  0.00     0.348 HD
BRANCH  11  15
ATOM     15  C   UNL A   1      32.943  23.205  23.526  1.00  0.00     0.216 C 
ATOM     16  C   UNL A   1      33.591  24.600  23.370  1.00  0.00     0.071 C 
ATOM     17  C   UNL A   1      33.873  22.287  24.295  1.00  0.00     0.023 A 
ATOM     18  C   UNL A   1      34.227  25.139  24.656  1.00  0.00     0.012 C 
ATOM     19  C   UNL A   1      34.922  22.767  25.062  1.00  0.00     0.014 A 
ATOM     20  C   UNL A   1      33.862  20.855  24.284  1.00  0.00     0.022 A 
ATOM     21  C   UNL A   1      35.303  24.205  25.223  1.00  0.00     0.047 C 
ATOM     22  S   UNL A   1      35.841  21.524  25.777  1.00  0.00    -0.148 S 
ATOM     23  C   UNL A   1      34.884  20.317  25.036  1.00  0.00     0.065 A 
ENDBRANCH  11  15
ENDBRANCH   7   8
ENDBRANCH   5   7
ENDBRANCH   2   3
ENDBRANCH   1   2
BRANCH   1  24
ATOM     24  C   UNL A   1      32.747  29.386  25.817  1.00  0.00     0.118 C 
BRANCH  24  25
ATOM     25  N   UNL A   1      32.424  30.734  26.266  1.00  0.00    -0.352 N 
ATOM     26  C   UNL A   1      33.126  31.562  27.113  1.00  0.00     0.251 C 
ATOM     27  H   UNL A   1      31.582  31.105  25.914  1.00  0.00     0.163 HD
ATOM     28  O   UNL A   1      32.631  32.622  27.484  1.00  0.00    -0.269 OA
BRANCH  26  29
ATOM     29  C   UNL A   1      34.461  31.154  27.602  1.00  0.00     0.039 A 
ATOM     30  C   UNL A   1      35.461  32.122  27.718  1.00  0.00     0.014 A 
ATOM     31  C   UNL A   1      34.712  29.832  27.980  1.00  0.00     0.014 A 
ATOM     32  C   UNL A   1      36.686  31.782  28.301  1.00  0.00     0.010 A 
ATOM     33  C   UNL A   1      35.902  29.516  28.631  1.00  0.00     0.010 A 
ATOM     34  C   UNL A   1      36.897  30.491  28.810  1.00  0.00    -0.014 A 
BRANCH  34  35
ATOM     35  C   UNL A   1      38.128  30.152  29.575  1.00  0.00     0.031 A 
ATOM     36  C   UNL A   1      39.129  29.175  29.021  1.00  0.00     0.074 A 
ATOM     37  C   UNL A   1      38.292  30.649  30.818  1.00  0.00     0.049 A 
ATOM     38  N   UNL A   1      40.214  28.703  29.577  1.00  0.00    -0.248 NA
ATOM     39  C   UNL A   1      38.864  28.641  27.675  1.00  0.00     0.031 C 
ATOM     40  C   UNL A   1      37.358  31.546  31.502  1.00  0.00     0.029 A 
ATOM     41  N   UNL A   1      39.289  30.445  31.741  1.00  0.00    -0.354 N 
ATOM     42  C   UNL A   1      40.743  27.794  28.671  1.00  0.00     0.074 A 
ATOM     43  C   UNL A   1      39.843  27.757  27.538  1.00  0.00     0.031 C 
ATOM     44  C   UNL A   1      37.825  31.815  32.731  1.00  0.00     0.029 A 
ATOM     45  C   UNL A   1      39.069  31.082  32.941  1.00  0.00     0.049 A 
ATOM     46  H   UNL A   1      40.086  29.895  31.561  1.00  0.00     0.167 HD
ATOM     47  C   UNL A   1      41.887  27.073  28.759  1.00  0.00     0.034 A 
ATOM     48  C   UNL A   1      39.776  31.064  34.088  1.00  0.00     0.034 A 
ATOM     49  C   UNL A   1      42.797  27.134  29.871  1.00  0.00     0.049 A 
ATOM     50  C   UNL A   1      41.050  30.265  34.154  1.00  0.00     0.074 A 
ATOM     51  C   UNL A   1      44.025  26.509  30.011  1.00  0.00     0.029 A 
ATOM     52  N   UNL A   1      42.576  27.846  31.040  1.00  0.00    -0.354 N 
ATOM     53  N   UNL A   1      41.616  29.537  33.222  1.00  0.00    -0.248 NA
ATOM     54  C   UNL A   1      41.797  30.309  35.419  1.00  0.00     0.031 C 
ATOM     55  C   UNL A   1      44.528  26.815  31.280  1.00  0.00     0.029 A 
ATOM     56  C   UNL A   1      43.633  27.659  31.915  1.00  0.00     0.049 A 
ATOM     57  H   UNL A   1      41.784  28.401  31.221  1.00  0.00     0.167 HD
ATOM     58  C   UNL A   1      42.800  29.063  33.776  1.00  0.00     0.074 A 
ATOM     59  C   UNL A   1      42.881  29.607  35.116  1.00  0.00     0.031 C 
ATOM     60  C   UNL A   1      43.728  28.239  33.230  1.00  0.00     0.034 A 
BRANCH  47  61
ATOM     61  C   UNL A   1      42.244  26.181  27.598  1.00  0.00     0.023 A 
ATOM     62  C   UNL A   1      43.038  26.686  26.548  1.00  0.00     0.012 A 
ATOM     63  C   UNL A   1      41.848  24.829  27.574  1.00  0.00     0.148 A 
ATOM     64  C   UNL A   1      43.403  25.871  25.477  1.00  0.00     0.002 A 
ATOM     65  C   UNL A   1      42.254  24.010  26.527  1.00  0.00     0.091 A 
ATOM     66  F   UNL A   1      41.076  24.371  28.571  1.00  0.00    -0.205 F 
ATOM     67  C   UNL A   1      43.020  24.532  25.472  1.00  0.00     0.022 A 
BRANCH  65  68
ATOM     68  S   UNL A   1      41.880  22.255  26.466  1.00  0.00     0.127 S 
ATOM     69  O   UNL A   1      40.429  22.269  26.290  1.00  0.00    -0.237 OA
ATOM     70  O   UNL A   1      42.633  21.821  25.289  1.00  0.00    -0.237 OA
ATOM     71  O   UNL A   1      42.350  21.699  27.728  1.00  0.00    -0.744 OA
ENDBRANCH  65  68
ENDBRANCH  47  61
BRANCH  48  72
ATOM     72  C   UNL A   1      39.318  31.865  35.259  1.00  0.00     0.023 A 
ATOM     73  C   UNL A   1      38.454  31.278  36.205  1.00  0.00     0.012 A 
ATOM     74  C   UNL A   1      39.743  33.194  35.448  1.00  0.00     0.148 A 
ATOM     75  C   UNL A   1      37.996  32.012  37.300  1.00  0.00     0.002 A 
ATOM     76  C   UNL A   1      39.328  33.900  36.572  1.00  0.00     0.091 A 
ATOM     77  F   UNL A   1      40.555  33.737  34.530  1.00  0.00    -0.205 F 
ATOM     78  C   UNL A   1      38.441  33.318  37.489  1.00  0.00     0.022 A 
BRANCH  76  79
ATOM     79  S   UNL A   1      39.952  35.537  36.964  1.00  0.00     0.127 S 
ATOM     80  O   UNL A   1      41.392  35.302  37.026  1.00  0.00    -0.237 OA
ATOM     81  O   UNL A   1      39.502  36.315  35.808  1.00  0.00    -0.237 OA
ATOM     82  O   UNL A   1      39.317  35.909  38.221  1.00  0.00    -0.744 OA
ENDBRANCH  76  79
ENDBRANCH  48  72
BRANCH  60  83
ATOM     83  C   UNL A   1      44.934  27.893  34.065  1.00  0.00     0.023 A 
ATOM     84  C   UNL A   1      46.078  28.715  34.023  1.00  0.00     0.012 A 
ATOM     85  C   UNL A   1      44.906  26.794  34.946  1.00  0.00     0.148 A 
ATOM     86  C   UNL A   1      47.187  28.428  34.818  1.00  0.00     0.002 A 
ATOM     87  C   UNL A   1      45.994  26.545  35.774  1.00  0.00     0.091 A 
ATOM     88  F   UNL A   1      43.814  26.014  34.961  1.00  0.00    -0.205 F 
ATOM     89  C   UNL A   1      47.140  27.351  35.701  1.00  0.00     0.022 A 
BRANCH  87  90
ATOM     90  S   UNL A   1      45.990  25.242  37.011  1.00  0.00     0.127 S 
ATOM     91  O   UNL A   1      47.308  25.406  37.621  1.00  0.00    -0.237 OA
ATOM     92  O   UNL A   1      44.869  25.632  37.867  1.00  0.00    -0.237 OA
ATOM     93  O   UNL A   1      45.790  23.995  36.283  1.00  0.00    -0.744 OA
ENDBRANCH  87  90
ENDBRANCH  60  83
ENDBRANCH  34  35
ENDBRANCH  26  29
ENDBRANCH  24  25
ENDBRANCH   1  24
TORSDOF 15
ENDMDL
MODEL 3
REMARK VINA RESULT:     -12.5      5.356      8.457
REMARK SMILES O=C(C[C@@H]1C[N@@H+]([C@H]2CCCc3sccc32)CCO1)NCCCNC(=O)c1ccc(-c2c3nc(c(-c4cccc(S(=O)(=O)[O-])c4F)c4ccc([nH]4)c(-c4cccc(S(=O)(=O)[O-])c4F)c4nc(c(-c5cccc(S(=O)(=O)[O-])c5F)c5ccc2[nH]5)C=C4)C=C3)cc1
REMARK SMILES IDX 21 1 20 2 19 3 1 4 2 5 3 7 4 8 5 9 18 10 6 11 17 12 16 13
REMARK SMILES IDX 7 15 8 16 15 17 9 18 11 19 14 20 10 21 12 22 13 23 22 24
REMARK SMILES IDX 23 25 24 26 25 28 26 29 27 30 88 31 28 32 87 33 29 34 30 35
REMARK SMILES IDX 31 36 81 37 32 38 86 39 80 40 82 41 33 42 85 43 79 44 78 45
REMARK SMILES IDX 34 47 66 48 46 49 65 50 47 51 50 52 64 53 83 54 48 55 49 56
REMARK SMILES IDX 63 58 84 59 51 60 35 61 36 62 44 63 37 64 39 65 45 66 38 67
REMARK SMILES IDX 40 68 41 69 42 70 43 71 67 72 68 73 76 74 69 75 71 76 77 77
REMARK SMILES IDX 70 78 72 79 73 80 74 81 75 82 52 83 53 84 61 85 54 86 56 87
REMARK SMILES IDX 62 88 55 89 57 90 58 91 59 92 60 93
REMARK H PARENT 19 6 6 14 23 27 82 46 50 57
REMARK Flexibility Score: inf
ROOT
ATOM      1  C   UNL A   1      36.208  20.735  25.023  1.00  0.00     0.042 C 
ENDROOT
BRANCH   1   2
ATOM      2  C   UNL A   1      35.084  21.477  25.732  1.00  0.00     0.117 C 
BRANCH   2   3
ATOM      3  N   UNL A   1      35.224  22.914  25.616  1.00  0.00    -0.356 N 
ATOM      4  O   UNL A   1      32.998  23.377  25.260  1.00  0.00    -0.275 OA
ATOM      5  C   UNL A   1      34.150  23.757  25.429  1.00  0.00     0.222 C 
ATOM      6  H   UNL A   1      36.126  23.306  25.673  1.00  0.00     0.163 HD
BRANCH   5   7
ATOM      7  C   UNL A   1      34.534  25.218  25.495  1.00  0.00     0.138 C 
BRANCH   7   8
ATOM      8  C   UNL A   1      33.358  26.170  25.256  1.00  0.00     0.182 C 
ATOM      9  C   UNL A   1      33.443  27.024  23.966  1.00  0.00     0.295 C 
ATOM     10  O   UNL A   1      33.206  27.033  26.393  1.00  0.00    -0.366 OA
ATOM     11  N   UNL A   1      32.294  27.919  23.750  1.00  0.00    -0.325 N 
ATOM     12  C   UNL A   1      31.988  27.776  26.281  1.00  0.00     0.222 C 
ATOM     13  C   UNL A   1      31.923  28.614  24.988  1.00  0.00     0.291 C 
ATOM     14  H   UNL A   1      32.575  28.697  23.155  1.00  0.00     0.348 HD
BRANCH  11  15
ATOM     15  C   UNL A   1      31.266  27.407  22.839  1.00  0.00     0.216 C 
ATOM     16  C   UNL A   1      30.657  26.013  23.116  1.00  0.00     0.071 C 
ATOM     17  C   UNL A   1      30.159  28.429  22.674  1.00  0.00     0.023 A 
ATOM     18  C   UNL A   1      29.529  26.020  24.154  1.00  0.00     0.012 C 
ATOM     19  C   UNL A   1      28.866  28.199  23.112  1.00  0.00     0.014 A 
ATOM     20  C   UNL A   1      30.255  29.691  22.003  1.00  0.00     0.022 A 
ATOM     21  C   UNL A   1      28.371  26.947  23.764  1.00  0.00     0.047 C 
ATOM     22  S   UNL A   1      27.809  29.486  22.757  1.00  0.00    -0.148 S 
ATOM     23  C   UNL A   1      29.050  30.358  21.967  1.00  0.00     0.065 A 
ENDBRANCH  11  15
ENDBRANCH   7   8
ENDBRANCH   5   7
ENDBRANCH   2   3
ENDBRANCH   1   2
BRANCH   1  24
ATOM     24  C   UNL A   1      37.598  21.326  25.238  1.00  0.00     0.118 C 
BRANCH  24  25
ATOM     25  N   UNL A   1      38.600  20.338  25.615  1.00  0.00    -0.352 N 
ATOM     26  C   UNL A   1      39.801  20.519  26.263  1.00  0.00     0.251 C 
ATOM     27  H   UNL A   1      38.387  19.407  25.372  1.00  0.00     0.163 HD
ATOM     28  O   UNL A   1      40.581  19.579  26.383  1.00  0.00    -0.269 OA
BRANCH  26  29
ATOM     29  C   UNL A   1      40.163  21.856  26.782  1.00  0.00     0.039 A 
ATOM     30  C   UNL A   1      41.064  21.945  27.846  1.00  0.00     0.014 A 
ATOM     31  C   UNL A   1      39.647  23.015  26.198  1.00  0.00     0.014 A 
ATOM     32  C   UNL A   1      41.518  23.199  28.262  1.00  0.00     0.010 A 
ATOM     33  C   UNL A   1      40.161  24.258  26.561  1.00  0.00     0.010 A 
ATOM     34  C   UNL A   1      41.111  24.362  27.590  1.00  0.00    -0.014 A 
BRANCH  34  35
ATOM     35  C   UNL A   1      41.702  25.690  27.910  1.00  0.00     0.031 A 
ATOM     36  C   UNL A   1      40.881  26.749  28.593  1.00  0.00     0.074 A 
ATOM     37  C   UNL A   1      42.953  25.975  27.494  1.00  0.00     0.049 A 
ATOM     38  N   UNL A   1      41.203  27.984  28.879  1.00  0.00    -0.248 NA
ATOM     39  C   UNL A   1      39.509  26.381  28.983  1.00  0.00     0.031 C 
ATOM     40  C   UNL A   1      43.829  25.063  26.755  1.00  0.00     0.029 A 
ATOM     41  N   UNL A   1      43.694  27.127  27.604  1.00  0.00    -0.354 N 
ATOM     42  C   UNL A   1      40.070  28.551  29.449  1.00  0.00     0.074 A 
ATOM     43  C   UNL A   1      39.041  27.534  29.441  1.00  0.00     0.031 C 
ATOM     44  C   UNL A   1      44.985  25.687  26.480  1.00  0.00     0.029 A 
ATOM     45  C   UNL A   1      44.921  27.054  26.986  1.00  0.00     0.049 A 
ATOM     46  H   UNL A   1      43.377  27.928  28.080  1.00  0.00     0.167 HD
ATOM     47  C   UNL A   1      39.907  29.796  29.958  1.00  0.00     0.034 A 
ATOM     48  C   UNL A   1      45.882  27.987  26.826  1.00  0.00     0.034 A 
ATOM     49  C   UNL A   1      40.940  30.796  29.994  1.00  0.00     0.049 A 
ATOM     50  C   UNL A   1      45.679  29.357  27.412  1.00  0.00     0.074 A 
ATOM     51  C   UNL A   1      40.897  32.055  30.568  1.00  0.00     0.029 A 
ATOM     52  N   UNL A   1      42.195  30.663  29.421  1.00  0.00    -0.354 N 
ATOM     53  N   UNL A   1      44.659  29.822  28.090  1.00  0.00    -0.248 NA
ATOM     54  C   UNL A   1      46.774  30.324  27.235  1.00  0.00     0.031 C 
ATOM     55  C   UNL A   1      42.113  32.696  30.311  1.00  0.00     0.029 A 
ATOM     56  C   UNL A   1      42.928  31.823  29.609  1.00  0.00     0.049 A 
ATOM     57  H   UNL A   1      42.518  29.861  28.950  1.00  0.00     0.167 HD
ATOM     58  C   UNL A   1      45.000  31.121  28.450  1.00  0.00     0.074 A 
ATOM     59  C   UNL A   1      46.332  31.361  27.934  1.00  0.00     0.031 C 
ATOM     60  C   UNL A   1      44.270  32.038  29.131  1.00  0.00     0.034 A 
BRANCH  47  61
ATOM     61  C   UNL A   1      38.567  30.138  30.557  1.00  0.00     0.023 A 
ATOM     62  C   UNL A   1      38.274  29.747  31.879  1.00  0.00     0.012 A 
ATOM     63  C   UNL A   1      37.624  30.897  29.837  1.00  0.00     0.148 A 
ATOM     64  C   UNL A   1      37.052  30.076  32.464  1.00  0.00     0.002 A 
ATOM     65  C   UNL A   1      36.426  31.261  30.442  1.00  0.00     0.091 A 
ATOM     66  F   UNL A   1      37.911  31.243  28.573  1.00  0.00    -0.205 F 
ATOM     67  C   UNL A   1      36.133  30.840  31.749  1.00  0.00     0.022 A 
BRANCH  65  68
ATOM     68  S   UNL A   1      35.211  32.309  29.636  1.00  0.00     0.127 S 
ATOM     69  O   UNL A   1      34.327  32.647  30.751  1.00  0.00    -0.237 OA
ATOM     70  O   UNL A   1      36.035  33.417  29.152  1.00  0.00    -0.237 OA
ATOM     71  O   UNL A   1      34.609  31.496  28.588  1.00  0.00    -0.744 OA
ENDBRANCH  65  68
ENDBRANCH  47  61
BRANCH  48  72
ATOM     72  C   UNL A   1      47.145  27.641  26.113  1.00  0.00     0.023 A 
ATOM     73  C   UNL A   1      48.218  27.081  26.834  1.00  0.00     0.012 A 
ATOM     74  C   UNL A   1      47.283  27.849  24.727  1.00  0.00     0.148 A 
ATOM     75  C   UNL A   1      49.417  26.767  26.194  1.00  0.00     0.002 A 
ATOM     76  C   UNL A   1      48.460  27.479  24.086  1.00  0.00     0.091 A 
ATOM     77  F   UNL A   1      46.255  28.393  24.061  1.00  0.00    -0.205 F 
ATOM     78  C   UNL A   1      49.534  26.955  24.820  1.00  0.00     0.022 A 
BRANCH  76  79
ATOM     79  S   UNL A   1      48.653  27.565  22.303  1.00  0.00     0.127 S 
ATOM     80  O   UNL A   1      49.952  28.220  22.174  1.00  0.00    -0.237 OA
ATOM     81  O   UNL A   1      48.634  26.150  21.930  1.00  0.00    -0.237 OA
ATOM     82  O   UNL A   1      47.511  28.328  21.819  1.00  0.00    -0.744 OA
ENDBRANCH  76  79
ENDBRANCH  48  72
BRANCH  60  83
ATOM     83  C   UNL A   1      44.900  33.382  29.391  1.00  0.00     0.023 A 
ATOM     84  C   UNL A   1      45.642  33.595  30.570  1.00  0.00     0.012 A 
ATOM     85  C   UNL A   1      44.818  34.411  28.432  1.00  0.00     0.148 A 
ATOM     86  C   UNL A   1      46.263  34.822  30.806  1.00  0.00     0.002 A 
ATOM     87  C   UNL A   1      45.482  35.612  28.650  1.00  0.00     0.091 A 
ATOM     88  F   UNL A   1      44.094  34.195  27.323  1.00  0.00    -0.205 F 
ATOM     89  C   UNL A   1      46.193  35.825  29.841  1.00  0.00     0.022 A 
BRANCH  87  90
ATOM     90  S   UNL A   1      45.532  36.926  27.425  1.00  0.00     0.127 S 
ATOM     91  O   UNL A   1      44.116  37.270  27.300  1.00  0.00    -0.237 OA
ATOM     92  O   UNL A   1      46.349  37.939  28.092  1.00  0.00    -0.237 OA
ATOM     93  O   UNL A   1      46.139  36.345  26.235  1.00  0.00    -0.744 OA
ENDBRANCH  87  90
ENDBRANCH  60  83
ENDBRANCH  34  35
ENDBRANCH  26  29
ENDBRANCH  24  25
ENDBRANCH   1  24
TORSDOF 15
ENDMDL
