MODEL 1
REMARK VINA RESULT:     -12.3      0.000      0.000
REMARK SMILES C[C@H](C(=O)NCCCNC(=O)c1ccc(-c2c3nc(c(-c4cccc(S(=O)(=O)[O-])c4F)c4ccc([nH]4)c(-c4cccc(S(=O)(=O)[O-])c4F)c4nc(c(-c5cccc(S(=O)(=O)[O-])c5F)c5ccc2[nH]5)C=C4)C=C3)cc1)c1ccc(C[C@@H]2CCC[C@H]2O)cc1
REMARK SMILES IDX 6 1 5 2 3 3 4 4 2 6 1 7 75 8 76 9 87 10 77 11 86 12 78 13
REMARK SMILES IDX 79 14 80 15 81 16 84 17 82 18 83 19 85 20 7 22 8 23 9 24
REMARK SMILES IDX 10 25 11 27 12 28 13 29 74 30 14 31 73 32 15 33 16 34 17 35
REMARK SMILES IDX 67 36 18 37 72 38 66 39 68 40 19 41 71 42 65 43 64 44 20 46
REMARK SMILES IDX 52 47 32 48 51 49 33 50 36 51 50 52 69 53 34 54 35 55 49 57
REMARK SMILES IDX 70 58 37 59 21 60 22 61 30 62 23 63 25 64 31 65 24 66 26 67
REMARK SMILES IDX 27 68 28 69 29 70 53 71 54 72 62 73 55 74 57 75 63 76 56 77
REMARK SMILES IDX 58 78 59 79 60 80 61 81 38 82 39 83 47 84 40 85 42 86 48 87
REMARK SMILES IDX 41 88 43 89 44 90 45 91 46 92
REMARK H PARENT 5 5 85 21 9 26 68 45 36 56
REMARK Flexibility Score: inf
ROOT
ATOM      1  C   UNL A   1      32.657  27.245  26.521  1.00  0.00     0.117 C 
ENDROOT
BRANCH   1   2
ATOM      2  N   UNL A   1      31.808  26.159  26.983  1.00  0.00    -0.356 N 
ATOM      3  C   UNL A   1      31.391  25.021  26.357  1.00  0.00     0.227 C 
ATOM      4  O   UNL A   1      30.845  24.166  27.062  1.00  0.00    -0.274 OA
ATOM      5  H   UNL A   1      31.477  26.262  27.904  1.00  0.00     0.163 HD
BRANCH   3   6
ATOM      6  C   UNL A   1      31.512  24.812  24.845  1.00  0.00     0.105 C 
ATOM      7  C   UNL A   1      30.817  23.490  24.483  1.00  0.00     0.023 C 
BRANCH   6   8
ATOM      8  C   UNL A   1      31.109  25.973  23.941  1.00  0.00    -0.036 A 
ATOM      9  C   UNL A   1      31.986  26.563  23.021  1.00  0.00     0.005 A 
ATOM     10  C   UNL A   1      29.811  26.501  24.031  1.00  0.00     0.005 A 
ATOM     11  C   UNL A   1      31.647  27.751  22.368  1.00  0.00     0.004 A 
ATOM     12  C   UNL A   1      29.460  27.675  23.360  1.00  0.00     0.004 A 
ATOM     13  C   UNL A   1      30.400  28.349  22.577  1.00  0.00    -0.048 A 
BRANCH  13  14
ATOM     14  C   UNL A   1      30.081  29.704  22.001  1.00  0.00     0.041 C 
BRANCH  14  15
ATOM     15  C   UNL A   1      28.640  30.236  22.182  1.00  0.00     0.022 C 
ATOM     16  C   UNL A   1      28.028  30.886  20.934  1.00  0.00     0.007 C 
ATOM     17  C   UNL A   1      28.467  31.308  23.264  1.00  0.00     0.117 C 
ATOM     18  C   UNL A   1      28.115  32.400  21.123  1.00  0.00     0.003 C 
ATOM     19  C   UNL A   1      28.606  32.646  22.548  1.00  0.00     0.032 C 
BRANCH  17  20
ATOM     20  O   UNL A   1      27.156  31.193  23.821  1.00  0.00    -0.393 OA
ATOM     21  H   UNL A   1      26.667  32.017  23.668  1.00  0.00     0.210 HD
ENDBRANCH  17  20
ENDBRANCH  14  15
ENDBRANCH  13  14
ENDBRANCH   6   8
ENDBRANCH   3   6
ENDBRANCH   1   2
BRANCH   1  22
ATOM     22  C   UNL A   1      31.946  28.580  26.379  1.00  0.00     0.042 C 
BRANCH  22  23
ATOM     23  C   UNL A   1      32.740  29.674  25.685  1.00  0.00     0.118 C 
BRANCH  23  24
ATOM     24  N   UNL A   1      32.437  31.016  26.161  1.00  0.00    -0.352 N 
ATOM     25  C   UNL A   1      33.066  31.777  27.118  1.00  0.00     0.251 C 
ATOM     26  H   UNL A   1      31.663  31.445  25.731  1.00  0.00     0.163 HD
ATOM     27  O   UNL A   1      32.576  32.861  27.436  1.00  0.00    -0.269 OA
BRANCH  25  28
ATOM     28  C   UNL A   1      34.300  31.300  27.790  1.00  0.00     0.039 A 
ATOM     29  C   UNL A   1      35.356  32.198  27.976  1.00  0.00     0.014 A 
ATOM     30  C   UNL A   1      34.439  29.979  28.218  1.00  0.00     0.014 A 
ATOM     31  C   UNL A   1      36.519  31.785  28.634  1.00  0.00     0.010 A 
ATOM     32  C   UNL A   1      35.549  29.599  28.969  1.00  0.00     0.010 A 
ATOM     33  C   UNL A   1      36.617  30.487  29.162  1.00  0.00    -0.014 A 
BRANCH  33  34
ATOM     34  C   UNL A   1      37.842  30.027  29.870  1.00  0.00     0.031 A 
ATOM     35  C   UNL A   1      38.138  30.516  31.266  1.00  0.00     0.074 A 
ATOM     36  C   UNL A   1      38.723  29.221  29.245  1.00  0.00     0.049 A 
ATOM     37  N   UNL A   1      39.168  30.259  32.032  1.00  0.00    -0.248 NA
ATOM     38  C   UNL A   1      37.164  31.441  31.872  1.00  0.00     0.031 C 
ATOM     39  C   UNL A   1      38.604  28.742  27.866  1.00  0.00     0.029 A 
ATOM     40  N   UNL A   1      39.908  28.681  29.681  1.00  0.00    -0.354 N 
ATOM     41  C   UNL A   1      38.983  31.012  33.185  1.00  0.00     0.074 A 
ATOM     42  C   UNL A   1      37.772  31.779  32.999  1.00  0.00     0.031 C 
ATOM     43  C   UNL A   1      39.666  27.975  27.573  1.00  0.00     0.029 A 
ATOM     44  C   UNL A   1      40.557  27.928  28.729  1.00  0.00     0.049 A 
ATOM     45  H   UNL A   1      40.261  28.819  30.590  1.00  0.00     0.167 HD
ATOM     46  C   UNL A   1      39.729  31.041  34.316  1.00  0.00     0.034 A 
ATOM     47  C   UNL A   1      41.736  27.279  28.778  1.00  0.00     0.034 A 
ATOM     48  C   UNL A   1      40.913  30.253  34.518  1.00  0.00     0.049 A 
ATOM     49  C   UNL A   1      42.523  27.285  30.060  1.00  0.00     0.074 A 
ATOM     50  C   UNL A   1      41.700  30.155  35.651  1.00  0.00     0.029 A 
ATOM     51  N   UNL A   1      41.485  29.427  33.562  1.00  0.00    -0.354 N 
ATOM     52  N   UNL A   1      42.257  27.894  31.190  1.00  0.00    -0.248 NA
ATOM     53  C   UNL A   1      43.750  26.474  30.090  1.00  0.00     0.031 C 
ATOM     54  C   UNL A   1      42.765  29.291  35.372  1.00  0.00     0.029 A 
ATOM     55  C   UNL A   1      42.614  28.816  34.079  1.00  0.00     0.049 A 
ATOM     56  H   UNL A   1      41.139  29.295  32.650  1.00  0.00     0.167 HD
ATOM     57  C   UNL A   1      43.255  27.504  32.077  1.00  0.00     0.074 A 
ATOM     58  C   UNL A   1      44.122  26.595  31.357  1.00  0.00     0.031 C 
ATOM     59  C   UNL A   1      43.439  27.870  33.370  1.00  0.00     0.034 A 
BRANCH  46  60
ATOM     60  C   UNL A   1      39.250  31.922  35.444  1.00  0.00     0.023 A 
ATOM     61  C   UNL A   1      38.311  31.421  36.370  1.00  0.00     0.012 A 
ATOM     62  C   UNL A   1      39.751  33.227  35.611  1.00  0.00     0.148 A 
ATOM     63  C   UNL A   1      37.843  32.219  37.413  1.00  0.00     0.002 A 
ATOM     64  C   UNL A   1      39.320  33.998  36.684  1.00  0.00     0.091 A 
ATOM     65  F   UNL A   1      40.628  33.696  34.712  1.00  0.00    -0.205 F 
ATOM     66  C   UNL A   1      38.354  33.502  37.577  1.00  0.00     0.022 A 
BRANCH  64  67
ATOM     67  S   UNL A   1      39.981  35.631  37.032  1.00  0.00     0.127 S 
ATOM     68  O   UNL A   1      39.277  35.977  38.267  1.00  0.00    -0.237 OA
ATOM     69  O   UNL A   1      41.408  35.356  37.202  1.00  0.00    -0.237 OA
ATOM     70  O   UNL A   1      39.654  36.453  35.876  1.00  0.00    -0.744 OA
ENDBRANCH  64  67
ENDBRANCH  46  60
BRANCH  47  71
ATOM     71  C   UNL A   1      42.212  26.512  27.592  1.00  0.00     0.023 A 
ATOM     72  C   UNL A   1      42.963  27.163  26.594  1.00  0.00     0.012 A 
ATOM     73  C   UNL A   1      41.944  25.136  27.461  1.00  0.00     0.148 A 
ATOM     74  C   UNL A   1      43.408  26.467  25.469  1.00  0.00     0.002 A 
ATOM     75  C   UNL A   1      42.439  24.435  26.367  1.00  0.00     0.091 A 
ATOM     76  F   UNL A   1      41.223  24.537  28.418  1.00  0.00    -0.205 F 
ATOM     77  C   UNL A   1      43.154  25.103  25.360  1.00  0.00     0.022 A 
BRANCH  75  78
ATOM     78  S   UNL A   1      42.275  22.654  26.209  1.00  0.00     0.127 S 
ATOM     79  O   UNL A   1      40.826  22.493  26.127  1.00  0.00    -0.237 OA
ATOM     80  O   UNL A   1      42.997  22.398  24.961  1.00  0.00    -0.237 OA
ATOM     81  O   UNL A   1      42.906  22.092  27.394  1.00  0.00    -0.744 OA
ENDBRANCH  75  78
ENDBRANCH  47  71
BRANCH  59  82
ATOM     82  C   UNL A   1      44.584  27.240  34.121  1.00  0.00     0.023 A 
ATOM     83  C   UNL A   1      45.864  27.826  34.095  1.00  0.00     0.012 A 
ATOM     84  C   UNL A   1      44.367  26.088  34.906  1.00  0.00     0.148 A 
ATOM     85  C   UNL A   1      46.921  27.252  34.801  1.00  0.00     0.002 A 
ATOM     86  C   UNL A   1      45.411  25.554  35.651  1.00  0.00     0.091 A 
ATOM     87  F   UNL A   1      43.147  25.533  34.905  1.00  0.00    -0.205 F 
ATOM     88  C   UNL A   1      46.692  26.124  35.587  1.00  0.00     0.022 A 
BRANCH  86  89
ATOM     89  S   UNL A   1      45.180  24.168  36.769  1.00  0.00     0.127 S 
ATOM     90  O   UNL A   1      44.200  24.705  37.712  1.00  0.00    -0.237 OA
ATOM     91  O   UNL A   1      44.663  23.130  35.876  1.00  0.00    -0.237 OA
ATOM     92  O   UNL A   1      46.495  23.881  37.328  1.00  0.00    -0.744 OA
ENDBRANCH  86  89
ENDBRANCH  59  82
ENDBRANCH  33  34
ENDBRANCH  25  28
ENDBRANCH  23  24
ENDBRANCH  22  23
ENDBRANCH   1  22
TORSDOF 17
ENDMDL
MODEL 2
REMARK VINA RESULT:     -11.7      5.245     10.220
REMARK SMILES C[C@H](C(=O)NCCCNC(=O)c1ccc(-c2c3nc(c(-c4cccc(S(=O)(=O)[O-])c4F)c4ccc([nH]4)c(-c4cccc(S(=O)(=O)[O-])c4F)c4nc(c(-c5cccc(S(=O)(=O)[O-])c5F)c5ccc2[nH]5)C=C4)C=C3)cc1)c1ccc(C[C@@H]2CCC[C@H]2O)cc1
REMARK SMILES IDX 6 1 5 2 3 3 4 4 2 6 1 7 75 8 76 9 87 10 77 11 86 12 78 13
REMARK SMILES IDX 79 14 80 15 81 16 84 17 82 18 83 19 85 20 7 22 8 23 9 24
REMARK SMILES IDX 10 25 11 27 12 28 13 29 74 30 14 31 73 32 15 33 16 34 17 35
REMARK SMILES IDX 67 36 18 37 72 38 66 39 68 40 19 41 71 42 65 43 64 44 20 46
REMARK SMILES IDX 52 47 32 48 51 49 33 50 36 51 50 52 69 53 34 54 35 55 49 57
REMARK SMILES IDX 70 58 37 59 21 60 22 61 30 62 23 63 25 64 31 65 24 66 26 67
REMARK SMILES IDX 27 68 28 69 29 70 53 71 54 72 62 73 55 74 57 75 63 76 56 77
REMARK SMILES IDX 58 78 59 79 60 80 61 81 38 82 39 83 47 84 40 85 42 86 48 87
REMARK SMILES IDX 41 88 43 89 44 90 45 91 46 92
REMARK H PARENT 5 5 85 21 9 26 68 45 36 56
REMARK Flexibility Score: inf
ROOT
ATOM      1  C   UNL A   1      35.695  20.250  25.002  1.00  0.00     0.117 C 
ENDROOT
BRANCH   1   2
ATOM      2  N   UNL A   1      34.290  20.020  25.295  1.00  0.00    -0.356 N 
ATOM      3  C   UNL A   1      33.161  20.471  24.677  1.00  0.00     0.227 C 
ATOM      4  O   UNL A   1      32.095  19.944  25.011  1.00  0.00    -0.274 OA
ATOM      5  H   UNL A   1      34.125  19.439  26.072  1.00  0.00     0.163 HD
BRANCH   3   6
ATOM      6  C   UNL A   1      33.170  21.623  23.669  1.00  0.00     0.105 C 
ATOM      7  C   UNL A   1      32.034  21.390  22.659  1.00  0.00     0.023 C 
BRANCH   6   8
ATOM      8  C   UNL A   1      33.200  23.043  24.225  1.00  0.00    -0.036 A 
ATOM      9  C   UNL A   1      32.111  23.626  24.889  1.00  0.00     0.005 A 
ATOM     10  C   UNL A   1      34.355  23.826  24.061  1.00  0.00     0.005 A 
ATOM     11  C   UNL A   1      32.105  24.990  25.193  1.00  0.00     0.004 A 
ATOM     12  C   UNL A   1      34.360  25.184  24.387  1.00  0.00     0.004 A 
ATOM     13  C   UNL A   1      33.209  25.794  24.892  1.00  0.00    -0.048 A 
BRANCH  13  14
ATOM     14  C   UNL A   1      33.155  27.288  25.075  1.00  0.00     0.041 C 
BRANCH  14  15
ATOM     15  C   UNL A   1      31.951  27.871  25.852  1.00  0.00     0.022 C 
ATOM     16  C   UNL A   1      31.363  29.160  25.262  1.00  0.00     0.007 C 
ATOM     17  C   UNL A   1      32.229  28.239  27.313  1.00  0.00     0.117 C 
ATOM     18  C   UNL A   1      31.879  30.321  26.112  1.00  0.00     0.003 C 
ATOM     19  C   UNL A   1      32.617  29.714  27.302  1.00  0.00     0.032 C 
BRANCH  17  20
ATOM     20  O   UNL A   1      31.028  28.063  28.069  1.00  0.00    -0.393 OA
ATOM     21  H   UNL A   1      30.318  27.761  27.481  1.00  0.00     0.210 HD
ENDBRANCH  17  20
ENDBRANCH  14  15
ENDBRANCH  13  14
ENDBRANCH   6   8
ENDBRANCH   3   6
ENDBRANCH   1   2
BRANCH   1  22
ATOM     22  C   UNL A   1      36.300  21.443  25.724  1.00  0.00     0.042 C 
BRANCH  22  23
ATOM     23  C   UNL A   1      37.733  21.777  25.348  1.00  0.00     0.118 C 
BRANCH  23  24
ATOM     24  N   UNL A   1      38.712  20.823  25.847  1.00  0.00    -0.352 N 
ATOM     25  C   UNL A   1      39.906  21.039  26.496  1.00  0.00     0.251 C 
ATOM     26  H   UNL A   1      38.485  19.877  25.700  1.00  0.00     0.163 HD
ATOM     27  O   UNL A   1      40.633  20.077  26.743  1.00  0.00    -0.269 OA
BRANCH  25  28
ATOM     28  C   UNL A   1      40.341  22.408  26.868  1.00  0.00     0.039 A 
ATOM     29  C   UNL A   1      41.170  22.572  27.983  1.00  0.00     0.014 A 
ATOM     30  C   UNL A   1      39.927  23.531  26.150  1.00  0.00     0.014 A 
ATOM     31  C   UNL A   1      41.621  23.847  28.339  1.00  0.00     0.010 A 
ATOM     32  C   UNL A   1      40.464  24.784  26.438  1.00  0.00     0.010 A 
ATOM     33  C   UNL A   1      41.294  24.964  27.554  1.00  0.00    -0.014 A 
BRANCH  33  34
ATOM     34  C   UNL A   1      41.767  26.329  27.909  1.00  0.00     0.031 A 
ATOM     35  C   UNL A   1      43.182  26.747  27.595  1.00  0.00     0.074 A 
ATOM     36  C   UNL A   1      40.952  27.177  28.570  1.00  0.00     0.049 A 
ATOM     37  N   UNL A   1      43.789  27.876  27.858  1.00  0.00    -0.248 NA
ATOM     38  C   UNL A   1      44.039  25.753  26.924  1.00  0.00     0.031 C 
ATOM     39  C   UNL A   1      39.590  26.872  29.011  1.00  0.00     0.029 A 
ATOM     40  N   UNL A   1      41.162  28.462  29.007  1.00  0.00    -0.354 N 
ATOM     41  C   UNL A   1      45.098  27.716  27.420  1.00  0.00     0.074 A 
ATOM     42  C   UNL A   1      45.214  26.363  26.923  1.00  0.00     0.031 C 
ATOM     43  C   UNL A   1      39.083  27.941  29.648  1.00  0.00     0.029 A 
ATOM     44  C   UNL A   1      40.092  28.996  29.687  1.00  0.00     0.049 A 
ATOM     45  H   UNL A   1      41.999  28.955  28.849  1.00  0.00     0.167 HD
ATOM     46  C   UNL A   1      46.107  28.619  27.394  1.00  0.00     0.034 A 
ATOM     47  C   UNL A   1      39.940  30.197  30.279  1.00  0.00     0.034 A 
ATOM     48  C   UNL A   1      45.984  29.975  27.852  1.00  0.00     0.049 A 
ATOM     49  C   UNL A   1      41.057  31.202  30.196  1.00  0.00     0.074 A 
ATOM     50  C   UNL A   1      46.923  30.990  27.806  1.00  0.00     0.029 A 
ATOM     51  N   UNL A   1      44.851  30.508  28.448  1.00  0.00    -0.354 N 
ATOM     52  N   UNL A   1      42.242  31.077  29.650  1.00  0.00    -0.248 NA
ATOM     53  C   UNL A   1      40.798  32.531  30.768  1.00  0.00     0.031 C 
ATOM     54  C   UNL A   1      46.367  32.129  28.397  1.00  0.00     0.029 A 
ATOM     55  C   UNL A   1      45.066  31.836  28.772  1.00  0.00     0.049 A 
ATOM     56  H   UNL A   1      44.016  30.014  28.615  1.00  0.00     0.167 HD
ATOM     57  C   UNL A   1      42.851  32.321  29.771  1.00  0.00     0.074 A 
ATOM     58  C   UNL A   1      41.897  33.189  30.429  1.00  0.00     0.031 C 
ATOM     59  C   UNL A   1      44.090  32.707  29.377  1.00  0.00     0.034 A 
BRANCH  46  60
ATOM     60  C   UNL A   1      47.423  28.178  26.800  1.00  0.00     0.023 A 
ATOM     61  C   UNL A   1      48.513  27.896  27.651  1.00  0.00     0.012 A 
ATOM     62  C   UNL A   1      47.573  28.006  25.411  1.00  0.00     0.148 A 
ATOM     63  C   UNL A   1      49.742  27.499  27.127  1.00  0.00     0.002 A 
ATOM     64  C   UNL A   1      48.786  27.559  24.900  1.00  0.00     0.091 A 
ATOM     65  F   UNL A   1      46.535  28.296  24.614  1.00  0.00    -0.205 F 
ATOM     66  C   UNL A   1      49.876  27.321  25.754  1.00  0.00     0.022 A 
BRANCH  64  67
ATOM     67  S   UNL A   1      49.035  27.215  23.155  1.00  0.00     0.127 S 
ATOM     68  O   UNL A   1      50.488  27.059  23.089  1.00  0.00    -0.237 OA
ATOM     69  O   UNL A   1      48.281  25.974  22.975  1.00  0.00    -0.237 OA
ATOM     70  O   UNL A   1      48.497  28.362  22.438  1.00  0.00    -0.744 OA
ENDBRANCH  64  67
ENDBRANCH  46  60
BRANCH  47  71
ATOM     71  C   UNL A   1      38.652  30.538  30.948  1.00  0.00     0.023 A 
ATOM     72  C   UNL A   1      38.437  30.157  32.286  1.00  0.00     0.012 A 
ATOM     73  C   UNL A   1      37.651  31.260  30.270  1.00  0.00     0.148 A 
ATOM     74  C   UNL A   1      37.233  30.456  32.927  1.00  0.00     0.002 A 
ATOM     75  C   UNL A   1      36.478  31.605  30.931  1.00  0.00     0.091 A 
ATOM     76  F   UNL A   1      37.873  31.608  28.995  1.00  0.00    -0.205 F 
ATOM     77  C   UNL A   1      36.259  31.186  32.253  1.00  0.00     0.022 A 
BRANCH  75  78
ATOM     78  S   UNL A   1      35.225  32.655  30.189  1.00  0.00     0.127 S 
ATOM     79  O   UNL A   1      34.783  31.841  29.059  1.00  0.00    -0.237 OA
ATOM     80  O   UNL A   1      34.255  32.778  31.278  1.00  0.00    -0.237 OA
ATOM     81  O   UNL A   1      35.903  33.897  29.845  1.00  0.00    -0.744 OA
ENDBRANCH  75  78
ENDBRANCH  47  71
BRANCH  59  82
ATOM     82  C   UNL A   1      44.472  34.151  29.582  1.00  0.00     0.023 A 
ATOM     83  C   UNL A   1      45.069  34.567  30.787  1.00  0.00     0.012 A 
ATOM     84  C   UNL A   1      44.289  35.086  28.543  1.00  0.00     0.148 A 
ATOM     85  C   UNL A   1      45.437  35.899  30.973  1.00  0.00     0.002 A 
ATOM     86  C   UNL A   1      44.708  36.399  28.714  1.00  0.00     0.091 A 
ATOM     87  F   UNL A   1      43.702  34.676  27.409  1.00  0.00    -0.205 F 
ATOM     88  C   UNL A   1      45.267  36.812  29.933  1.00  0.00     0.022 A 
BRANCH  86  89
ATOM     89  S   UNL A   1      44.623  37.613  27.393  1.00  0.00     0.127 S 
ATOM     90  O   UNL A   1      45.703  37.172  26.513  1.00  0.00    -0.237 OA
ATOM     91  O   UNL A   1      43.276  37.401  26.862  1.00  0.00    -0.237 OA
ATOM     92  O   UNL A   1      44.822  38.910  28.028  1.00  0.00    -0.744 OA
ENDBRANCH  86  89
ENDBRANCH  59  82
ENDBRANCH  33  34
ENDBRANCH  25  28
ENDBRANCH  23  24
ENDBRANCH  22  23
ENDBRANCH   1  22
TORSDOF 17
ENDMDL
MODEL 3
REMARK VINA RESULT:     -11.7      2.166      4.516
REMARK SMILES C[C@H](C(=O)NCCCNC(=O)c1ccc(-c2c3nc(c(-c4cccc(S(=O)(=O)[O-])c4F)c4ccc([nH]4)c(-c4cccc(S(=O)(=O)[O-])c4F)c4nc(c(-c5cccc(S(=O)(=O)[O-])c5F)c5ccc2[nH]5)C=C4)C=C3)cc1)c1ccc(C[C@@H]2CCC[C@H]2O)cc1
REMARK SMILES IDX 6 1 5 2 3 3 4 4 2 6 1 7 75 8 76 9 87 10 77 11 86 12 78 13
REMARK SMILES IDX 79 14 80 15 81 16 84 17 82 18 83 19 85 20 7 22 8 23 9 24
REMARK SMILES IDX 10 25 11 27 12 28 13 29 74 30 14 31 73 32 15 33 16 34 17 35
REMARK SMILES IDX 67 36 18 37 72 38 66 39 68 40 19 41 71 42 65 43 64 44 20 46
REMARK SMILES IDX 52 47 32 48 51 49 33 50 36 51 50 52 69 53 34 54 35 55 49 57
REMARK SMILES IDX 70 58 37 59 21 60 22 61 30 62 23 63 25 64 31 65 24 66 26 67
REMARK SMILES IDX 27 68 28 69 29 70 53 71 54 72 62 73 55 74 57 75 63 76 56 77
REMARK SMILES IDX 58 78 59 79 60 80 61 81 38 82 39 83 47 84 40 85 42 86 48 87
REMARK SMILES IDX 41 88 43 89 44 90 45 91 46 92
REMARK H PARENT 5 5 85 21 9 26 68 45 36 56
REMARK Flexibility Score: inf
ROOT
ATOM      1  C   UNL A   1      33.723  27.912  23.625  1.00  0.00     0.117 C 
ENDROOT
BRANCH   1   2
ATOM      2  N   UNL A   1      32.968  26.936  22.857  1.00  0.00    -0.356 N 
ATOM      3  C   UNL A   1      32.190  25.889  23.257  1.00  0.00     0.227 C 
ATOM      4  O   UNL A   1      31.493  25.351  22.391  1.00  0.00    -0.274 OA
ATOM      5  H   UNL A   1      33.029  27.048  21.881  1.00  0.00     0.163 HD
BRANCH   3   6
ATOM      6  C   UNL A   1      32.211  25.337  24.684  1.00  0.00     0.105 C 
ATOM      7  C   UNL A   1      30.869  25.675  25.353  1.00  0.00     0.023 C 
BRANCH   6   8
ATOM      8  C   UNL A   1      32.626  23.880  24.868  1.00  0.00    -0.036 A 
ATOM      9  C   UNL A   1      33.910  23.499  25.283  1.00  0.00     0.005 A 
ATOM     10  C   UNL A   1      31.701  22.858  24.600  1.00  0.00     0.005 A 
ATOM     11  C   UNL A   1      34.310  22.161  25.235  1.00  0.00     0.004 A 
ATOM     12  C   UNL A   1      32.091  21.518  24.576  1.00  0.00     0.004 A 
ATOM     13  C   UNL A   1      33.420  21.164  24.825  1.00  0.00    -0.048 A 
BRANCH  13  14
ATOM     14  C   UNL A   1      33.881  19.744  24.624  1.00  0.00     0.041 C 
BRANCH  14  15
ATOM     15  C   UNL A   1      32.819  18.700  24.207  1.00  0.00     0.022 C 
ATOM     16  C   UNL A   1      32.674  17.507  25.162  1.00  0.00     0.007 C 
ATOM     17  C   UNL A   1      33.046  18.040  22.843  1.00  0.00     0.117 C 
ATOM     18  C   UNL A   1      33.410  16.328  24.527  1.00  0.00     0.003 C 
ATOM     19  C   UNL A   1      33.830  16.763  23.126  1.00  0.00     0.032 C 
BRANCH  17  20
ATOM     20  O   UNL A   1      31.778  17.710  22.273  1.00  0.00    -0.393 OA
ATOM     21  H   UNL A   1      31.636  18.239  21.473  1.00  0.00     0.210 HD
ENDBRANCH  17  20
ENDBRANCH  14  15
ENDBRANCH  13  14
ENDBRANCH   6   8
ENDBRANCH   3   6
ENDBRANCH   1   2
BRANCH   1  22
ATOM     22  C   UNL A   1      32.910  29.106  24.095  1.00  0.00     0.042 C 
BRANCH  22  23
ATOM     23  C   UNL A   1      32.807  29.277  25.601  1.00  0.00     0.118 C 
BRANCH  23  24
ATOM     24  N   UNL A   1      32.489  30.634  26.020  1.00  0.00    -0.352 N 
ATOM     25  C   UNL A   1      33.110  31.441  26.945  1.00  0.00     0.251 C 
ATOM     26  H   UNL A   1      31.711  31.038  25.572  1.00  0.00     0.163 HD
ATOM     27  O   UNL A   1      32.608  32.532  27.218  1.00  0.00    -0.269 OA
BRANCH  25  28
ATOM     28  C   UNL A   1      34.348  31.005  27.637  1.00  0.00     0.039 A 
ATOM     29  C   UNL A   1      35.356  31.946  27.872  1.00  0.00     0.014 A 
ATOM     30  C   UNL A   1      34.539  29.681  28.037  1.00  0.00     0.014 A 
ATOM     31  C   UNL A   1      36.520  31.570  28.550  1.00  0.00     0.010 A 
ATOM     32  C   UNL A   1      35.646  29.335  28.807  1.00  0.00     0.010 A 
ATOM     33  C   UNL A   1      36.666  30.266  29.048  1.00  0.00    -0.014 A 
BRANCH  33  34
ATOM     34  C   UNL A   1      37.893  29.846  29.776  1.00  0.00     0.031 A 
ATOM     35  C   UNL A   1      38.185  30.395  31.150  1.00  0.00     0.074 A 
ATOM     36  C   UNL A   1      38.781  29.020  29.187  1.00  0.00     0.049 A 
ATOM     37  N   UNL A   1      39.216  30.179  31.927  1.00  0.00    -0.248 NA
ATOM     38  C   UNL A   1      37.203  31.339  31.715  1.00  0.00     0.031 C 
ATOM     39  C   UNL A   1      38.667  28.481  27.830  1.00  0.00     0.029 A 
ATOM     40  N   UNL A   1      39.970  28.507  29.646  1.00  0.00    -0.354 N 
ATOM     41  C   UNL A   1      39.024  30.980  33.047  1.00  0.00     0.074 A 
ATOM     42  C   UNL A   1      37.808  31.729  32.827  1.00  0.00     0.031 C 
ATOM     43  C   UNL A   1      39.735  27.710  27.570  1.00  0.00     0.029 A 
ATOM     44  C   UNL A   1      40.624  27.720  28.728  1.00  0.00     0.049 A 
ATOM     45  H   UNL A   1      40.321  28.687  30.548  1.00  0.00     0.167 HD
ATOM     46  C   UNL A   1      39.769  31.062  34.176  1.00  0.00     0.034 A 
ATOM     47  C   UNL A   1      41.809  27.082  28.805  1.00  0.00     0.034 A 
ATOM     48  C   UNL A   1      40.958  30.292  34.412  1.00  0.00     0.049 A 
ATOM     49  C   UNL A   1      42.595  27.148  30.086  1.00  0.00     0.074 A 
ATOM     50  C   UNL A   1      41.745  30.248  35.549  1.00  0.00     0.029 A 
ATOM     51  N   UNL A   1      41.537  29.430  33.493  1.00  0.00    -0.354 N 
ATOM     52  N   UNL A   1      42.323  27.802  31.190  1.00  0.00    -0.248 NA
ATOM     53  C   UNL A   1      43.827  26.348  30.152  1.00  0.00     0.031 C 
ATOM     54  C   UNL A   1      42.816  29.380  35.308  1.00  0.00     0.029 A 
ATOM     55  C   UNL A   1      42.670  28.849  34.036  1.00  0.00     0.049 A 
ATOM     56  H   UNL A   1      41.193  29.256  32.587  1.00  0.00     0.167 HD
ATOM     57  C   UNL A   1      43.323  27.458  32.093  1.00  0.00     0.074 A 
ATOM     58  C   UNL A   1      44.197  26.526  31.412  1.00  0.00     0.031 C 
ATOM     59  C   UNL A   1      43.503  27.880  33.369  1.00  0.00     0.034 A 
BRANCH  46  60
ATOM     60  C   UNL A   1      39.282  31.987  35.265  1.00  0.00     0.023 A 
ATOM     61  C   UNL A   1      38.328  31.527  36.197  1.00  0.00     0.012 A 
ATOM     62  C   UNL A   1      39.791  33.293  35.391  1.00  0.00     0.148 A 
ATOM     63  C   UNL A   1      37.853  32.365  37.204  1.00  0.00     0.002 A 
ATOM     64  C   UNL A   1      39.352  34.106  36.430  1.00  0.00     0.091 A 
ATOM     65  F   UNL A   1      40.683  33.723  34.487  1.00  0.00    -0.205 F 
ATOM     66  C   UNL A   1      38.372  33.650  37.327  1.00  0.00     0.022 A 
BRANCH  64  67
ATOM     67  S   UNL A   1      40.021  35.746  36.727  1.00  0.00     0.127 S 
ATOM     68  O   UNL A   1      41.450  35.462  36.859  1.00  0.00    -0.237 OA
ATOM     69  O   UNL A   1      39.653  36.455  35.501  1.00  0.00    -0.237 OA
ATOM     70  O   UNL A   1      39.368  36.235  37.932  1.00  0.00    -0.744 OA
ENDBRANCH  64  67
ENDBRANCH  46  60
BRANCH  47  71
ATOM     71  C   UNL A   1      42.292  26.268  27.653  1.00  0.00     0.023 A 
ATOM     72  C   UNL A   1      43.142  26.851  26.693  1.00  0.00     0.012 A 
ATOM     73  C   UNL A   1      41.931  24.914  27.518  1.00  0.00     0.148 A 
ATOM     74  C   UNL A   1      43.595  26.111  25.600  1.00  0.00     0.002 A 
ATOM     75  C   UNL A   1      42.432  24.166  26.459  1.00  0.00     0.091 A 
ATOM     76  F   UNL A   1      41.117  24.380  28.439  1.00  0.00    -0.205 F 
ATOM     77  C   UNL A   1      43.248  24.768  25.488  1.00  0.00     0.022 A 
BRANCH  75  78
ATOM     78  S   UNL A   1      42.147  22.400  26.306  1.00  0.00     0.127 S 
ATOM     79  O   UNL A   1      40.699  22.344  26.129  1.00  0.00    -0.237 OA
ATOM     80  O   UNL A   1      42.928  22.074  25.110  1.00  0.00    -0.237 OA
ATOM     81  O   UNL A   1      42.657  21.808  27.535  1.00  0.00    -0.744 OA
ENDBRANCH  75  78
ENDBRANCH  47  71
BRANCH  59  82
ATOM     82  C   UNL A   1      44.651  27.291  34.147  1.00  0.00     0.023 A 
ATOM     83  C   UNL A   1      45.923  27.893  34.108  1.00  0.00     0.012 A 
ATOM     84  C   UNL A   1      44.445  26.164  34.969  1.00  0.00     0.148 A 
ATOM     85  C   UNL A   1      46.984  27.357  34.839  1.00  0.00     0.002 A 
ATOM     86  C   UNL A   1      45.491  25.669  35.738  1.00  0.00     0.091 A 
ATOM     87  F   UNL A   1      43.232  25.592  34.980  1.00  0.00    -0.205 F 
ATOM     88  C   UNL A   1      46.765  26.254  35.661  1.00  0.00     0.022 A 
BRANCH  86  89
ATOM     89  S   UNL A   1      45.272  24.319  36.901  1.00  0.00     0.127 S 
ATOM     90  O   UNL A   1      44.193  24.827  37.748  1.00  0.00    -0.237 OA
ATOM     91  O   UNL A   1      44.889  23.211  36.024  1.00  0.00    -0.237 OA
ATOM     92  O   UNL A   1      46.559  24.147  37.562  1.00  0.00    -0.744 OA
ENDBRANCH  86  89
ENDBRANCH  59  82
ENDBRANCH  33  34
ENDBRANCH  25  28
ENDBRANCH  23  24
ENDBRANCH  22  23
ENDBRANCH   1  22
TORSDOF 17
ENDMDL
