MODEL 1
REMARK VINA RESULT:     -12.5      0.000      0.000
REMARK SMILES Cc1ccc(-n2cnnn2)cc1OCC(=O)NCCCNC(=O)c1ccc(-c2c3nc(c(-c4cccc(S(=O)(=O)[O-])c4F)c4ccc([nH]4)c(-c4cccc(S(=O)(=O)[O-])c4F)c4nc(c(-c5cccc(S(=O)(=O)[O-])c5F)c5ccc2[nH]5)C=C4)C=C3)cc1
REMARK SMILES IDX 19 1 18 2 17 3 15 4 16 5 14 7 13 8 12 9 1 10 2 11 3 12 4 13
REMARK SMILES IDX 11 14 5 15 6 16 7 17 10 18 8 19 9 20 20 21 21 22 22 23 23 25
REMARK SMILES IDX 24 26 25 27 86 28 26 29 85 30 27 31 28 32 29 33 79 34 30 35
REMARK SMILES IDX 84 36 78 37 80 38 31 39 83 40 77 41 76 42 32 44 64 45 44 46
REMARK SMILES IDX 63 47 45 48 48 49 62 50 81 51 46 52 47 53 61 55 82 56 49 57
REMARK SMILES IDX 33 58 34 59 42 60 35 61 37 62 43 63 36 64 38 65 39 66 40 67
REMARK SMILES IDX 41 68 65 69 66 70 74 71 67 72 69 73 75 74 68 75 70 76 71 77
REMARK SMILES IDX 72 78 73 79 50 80 51 81 59 82 52 83 54 84 60 85 53 86 55 87
REMARK SMILES IDX 56 88 57 89 58 90
REMARK H PARENT 17 6 21 24 80 43 48 54
REMARK Flexibility Score: inf
ROOT
ATOM      1  C   UNL A   1      34.814  30.880  28.344  1.00  0.00     0.042 C 
ENDROOT
BRANCH   1   2
ATOM      2  C   UNL A   1      34.560  29.666  27.465  1.00  0.00     0.117 C 
BRANCH   2   3
ATOM      3  N   UNL A   1      33.368  28.926  27.838  1.00  0.00    -0.353 N 
ATOM      4  C   UNL A   1      32.246  28.671  27.103  1.00  0.00     0.257 C 
ATOM      5  O   UNL A   1      31.445  27.837  27.532  1.00  0.00    -0.271 OA
ATOM      6  H   UNL A   1      33.368  28.557  28.750  1.00  0.00     0.163 HD
BRANCH   4   7
ATOM      7  C   UNL A   1      32.038  29.343  25.738  1.00  0.00     0.329 C 
BRANCH   7   8
ATOM      8  O   UNL A   1      31.722  28.585  24.592  1.00  0.00    -0.483 OA
BRANCH   8   9
ATOM      9  C   UNL A   1      30.495  28.581  23.993  1.00  0.00     0.125 A 
ATOM     10  C   UNL A   1      29.863  26.061  23.899  1.00  0.00     0.048 C 
ATOM     11  C   UNL A   1      29.614  27.529  23.710  1.00  0.00    -0.009 A 
ATOM     12  C   UNL A   1      28.338  27.843  23.185  1.00  0.00     0.009 A 
ATOM     13  C   UNL A   1      27.972  29.145  22.848  1.00  0.00     0.029 A 
ATOM     14  C   UNL A   1      30.136  29.889  23.596  1.00  0.00     0.075 A 
ATOM     15  C   UNL A   1      28.894  30.172  23.008  1.00  0.00     0.072 A 
BRANCH  15  16
ATOM     16  N   UNL A   1      28.576  31.474  22.559  1.00  0.00    -0.200 N 
ATOM     17  C   UNL A   1      27.991  31.868  21.381  1.00  0.00     0.252 A 
ATOM     18  N   UNL A   1      28.756  32.580  23.317  1.00  0.00    -0.040 NA
ATOM     19  N   UNL A   1      27.841  33.173  21.380  1.00  0.00    -0.117 NA
ATOM     20  N   UNL A   1      28.335  33.601  22.584  1.00  0.00    -0.024 NA
ENDBRANCH  15  16
ENDBRANCH   8   9
ENDBRANCH   7   8
ENDBRANCH   4   7
ENDBRANCH   2   3
ENDBRANCH   1   2
BRANCH   1  21
ATOM     21  C   UNL A   1      34.584  32.203  27.628  1.00  0.00     0.118 C 
BRANCH  21  22
ATOM     22  N   UNL A   1      33.941  33.212  28.451  1.00  0.00    -0.352 N 
ATOM     23  C   UNL A   1      34.309  33.727  29.680  1.00  0.00     0.251 C 
ATOM     24  H   UNL A   1      33.112  33.589  28.075  1.00  0.00     0.163 HD
ATOM     25  O   UNL A   1      33.491  34.440  30.263  1.00  0.00    -0.269 OA
BRANCH  23  26
ATOM     26  C   UNL A   1      35.680  33.535  30.227  1.00  0.00     0.039 A 
ATOM     27  C   UNL A   1      36.769  33.946  29.442  1.00  0.00     0.014 A 
ATOM     28  C   UNL A   1      35.919  32.823  31.399  1.00  0.00     0.014 A 
ATOM     29  C   UNL A   1      38.045  33.439  29.692  1.00  0.00     0.010 A 
ATOM     30  C   UNL A   1      37.161  32.267  31.616  1.00  0.00     0.010 A 
ATOM     31  C   UNL A   1      38.199  32.512  30.715  1.00  0.00    -0.014 A 
BRANCH  31  32
ATOM     32  C   UNL A   1      39.340  31.625  30.872  1.00  0.00     0.031 A 
ATOM     33  C   UNL A   1      39.404  30.320  30.202  1.00  0.00     0.074 A 
ATOM     34  C   UNL A   1      40.447  32.169  31.425  1.00  0.00     0.049 A 
ATOM     35  N   UNL A   1      40.238  29.387  30.511  1.00  0.00    -0.248 NA
ATOM     36  C   UNL A   1      38.507  29.971  29.112  1.00  0.00     0.031 C 
ATOM     37  C   UNL A   1      41.825  31.719  31.299  1.00  0.00     0.029 A 
ATOM     38  N   UNL A   1      40.501  33.182  32.389  1.00  0.00    -0.354 N 
ATOM     39  C   UNL A   1      40.208  28.463  29.487  1.00  0.00     0.074 A 
ATOM     40  C   UNL A   1      39.046  28.820  28.704  1.00  0.00     0.031 C 
ATOM     41  C   UNL A   1      42.536  32.236  32.314  1.00  0.00     0.029 A 
ATOM     42  C   UNL A   1      41.588  32.867  33.218  1.00  0.00     0.049 A 
ATOM     43  H   UNL A   1      39.900  33.958  32.468  1.00  0.00     0.167 HD
ATOM     44  C   UNL A   1      41.272  27.622  29.320  1.00  0.00     0.034 A 
ATOM     45  C   UNL A   1      41.455  32.594  34.550  1.00  0.00     0.034 A 
ATOM     46  C   UNL A   1      42.278  27.827  30.377  1.00  0.00     0.049 A 
ATOM     47  C   UNL A   1      41.968  31.216  34.927  1.00  0.00     0.074 A 
ATOM     48  C   UNL A   1      43.473  28.529  30.410  1.00  0.00     0.029 A 
ATOM     49  N   UNL A   1      41.978  27.507  31.696  1.00  0.00    -0.354 N 
ATOM     50  N   UNL A   1      42.364  30.319  34.067  1.00  0.00    -0.248 NA
ATOM     51  C   UNL A   1      42.035  30.724  36.301  1.00  0.00     0.031 C 
ATOM     52  C   UNL A   1      43.844  28.706  31.770  1.00  0.00     0.029 A 
ATOM     53  C   UNL A   1      42.890  28.091  32.564  1.00  0.00     0.049 A 
ATOM     54  H   UNL A   1      41.222  26.943  31.978  1.00  0.00     0.167 HD
ATOM     55  C   UNL A   1      42.564  29.122  34.703  1.00  0.00     0.074 A 
ATOM     56  C   UNL A   1      42.442  29.455  36.112  1.00  0.00     0.031 C 
ATOM     57  C   UNL A   1      42.731  27.953  34.009  1.00  0.00     0.034 A 
BRANCH  44  58
ATOM     58  C   UNL A   1      41.592  26.874  28.029  1.00  0.00     0.023 A 
ATOM     59  C   UNL A   1      41.554  27.612  26.822  1.00  0.00     0.012 A 
ATOM     60  C   UNL A   1      41.853  25.492  27.886  1.00  0.00     0.148 A 
ATOM     61  C   UNL A   1      41.634  27.010  25.560  1.00  0.00     0.002 A 
ATOM     62  C   UNL A   1      41.860  24.876  26.629  1.00  0.00     0.091 A 
ATOM     63  F   UNL A   1      42.206  24.768  28.951  1.00  0.00    -0.205 F 
ATOM     64  C   UNL A   1      41.741  25.633  25.463  1.00  0.00     0.022 A 
BRANCH  62  65
ATOM     65  S   UNL A   1      41.919  23.085  26.435  1.00  0.00     0.127 S 
ATOM     66  O   UNL A   1      42.635  22.934  25.166  1.00  0.00    -0.237 OA
ATOM     67  O   UNL A   1      42.676  22.666  27.611  1.00  0.00    -0.237 OA
ATOM     68  O   UNL A   1      40.531  22.642  26.385  1.00  0.00    -0.744 OA
ENDBRANCH  62  65
ENDBRANCH  44  58
BRANCH  45  69
ATOM     69  C   UNL A   1      40.288  33.280  35.186  1.00  0.00     0.023 A 
ATOM     70  C   UNL A   1      39.030  32.637  35.077  1.00  0.00     0.012 A 
ATOM     71  C   UNL A   1      40.463  34.258  36.180  1.00  0.00     0.148 A 
ATOM     72  C   UNL A   1      38.024  32.862  36.019  1.00  0.00     0.002 A 
ATOM     73  C   UNL A   1      39.451  34.480  37.114  1.00  0.00     0.091 A 
ATOM     74  F   UNL A   1      41.636  34.898  36.254  1.00  0.00    -0.205 F 
ATOM     75  C   UNL A   1      38.249  33.756  37.059  1.00  0.00     0.022 A 
BRANCH  73  76
ATOM     76  S   UNL A   1      39.693  35.603  38.498  1.00  0.00     0.127 S 
ATOM     77  O   UNL A   1      41.074  35.312  38.873  1.00  0.00    -0.237 OA
ATOM     78  O   UNL A   1      39.485  36.915  37.888  1.00  0.00    -0.237 OA
ATOM     79  O   UNL A   1      38.665  35.226  39.459  1.00  0.00    -0.744 OA
ENDBRANCH  73  76
ENDBRANCH  45  69
BRANCH  57  80
ATOM     80  C   UNL A   1      42.731  26.564  34.621  1.00  0.00     0.023 A 
ATOM     81  C   UNL A   1      41.635  26.060  35.348  1.00  0.00     0.012 A 
ATOM     82  C   UNL A   1      43.788  25.655  34.354  1.00  0.00     0.148 A 
ATOM     83  C   UNL A   1      41.611  24.750  35.841  1.00  0.00     0.002 A 
ATOM     84  C   UNL A   1      43.709  24.321  34.751  1.00  0.00     0.091 A 
ATOM     85  F   UNL A   1      44.894  26.082  33.725  1.00  0.00    -0.205 F 
ATOM     86  C   UNL A   1      42.638  23.873  35.523  1.00  0.00     0.022 A 
BRANCH  84  87
ATOM     87  S   UNL A   1      44.899  23.112  34.150  1.00  0.00     0.127 S 
ATOM     88  O   UNL A   1      44.792  23.270  32.702  1.00  0.00    -0.237 OA
ATOM     89  O   UNL A   1      46.159  23.593  34.721  1.00  0.00    -0.237 OA
ATOM     90  O   UNL A   1      44.446  21.841  34.699  1.00  0.00    -0.744 OA
ENDBRANCH  84  87
ENDBRANCH  57  80
ENDBRANCH  31  32
ENDBRANCH  23  26
ENDBRANCH  21  22
ENDBRANCH   1  21
TORSDOF 16
ENDMDL
MODEL 2
REMARK VINA RESULT:     -12.4      6.717     12.033
REMARK SMILES Cc1ccc(-n2cnnn2)cc1OCC(=O)NCCCNC(=O)c1ccc(-c2c3nc(c(-c4cccc(S(=O)(=O)[O-])c4F)c4ccc([nH]4)c(-c4cccc(S(=O)(=O)[O-])c4F)c4nc(c(-c5cccc(S(=O)(=O)[O-])c5F)c5ccc2[nH]5)C=C4)C=C3)cc1
REMARK SMILES IDX 19 1 18 2 17 3 15 4 16 5 14 7 13 8 12 9 1 10 2 11 3 12 4 13
REMARK SMILES IDX 11 14 5 15 6 16 7 17 10 18 8 19 9 20 20 21 21 22 22 23 23 25
REMARK SMILES IDX 24 26 25 27 86 28 26 29 85 30 27 31 28 32 29 33 79 34 30 35
REMARK SMILES IDX 84 36 78 37 80 38 31 39 83 40 77 41 76 42 32 44 64 45 44 46
REMARK SMILES IDX 63 47 45 48 48 49 62 50 81 51 46 52 47 53 61 55 82 56 49 57
REMARK SMILES IDX 33 58 34 59 42 60 35 61 37 62 43 63 36 64 38 65 39 66 40 67
REMARK SMILES IDX 41 68 65 69 66 70 74 71 67 72 69 73 75 74 68 75 70 76 71 77
REMARK SMILES IDX 72 78 73 79 50 80 51 81 59 82 52 83 54 84 60 85 53 86 55 87
REMARK SMILES IDX 56 88 57 89 58 90
REMARK H PARENT 17 6 21 24 80 43 48 54
REMARK Flexibility Score: inf
ROOT
ATOM      1  C   UNL A   1      40.712  20.010  26.450  1.00  0.00     0.042 C 
ENDROOT
BRANCH   1   2
ATOM      2  C   UNL A   1      39.462  20.280  25.627  1.00  0.00     0.117 C 
BRANCH   2   3
ATOM      3  N   UNL A   1      38.975  21.642  25.754  1.00  0.00    -0.353 N 
ATOM      4  C   UNL A   1      37.728  22.139  25.508  1.00  0.00     0.257 C 
ATOM      5  O   UNL A   1      37.469  23.282  25.891  1.00  0.00    -0.271 OA
ATOM      6  H   UNL A   1      39.639  22.301  26.062  1.00  0.00     0.163 HD
BRANCH   4   7
ATOM      7  C   UNL A   1      36.655  21.259  24.849  1.00  0.00     0.329 C 
BRANCH   7   8
ATOM      8  O   UNL A   1      35.282  21.547  24.999  1.00  0.00    -0.483 OA
BRANCH   8   9
ATOM      9  C   UNL A   1      34.279  20.742  24.542  1.00  0.00     0.125 A 
ATOM     10  C   UNL A   1      32.518  22.418  23.620  1.00  0.00     0.048 C 
ATOM     11  C   UNL A   1      33.079  21.052  23.890  1.00  0.00    -0.009 A 
ATOM     12  C   UNL A   1      32.276  19.986  23.416  1.00  0.00     0.009 A 
ATOM     13  C   UNL A   1      32.588  18.651  23.668  1.00  0.00     0.029 A 
ATOM     14  C   UNL A   1      34.556  19.389  24.841  1.00  0.00     0.075 A 
ATOM     15  C   UNL A   1      33.712  18.349  24.428  1.00  0.00     0.072 A 
BRANCH  15  16
ATOM     16  N   UNL A   1      33.970  17.006  24.789  1.00  0.00    -0.200 N 
ATOM     17  C   UNL A   1      33.085  15.985  25.029  1.00  0.00     0.252 A 
ATOM     18  N   UNL A   1      35.220  16.498  24.886  1.00  0.00    -0.040 NA
ATOM     19  N   UNL A   1      33.749  14.885  25.301  1.00  0.00    -0.117 NA
ATOM     20  N   UNL A   1      35.074  15.224  25.222  1.00  0.00    -0.024 NA
ENDBRANCH  15  16
ENDBRANCH   8   9
ENDBRANCH   7   8
ENDBRANCH   4   7
ENDBRANCH   2   3
ENDBRANCH   1   2
BRANCH   1  21
ATOM     21  C   UNL A   1      41.855  20.967  26.144  1.00  0.00     0.118 C 
BRANCH  21  22
ATOM     22  N   UNL A   1      42.916  20.379  25.345  1.00  0.00    -0.352 N 
ATOM     23  C   UNL A   1      44.083  20.942  24.862  1.00  0.00     0.251 C 
ATOM     24  H   UNL A   1      42.784  19.432  25.111  1.00  0.00     0.163 HD
ATOM     25  O   UNL A   1      44.730  20.286  24.044  1.00  0.00    -0.269 OA
BRANCH  23  26
ATOM     26  C   UNL A   1      44.607  22.230  25.392  1.00  0.00     0.039 A 
ATOM     27  C   UNL A   1      45.015  22.274  26.735  1.00  0.00     0.014 A 
ATOM     28  C   UNL A   1      44.551  23.413  24.661  1.00  0.00     0.014 A 
ATOM     29  C   UNL A   1      45.120  23.499  27.396  1.00  0.00     0.010 A 
ATOM     30  C   UNL A   1      44.589  24.622  25.319  1.00  0.00     0.010 A 
ATOM     31  C   UNL A   1      44.792  24.656  26.700  1.00  0.00    -0.014 A 
BRANCH  31  32
ATOM     32  C   UNL A   1      44.491  25.940  27.312  1.00  0.00     0.031 A 
ATOM     33  C   UNL A   1      43.149  26.532  27.246  1.00  0.00     0.074 A 
ATOM     34  C   UNL A   1      45.414  26.423  28.172  1.00  0.00     0.049 A 
ATOM     35  N   UNL A   1      42.886  27.764  27.518  1.00  0.00    -0.248 NA
ATOM     36  C   UNL A   1      41.984  25.753  26.859  1.00  0.00     0.031 C 
ATOM     37  C   UNL A   1      45.221  27.387  29.245  1.00  0.00     0.029 A 
ATOM     38  N   UNL A   1      46.800  26.242  28.116  1.00  0.00    -0.354 N 
ATOM     39  C   UNL A   1      41.516  27.867  27.650  1.00  0.00     0.074 A 
ATOM     40  C   UNL A   1      41.003  26.620  27.128  1.00  0.00     0.031 C 
ATOM     41  C   UNL A   1      46.414  27.915  29.562  1.00  0.00     0.029 A 
ATOM     42  C   UNL A   1      47.364  27.444  28.567  1.00  0.00     0.049 A 
ATOM     43  H   UNL A   1      47.281  25.434  27.820  1.00  0.00     0.167 HD
ATOM     44  C   UNL A   1      40.993  28.915  28.353  1.00  0.00     0.034 A 
ATOM     45  C   UNL A   1      48.157  28.235  27.785  1.00  0.00     0.034 A 
ATOM     46  C   UNL A   1      42.056  29.833  28.800  1.00  0.00     0.049 A 
ATOM     47  C   UNL A   1      47.609  29.641  27.617  1.00  0.00     0.074 A 
ATOM     48  C   UNL A   1      42.708  29.990  30.013  1.00  0.00     0.029 A 
ATOM     49  N   UNL A   1      42.785  30.563  27.868  1.00  0.00    -0.354 N 
ATOM     50  N   UNL A   1      46.440  30.029  28.043  1.00  0.00    -0.248 NA
ATOM     51  C   UNL A   1      48.318  30.708  26.915  1.00  0.00     0.031 C 
ATOM     52  C   UNL A   1      43.887  30.749  29.785  1.00  0.00     0.029 A 
ATOM     53  C   UNL A   1      43.941  31.076  28.441  1.00  0.00     0.049 A 
ATOM     54  H   UNL A   1      42.518  30.699  26.931  1.00  0.00     0.167 HD
ATOM     55  C   UNL A   1      46.158  31.278  27.554  1.00  0.00     0.074 A 
ATOM     56  C   UNL A   1      47.406  31.697  26.940  1.00  0.00     0.031 C 
ATOM     57  C   UNL A   1      44.902  31.818  27.629  1.00  0.00     0.034 A 
BRANCH  44  58
ATOM     58  C   UNL A   1      39.590  28.944  28.951  1.00  0.00     0.023 A 
ATOM     59  C   UNL A   1      38.507  29.127  28.059  1.00  0.00     0.012 A 
ATOM     60  C   UNL A   1      39.244  28.882  30.320  1.00  0.00     0.148 A 
ATOM     61  C   UNL A   1      37.197  29.367  28.494  1.00  0.00     0.002 A 
ATOM     62  C   UNL A   1      37.953  29.194  30.763  1.00  0.00     0.091 A 
ATOM     63  F   UNL A   1      40.127  28.418  31.209  1.00  0.00    -0.205 F 
ATOM     64  C   UNL A   1      36.928  29.445  29.850  1.00  0.00     0.022 A 
BRANCH  62  65
ATOM     65  S   UNL A   1      37.554  29.388  32.510  1.00  0.00     0.127 S 
ATOM     66  O   UNL A   1      38.648  30.240  32.984  1.00  0.00    -0.237 OA
ATOM     67  O   UNL A   1      36.251  30.044  32.464  1.00  0.00    -0.237 OA
ATOM     68  O   UNL A   1      37.566  28.043  33.074  1.00  0.00    -0.744 OA
ENDBRANCH  62  65
ENDBRANCH  44  58
BRANCH  45  69
ATOM     69  C   UNL A   1      48.913  27.476  26.741  1.00  0.00     0.023 A 
ATOM     70  C   UNL A   1      48.393  27.509  25.424  1.00  0.00     0.012 A 
ATOM     71  C   UNL A   1      50.257  27.109  26.929  1.00  0.00     0.148 A 
ATOM     72  C   UNL A   1      49.224  27.318  24.318  1.00  0.00     0.002 A 
ATOM     73  C   UNL A   1      51.080  26.916  25.818  1.00  0.00     0.091 A 
ATOM     74  F   UNL A   1      50.736  27.034  28.176  1.00  0.00    -0.205 F 
ATOM     75  C   UNL A   1      50.576  27.058  24.515  1.00  0.00     0.022 A 
BRANCH  73  76
ATOM     76  S   UNL A   1      52.841  26.605  26.009  1.00  0.00     0.127 S 
ATOM     77  O   UNL A   1      53.263  26.452  24.621  1.00  0.00    -0.237 OA
ATOM     78  O   UNL A   1      53.313  27.825  26.664  1.00  0.00    -0.237 OA
ATOM     79  O   UNL A   1      52.914  25.417  26.847  1.00  0.00    -0.744 OA
ENDBRANCH  73  76
ENDBRANCH  45  69
BRANCH  57  80
ATOM     80  C   UNL A   1      44.449  33.082  26.922  1.00  0.00     0.023 A 
ATOM     81  C   UNL A   1      44.314  33.157  25.523  1.00  0.00     0.012 A 
ATOM     82  C   UNL A   1      43.996  34.205  27.665  1.00  0.00     0.148 A 
ATOM     83  C   UNL A   1      43.819  34.300  24.885  1.00  0.00     0.002 A 
ATOM     84  C   UNL A   1      43.402  35.295  27.032  1.00  0.00     0.091 A 
ATOM     85  F   UNL A   1      44.155  34.233  28.996  1.00  0.00    -0.205 F 
ATOM     86  C   UNL A   1      43.342  35.361  25.640  1.00  0.00     0.022 A 
BRANCH  84  87
ATOM     87  S   UNL A   1      42.561  36.566  27.988  1.00  0.00     0.127 S 
ATOM     88  O   UNL A   1      42.043  37.444  26.943  1.00  0.00    -0.237 OA
ATOM     89  O   UNL A   1      41.536  35.802  28.703  1.00  0.00    -0.237 OA
ATOM     90  O   UNL A   1      43.593  37.125  28.851  1.00  0.00    -0.744 OA
ENDBRANCH  84  87
ENDBRANCH  57  80
ENDBRANCH  31  32
ENDBRANCH  23  26
ENDBRANCH  21  22
ENDBRANCH   1  21
TORSDOF 16
ENDMDL
MODEL 3
REMARK VINA RESULT:     -12.0      5.194     10.178
REMARK SMILES Cc1ccc(-n2cnnn2)cc1OCC(=O)NCCCNC(=O)c1ccc(-c2c3nc(c(-c4cccc(S(=O)(=O)[O-])c4F)c4ccc([nH]4)c(-c4cccc(S(=O)(=O)[O-])c4F)c4nc(c(-c5cccc(S(=O)(=O)[O-])c5F)c5ccc2[nH]5)C=C4)C=C3)cc1
REMARK SMILES IDX 19 1 18 2 17 3 15 4 16 5 14 7 13 8 12 9 1 10 2 11 3 12 4 13
REMARK SMILES IDX 11 14 5 15 6 16 7 17 10 18 8 19 9 20 20 21 21 22 22 23 23 25
REMARK SMILES IDX 24 26 25 27 86 28 26 29 85 30 27 31 28 32 29 33 79 34 30 35
REMARK SMILES IDX 84 36 78 37 80 38 31 39 83 40 77 41 76 42 32 44 64 45 44 46
REMARK SMILES IDX 63 47 45 48 48 49 62 50 81 51 46 52 47 53 61 55 82 56 49 57
REMARK SMILES IDX 33 58 34 59 42 60 35 61 37 62 43 63 36 64 38 65 39 66 40 67
REMARK SMILES IDX 41 68 65 69 66 70 74 71 67 72 69 73 75 74 68 75 70 76 71 77
REMARK SMILES IDX 72 78 73 79 50 80 51 81 59 82 52 83 54 84 60 85 53 86 55 87
REMARK SMILES IDX 56 88 57 89 58 90
REMARK H PARENT 17 6 21 24 80 43 48 54
REMARK Flexibility Score: inf
ROOT
ATOM      1  C   UNL A   1      35.580  29.653  27.970  1.00  0.00     0.042 C 
ENDROOT
BRANCH   1   2
ATOM      2  C   UNL A   1      34.622  28.914  27.051  1.00  0.00     0.117 C 
BRANCH   2   3
ATOM      3  N   UNL A   1      33.349  28.606  27.678  1.00  0.00    -0.353 N 
ATOM      4  C   UNL A   1      32.085  28.762  27.186  1.00  0.00     0.257 C 
ATOM      5  O   UNL A   1      31.153  28.232  27.795  1.00  0.00    -0.271 OA
ATOM      6  H   UNL A   1      33.405  28.232  28.587  1.00  0.00     0.163 HD
BRANCH   4   7
ATOM      7  C   UNL A   1      31.850  29.504  25.863  1.00  0.00     0.329 C 
BRANCH   7   8
ATOM      8  O   UNL A   1      31.642  28.799  24.658  1.00  0.00    -0.483 OA
BRANCH   8   9
ATOM      9  C   UNL A   1      30.440  28.725  24.015  1.00  0.00     0.125 A 
ATOM     10  C   UNL A   1      29.901  26.182  24.010  1.00  0.00     0.048 C 
ATOM     11  C   UNL A   1      29.609  27.630  23.747  1.00  0.00    -0.009 A 
ATOM     12  C   UNL A   1      28.343  27.874  23.161  1.00  0.00     0.009 A 
ATOM     13  C   UNL A   1      27.945  29.146  22.753  1.00  0.00     0.029 A 
ATOM     14  C   UNL A   1      30.051  30.000  23.547  1.00  0.00     0.075 A 
ATOM     15  C   UNL A   1      28.824  30.212  22.901  1.00  0.00     0.072 A 
BRANCH  15  16
ATOM     16  N   UNL A   1      28.478  31.481  22.382  1.00  0.00    -0.200 N 
ATOM     17  C   UNL A   1      28.025  31.814  21.130  1.00  0.00     0.252 A 
ATOM     18  N   UNL A   1      28.483  32.608  23.130  1.00  0.00    -0.040 NA
ATOM     19  N   UNL A   1      27.787  33.105  21.078  1.00  0.00    -0.117 NA
ATOM     20  N   UNL A   1      28.091  33.586  22.324  1.00  0.00    -0.024 NA
ENDBRANCH  15  16
ENDBRANCH   8   9
ENDBRANCH   7   8
ENDBRANCH   4   7
ENDBRANCH   2   3
ENDBRANCH   1   2
BRANCH   1  21
ATOM     21  C   UNL A   1      35.594  31.158  27.745  1.00  0.00     0.118 C 
BRANCH  21  22
ATOM     22  N   UNL A   1      34.825  31.907  28.724  1.00  0.00    -0.352 N 
ATOM     23  C   UNL A   1      35.210  32.440  29.940  1.00  0.00     0.251 C 
ATOM     24  H   UNL A   1      33.883  32.058  28.484  1.00  0.00     0.163 HD
ATOM     25  O   UNL A   1      34.321  32.867  30.677  1.00  0.00    -0.269 OA
BRANCH  23  26
ATOM     26  C   UNL A   1      36.645  32.606  30.300  1.00  0.00     0.039 A 
ATOM     27  C   UNL A   1      37.284  31.553  30.974  1.00  0.00     0.014 A 
ATOM     28  C   UNL A   1      37.316  33.815  30.141  1.00  0.00     0.014 A 
ATOM     29  C   UNL A   1      38.460  31.787  31.689  1.00  0.00     0.010 A 
ATOM     30  C   UNL A   1      38.440  34.073  30.894  1.00  0.00     0.010 A 
ATOM     31  C   UNL A   1      38.961  33.083  31.729  1.00  0.00    -0.014 A 
BRANCH  31  32
ATOM     32  C   UNL A   1      39.931  33.571  32.695  1.00  0.00     0.031 A 
ATOM     33  C   UNL A   1      39.517  34.201  33.955  1.00  0.00     0.074 A 
ATOM     34  C   UNL A   1      41.209  33.171  32.513  1.00  0.00     0.049 A 
ATOM     35  N   UNL A   1      40.300  34.892  34.712  1.00  0.00    -0.248 NA
ATOM     36  C   UNL A   1      38.158  34.092  34.459  1.00  0.00     0.031 C 
ATOM     37  C   UNL A   1      42.273  33.097  33.502  1.00  0.00     0.029 A 
ATOM     38  N   UNL A   1      41.848  32.906  31.297  1.00  0.00    -0.354 N 
ATOM     39  C   UNL A   1      39.658  35.047  35.923  1.00  0.00     0.074 A 
ATOM     40  C   UNL A   1      38.298  34.626  35.675  1.00  0.00     0.031 C 
ATOM     41  C   UNL A   1      43.452  33.081  32.859  1.00  0.00     0.029 A 
ATOM     42  C   UNL A   1      43.172  33.340  31.456  1.00  0.00     0.049 A 
ATOM     43  H   UNL A   1      41.449  32.497  30.495  1.00  0.00     0.167 HD
ATOM     44  C   UNL A   1      40.398  35.337  37.034  1.00  0.00     0.034 A 
ATOM     45  C   UNL A   1      43.724  34.339  30.705  1.00  0.00     0.034 A 
ATOM     46  C   UNL A   1      41.820  35.513  36.689  1.00  0.00     0.049 A 
ATOM     47  C   UNL A   1      44.228  35.500  31.544  1.00  0.00     0.074 A 
ATOM     48  C   UNL A   1      42.919  34.673  36.787  1.00  0.00     0.029 A 
ATOM     49  N   UNL A   1      42.219  36.586  35.900  1.00  0.00    -0.354 N 
ATOM     50  N   UNL A   1      44.036  35.617  32.828  1.00  0.00    -0.248 NA
ATOM     51  C   UNL A   1      44.951  36.644  30.992  1.00  0.00     0.031 C 
ATOM     52  C   UNL A   1      43.955  35.205  35.973  1.00  0.00     0.029 A 
ATOM     53  C   UNL A   1      43.499  36.381  35.402  1.00  0.00     0.049 A 
ATOM     54  H   UNL A   1      41.670  37.382  35.718  1.00  0.00     0.167 HD
ATOM     55  C   UNL A   1      44.425  36.863  33.245  1.00  0.00     0.074 A 
ATOM     56  C   UNL A   1      45.083  37.427  32.079  1.00  0.00     0.031 C 
ATOM     57  C   UNL A   1      44.099  37.346  34.485  1.00  0.00     0.034 A 
BRANCH  44  58
ATOM     58  C   UNL A   1      39.932  35.114  38.470  1.00  0.00     0.023 A 
ATOM     59  C   UNL A   1      39.653  36.262  39.249  1.00  0.00     0.012 A 
ATOM     60  C   UNL A   1      39.815  33.879  39.146  1.00  0.00     0.148 A 
ATOM     61  C   UNL A   1      39.408  36.203  40.627  1.00  0.00     0.002 A 
ATOM     62  C   UNL A   1      39.644  33.819  40.535  1.00  0.00     0.091 A 
ATOM     63  F   UNL A   1      39.759  32.741  38.450  1.00  0.00    -0.205 F 
ATOM     64  C   UNL A   1      39.449  34.983  41.280  1.00  0.00     0.022 A 
BRANCH  62  65
ATOM     65  S   UNL A   1      39.763  32.274  41.455  1.00  0.00     0.127 S 
ATOM     66  O   UNL A   1      39.689  32.733  42.844  1.00  0.00    -0.237 OA
ATOM     67  O   UNL A   1      38.586  31.542  40.995  1.00  0.00    -0.237 OA
ATOM     68  O   UNL A   1      41.050  31.691  41.094  1.00  0.00    -0.744 OA
ENDBRANCH  62  65
ENDBRANCH  44  58
BRANCH  45  69
ATOM     69  C   UNL A   1      43.125  34.461  29.341  1.00  0.00     0.023 A 
ATOM     70  C   UNL A   1      42.261  35.562  29.116  1.00  0.00     0.012 A 
ATOM     71  C   UNL A   1      43.685  33.805  28.231  1.00  0.00     0.148 A 
ATOM     72  C   UNL A   1      42.073  36.078  27.833  1.00  0.00     0.002 A 
ATOM     73  C   UNL A   1      43.489  34.325  26.951  1.00  0.00     0.091 A 
ATOM     74  F   UNL A   1      44.464  32.737  28.440  1.00  0.00    -0.205 F 
ATOM     75  C   UNL A   1      42.717  35.482  26.755  1.00  0.00     0.022 A 
BRANCH  73  76
ATOM     76  S   UNL A   1      44.317  33.614  25.522  1.00  0.00     0.127 S 
ATOM     77  O   UNL A   1      43.858  32.230  25.575  1.00  0.00    -0.237 OA
ATOM     78  O   UNL A   1      43.776  34.400  24.414  1.00  0.00    -0.237 OA
ATOM     79  O   UNL A   1      45.734  33.840  25.772  1.00  0.00    -0.744 OA
ENDBRANCH  73  76
ENDBRANCH  45  69
BRANCH  57  80
ATOM     80  C   UNL A   1      44.288  38.780  34.943  1.00  0.00     0.023 A 
ATOM     81  C   UNL A   1      45.189  39.133  35.966  1.00  0.00     0.012 A 
ATOM     82  C   UNL A   1      43.665  39.850  34.248  1.00  0.00     0.148 A 
ATOM     83  C   UNL A   1      45.416  40.466  36.328  1.00  0.00     0.002 A 
ATOM     84  C   UNL A   1      43.978  41.177  34.538  1.00  0.00     0.091 A 
ATOM     85  F   UNL A   1      42.745  39.590  33.307  1.00  0.00    -0.205 F 
ATOM     86  C   UNL A   1      44.828  41.490  35.599  1.00  0.00     0.022 A 
BRANCH  84  87
ATOM     87  S   UNL A   1      43.425  42.508  33.461  1.00  0.00     0.127 S 
ATOM     88  O   UNL A   1      42.008  42.197  33.292  1.00  0.00    -0.237 OA
ATOM     89  O   UNL A   1      43.692  43.702  34.266  1.00  0.00    -0.237 OA
ATOM     90  O   UNL A   1      44.260  42.395  32.273  1.00  0.00    -0.744 OA
ENDBRANCH  84  87
ENDBRANCH  57  80
ENDBRANCH  31  32
ENDBRANCH  23  26
ENDBRANCH  21  22
ENDBRANCH   1  21
TORSDOF 16
ENDMDL
