MODEL 1
REMARK VINA RESULT:     -12.5      0.000      0.000
REMARK SMILES Nc1oc2ccc(F)cc2c(=O)c1[C@@H]1[NH2+][C@H](C(=O)NCCCNC(=O)c2ccc(-c3c4nc(c(-c5cccc(S(=O)(=O)[O-])c5F)c5ccc([nH]5)c(-c5cccc(S(=O)(=O)[O-])c5F)c5nc(c(-c6cccc(S(=O)(=O)[O-])c6F)c6ccc3[nH]6)C=C5)C=C4)cc2)CS1
REMARK SMILES IDX 21 1 20 2 19 3 17 4 18 5 16 7 14 8 15 9 90 10 89 13 13 14
REMARK SMILES IDX 2 15 3 16 4 17 11 18 5 19 10 20 12 21 6 22 9 23 7 24 8 25
REMARK SMILES IDX 1 26 22 29 23 30 24 31 25 33 26 34 27 35 88 36 28 37 87 38
REMARK SMILES IDX 29 39 30 40 31 41 81 42 32 43 86 44 80 45 82 46 33 47 85 48
REMARK SMILES IDX 79 49 78 50 34 52 66 53 46 54 65 55 47 56 50 57 64 58 83 59
REMARK SMILES IDX 48 60 49 61 63 63 84 64 51 65 35 66 36 67 44 68 37 69 39 70
REMARK SMILES IDX 45 71 38 72 40 73 41 74 42 75 43 76 67 77 68 78 76 79 69 80
REMARK SMILES IDX 71 81 77 82 70 83 72 84 73 85 74 86 75 87 52 88 53 89 61 90
REMARK SMILES IDX 54 91 56 92 62 93 55 94 57 95 58 96 59 97 60 98
REMARK H PARENT 19 6 15 11 15 12 1 27 1 28 23 32 82 51 50 62
REMARK Flexibility Score: inf
ROOT
ATOM      1  C   UNL A   1      32.153  28.590  26.368  1.00  0.00     0.042 C 
ENDROOT
BRANCH   1   2
ATOM      2  C   UNL A   1      32.841  27.189  26.493  1.00  0.00     0.118 C 
BRANCH   2   3
ATOM      3  N   UNL A   1      31.932  26.043  26.680  1.00  0.00    -0.351 N 
ATOM      4  C   UNL A   1      31.801  24.712  26.429  1.00  0.00     0.279 C 
ATOM      5  O   UNL A   1      30.962  24.201  27.201  1.00  0.00    -0.268 OA
ATOM      6  H   UNL A   1      31.130  26.352  27.160  1.00  0.00     0.163 HD
BRANCH   4   7
ATOM      7  C   UNL A   1      32.474  23.720  25.392  1.00  0.00     0.283 C 
ATOM      8  C   UNL A   1      31.913  23.869  22.977  1.00  0.00     0.283 C 
ATOM      9  N   UNL A   1      31.498  23.340  24.299  1.00  0.00    -0.320 N 
ATOM     10  S   UNL A   1      33.734  23.759  22.994  1.00  0.00    -0.087 SA
ATOM     11  H   UNL A   1      31.445  22.323  24.246  1.00  0.00     0.348 HD
ATOM     12  H   UNL A   1      30.591  23.744  24.532  1.00  0.00     0.348 HD
ATOM     13  C   UNL A   1      33.879  23.821  24.823  1.00  0.00     0.151 C 
BRANCH   8  14
ATOM     14  C   UNL A   1      31.356  25.244  22.771  1.00  0.00     0.128 A 
ATOM     15  C   UNL A   1      31.789  26.065  21.814  1.00  0.00     0.205 A 
ATOM     16  O   UNL A   1      32.049  27.388  22.110  1.00  0.00    -0.440 OA
ATOM     17  C   UNL A   1      30.973  28.028  22.646  1.00  0.00     0.140 A 
ATOM     18  C   UNL A   1      30.242  25.860  23.542  1.00  0.00     0.205 A 
ATOM     19  C   UNL A   1      30.876  29.384  22.393  1.00  0.00     0.051 A 
ATOM     20  C   UNL A   1      29.937  27.287  23.213  1.00  0.00     0.068 A 
ATOM     21  O   UNL A   1      29.545  25.211  24.316  1.00  0.00    -0.288 OA
ATOM     22  C   UNL A   1      29.634  29.976  22.519  1.00  0.00     0.043 A 
ATOM     23  C   UNL A   1      28.684  27.875  23.317  1.00  0.00     0.055 A 
ATOM     24  C   UNL A   1      28.542  29.206  22.918  1.00  0.00     0.124 A 
ATOM     25  F   UNL A   1      27.322  29.751  22.878  1.00  0.00    -0.207 F 
BRANCH  15  26
ATOM     26  N   UNL A   1      32.143  25.646  20.581  1.00  0.00    -0.369 N 
ATOM     27  H   UNL A   1      33.077  25.398  20.395  1.00  0.00     0.159 HD
ATOM     28  H   UNL A   1      31.466  25.586  19.868  1.00  0.00     0.159 HD
ENDBRANCH  15  26
ENDBRANCH   8  14
ENDBRANCH   4   7
ENDBRANCH   2   3
ENDBRANCH   1   2
BRANCH   1  29
ATOM     29  C   UNL A   1      32.816  29.670  25.494  1.00  0.00     0.118 C 
BRANCH  29  30
ATOM     30  N   UNL A   1      32.750  30.968  26.176  1.00  0.00    -0.352 N 
ATOM     31  C   UNL A   1      33.414  31.564  27.223  1.00  0.00     0.251 C 
ATOM     32  H   UNL A   1      32.062  31.556  25.789  1.00  0.00     0.163 HD
ATOM     33  O   UNL A   1      32.816  32.490  27.778  1.00  0.00    -0.269 OA
BRANCH  31  34
ATOM     34  C   UNL A   1      34.782  31.218  27.710  1.00  0.00     0.039 A 
ATOM     35  C   UNL A   1      35.788  32.154  27.924  1.00  0.00     0.014 A 
ATOM     36  C   UNL A   1      35.014  29.900  28.154  1.00  0.00     0.014 A 
ATOM     37  C   UNL A   1      37.022  31.757  28.486  1.00  0.00     0.010 A 
ATOM     38  C   UNL A   1      36.224  29.522  28.773  1.00  0.00     0.010 A 
ATOM     39  C   UNL A   1      37.270  30.435  28.924  1.00  0.00    -0.014 A 
BRANCH  39  40
ATOM     40  C   UNL A   1      38.593  30.064  29.554  1.00  0.00     0.031 A 
ATOM     41  C   UNL A   1      39.059  30.622  30.892  1.00  0.00     0.074 A 
ATOM     42  C   UNL A   1      39.399  29.164  28.945  1.00  0.00     0.049 A 
ATOM     43  N   UNL A   1      40.072  30.232  31.634  1.00  0.00    -0.248 NA
ATOM     44  C   UNL A   1      38.295  31.728  31.488  1.00  0.00     0.031 C 
ATOM     45  C   UNL A   1      39.157  28.575  27.629  1.00  0.00     0.029 A 
ATOM     46  N   UNL A   1      40.578  28.580  29.354  1.00  0.00    -0.354 N 
ATOM     47  C   UNL A   1      40.040  31.012  32.787  1.00  0.00     0.074 A 
ATOM     48  C   UNL A   1      38.933  31.928  32.636  1.00  0.00     0.031 C 
ATOM     49  C   UNL A   1      40.121  27.682  27.360  1.00  0.00     0.029 A 
ATOM     50  C   UNL A   1      41.086  27.666  28.457  1.00  0.00     0.049 A 
ATOM     51  H   UNL A   1      41.017  28.796  30.208  1.00  0.00     0.167 HD
ATOM     52  C   UNL A   1      40.831  30.962  33.888  1.00  0.00     0.034 A 
ATOM     53  C   UNL A   1      42.198  26.902  28.487  1.00  0.00     0.034 A 
ATOM     54  C   UNL A   1      41.970  30.099  34.055  1.00  0.00     0.049 A 
ATOM     55  C   UNL A   1      43.125  26.945  29.667  1.00  0.00     0.074 A 
ATOM     56  C   UNL A   1      42.805  29.991  35.156  1.00  0.00     0.029 A 
ATOM     57  N   UNL A   1      42.463  29.234  33.096  1.00  0.00    -0.354 N 
ATOM     58  N   UNL A   1      42.979  27.586  30.798  1.00  0.00    -0.248 NA
ATOM     59  C   UNL A   1      44.364  26.153  29.581  1.00  0.00     0.031 C 
ATOM     60  C   UNL A   1      43.827  29.089  34.849  1.00  0.00     0.029 A 
ATOM     61  C   UNL A   1      43.610  28.616  33.566  1.00  0.00     0.049 A 
ATOM     62  H   UNL A   1      42.059  29.079  32.213  1.00  0.00     0.167 HD
ATOM     63  C   UNL A   1      44.094  27.262  31.565  1.00  0.00     0.074 A 
ATOM     64  C   UNL A   1      44.904  26.360  30.777  1.00  0.00     0.031 C 
ATOM     65  C   UNL A   1      44.408  27.690  32.810  1.00  0.00     0.034 A 
BRANCH  52  66
ATOM     66  C   UNL A   1      40.478  31.826  35.073  1.00  0.00     0.023 A 
ATOM     67  C   UNL A   1      41.050  33.111  35.159  1.00  0.00     0.012 A 
ATOM     68  C   UNL A   1      39.460  31.456  35.974  1.00  0.00     0.148 A 
ATOM     69  C   UNL A   1      40.604  34.022  36.117  1.00  0.00     0.002 A 
ATOM     70  C   UNL A   1      39.010  32.376  36.915  1.00  0.00     0.091 A 
ATOM     71  F   UNL A   1      38.932  30.228  35.868  1.00  0.00    -0.205 F 
ATOM     72  C   UNL A   1      39.579  33.660  36.986  1.00  0.00     0.022 A 
BRANCH  70  73
ATOM     73  S   UNL A   1      37.663  32.030  38.053  1.00  0.00     0.127 S 
ATOM     74  O   UNL A   1      37.366  30.632  37.743  1.00  0.00    -0.237 OA
ATOM     75  O   UNL A   1      38.296  32.244  39.355  1.00  0.00    -0.237 OA
ATOM     76  O   UNL A   1      36.603  32.973  37.724  1.00  0.00    -0.744 OA
ENDBRANCH  70  73
ENDBRANCH  52  66
BRANCH  53  77
ATOM     77  C   UNL A   1      42.477  25.995  27.338  1.00  0.00     0.023 A 
ATOM     78  C   UNL A   1      43.284  26.444  26.276  1.00  0.00     0.012 A 
ATOM     79  C   UNL A   1      42.013  24.666  27.341  1.00  0.00     0.148 A 
ATOM     80  C   UNL A   1      43.633  25.576  25.239  1.00  0.00     0.002 A 
ATOM     81  C   UNL A   1      42.407  23.794  26.336  1.00  0.00     0.091 A 
ATOM     82  F   UNL A   1      41.226  24.275  28.355  1.00  0.00    -0.205 F 
ATOM     83  C   UNL A   1      43.210  24.249  25.278  1.00  0.00     0.022 A 
BRANCH  81  84
ATOM     84  S   UNL A   1      42.022  22.041  26.378  1.00  0.00     0.127 S 
ATOM     85  O   UNL A   1      40.579  22.047  26.158  1.00  0.00    -0.237 OA
ATOM     86  O   UNL A   1      42.816  21.534  25.259  1.00  0.00    -0.237 OA
ATOM     87  O   UNL A   1      42.458  21.572  27.687  1.00  0.00    -0.744 OA
ENDBRANCH  81  84
ENDBRANCH  53  77
BRANCH  65  88
ATOM     88  C   UNL A   1      45.683  27.202  33.443  1.00  0.00     0.023 A 
ATOM     89  C   UNL A   1      46.845  27.992  33.352  1.00  0.00     0.012 A 
ATOM     90  C   UNL A   1      45.691  26.043  34.244  1.00  0.00     0.148 A 
ATOM     91  C   UNL A   1      47.999  27.633  34.050  1.00  0.00     0.002 A 
ATOM     92  C   UNL A   1      46.833  25.710  34.962  1.00  0.00     0.091 A 
ATOM     93  F   UNL A   1      44.571  25.308  34.311  1.00  0.00    -0.205 F 
ATOM     94  C   UNL A   1      47.989  26.501  34.863  1.00  0.00     0.022 A 
BRANCH  92  95
ATOM     95  S   UNL A   1      46.901  24.314  36.091  1.00  0.00     0.127 S 
ATOM     96  O   UNL A   1      48.284  24.378  36.562  1.00  0.00    -0.237 OA
ATOM     97  O   UNL A   1      45.897  24.677  37.091  1.00  0.00    -0.237 OA
ATOM     98  O   UNL A   1      46.577  23.135  35.298  1.00  0.00    -0.744 OA
ENDBRANCH  92  95
ENDBRANCH  65  88
ENDBRANCH  39  40
ENDBRANCH  31  34
ENDBRANCH  29  30
ENDBRANCH   1  29
TORSDOF 15
ENDMDL
MODEL 2
REMARK VINA RESULT:     -12.5      2.331      3.767
REMARK SMILES Nc1oc2ccc(F)cc2c(=O)c1[C@@H]1[NH2+][C@H](C(=O)NCCCNC(=O)c2ccc(-c3c4nc(c(-c5cccc(S(=O)(=O)[O-])c5F)c5ccc([nH]5)c(-c5cccc(S(=O)(=O)[O-])c5F)c5nc(c(-c6cccc(S(=O)(=O)[O-])c6F)c6ccc3[nH]6)C=C5)C=C4)cc2)CS1
REMARK SMILES IDX 21 1 20 2 19 3 17 4 18 5 16 7 14 8 15 9 90 10 89 13 13 14
REMARK SMILES IDX 2 15 3 16 4 17 11 18 5 19 10 20 12 21 6 22 9 23 7 24 8 25
REMARK SMILES IDX 1 26 22 29 23 30 24 31 25 33 26 34 27 35 88 36 28 37 87 38
REMARK SMILES IDX 29 39 30 40 31 41 81 42 32 43 86 44 80 45 82 46 33 47 85 48
REMARK SMILES IDX 79 49 78 50 34 52 66 53 46 54 65 55 47 56 50 57 64 58 83 59
REMARK SMILES IDX 48 60 49 61 63 63 84 64 51 65 35 66 36 67 44 68 37 69 39 70
REMARK SMILES IDX 45 71 38 72 40 73 41 74 42 75 43 76 67 77 68 78 76 79 69 80
REMARK SMILES IDX 71 81 77 82 70 83 72 84 73 85 74 86 75 87 52 88 53 89 61 90
REMARK SMILES IDX 54 91 56 92 62 93 55 94 57 95 58 96 59 97 60 98
REMARK H PARENT 19 6 15 11 15 12 1 27 1 28 23 32 82 51 50 62
REMARK Flexibility Score: inf
ROOT
ATOM      1  C   UNL A   1      33.678  28.950  24.210  1.00  0.00     0.042 C 
ENDROOT
BRANCH   1   2
ATOM      2  C   UNL A   1      33.635  28.881  22.647  1.00  0.00     0.118 C 
BRANCH   2   3
ATOM      3  N   UNL A   1      33.610  27.526  22.066  1.00  0.00    -0.351 N 
ATOM      4  C   UNL A   1      32.784  26.477  21.797  1.00  0.00     0.279 C 
ATOM      5  O   UNL A   1      33.278  25.746  20.913  1.00  0.00    -0.268 OA
ATOM      6  H   UNL A   1      34.517  27.296  21.761  1.00  0.00     0.163 HD
BRANCH   4   7
ATOM      7  C   UNL A   1      31.377  26.017  22.363  1.00  0.00     0.283 C 
ATOM      8  C   UNL A   1      31.200  23.969  23.756  1.00  0.00     0.283 C 
ATOM      9  N   UNL A   1      31.268  24.508  22.376  1.00  0.00    -0.320 N 
ATOM     10  S   UNL A   1      30.230  25.208  24.680  1.00  0.00    -0.087 SA
ATOM     11  H   UNL A   1      30.425  24.234  21.872  1.00  0.00     0.348 HD
ATOM     12  H   UNL A   1      32.103  24.128  21.929  1.00  0.00     0.348 HD
ATOM     13  C   UNL A   1      30.647  26.602  23.560  1.00  0.00     0.151 C 
BRANCH   8  14
ATOM     14  C   UNL A   1      32.578  23.712  24.282  1.00  0.00     0.128 A 
ATOM     15  C   UNL A   1      32.896  23.833  25.571  1.00  0.00     0.205 A 
ATOM     16  O   UNL A   1      34.051  24.496  25.935  1.00  0.00    -0.440 OA
ATOM     17  C   UNL A   1      35.165  23.966  25.359  1.00  0.00     0.140 A 
ATOM     18  C   UNL A   1      33.746  23.252  23.484  1.00  0.00     0.205 A 
ATOM     19  C   UNL A   1      36.341  24.078  26.077  1.00  0.00     0.051 A 
ATOM     20  C   UNL A   1      35.044  23.167  24.222  1.00  0.00     0.068 A 
ATOM     21  O   UNL A   1      33.634  22.860  22.326  1.00  0.00    -0.288 OA
ATOM     22  C   UNL A   1      37.368  23.206  25.772  1.00  0.00     0.043 A 
ATOM     23  C   UNL A   1      36.066  22.274  23.931  1.00  0.00     0.055 A 
ATOM     24  C   UNL A   1      37.199  22.275  24.747  1.00  0.00     0.124 A 
ATOM     25  F   UNL A   1      38.133  21.335  24.573  1.00  0.00    -0.207 F 
BRANCH  15  26
ATOM     26  N   UNL A   1      32.069  23.474  26.576  1.00  0.00    -0.369 N 
ATOM     27  H   UNL A   1      31.918  24.087  27.332  1.00  0.00     0.159 HD
ATOM     28  H   UNL A   1      31.614  22.601  26.552  1.00  0.00     0.159 HD
ENDBRANCH  15  26
ENDBRANCH   8  14
ENDBRANCH   4   7
ENDBRANCH   2   3
ENDBRANCH   1   2
BRANCH   1  29
ATOM     29  C   UNL A   1      32.354  29.045  24.989  1.00  0.00     0.118 C 
BRANCH  29  30
ATOM     30  N   UNL A   1      32.168  30.413  25.485  1.00  0.00    -0.352 N 
ATOM     31  C   UNL A   1      32.593  31.128  26.581  1.00  0.00     0.251 C 
ATOM     32  H   UNL A   1      31.600  30.950  24.887  1.00  0.00     0.163 HD
ATOM     33  O   UNL A   1      31.908  32.112  26.876  1.00  0.00    -0.269 OA
BRANCH  31  34
ATOM     34  C   UNL A   1      33.806  30.843  27.403  1.00  0.00     0.039 A 
ATOM     35  C   UNL A   1      34.208  29.564  27.773  1.00  0.00     0.014 A 
ATOM     36  C   UNL A   1      34.694  31.907  27.664  1.00  0.00     0.014 A 
ATOM     37  C   UNL A   1      35.426  29.374  28.465  1.00  0.00     0.010 A 
ATOM     38  C   UNL A   1      35.938  31.703  28.297  1.00  0.00     0.010 A 
ATOM     39  C   UNL A   1      36.320  30.435  28.742  1.00  0.00    -0.014 A 
BRANCH  39  40
ATOM     40  C   UNL A   1      37.629  30.179  29.451  1.00  0.00     0.031 A 
ATOM     41  C   UNL A   1      37.968  30.780  30.809  1.00  0.00     0.074 A 
ATOM     42  C   UNL A   1      38.541  29.347  28.899  1.00  0.00     0.049 A 
ATOM     43  N   UNL A   1      38.965  30.480  31.612  1.00  0.00    -0.248 NA
ATOM     44  C   UNL A   1      37.081  31.822  31.348  1.00  0.00     0.031 C 
ATOM     45  C   UNL A   1      38.427  28.733  27.576  1.00  0.00     0.029 A 
ATOM     46  N   UNL A   1      39.739  28.865  29.381  1.00  0.00    -0.354 N 
ATOM     47  C   UNL A   1      38.801  31.260  32.753  1.00  0.00     0.074 A 
ATOM     48  C   UNL A   1      37.632  32.080  32.529  1.00  0.00     0.031 C 
ATOM     49  C   UNL A   1      39.475  27.922  27.373  1.00  0.00     0.029 A 
ATOM     50  C   UNL A   1      40.372  27.992  28.525  1.00  0.00     0.049 A 
ATOM     51  H   UNL A   1      40.108  29.120  30.258  1.00  0.00     0.167 HD
ATOM     52  C   UNL A   1      39.527  31.281  33.899  1.00  0.00     0.034 A 
ATOM     53  C   UNL A   1      41.541  27.323  28.626  1.00  0.00     0.034 A 
ATOM     54  C   UNL A   1      40.722  30.517  34.140  1.00  0.00     0.049 A 
ATOM     55  C   UNL A   1      42.390  27.449  29.857  1.00  0.00     0.074 A 
ATOM     56  C   UNL A   1      41.497  30.484  35.289  1.00  0.00     0.029 A 
ATOM     57  N   UNL A   1      41.340  29.691  33.220  1.00  0.00    -0.354 N 
ATOM     58  N   UNL A   1      42.125  28.081  30.972  1.00  0.00    -0.248 NA
ATOM     59  C   UNL A   1      43.692  26.763  29.851  1.00  0.00     0.031 C 
ATOM     60  C   UNL A   1      42.606  29.669  35.051  1.00  0.00     0.029 A 
ATOM     61  C   UNL A   1      42.505  29.173  33.762  1.00  0.00     0.049 A 
ATOM     62  H   UNL A   1      41.002  29.499  32.316  1.00  0.00     0.167 HD
ATOM     63  C   UNL A   1      43.216  27.854  31.805  1.00  0.00     0.074 A 
ATOM     64  C   UNL A   1      44.143  27.020  31.074  1.00  0.00     0.031 C 
ATOM     65  C   UNL A   1      43.420  28.313  33.062  1.00  0.00     0.034 A 
BRANCH  52  66
ATOM     66  C   UNL A   1      39.035  32.118  35.053  1.00  0.00     0.023 A 
ATOM     67  C   UNL A   1      38.153  31.529  35.981  1.00  0.00     0.012 A 
ATOM     68  C   UNL A   1      39.580  33.389  35.322  1.00  0.00     0.148 A 
ATOM     69  C   UNL A   1      37.830  32.187  37.168  1.00  0.00     0.002 A 
ATOM     70  C   UNL A   1      39.267  34.031  36.516  1.00  0.00     0.091 A 
ATOM     71  F   UNL A   1      40.419  33.925  34.424  1.00  0.00    -0.205 F 
ATOM     72  C   UNL A   1      38.395  33.430  37.441  1.00  0.00     0.022 A 
BRANCH  70  73
ATOM     73  S   UNL A   1      39.974  35.614  36.989  1.00  0.00     0.127 S 
ATOM     74  O   UNL A   1      41.390  35.277  37.123  1.00  0.00    -0.237 OA
ATOM     75  O   UNL A   1      39.653  36.453  35.834  1.00  0.00    -0.237 OA
ATOM     76  O   UNL A   1      39.312  35.997  38.229  1.00  0.00    -0.744 OA
ENDBRANCH  70  73
ENDBRANCH  52  66
BRANCH  53  77
ATOM     77  C   UNL A   1      41.960  26.438  27.504  1.00  0.00     0.023 A 
ATOM     78  C   UNL A   1      42.760  26.956  26.468  1.00  0.00     0.012 A 
ATOM     79  C   UNL A   1      41.638  25.067  27.510  1.00  0.00     0.148 A 
ATOM     80  C   UNL A   1      43.241  26.117  25.461  1.00  0.00     0.002 A 
ATOM     81  C   UNL A   1      42.163  24.229  26.536  1.00  0.00     0.091 A 
ATOM     82  F   UNL A   1      40.854  24.607  28.497  1.00  0.00    -0.205 F 
ATOM     83  C   UNL A   1      42.958  24.754  25.504  1.00  0.00     0.022 A 
BRANCH  81  84
ATOM     84  S   UNL A   1      41.962  22.446  26.590  1.00  0.00     0.127 S 
ATOM     85  O   UNL A   1      42.646  22.031  25.368  1.00  0.00    -0.237 OA
ATOM     86  O   UNL A   1      42.655  22.105  27.832  1.00  0.00    -0.237 OA
ATOM     87  O   UNL A   1      40.524  22.211  26.618  1.00  0.00    -0.744 OA
ENDBRANCH  81  84
ENDBRANCH  53  77
BRANCH  65  88
ATOM     88  C   UNL A   1      44.692  27.936  33.773  1.00  0.00     0.023 A 
ATOM     89  C   UNL A   1      45.791  28.815  33.733  1.00  0.00     0.012 A 
ATOM     90  C   UNL A   1      44.745  26.792  34.593  1.00  0.00     0.148 A 
ATOM     91  C   UNL A   1      46.929  28.558  34.499  1.00  0.00     0.002 A 
ATOM     92  C   UNL A   1      45.868  26.560  35.378  1.00  0.00     0.091 A 
ATOM     93  F   UNL A   1      43.684  25.972  34.611  1.00  0.00    -0.205 F 
ATOM     94  C   UNL A   1      46.962  27.439  35.330  1.00  0.00     0.022 A 
BRANCH  92  95
ATOM     95  S   UNL A   1      45.981  25.188  36.534  1.00  0.00     0.127 S 
ATOM     96  O   UNL A   1      45.913  24.036  35.636  1.00  0.00    -0.237 OA
ATOM     97  O   UNL A   1      47.291  25.409  37.146  1.00  0.00    -0.237 OA
ATOM     98  O   UNL A   1      44.850  25.328  37.441  1.00  0.00    -0.744 OA
ENDBRANCH  92  95
ENDBRANCH  65  88
ENDBRANCH  39  40
ENDBRANCH  31  34
ENDBRANCH  29  30
ENDBRANCH   1  29
TORSDOF 15
ENDMDL
MODEL 3
REMARK VINA RESULT:     -12.4      2.061      3.419
REMARK SMILES Nc1oc2ccc(F)cc2c(=O)c1[C@@H]1[NH2+][C@H](C(=O)NCCCNC(=O)c2ccc(-c3c4nc(c(-c5cccc(S(=O)(=O)[O-])c5F)c5ccc([nH]5)c(-c5cccc(S(=O)(=O)[O-])c5F)c5nc(c(-c6cccc(S(=O)(=O)[O-])c6F)c6ccc3[nH]6)C=C5)C=C4)cc2)CS1
REMARK SMILES IDX 21 1 20 2 19 3 17 4 18 5 16 7 14 8 15 9 90 10 89 13 13 14
REMARK SMILES IDX 2 15 3 16 4 17 11 18 5 19 10 20 12 21 6 22 9 23 7 24 8 25
REMARK SMILES IDX 1 26 22 29 23 30 24 31 25 33 26 34 27 35 88 36 28 37 87 38
REMARK SMILES IDX 29 39 30 40 31 41 81 42 32 43 86 44 80 45 82 46 33 47 85 48
REMARK SMILES IDX 79 49 78 50 34 52 66 53 46 54 65 55 47 56 50 57 64 58 83 59
REMARK SMILES IDX 48 60 49 61 63 63 84 64 51 65 35 66 36 67 44 68 37 69 39 70
REMARK SMILES IDX 45 71 38 72 40 73 41 74 42 75 43 76 67 77 68 78 76 79 69 80
REMARK SMILES IDX 71 81 77 82 70 83 72 84 73 85 74 86 75 87 52 88 53 89 61 90
REMARK SMILES IDX 54 91 56 92 62 93 55 94 57 95 58 96 59 97 60 98
REMARK H PARENT 19 6 15 11 15 12 1 27 1 28 23 32 82 51 50 62
REMARK Flexibility Score: inf
ROOT
ATOM      1  C   UNL A   1      33.131  31.158  26.717  1.00  0.00     0.042 C 
ENDROOT
BRANCH   1   2
ATOM      2  C   UNL A   1      32.942  29.652  26.333  1.00  0.00     0.118 C 
BRANCH   2   3
ATOM      3  N   UNL A   1      33.378  29.277  24.975  1.00  0.00    -0.351 N 
ATOM      4  C   UNL A   1      32.919  29.043  23.716  1.00  0.00     0.279 C 
ATOM      5  O   UNL A   1      33.844  29.152  22.884  1.00  0.00    -0.268 OA
ATOM      6  H   UNL A   1      34.354  29.152  24.981  1.00  0.00     0.163 HD
BRANCH   4   7
ATOM      7  C   UNL A   1      31.498  28.672  23.118  1.00  0.00     0.283 C 
ATOM      8  C   UNL A   1      30.985  26.327  22.480  1.00  0.00     0.283 C 
ATOM      9  N   UNL A   1      31.622  27.598  22.059  1.00  0.00    -0.320 N 
ATOM     10  S   UNL A   1      29.520  26.849  23.435  1.00  0.00    -0.087 SA
ATOM     11  H   UNL A   1      31.173  27.926  21.204  1.00  0.00     0.348 HD
ATOM     12  H   UNL A   1      32.615  27.419  21.907  1.00  0.00     0.348 HD
ATOM     13  C   UNL A   1      30.208  28.486  23.898  1.00  0.00     0.151 C 
BRANCH   8  14
ATOM     14  C   UNL A   1      31.966  25.477  23.226  1.00  0.00     0.128 A 
ATOM     15  C   UNL A   1      31.612  24.668  24.224  1.00  0.00     0.205 A 
ATOM     16  O   UNL A   1      32.353  24.648  25.389  1.00  0.00    -0.440 OA
ATOM     17  C   UNL A   1      33.667  24.363  25.170  1.00  0.00     0.140 A 
ATOM     18  C   UNL A   1      33.423  25.372  22.943  1.00  0.00     0.205 A 
ATOM     19  C   UNL A   1      34.331  23.708  26.191  1.00  0.00     0.051 A 
ATOM     20  C   UNL A   1      34.210  24.531  23.897  1.00  0.00     0.068 A 
ATOM     21  O   UNL A   1      33.930  25.850  21.933  1.00  0.00    -0.288 OA
ATOM     22  C   UNL A   1      35.485  23.020  25.871  1.00  0.00     0.043 A 
ATOM     23  C   UNL A   1      35.357  23.821  23.569  1.00  0.00     0.055 A 
ATOM     24  C   UNL A   1      35.952  23.032  24.557  1.00  0.00     0.124 A 
ATOM     25  F   UNL A   1      36.973  22.233  24.229  1.00  0.00    -0.207 F 
BRANCH  15  26
ATOM     26  N   UNL A   1      30.462  23.960  24.234  1.00  0.00    -0.369 N 
ATOM     27  H   UNL A   1      29.820  24.075  24.971  1.00  0.00     0.159 HD
ATOM     28  H   UNL A   1      30.265  23.331  23.502  1.00  0.00     0.159 HD
ENDBRANCH  15  26
ENDBRANCH   8  14
ENDBRANCH   4   7
ENDBRANCH   2   3
ENDBRANCH   1   2
BRANCH   1  29
ATOM     29  C   UNL A   1      31.885  32.049  26.872  1.00  0.00     0.118 C 
BRANCH  29  30
ATOM     30  N   UNL A   1      32.290  33.401  27.274  1.00  0.00    -0.352 N 
ATOM     31  C   UNL A   1      33.223  33.934  28.133  1.00  0.00     0.251 C 
ATOM     32  H   UNL A   1      31.765  34.096  26.817  1.00  0.00     0.163 HD
ATOM     33  O   UNL A   1      32.998  35.084  28.520  1.00  0.00    -0.269 OA
BRANCH  31  34
ATOM     34  C   UNL A   1      34.477  33.268  28.596  1.00  0.00     0.039 A 
ATOM     35  C   UNL A   1      35.751  33.648  28.189  1.00  0.00     0.014 A 
ATOM     36  C   UNL A   1      34.380  32.326  29.641  1.00  0.00     0.014 A 
ATOM     37  C   UNL A   1      36.891  33.033  28.754  1.00  0.00     0.010 A 
ATOM     38  C   UNL A   1      35.522  31.763  30.247  1.00  0.00     0.010 A 
ATOM     39  C   UNL A   1      36.806  32.079  29.796  1.00  0.00    -0.014 A 
BRANCH  39  40
ATOM     40  C   UNL A   1      38.054  31.476  30.396  1.00  0.00     0.031 A 
ATOM     41  C   UNL A   1      38.571  31.848  31.780  1.00  0.00     0.074 A 
ATOM     42  C   UNL A   1      38.738  30.528  29.716  1.00  0.00     0.049 A 
ATOM     43  N   UNL A   1      39.509  31.260  32.489  1.00  0.00    -0.248 NA
ATOM     44  C   UNL A   1      37.958  32.995  32.465  1.00  0.00     0.031 C 
ATOM     45  C   UNL A   1      38.439  30.092  28.352  1.00  0.00     0.029 A 
ATOM     46  N   UNL A   1      39.819  29.753  30.078  1.00  0.00    -0.354 N 
ATOM     47  C   UNL A   1      39.567  31.936  33.705  1.00  0.00     0.074 A 
ATOM     48  C   UNL A   1      38.599  33.007  33.629  1.00  0.00     0.031 C 
ATOM     49  C   UNL A   1      39.274  29.100  28.012  1.00  0.00     0.029 A 
ATOM     50  C   UNL A   1      40.209  28.857  29.107  1.00  0.00     0.049 A 
ATOM     51  H   UNL A   1      40.269  29.832  30.949  1.00  0.00     0.167 HD
ATOM     52  C   UNL A   1      40.324  31.683  34.801  1.00  0.00     0.034 A 
ATOM     53  C   UNL A   1      41.205  27.946  29.075  1.00  0.00     0.034 A 
ATOM     54  C   UNL A   1      41.331  30.659  34.897  1.00  0.00     0.049 A 
ATOM     55  C   UNL A   1      42.110  27.759  30.258  1.00  0.00     0.074 A 
ATOM     56  C   UNL A   1      42.126  30.343  35.989  1.00  0.00     0.029 A 
ATOM     57  N   UNL A   1      41.715  29.818  33.870  1.00  0.00    -0.354 N 
ATOM     58  N   UNL A   1      42.036  28.316  31.441  1.00  0.00    -0.248 NA
ATOM     59  C   UNL A   1      43.228  26.813  30.110  1.00  0.00     0.031 C 
ATOM     60  C   UNL A   1      43.017  29.337  35.610  1.00  0.00     0.029 A 
ATOM     61  C   UNL A   1      42.758  29.009  34.290  1.00  0.00     0.049 A 
ATOM     62  H   UNL A   1      41.307  29.797  32.974  1.00  0.00     0.167 HD
ATOM     63  C   UNL A   1      43.082  27.776  32.181  1.00  0.00     0.074 A 
ATOM     64  C   UNL A   1      43.773  26.841  31.321  1.00  0.00     0.031 C 
ATOM     65  C   UNL A   1      43.433  28.049  33.459  1.00  0.00     0.034 A 
BRANCH  52  66
ATOM     66  C   UNL A   1      40.076  32.483  36.054  1.00  0.00     0.023 A 
ATOM     67  C   UNL A   1      40.741  33.717  36.205  1.00  0.00     0.012 A 
ATOM     68  C   UNL A   1      39.065  32.123  36.967  1.00  0.00     0.148 A 
ATOM     69  C   UNL A   1      40.396  34.587  37.240  1.00  0.00     0.002 A 
ATOM     70  C   UNL A   1      38.714  33.004  37.986  1.00  0.00     0.091 A 
ATOM     71  F   UNL A   1      38.446  30.946  36.798  1.00  0.00    -0.205 F 
ATOM     72  C   UNL A   1      39.377  34.236  38.121  1.00  0.00     0.022 A 
BRANCH  70  73
ATOM     73  S   UNL A   1      37.385  32.673  39.149  1.00  0.00     0.127 S 
ATOM     74  O   UNL A   1      37.624  33.695  40.168  1.00  0.00    -0.237 OA
ATOM     75  O   UNL A   1      36.194  32.897  38.329  1.00  0.00    -0.237 OA
ATOM     76  O   UNL A   1      37.573  31.300  39.598  1.00  0.00    -0.744 OA
ENDBRANCH  70  73
ENDBRANCH  52  66
BRANCH  53  77
ATOM     77  C   UNL A   1      41.374  27.110  27.853  1.00  0.00     0.023 A 
ATOM     78  C   UNL A   1      42.052  27.636  26.737  1.00  0.00     0.012 A 
ATOM     79  C   UNL A   1      40.940  25.771  27.832  1.00  0.00     0.148 A 
ATOM     80  C   UNL A   1      42.303  26.835  25.622  1.00  0.00     0.002 A 
ATOM     81  C   UNL A   1      41.240  24.965  26.742  1.00  0.00     0.091 A 
ATOM     82  F   UNL A   1      40.277  25.305  28.900  1.00  0.00    -0.205 F 
ATOM     83  C   UNL A   1      41.913  25.497  25.631  1.00  0.00     0.022 A 
BRANCH  81  84
ATOM     84  S   UNL A   1      40.896  23.203  26.726  1.00  0.00     0.127 S 
ATOM     85  O   UNL A   1      41.725  22.747  25.614  1.00  0.00    -0.237 OA
ATOM     86  O   UNL A   1      41.362  22.796  28.051  1.00  0.00    -0.237 OA
ATOM     87  O   UNL A   1      39.458  23.082  26.530  1.00  0.00    -0.744 OA
ENDBRANCH  81  84
ENDBRANCH  53  77
BRANCH  65  88
ATOM     88  C   UNL A   1      44.618  27.337  34.053  1.00  0.00     0.023 A 
ATOM     89  C   UNL A   1      45.893  27.927  33.966  1.00  0.00     0.012 A 
ATOM     90  C   UNL A   1      44.444  26.166  34.818  1.00  0.00     0.148 A 
ATOM     91  C   UNL A   1      46.981  27.360  34.630  1.00  0.00     0.002 A 
ATOM     92  C   UNL A   1      45.525  25.625  35.503  1.00  0.00     0.091 A 
ATOM     93  F   UNL A   1      43.219  25.624  34.882  1.00  0.00    -0.205 F 
ATOM     94  C   UNL A   1      46.795  26.218  35.408  1.00  0.00     0.022 A 
BRANCH  92  95
ATOM     95  S   UNL A   1      45.376  24.199  36.587  1.00  0.00     0.127 S 
ATOM     96  O   UNL A   1      46.770  23.961  36.959  1.00  0.00    -0.237 OA
ATOM     97  O   UNL A   1      44.536  24.719  37.666  1.00  0.00    -0.237 OA
ATOM     98  O   UNL A   1      44.765  23.146  35.789  1.00  0.00    -0.744 OA
ENDBRANCH  92  95
ENDBRANCH  65  88
ENDBRANCH  39  40
ENDBRANCH  31  34
ENDBRANCH  29  30
ENDBRANCH   1  29
TORSDOF 15
ENDMDL
