MODEL 1
REMARK VINA RESULT:     -11.3      0.000      0.000
REMARK SMILES CCn1ncc(CNc2ccccc2C(=O)NCCCNC(=O)c2ccc(-c3c4nc(c(-c5cccc(S(=O)(=O)[O-])c5F)c5ccc([nH]5)c(-c5cccc(S(=O)(=O)[O-])c5F)c5nc(c(-c6cccc(S(=O)(=O)[O-])c6F)c6ccc3[nH]6)C=C5)C=C4)cc2)c1C
REMARK SMILES IDX 18 1 17 2 15 3 16 4 14 6 9 7 10 8 11 9 13 10 12 11 8 12 7 14
REMARK SMILES IDX 6 15 3 16 4 17 87 18 5 19 88 20 2 21 1 22 19 23 20 24 21 25
REMARK SMILES IDX 22 26 23 28 24 29 25 30 86 31 26 32 85 33 27 34 28 35 29 36
REMARK SMILES IDX 79 37 30 38 84 39 78 40 80 41 31 42 83 43 77 44 76 45 32 47
REMARK SMILES IDX 64 48 44 49 63 50 45 51 48 52 62 53 81 54 46 55 47 56 61 58
REMARK SMILES IDX 82 59 49 60 33 61 34 62 42 63 35 64 37 65 43 66 36 67 38 68
REMARK SMILES IDX 39 69 40 70 41 71 65 72 66 73 74 74 67 75 69 76 75 77 68 78
REMARK SMILES IDX 70 79 71 80 72 81 73 82 50 83 51 84 59 85 52 86 54 87 60 88
REMARK SMILES IDX 53 89 55 90 56 91 57 92 58 93
REMARK H PARENT 17 5 8 13 21 27 80 46 48 57
REMARK Flexibility Score: inf
ROOT
ATOM      1  C   UNL A   1      33.229  28.143  26.778  1.00  0.00     0.118 C 
ENDROOT
BRANCH   1   2
ATOM      2  N   UNL A   1      34.031  28.281  25.598  1.00  0.00    -0.352 N 
ATOM      3  C   UNL A   1      33.572  27.874  24.351  1.00  0.00     0.253 C 
ATOM      4  O   UNL A   1      33.764  28.593  23.370  1.00  0.00    -0.269 OA
ATOM      5  H   UNL A   1      34.931  28.674  25.673  1.00  0.00     0.163 HD
BRANCH   3   6
ATOM      6  C   UNL A   1      33.042  26.490  24.128  1.00  0.00     0.062 A 
ATOM      7  C   UNL A   1      31.751  25.971  24.369  1.00  0.00     0.047 A 
ATOM      8  C   UNL A   1      31.597  24.567  24.233  1.00  0.00     0.026 A 
ATOM      9  C   UNL A   1      32.625  23.720  23.815  1.00  0.00     0.002 A 
ATOM     10  C   UNL A   1      34.066  25.622  23.668  1.00  0.00     0.016 A 
ATOM     11  C   UNL A   1      33.861  24.253  23.504  1.00  0.00     0.001 A 
BRANCH   7  12
ATOM     12  N   UNL A   1      30.569  26.639  24.646  1.00  0.00    -0.380 N 
ATOM     13  H   UNL A   1      30.529  27.085  25.523  1.00  0.00     0.160 HD
BRANCH  12  14
ATOM     14  C   UNL A   1      29.380  26.773  23.822  1.00  0.00     0.152 C 
BRANCH  14  15
ATOM     15  C   UNL A   1      29.334  28.015  23.005  1.00  0.00     0.012 A 
ATOM     16  N   UNL A   1      28.722  29.877  22.016  1.00  0.00    -0.270 N 
ATOM     17  N   UNL A   1      30.035  29.742  21.717  1.00  0.00    -0.181 NA
ATOM     18  C   UNL A   1      28.249  28.849  22.794  1.00  0.00     0.040 A 
ATOM     19  C   UNL A   1      30.401  28.610  22.307  1.00  0.00     0.141 A 
ATOM     20  C   UNL A   1      26.882  28.652  23.337  1.00  0.00     0.067 C 
BRANCH  16  21
ATOM     21  C   UNL A   1      28.090  31.052  21.451  1.00  0.00     0.141 C 
ATOM     22  C   UNL A   1      28.522  32.422  21.929  1.00  0.00     0.029 C 
ENDBRANCH  16  21
ENDBRANCH  14  15
ENDBRANCH  12  14
ENDBRANCH   7  12
ENDBRANCH   3   6
ENDBRANCH   1   2
BRANCH   1  23
ATOM     23  C   UNL A   1      32.876  29.322  27.661  1.00  0.00     0.042 C 
BRANCH  23  24
ATOM     24  C   UNL A   1      33.553  30.608  27.187  1.00  0.00     0.118 C 
BRANCH  24  25
ATOM     25  N   UNL A   1      32.657  31.752  26.956  1.00  0.00    -0.352 N 
ATOM     26  C   UNL A   1      32.711  33.012  27.584  1.00  0.00     0.251 C 
ATOM     27  H   UNL A   1      31.944  31.623  26.289  1.00  0.00     0.163 HD
ATOM     28  O   UNL A   1      31.833  33.835  27.453  1.00  0.00    -0.269 OA
BRANCH  26  29
ATOM     29  C   UNL A   1      33.894  33.261  28.425  1.00  0.00     0.039 A 
ATOM     30  C   UNL A   1      34.086  32.504  29.581  1.00  0.00     0.014 A 
ATOM     31  C   UNL A   1      34.939  33.933  27.813  1.00  0.00     0.014 A 
ATOM     32  C   UNL A   1      35.393  32.254  30.008  1.00  0.00     0.010 A 
ATOM     33  C   UNL A   1      36.221  33.538  28.138  1.00  0.00     0.010 A 
ATOM     34  C   UNL A   1      36.474  32.691  29.224  1.00  0.00    -0.014 A 
BRANCH  34  35
ATOM     35  C   UNL A   1      37.818  32.124  29.434  1.00  0.00     0.031 A 
ATOM     36  C   UNL A   1      38.085  30.736  28.918  1.00  0.00     0.074 A 
ATOM     37  C   UNL A   1      38.892  32.832  29.851  1.00  0.00     0.049 A 
ATOM     38  N   UNL A   1      38.352  29.679  29.620  1.00  0.00    -0.248 NA
ATOM     39  C   UNL A   1      38.011  30.475  27.474  1.00  0.00     0.031 C 
ATOM     40  C   UNL A   1      39.004  34.270  30.127  1.00  0.00     0.029 A 
ATOM     41  N   UNL A   1      40.184  32.410  29.964  1.00  0.00    -0.354 N 
ATOM     42  C   UNL A   1      38.672  28.665  28.714  1.00  0.00     0.074 A 
ATOM     43  C   UNL A   1      38.315  29.173  27.413  1.00  0.00     0.031 C 
ATOM     44  C   UNL A   1      40.300  34.640  30.054  1.00  0.00     0.029 A 
ATOM     45  C   UNL A   1      41.108  33.443  29.970  1.00  0.00     0.049 A 
ATOM     46  H   UNL A   1      40.436  31.460  30.033  1.00  0.00     0.167 HD
ATOM     47  C   UNL A   1      39.374  27.553  29.086  1.00  0.00     0.034 A 
ATOM     48  C   UNL A   1      42.452  33.336  29.906  1.00  0.00     0.034 A 
ATOM     49  C   UNL A   1      39.486  27.447  30.520  1.00  0.00     0.049 A 
ATOM     50  C   UNL A   1      42.802  31.989  30.410  1.00  0.00     0.074 A 
ATOM     51  C   UNL A   1      38.599  27.409  31.577  1.00  0.00     0.029 A 
ATOM     52  N   UNL A   1      40.710  27.723  31.082  1.00  0.00    -0.354 N 
ATOM     53  N   UNL A   1      42.596  31.608  31.642  1.00  0.00    -0.248 NA
ATOM     54  C   UNL A   1      43.006  30.919  29.451  1.00  0.00     0.031 C 
ATOM     55  C   UNL A   1      39.223  28.189  32.596  1.00  0.00     0.029 A 
ATOM     56  C   UNL A   1      40.468  28.596  32.108  1.00  0.00     0.049 A 
ATOM     57  H   UNL A   1      41.583  27.365  30.802  1.00  0.00     0.167 HD
ATOM     58  C   UNL A   1      42.194  30.284  31.534  1.00  0.00     0.074 A 
ATOM     59  C   UNL A   1      42.593  29.883  30.185  1.00  0.00     0.031 C 
ATOM     60  C   UNL A   1      41.322  29.720  32.427  1.00  0.00     0.034 A 
BRANCH  47  61
ATOM     61  C   UNL A   1      40.239  26.682  28.198  1.00  0.00     0.023 A 
ATOM     62  C   UNL A   1      40.223  25.285  28.435  1.00  0.00     0.012 A 
ATOM     63  C   UNL A   1      41.251  27.168  27.344  1.00  0.00     0.148 A 
ATOM     64  C   UNL A   1      41.194  24.429  27.902  1.00  0.00     0.002 A 
ATOM     65  C   UNL A   1      42.167  26.301  26.751  1.00  0.00     0.091 A 
ATOM     66  F   UNL A   1      41.427  28.486  27.203  1.00  0.00    -0.205 F 
ATOM     67  C   UNL A   1      42.164  24.936  27.052  1.00  0.00     0.022 A 
BRANCH  65  68
ATOM     68  S   UNL A   1      43.395  26.902  25.585  1.00  0.00     0.127 S 
ATOM     69  O   UNL A   1      44.301  27.634  26.463  1.00  0.00    -0.237 OA
ATOM     70  O   UNL A   1      43.934  25.656  25.037  1.00  0.00    -0.237 OA
ATOM     71  O   UNL A   1      42.639  27.695  24.623  1.00  0.00    -0.744 OA
ENDBRANCH  65  68
ENDBRANCH  47  61
BRANCH  48  72
ATOM     72  C   UNL A   1      43.418  34.273  29.298  1.00  0.00     0.023 A 
ATOM     73  C   UNL A   1      44.020  35.272  30.081  1.00  0.00     0.012 A 
ATOM     74  C   UNL A   1      43.927  34.043  27.997  1.00  0.00     0.148 A 
ATOM     75  C   UNL A   1      45.106  36.008  29.592  1.00  0.00     0.002 A 
ATOM     76  C   UNL A   1      44.997  34.785  27.512  1.00  0.00     0.091 A 
ATOM     77  F   UNL A   1      43.418  33.037  27.271  1.00  0.00    -0.205 F 
ATOM     78  C   UNL A   1      45.597  35.764  28.312  1.00  0.00     0.022 A 
BRANCH  76  79
ATOM     79  S   UNL A   1      45.675  34.512  25.868  1.00  0.00     0.127 S 
ATOM     80  O   UNL A   1      46.329  33.211  26.016  1.00  0.00    -0.237 OA
ATOM     81  O   UNL A   1      44.471  34.500  25.042  1.00  0.00    -0.237 OA
ATOM     82  O   UNL A   1      46.595  35.619  25.640  1.00  0.00    -0.744 OA
ENDBRANCH  76  79
ENDBRANCH  48  72
BRANCH  60  83
ATOM     83  C   UNL A   1      40.961  30.478  33.686  1.00  0.00     0.023 A 
ATOM     84  C   UNL A   1      41.796  30.469  34.822  1.00  0.00     0.012 A 
ATOM     85  C   UNL A   1      39.890  31.390  33.646  1.00  0.00     0.148 A 
ATOM     86  C   UNL A   1      41.562  31.330  35.898  1.00  0.00     0.002 A 
ATOM     87  C   UNL A   1      39.689  32.280  34.697  1.00  0.00     0.091 A 
ATOM     88  F   UNL A   1      39.103  31.401  32.558  1.00  0.00    -0.205 F 
ATOM     89  C   UNL A   1      40.517  32.246  35.829  1.00  0.00     0.022 A 
BRANCH  87  90
ATOM     90  S   UNL A   1      38.452  33.580  34.604  1.00  0.00     0.127 S 
ATOM     91  O   UNL A   1      38.988  34.437  33.548  1.00  0.00    -0.237 OA
ATOM     92  O   UNL A   1      37.241  32.843  34.237  1.00  0.00    -0.237 OA
ATOM     93  O   UNL A   1      38.402  34.174  35.934  1.00  0.00    -0.744 OA
ENDBRANCH  87  90
ENDBRANCH  60  83
ENDBRANCH  34  35
ENDBRANCH  26  29
ENDBRANCH  24  25
ENDBRANCH  23  24
ENDBRANCH   1  23
TORSDOF 17
ENDMDL
MODEL 2
REMARK VINA RESULT:     -11.3      3.874      8.925
REMARK SMILES CCn1ncc(CNc2ccccc2C(=O)NCCCNC(=O)c2ccc(-c3c4nc(c(-c5cccc(S(=O)(=O)[O-])c5F)c5ccc([nH]5)c(-c5cccc(S(=O)(=O)[O-])c5F)c5nc(c(-c6cccc(S(=O)(=O)[O-])c6F)c6ccc3[nH]6)C=C5)C=C4)cc2)c1C
REMARK SMILES IDX 18 1 17 2 15 3 16 4 14 6 9 7 10 8 11 9 13 10 12 11 8 12 7 14
REMARK SMILES IDX 6 15 3 16 4 17 87 18 5 19 88 20 2 21 1 22 19 23 20 24 21 25
REMARK SMILES IDX 22 26 23 28 24 29 25 30 86 31 26 32 85 33 27 34 28 35 29 36
REMARK SMILES IDX 79 37 30 38 84 39 78 40 80 41 31 42 83 43 77 44 76 45 32 47
REMARK SMILES IDX 64 48 44 49 63 50 45 51 48 52 62 53 81 54 46 55 47 56 61 58
REMARK SMILES IDX 82 59 49 60 33 61 34 62 42 63 35 64 37 65 43 66 36 67 38 68
REMARK SMILES IDX 39 69 40 70 41 71 65 72 66 73 74 74 67 75 69 76 75 77 68 78
REMARK SMILES IDX 70 79 71 80 72 81 73 82 50 83 51 84 59 85 52 86 54 87 60 88
REMARK SMILES IDX 53 89 55 90 56 91 57 92 58 93
REMARK H PARENT 17 5 8 13 21 27 80 46 48 57
REMARK Flexibility Score: inf
ROOT
ATOM      1  C   UNL A   1      36.958  23.272  24.509  1.00  0.00     0.118 C 
ENDROOT
BRANCH   1   2
ATOM      2  N   UNL A   1      36.079  22.985  23.414  1.00  0.00    -0.352 N 
ATOM      3  C   UNL A   1      34.779  23.474  23.374  1.00  0.00     0.253 C 
ATOM      4  O   UNL A   1      34.335  23.933  22.321  1.00  0.00    -0.269 OA
ATOM      5  H   UNL A   1      36.404  22.427  22.670  1.00  0.00     0.163 HD
BRANCH   3   6
ATOM      6  C   UNL A   1      33.830  23.261  24.515  1.00  0.00     0.062 A 
ATOM      7  C   UNL A   1      33.348  24.184  25.469  1.00  0.00     0.047 A 
ATOM      8  C   UNL A   1      32.600  23.647  26.549  1.00  0.00     0.026 A 
ATOM      9  C   UNL A   1      32.276  22.294  26.659  1.00  0.00     0.002 A 
ATOM     10  C   UNL A   1      33.461  21.895  24.620  1.00  0.00     0.016 A 
ATOM     11  C   UNL A   1      32.685  21.415  25.674  1.00  0.00     0.001 A 
BRANCH   7  12
ATOM     12  N   UNL A   1      33.425  25.567  25.475  1.00  0.00    -0.380 N 
ATOM     13  H   UNL A   1      34.183  25.953  24.979  1.00  0.00     0.160 HD
BRANCH  12  14
ATOM     14  C   UNL A   1      32.541  26.529  26.112  1.00  0.00     0.152 C 
BRANCH  14  15
ATOM     15  C   UNL A   1      31.813  27.416  25.167  1.00  0.00     0.012 A 
ATOM     16  N   UNL A   1      30.404  28.249  23.703  1.00  0.00    -0.270 N 
ATOM     17  N   UNL A   1      31.178  29.296  24.072  1.00  0.00    -0.181 NA
ATOM     18  C   UNL A   1      30.755  27.083  24.338  1.00  0.00     0.040 A 
ATOM     19  C   UNL A   1      32.037  28.789  24.949  1.00  0.00     0.141 A 
ATOM     20  C   UNL A   1      30.137  25.739  24.213  1.00  0.00     0.067 C 
BRANCH  16  21
ATOM     21  C   UNL A   1      29.390  28.564  22.717  1.00  0.00     0.141 C 
ATOM     22  C   UNL A   1      27.937  28.595  23.140  1.00  0.00     0.029 C 
ENDBRANCH  16  21
ENDBRANCH  14  15
ENDBRANCH  12  14
ENDBRANCH   7  12
ENDBRANCH   3   6
ENDBRANCH   1   2
BRANCH   1  23
ATOM     23  C   UNL A   1      37.137  22.321  25.675  1.00  0.00     0.042 C 
BRANCH  23  24
ATOM     24  C   UNL A   1      38.606  21.962  25.894  1.00  0.00     0.118 C 
BRANCH  24  25
ATOM     25  N   UNL A   1      38.959  20.552  25.663  1.00  0.00    -0.352 N 
ATOM     26  C   UNL A   1      40.225  19.957  25.828  1.00  0.00     0.251 C 
ATOM     27  H   UNL A   1      38.231  19.963  25.360  1.00  0.00     0.163 HD
ATOM     28  O   UNL A   1      40.460  18.830  25.455  1.00  0.00    -0.269 OA
BRANCH  26  29
ATOM     29  C   UNL A   1      41.252  20.797  26.469  1.00  0.00     0.039 A 
ATOM     30  C   UNL A   1      41.869  21.808  25.732  1.00  0.00     0.014 A 
ATOM     31  C   UNL A   1      41.249  20.804  27.853  1.00  0.00     0.014 A 
ATOM     32  C   UNL A   1      42.310  22.952  26.403  1.00  0.00     0.010 A 
ATOM     33  C   UNL A   1      41.526  22.001  28.480  1.00  0.00     0.010 A 
ATOM     34  C   UNL A   1      42.048  23.094  27.776  1.00  0.00    -0.014 A 
BRANCH  34  35
ATOM     35  C   UNL A   1      42.149  24.417  28.417  1.00  0.00     0.031 A 
ATOM     36  C   UNL A   1      40.984  25.359  28.275  1.00  0.00     0.074 A 
ATOM     37  C   UNL A   1      43.108  24.768  29.304  1.00  0.00     0.049 A 
ATOM     38  N   UNL A   1      40.969  26.496  27.653  1.00  0.00    -0.248 NA
ATOM     39  C   UNL A   1      39.682  24.990  28.849  1.00  0.00     0.031 C 
ATOM     40  C   UNL A   1      44.189  23.953  29.871  1.00  0.00     0.029 A 
ATOM     41  N   UNL A   1      43.207  25.925  30.018  1.00  0.00    -0.354 N 
ATOM     42  C   UNL A   1      39.727  27.082  27.915  1.00  0.00     0.074 A 
ATOM     43  C   UNL A   1      38.932  26.053  28.540  1.00  0.00     0.031 C 
ATOM     44  C   UNL A   1      44.609  24.506  31.027  1.00  0.00     0.029 A 
ATOM     45  C   UNL A   1      44.003  25.814  31.148  1.00  0.00     0.049 A 
ATOM     46  H   UNL A   1      42.755  26.760  29.757  1.00  0.00     0.167 HD
ATOM     47  C   UNL A   1      39.508  28.421  27.760  1.00  0.00     0.034 A 
ATOM     48  C   UNL A   1      44.160  26.729  32.129  1.00  0.00     0.034 A 
ATOM     49  C   UNL A   1      40.594  29.063  27.060  1.00  0.00     0.049 A 
ATOM     50  C   UNL A   1      43.836  28.049  31.543  1.00  0.00     0.074 A 
ATOM     51  C   UNL A   1      41.223  28.885  25.844  1.00  0.00     0.029 A 
ATOM     52  N   UNL A   1      41.442  29.855  27.796  1.00  0.00    -0.354 N 
ATOM     53  N   UNL A   1      44.538  28.604  30.592  1.00  0.00    -0.248 NA
ATOM     54  C   UNL A   1      42.496  28.579  31.722  1.00  0.00     0.031 C 
ATOM     55  C   UNL A   1      42.605  29.106  26.121  1.00  0.00     0.029 A 
ATOM     56  C   UNL A   1      42.711  29.458  27.470  1.00  0.00     0.049 A 
ATOM     57  H   UNL A   1      41.188  30.563  28.431  1.00  0.00     0.167 HD
ATOM     58  C   UNL A   1      43.596  29.214  29.775  1.00  0.00     0.074 A 
ATOM     59  C   UNL A   1      42.382  29.277  30.589  1.00  0.00     0.031 C 
ATOM     60  C   UNL A   1      43.792  29.349  28.426  1.00  0.00     0.034 A 
BRANCH  47  61
ATOM     61  C   UNL A   1      38.474  29.264  28.477  1.00  0.00     0.023 A 
ATOM     62  C   UNL A   1      37.754  30.212  27.708  1.00  0.00     0.012 A 
ATOM     63  C   UNL A   1      38.362  29.369  29.879  1.00  0.00     0.148 A 
ATOM     64  C   UNL A   1      37.014  31.243  28.301  1.00  0.00     0.002 A 
ATOM     65  C   UNL A   1      37.560  30.347  30.463  1.00  0.00     0.091 A 
ATOM     66  F   UNL A   1      39.136  28.616  30.667  1.00  0.00    -0.205 F 
ATOM     67  C   UNL A   1      36.910  31.307  29.682  1.00  0.00     0.022 A 
BRANCH  65  68
ATOM     68  S   UNL A   1      37.335  30.424  32.245  1.00  0.00     0.127 S 
ATOM     69  O   UNL A   1      36.284  31.429  32.365  1.00  0.00    -0.237 OA
ATOM     70  O   UNL A   1      36.924  29.056  32.562  1.00  0.00    -0.237 OA
ATOM     71  O   UNL A   1      38.645  30.787  32.770  1.00  0.00    -0.744 OA
ENDBRANCH  65  68
ENDBRANCH  47  61
BRANCH  48  72
ATOM     72  C   UNL A   1      44.425  26.498  33.562  1.00  0.00     0.023 A 
ATOM     73  C   UNL A   1      45.737  26.575  34.057  1.00  0.00     0.012 A 
ATOM     74  C   UNL A   1      43.360  26.428  34.492  1.00  0.00     0.148 A 
ATOM     75  C   UNL A   1      45.983  26.600  35.436  1.00  0.00     0.002 A 
ATOM     76  C   UNL A   1      43.610  26.441  35.860  1.00  0.00     0.091 A 
ATOM     77  F   UNL A   1      42.099  26.439  34.036  1.00  0.00    -0.205 F 
ATOM     78  C   UNL A   1      44.922  26.537  36.337  1.00  0.00     0.022 A 
BRANCH  76  79
ATOM     79  S   UNL A   1      42.280  26.364  37.069  1.00  0.00     0.127 S 
ATOM     80  O   UNL A   1      41.484  27.543  36.727  1.00  0.00    -0.237 OA
ATOM     81  O   UNL A   1      41.651  25.087  36.748  1.00  0.00    -0.237 OA
ATOM     82  O   UNL A   1      42.934  26.444  38.369  1.00  0.00    -0.744 OA
ENDBRANCH  76  79
ENDBRANCH  48  72
BRANCH  60  83
ATOM     83  C   UNL A   1      45.151  29.035  27.842  1.00  0.00     0.023 A 
ATOM     84  C   UNL A   1      46.204  29.973  27.869  1.00  0.00     0.012 A 
ATOM     85  C   UNL A   1      45.442  27.709  27.470  1.00  0.00     0.148 A 
ATOM     86  C   UNL A   1      47.506  29.608  27.517  1.00  0.00     0.002 A 
ATOM     87  C   UNL A   1      46.748  27.336  27.169  1.00  0.00     0.091 A 
ATOM     88  F   UNL A   1      44.438  26.818  27.455  1.00  0.00    -0.205 F 
ATOM     89  C   UNL A   1      47.781  28.285  27.181  1.00  0.00     0.022 A 
BRANCH  87  90
ATOM     90  S   UNL A   1      47.191  25.621  26.872  1.00  0.00     0.127 S 
ATOM     91  O   UNL A   1      46.842  24.990  28.142  1.00  0.00    -0.237 OA
ATOM     92  O   UNL A   1      46.324  25.257  25.750  1.00  0.00    -0.237 OA
ATOM     93  O   UNL A   1      48.611  25.631  26.541  1.00  0.00    -0.744 OA
ENDBRANCH  87  90
ENDBRANCH  60  83
ENDBRANCH  34  35
ENDBRANCH  26  29
ENDBRANCH  24  25
ENDBRANCH  23  24
ENDBRANCH   1  23
TORSDOF 17
ENDMDL
MODEL 3
REMARK VINA RESULT:     -11.0      3.372      7.313
REMARK SMILES CCn1ncc(CNc2ccccc2C(=O)NCCCNC(=O)c2ccc(-c3c4nc(c(-c5cccc(S(=O)(=O)[O-])c5F)c5ccc([nH]5)c(-c5cccc(S(=O)(=O)[O-])c5F)c5nc(c(-c6cccc(S(=O)(=O)[O-])c6F)c6ccc3[nH]6)C=C5)C=C4)cc2)c1C
REMARK SMILES IDX 18 1 17 2 15 3 16 4 14 6 9 7 10 8 11 9 13 10 12 11 8 12 7 14
REMARK SMILES IDX 6 15 3 16 4 17 87 18 5 19 88 20 2 21 1 22 19 23 20 24 21 25
REMARK SMILES IDX 22 26 23 28 24 29 25 30 86 31 26 32 85 33 27 34 28 35 29 36
REMARK SMILES IDX 79 37 30 38 84 39 78 40 80 41 31 42 83 43 77 44 76 45 32 47
REMARK SMILES IDX 64 48 44 49 63 50 45 51 48 52 62 53 81 54 46 55 47 56 61 58
REMARK SMILES IDX 82 59 49 60 33 61 34 62 42 63 35 64 37 65 43 66 36 67 38 68
REMARK SMILES IDX 39 69 40 70 41 71 65 72 66 73 74 74 67 75 69 76 75 77 68 78
REMARK SMILES IDX 70 79 71 80 72 81 73 82 50 83 51 84 59 85 52 86 54 87 60 88
REMARK SMILES IDX 53 89 55 90 56 91 57 92 58 93
REMARK H PARENT 17 5 8 13 21 27 80 46 48 57
REMARK Flexibility Score: inf
ROOT
ATOM      1  C   UNL A   1      32.634  28.122  27.254  1.00  0.00     0.118 C 
ENDROOT
BRANCH   1   2
ATOM      2  N   UNL A   1      31.420  27.584  26.715  1.00  0.00    -0.352 N 
ATOM      3  C   UNL A   1      31.332  26.263  26.290  1.00  0.00     0.253 C 
ATOM      4  O   UNL A   1      30.337  25.597  26.578  1.00  0.00    -0.269 OA
ATOM      5  H   UNL A   1      30.627  28.163  26.644  1.00  0.00     0.163 HD
BRANCH   3   6
ATOM      6  C   UNL A   1      32.312  25.693  25.309  1.00  0.00     0.062 A 
ATOM      7  C   UNL A   1      32.262  25.666  23.899  1.00  0.00     0.047 A 
ATOM      8  C   UNL A   1      33.250  24.887  23.243  1.00  0.00     0.026 A 
ATOM      9  C   UNL A   1      34.277  24.226  23.919  1.00  0.00     0.002 A 
ATOM     10  C   UNL A   1      33.384  25.047  25.979  1.00  0.00     0.016 A 
ATOM     11  C   UNL A   1      34.362  24.328  25.294  1.00  0.00     0.001 A 
BRANCH   7  12
ATOM     12  N   UNL A   1      31.430  26.358  23.033  1.00  0.00    -0.380 N 
ATOM     13  H   UNL A   1      31.825  26.594  22.162  1.00  0.00     0.160 HD
BRANCH  12  14
ATOM     14  C   UNL A   1      30.054  26.784  23.232  1.00  0.00     0.152 C 
BRANCH  14  15
ATOM     15  C   UNL A   1      29.769  28.172  22.781  1.00  0.00     0.012 A 
ATOM     16  N   UNL A   1      28.824  30.107  22.353  1.00  0.00    -0.270 N 
ATOM     17  N   UNL A   1      30.114  30.262  21.974  1.00  0.00    -0.181 NA
ATOM     18  C   UNL A   1      28.565  28.852  22.846  1.00  0.00     0.040 A 
ATOM     19  C   UNL A   1      30.682  29.087  22.223  1.00  0.00     0.141 A 
ATOM     20  C   UNL A   1      27.287  28.311  23.374  1.00  0.00     0.067 C 
BRANCH  16  21
ATOM     21  C   UNL A   1      27.990  31.275  22.151  1.00  0.00     0.141 C 
ATOM     22  C   UNL A   1      28.577  32.649  22.393  1.00  0.00     0.029 C 
ENDBRANCH  16  21
ENDBRANCH  14  15
ENDBRANCH  12  14
ENDBRANCH   7  12
ENDBRANCH   3   6
ENDBRANCH   1   2
BRANCH   1  23
ATOM     23  C   UNL A   1      33.781  28.574  26.373  1.00  0.00     0.042 C 
BRANCH  23  24
ATOM     24  C   UNL A   1      34.807  29.394  27.154  1.00  0.00     0.118 C 
BRANCH  24  25
ATOM     25  N   UNL A   1      34.718  30.853  26.986  1.00  0.00    -0.352 N 
ATOM     26  C   UNL A   1      35.310  31.838  27.801  1.00  0.00     0.251 C 
ATOM     27  H   UNL A   1      34.190  31.174  26.221  1.00  0.00     0.163 HD
ATOM     28  O   UNL A   1      35.047  33.014  27.684  1.00  0.00    -0.269 OA
BRANCH  26  29
ATOM     29  C   UNL A   1      36.258  31.348  28.817  1.00  0.00     0.039 A 
ATOM     30  C   UNL A   1      36.252  29.997  29.166  1.00  0.00     0.014 A 
ATOM     31  C   UNL A   1      37.355  32.157  29.059  1.00  0.00     0.014 A 
ATOM     32  C   UNL A   1      37.450  29.407  29.578  1.00  0.00     0.010 A 
ATOM     33  C   UNL A   1      38.562  31.532  29.297  1.00  0.00     0.010 A 
ATOM     34  C   UNL A   1      38.638  30.156  29.549  1.00  0.00    -0.014 A 
BRANCH  34  35
ATOM     35  C   UNL A   1      39.945  29.476  29.602  1.00  0.00     0.031 A 
ATOM     36  C   UNL A   1      40.532  29.184  30.957  1.00  0.00     0.074 A 
ATOM     37  C   UNL A   1      40.551  28.897  28.541  1.00  0.00     0.049 A 
ATOM     38  N   UNL A   1      41.616  29.682  31.462  1.00  0.00    -0.248 NA
ATOM     39  C   UNL A   1      39.826  28.273  31.869  1.00  0.00     0.031 C 
ATOM     40  C   UNL A   1      40.066  28.751  27.163  1.00  0.00     0.029 A 
ATOM     41  N   UNL A   1      41.697  28.159  28.530  1.00  0.00    -0.354 N 
ATOM     42  C   UNL A   1      41.843  29.012  32.668  1.00  0.00     0.074 A 
ATOM     43  C   UNL A   1      40.642  28.257  32.929  1.00  0.00     0.031 C 
ATOM     44  C   UNL A   1      40.724  27.737  26.562  1.00  0.00     0.029 A 
ATOM     45  C   UNL A   1      41.818  27.337  27.420  1.00  0.00     0.049 A 
ATOM     46  H   UNL A   1      42.375  28.206  29.243  1.00  0.00     0.167 HD
ATOM     47  C   UNL A   1      43.070  28.989  33.267  1.00  0.00     0.034 A 
ATOM     48  C   UNL A   1      42.749  26.382  27.209  1.00  0.00     0.034 A 
ATOM     49  C   UNL A   1      43.978  29.933  32.662  1.00  0.00     0.049 A 
ATOM     50  C   UNL A   1      43.925  26.737  28.034  1.00  0.00     0.074 A 
ATOM     51  C   UNL A   1      43.968  31.292  32.422  1.00  0.00     0.029 A 
ATOM     52  N   UNL A   1      44.977  29.430  31.864  1.00  0.00    -0.354 N 
ATOM     53  N   UNL A   1      44.643  27.810  27.836  1.00  0.00    -0.248 NA
ATOM     54  C   UNL A   1      44.071  26.120  29.339  1.00  0.00     0.031 C 
ATOM     55  C   UNL A   1      44.560  31.431  31.131  1.00  0.00     0.029 A 
ATOM     56  C   UNL A   1      44.939  30.155  30.704  1.00  0.00     0.049 A 
ATOM     57  H   UNL A   1      45.595  28.695  32.083  1.00  0.00     0.167 HD
ATOM     58  C   UNL A   1      44.966  28.253  29.111  1.00  0.00     0.074 A 
ATOM     59  C   UNL A   1      44.702  27.107  29.981  1.00  0.00     0.031 C 
ATOM     60  C   UNL A   1      45.137  29.583  29.390  1.00  0.00     0.034 A 
BRANCH  47  61
ATOM     61  C   UNL A   1      43.606  27.928  34.207  1.00  0.00     0.023 A 
ATOM     62  C   UNL A   1      44.238  28.366  35.397  1.00  0.00     0.012 A 
ATOM     63  C   UNL A   1      43.764  26.568  33.869  1.00  0.00     0.148 A 
ATOM     64  C   UNL A   1      45.032  27.515  36.174  1.00  0.00     0.002 A 
ATOM     65  C   UNL A   1      44.489  25.705  34.689  1.00  0.00     0.091 A 
ATOM     66  F   UNL A   1      43.334  26.121  32.685  1.00  0.00    -0.205 F 
ATOM     67  C   UNL A   1      45.152  26.179  35.824  1.00  0.00     0.022 A 
BRANCH  65  68
ATOM     68  S   UNL A   1      44.611  23.951  34.317  1.00  0.00     0.127 S 
ATOM     69  O   UNL A   1      45.397  23.966  33.088  1.00  0.00    -0.237 OA
ATOM     70  O   UNL A   1      45.310  23.435  35.494  1.00  0.00    -0.237 OA
ATOM     71  O   UNL A   1      43.230  23.498  34.201  1.00  0.00    -0.744 OA
ENDBRANCH  65  68
ENDBRANCH  47  61
BRANCH  48  72
ATOM     72  C   UNL A   1      42.611  25.119  26.458  1.00  0.00     0.023 A 
ATOM     73  C   UNL A   1      43.528  24.800  25.442  1.00  0.00     0.012 A 
ATOM     74  C   UNL A   1      41.714  24.113  26.892  1.00  0.00     0.148 A 
ATOM     75  C   UNL A   1      43.563  23.515  24.887  1.00  0.00     0.002 A 
ATOM     76  C   UNL A   1      41.746  22.843  26.328  1.00  0.00     0.091 A 
ATOM     77  F   UNL A   1      40.891  24.377  27.917  1.00  0.00    -0.205 F 
ATOM     78  C   UNL A   1      42.677  22.536  25.330  1.00  0.00     0.022 A 
BRANCH  76  79
ATOM     79  S   UNL A   1      40.627  21.539  26.863  1.00  0.00     0.127 S 
ATOM     80  O   UNL A   1      41.142  20.375  26.142  1.00  0.00    -0.237 OA
ATOM     81  O   UNL A   1      40.854  21.517  28.305  1.00  0.00    -0.237 OA
ATOM     82  O   UNL A   1      39.301  21.967  26.433  1.00  0.00    -0.744 OA
ENDBRANCH  76  79
ENDBRANCH  48  72
BRANCH  60  83
ATOM     83  C   UNL A   1      45.201  30.575  28.250  1.00  0.00     0.023 A 
ATOM     84  C   UNL A   1      44.032  31.096  27.655  1.00  0.00     0.012 A 
ATOM     85  C   UNL A   1      46.438  31.163  27.928  1.00  0.00     0.148 A 
ATOM     86  C   UNL A   1      44.095  32.159  26.750  1.00  0.00     0.002 A 
ATOM     87  C   UNL A   1      46.493  32.253  27.065  1.00  0.00     0.091 A 
ATOM     88  F   UNL A   1      47.545  30.670  28.504  1.00  0.00    -0.205 F 
ATOM     89  C   UNL A   1      45.324  32.748  26.466  1.00  0.00     0.022 A 
BRANCH  87  90
ATOM     90  S   UNL A   1      48.024  33.146  26.774  1.00  0.00     0.127 S 
ATOM     91  O   UNL A   1      47.645  34.063  25.702  1.00  0.00    -0.237 OA
ATOM     92  O   UNL A   1      48.270  33.787  28.067  1.00  0.00    -0.237 OA
ATOM     93  O   UNL A   1      49.011  32.133  26.420  1.00  0.00    -0.744 OA
ENDBRANCH  87  90
ENDBRANCH  60  83
ENDBRANCH  34  35
ENDBRANCH  26  29
ENDBRANCH  24  25
ENDBRANCH  23  24
ENDBRANCH   1  23
TORSDOF 17
ENDMDL
