MODEL 1
REMARK VINA RESULT:     -11.6      0.000      0.000
REMARK SMILES COc1ccc2c(c1)c(Cc1nc(-c3ccc(C(=O)NCCCNC(=O)c4ccc(-c5c6nc(c(-c7cccc(S(=O)(=O)[O-])c7F)c7ccc([nH]7)c(-c7cccc(S(=O)(=O)[O-])c7F)c7nc(c(-c8cccc(S(=O)(=O)[O-])c8F)c8ccc5[nH]8)C=C7)C=C6)cc4)cc3)cs1)c(C)n2C(=O)c1ccc(Cl)cc1
REMARK SMILES IDX 21 1 20 2 18 3 19 4 17 6 14 7 15 8 91 9 16 10 90 11 13 12
REMARK SMILES IDX 11 13 12 14 93 15 92 16 10 17 9 18 3 19 4 20 8 21 5 22 7 23
REMARK SMILES IDX 6 24 96 25 94 26 95 27 2 28 1 29 97 30 98 31 99 32 100 33
REMARK SMILES IDX 105 34 101 35 104 36 102 37 103 38 22 39 23 40 24 41 25 42
REMARK SMILES IDX 26 44 27 45 28 46 89 47 29 48 88 49 30 50 31 51 32 52 82 53
REMARK SMILES IDX 33 54 87 55 81 56 83 57 34 58 86 59 80 60 79 61 35 63 67 64
REMARK SMILES IDX 47 65 66 66 48 67 51 68 65 69 84 70 49 71 50 72 64 74 85 75
REMARK SMILES IDX 52 76 36 77 37 78 45 79 38 80 40 81 46 82 39 83 41 84 42 85
REMARK SMILES IDX 43 86 44 87 68 88 69 89 77 90 70 91 72 92 78 93 71 94 73 95
REMARK SMILES IDX 74 96 75 97 76 98 53 99 54 100 62 101 55 102 57 103 63 104
REMARK SMILES IDX 56 105 58 106 59 107 60 108 61 109
REMARK H PARENT 20 5 24 43 83 62 51 73
REMARK Flexibility Score: inf
ROOT
ATOM      1  C   UNL A   1      32.430  27.994  23.444  1.00  0.00     0.118 C 
ENDROOT
BRANCH   1   2
ATOM      2  N   UNL A   1      31.652  26.824  23.067  1.00  0.00    -0.352 N 
ATOM      3  C   UNL A   1      31.820  25.473  23.265  1.00  0.00     0.251 C 
ATOM      4  O   UNL A   1      30.934  24.726  22.844  1.00  0.00    -0.269 OA
ATOM      5  H   UNL A   1      30.835  27.044  22.565  1.00  0.00     0.163 HD
BRANCH   3   6
ATOM      6  C   UNL A   1      33.033  24.865  23.881  1.00  0.00     0.039 A 
ATOM      7  C   UNL A   1      35.507  23.862  24.804  1.00  0.00     0.001 A 
ATOM      8  C   UNL A   1      35.077  23.578  23.507  1.00  0.00     0.011 A 
ATOM      9  C   UNL A   1      34.638  24.543  25.665  1.00  0.00     0.011 A 
ATOM     10  C   UNL A   1      33.854  24.084  23.048  1.00  0.00     0.014 A 
ATOM     11  C   UNL A   1      33.395  25.000  25.219  1.00  0.00     0.014 A 
BRANCH   7  12
ATOM     12  C   UNL A   1      36.795  23.418  25.311  1.00  0.00     0.081 A 
ATOM     13  C   UNL A   1      38.634  23.676  26.519  1.00  0.00     0.098 A 
ATOM     14  N   UNL A   1      37.571  24.286  26.046  1.00  0.00    -0.241 NA
ATOM     15  S   UNL A   1      38.857  22.070  25.953  1.00  0.00    -0.126 S 
ATOM     16  C   UNL A   1      37.364  22.178  25.105  1.00  0.00     0.095 A 
BRANCH  13  17
ATOM     17  C   UNL A   1      39.560  24.309  27.514  1.00  0.00     0.105 C 
BRANCH  17  18
ATOM     18  C   UNL A   1      41.001  24.191  27.067  1.00  0.00    -0.012 A 
ATOM     19  C   UNL A   1      42.338  27.279  25.245  1.00  0.00     0.119 A 
ATOM     20  C   UNL A   1      43.591  26.763  24.972  1.00  0.00     0.048 A 
ATOM     21  C   UNL A   1      41.410  26.499  25.930  1.00  0.00     0.057 A 
ATOM     22  C   UNL A   1      43.925  25.463  25.364  1.00  0.00     0.031 A 
ATOM     23  C   UNL A   1      41.737  25.194  26.373  1.00  0.00     0.008 A 
ATOM     24  C   UNL A   1      43.015  24.689  26.119  1.00  0.00     0.057 A 
ATOM     25  N   UNL A   1      43.116  23.422  26.733  1.00  0.00    -0.280 N 
ATOM     26  C   UNL A   1      41.850  23.106  27.257  1.00  0.00     0.028 A 
ATOM     27  C   UNL A   1      41.474  21.830  27.942  1.00  0.00     0.065 C 
BRANCH  19  28
ATOM     28  O   UNL A   1      41.949  28.550  24.924  1.00  0.00    -0.497 OA
ATOM     29  C   UNL A   1      42.277  29.521  25.913  1.00  0.00     0.278 C 
ENDBRANCH  19  28
BRANCH  25  30
ATOM     30  C   UNL A   1      44.293  22.619  26.799  1.00  0.00     0.262 C 
ATOM     31  O   UNL A   1      45.078  22.762  27.741  1.00  0.00    -0.268 OA
BRANCH  30  32
ATOM     32  C   UNL A   1      44.670  21.573  25.836  1.00  0.00     0.040 A 
ATOM     33  C   UNL A   1      45.797  21.715  25.017  1.00  0.00     0.015 A 
ATOM     34  C   UNL A   1      43.843  20.448  25.727  1.00  0.00     0.015 A 
ATOM     35  C   UNL A   1      46.038  20.769  24.018  1.00  0.00     0.021 A 
ATOM     36  C   UNL A   1      44.098  19.501  24.735  1.00  0.00     0.021 A 
ATOM     37  C   UNL A   1      45.180  19.676  23.872  1.00  0.00     0.041 A 
ATOM     38  Cl  UNL A   1      45.442  18.549  22.600  1.00  0.00    -0.084 Cl
ENDBRANCH  30  32
ENDBRANCH  25  30
ENDBRANCH  17  18
ENDBRANCH  13  17
ENDBRANCH   7  12
ENDBRANCH   3   6
ENDBRANCH   1   2
BRANCH   1  39
ATOM     39  C   UNL A   1      31.786  28.872  24.510  1.00  0.00     0.042 C 
BRANCH  39  40
ATOM     40  C   UNL A   1      32.554  29.017  25.821  1.00  0.00     0.118 C 
BRANCH  40  41
ATOM     41  N   UNL A   1      32.183  30.153  26.638  1.00  0.00    -0.352 N 
ATOM     42  C   UNL A   1      32.860  31.140  27.300  1.00  0.00     0.251 C 
ATOM     43  H   UNL A   1      31.207  30.235  26.743  1.00  0.00     0.163 HD
ATOM     44  O   UNL A   1      32.163  32.074  27.706  1.00  0.00    -0.269 OA
BRANCH  42  45
ATOM     45  C   UNL A   1      34.311  31.130  27.632  1.00  0.00     0.039 A 
ATOM     46  C   UNL A   1      35.053  30.011  28.007  1.00  0.00     0.014 A 
ATOM     47  C   UNL A   1      34.942  32.390  27.647  1.00  0.00     0.014 A 
ATOM     48  C   UNL A   1      36.338  30.164  28.521  1.00  0.00     0.010 A 
ATOM     49  C   UNL A   1      36.237  32.545  28.128  1.00  0.00     0.010 A 
ATOM     50  C   UNL A   1      36.911  31.437  28.623  1.00  0.00    -0.014 A 
BRANCH  50  51
ATOM     51  C   UNL A   1      38.274  31.542  29.139  1.00  0.00     0.031 A 
ATOM     52  C   UNL A   1      39.019  30.252  29.126  1.00  0.00     0.074 A 
ATOM     53  C   UNL A   1      38.854  32.704  29.508  1.00  0.00     0.049 A 
ATOM     54  N   UNL A   1      39.401  29.546  30.141  1.00  0.00    -0.248 NA
ATOM     55  C   UNL A   1      39.226  29.593  27.827  1.00  0.00     0.031 C 
ATOM     56  C   UNL A   1      38.339  34.062  29.306  1.00  0.00     0.029 A 
ATOM     57  N   UNL A   1      40.093  32.926  30.040  1.00  0.00    -0.354 N 
ATOM     58  C   UNL A   1      40.105  28.471  29.601  1.00  0.00     0.074 A 
ATOM     59  C   UNL A   1      39.817  28.454  28.192  1.00  0.00     0.031 C 
ATOM     60  C   UNL A   1      39.344  34.953  29.476  1.00  0.00     0.029 A 
ATOM     61  C   UNL A   1      40.523  34.250  29.944  1.00  0.00     0.049 A 
ATOM     62  H   UNL A   1      40.633  32.215  30.454  1.00  0.00     0.167 HD
ATOM     63  C   UNL A   1      41.083  27.835  30.301  1.00  0.00     0.034 A 
ATOM     64  C   UNL A   1      41.781  34.702  30.177  1.00  0.00     0.034 A 
ATOM     65  C   UNL A   1      41.057  28.187  31.693  1.00  0.00     0.049 A 
ATOM     66  C   UNL A   1      42.426  33.714  31.068  1.00  0.00     0.074 A 
ATOM     67  C   UNL A   1      40.256  27.923  32.780  1.00  0.00     0.029 A 
ATOM     68  N   UNL A   1      41.819  29.284  31.993  1.00  0.00    -0.354 N 
ATOM     69  N   UNL A   1      42.044  33.486  32.292  1.00  0.00    -0.248 NA
ATOM     70  C   UNL A   1      43.350  32.739  30.502  1.00  0.00     0.031 C 
ATOM     71  C   UNL A   1      40.379  29.061  33.632  1.00  0.00     0.029 A 
ATOM     72  C   UNL A   1      41.275  29.958  33.050  1.00  0.00     0.049 A 
ATOM     73  H   UNL A   1      42.640  29.547  31.518  1.00  0.00     0.167 HD
ATOM     74  C   UNL A   1      42.315  32.144  32.479  1.00  0.00     0.074 A 
ATOM     75  C   UNL A   1      43.276  31.795  31.443  1.00  0.00     0.031 C 
ATOM     76  C   UNL A   1      41.496  31.373  33.247  1.00  0.00     0.034 A 
BRANCH  63  77
ATOM     77  C   UNL A   1      42.337  27.265  29.680  1.00  0.00     0.023 A 
ATOM     78  C   UNL A   1      42.626  25.898  29.891  1.00  0.00     0.012 A 
ATOM     79  C   UNL A   1      43.379  28.067  29.160  1.00  0.00     0.148 A 
ATOM     80  C   UNL A   1      43.884  25.360  29.592  1.00  0.00     0.002 A 
ATOM     81  C   UNL A   1      44.601  27.515  28.796  1.00  0.00     0.091 A 
ATOM     82  F   UNL A   1      43.243  29.397  29.147  1.00  0.00    -0.205 F 
ATOM     83  C   UNL A   1      44.867  26.164  29.028  1.00  0.00     0.022 A 
BRANCH  81  84
ATOM     84  S   UNL A   1      45.895  28.508  28.043  1.00  0.00     0.127 S 
ATOM     85  O   UNL A   1      45.189  29.097  26.909  1.00  0.00    -0.237 OA
ATOM     86  O   UNL A   1      46.221  29.440  29.124  1.00  0.00    -0.237 OA
ATOM     87  O   UNL A   1      46.963  27.572  27.720  1.00  0.00    -0.744 OA
ENDBRANCH  81  84
ENDBRANCH  63  77
BRANCH  64  88
ATOM     88  C   UNL A   1      42.590  35.759  29.512  1.00  0.00     0.023 A 
ATOM     89  C   UNL A   1      42.408  35.975  28.126  1.00  0.00     0.012 A 
ATOM     90  C   UNL A   1      43.242  36.766  30.253  1.00  0.00     0.148 A 
ATOM     91  C   UNL A   1      42.754  37.191  27.525  1.00  0.00     0.002 A 
ATOM     92  C   UNL A   1      43.592  37.971  29.649  1.00  0.00     0.091 A 
ATOM     93  F   UNL A   1      43.427  36.589  31.567  1.00  0.00    -0.205 F 
ATOM     94  C   UNL A   1      43.324  38.199  28.293  1.00  0.00     0.022 A 
BRANCH  92  95
ATOM     95  S   UNL A   1      44.326  39.322  30.582  1.00  0.00     0.127 S 
ATOM     96  O   UNL A   1      45.696  38.848  30.785  1.00  0.00    -0.237 OA
ATOM     97  O   UNL A   1      44.196  40.438  29.651  1.00  0.00    -0.237 OA
ATOM     98  O   UNL A   1      43.543  39.417  31.808  1.00  0.00    -0.744 OA
ENDBRANCH  92  95
ENDBRANCH  64  88
BRANCH  76  99
ATOM     99  C   UNL A   1      40.609  32.073  34.232  1.00  0.00     0.023 A 
ATOM    100  C   UNL A   1      41.069  32.547  35.476  1.00  0.00     0.012 A 
ATOM    101  C   UNL A   1      39.305  32.381  33.814  1.00  0.00     0.148 A 
ATOM    102  C   UNL A   1      40.235  33.320  36.288  1.00  0.00     0.002 A 
ATOM    103  C   UNL A   1      38.495  33.181  34.605  1.00  0.00     0.091 A 
ATOM    104  F   UNL A   1      38.898  31.914  32.623  1.00  0.00    -0.205 F 
ATOM    105  C   UNL A   1      38.953  33.649  35.847  1.00  0.00     0.022 A 
BRANCH 103 106
ATOM    106  S   UNL A   1      36.880  33.727  34.049  1.00  0.00     0.127 S 
ATOM    107  O   UNL A   1      36.331  32.508  33.459  1.00  0.00    -0.237 OA
ATOM    108  O   UNL A   1      36.248  34.140  35.302  1.00  0.00    -0.237 OA
ATOM    109  O   UNL A   1      37.118  34.816  33.109  1.00  0.00    -0.744 OA
ENDBRANCH 103 106
ENDBRANCH  76  99
ENDBRANCH  50  51
ENDBRANCH  42  45
ENDBRANCH  40  41
ENDBRANCH  39  40
ENDBRANCH   1  39
TORSDOF 19
ENDMDL
MODEL 2
REMARK VINA RESULT:     -11.5      4.388     11.733
REMARK SMILES COc1ccc2c(c1)c(Cc1nc(-c3ccc(C(=O)NCCCNC(=O)c4ccc(-c5c6nc(c(-c7cccc(S(=O)(=O)[O-])c7F)c7ccc([nH]7)c(-c7cccc(S(=O)(=O)[O-])c7F)c7nc(c(-c8cccc(S(=O)(=O)[O-])c8F)c8ccc5[nH]8)C=C7)C=C6)cc4)cc3)cs1)c(C)n2C(=O)c1ccc(Cl)cc1
REMARK SMILES IDX 21 1 20 2 18 3 19 4 17 6 14 7 15 8 91 9 16 10 90 11 13 12
REMARK SMILES IDX 11 13 12 14 93 15 92 16 10 17 9 18 3 19 4 20 8 21 5 22 7 23
REMARK SMILES IDX 6 24 96 25 94 26 95 27 2 28 1 29 97 30 98 31 99 32 100 33
REMARK SMILES IDX 105 34 101 35 104 36 102 37 103 38 22 39 23 40 24 41 25 42
REMARK SMILES IDX 26 44 27 45 28 46 89 47 29 48 88 49 30 50 31 51 32 52 82 53
REMARK SMILES IDX 33 54 87 55 81 56 83 57 34 58 86 59 80 60 79 61 35 63 67 64
REMARK SMILES IDX 47 65 66 66 48 67 51 68 65 69 84 70 49 71 50 72 64 74 85 75
REMARK SMILES IDX 52 76 36 77 37 78 45 79 38 80 40 81 46 82 39 83 41 84 42 85
REMARK SMILES IDX 43 86 44 87 68 88 69 89 77 90 70 91 72 92 78 93 71 94 73 95
REMARK SMILES IDX 74 96 75 97 76 98 53 99 54 100 62 101 55 102 57 103 63 104
REMARK SMILES IDX 56 105 58 106 59 107 60 108 61 109
REMARK H PARENT 20 5 24 43 83 62 51 73
REMARK Flexibility Score: inf
ROOT
ATOM      1  C   UNL A   1      46.172  24.295  36.684  1.00  0.00     0.118 C 
ENDROOT
BRANCH   1   2
ATOM      2  N   UNL A   1      45.335  23.326  35.993  1.00  0.00    -0.352 N 
ATOM      3  C   UNL A   1      44.210  23.437  35.211  1.00  0.00     0.251 C 
ATOM      4  O   UNL A   1      43.753  22.398  34.727  1.00  0.00    -0.269 OA
ATOM      5  H   UNL A   1      45.637  22.397  36.110  1.00  0.00     0.163 HD
BRANCH   3   6
ATOM      6  C   UNL A   1      43.475  24.714  34.982  1.00  0.00     0.039 A 
ATOM      7  C   UNL A   1      42.110  27.066  34.219  1.00  0.00     0.001 A 
ATOM      8  C   UNL A   1      43.406  26.830  33.761  1.00  0.00     0.011 A 
ATOM      9  C   UNL A   1      41.557  26.181  35.153  1.00  0.00     0.011 A 
ATOM     10  C   UNL A   1      44.078  25.658  34.132  1.00  0.00     0.014 A 
ATOM     11  C   UNL A   1      42.253  25.040  35.563  1.00  0.00     0.014 A 
BRANCH   7  12
ATOM     12  C   UNL A   1      41.341  28.231  33.815  1.00  0.00     0.081 A 
ATOM     13  C   UNL A   1      39.479  29.234  33.157  1.00  0.00     0.098 A 
ATOM     14  N   UNL A   1      40.053  28.070  33.358  1.00  0.00    -0.241 NA
ATOM     15  S   UNL A   1      40.517  30.590  33.328  1.00  0.00    -0.126 S 
ATOM     16  C   UNL A   1      41.789  29.537  33.810  1.00  0.00     0.095 A 
BRANCH  13  17
ATOM     17  C   UNL A   1      38.018  29.379  32.848  1.00  0.00     0.105 C 
BRANCH  17  18
ATOM     18  C   UNL A   1      37.805  29.786  31.406  1.00  0.00    -0.012 A 
ATOM     19  C   UNL A   1      40.357  28.312  28.965  1.00  0.00     0.119 A 
ATOM     20  C   UNL A   1      39.869  28.943  27.836  1.00  0.00     0.048 A 
ATOM     21  C   UNL A   1      39.743  28.535  30.195  1.00  0.00     0.057 A 
ATOM     22  C   UNL A   1      38.776  29.811  27.924  1.00  0.00     0.031 A 
ATOM     23  C   UNL A   1      38.609  29.377  30.304  1.00  0.00     0.008 A 
ATOM     24  C   UNL A   1      38.103  29.989  29.154  1.00  0.00     0.057 A 
ATOM     25  N   UNL A   1      36.935  30.695  29.512  1.00  0.00    -0.280 N 
ATOM     26  C   UNL A   1      36.802  30.610  30.908  1.00  0.00     0.028 A 
ATOM     27  C   UNL A   1      35.739  31.265  31.734  1.00  0.00     0.065 C 
BRANCH  19  28
ATOM     28  O   UNL A   1      41.399  27.426  28.956  1.00  0.00    -0.497 OA
ATOM     29  C   UNL A   1      42.280  27.558  30.067  1.00  0.00     0.278 C 
ENDBRANCH  19  28
BRANCH  25  30
ATOM     30  C   UNL A   1      36.059  31.369  28.609  1.00  0.00     0.262 C 
ATOM     31  O   UNL A   1      36.219  32.572  28.386  1.00  0.00    -0.268 OA
BRANCH  30  32
ATOM     32  C   UNL A   1      34.955  30.745  27.863  1.00  0.00     0.040 A 
ATOM     33  C   UNL A   1      33.795  31.466  27.549  1.00  0.00     0.015 A 
ATOM     34  C   UNL A   1      35.075  29.395  27.514  1.00  0.00     0.015 A 
ATOM     35  C   UNL A   1      32.714  30.798  26.969  1.00  0.00     0.021 A 
ATOM     36  C   UNL A   1      33.996  28.738  26.923  1.00  0.00     0.021 A 
ATOM     37  C   UNL A   1      32.814  29.436  26.673  1.00  0.00     0.041 A 
ATOM     38  Cl  UNL A   1      31.459  28.603  26.019  1.00  0.00    -0.084 Cl
ENDBRANCH  30  32
ENDBRANCH  25  30
ENDBRANCH  17  18
ENDBRANCH  13  17
ENDBRANCH   7  12
ENDBRANCH   3   6
ENDBRANCH   1   2
BRANCH   1  39
ATOM     39  C   UNL A   1      47.551  23.781  37.079  1.00  0.00     0.042 C 
BRANCH  39  40
ATOM     40  C   UNL A   1      48.356  23.094  35.980  1.00  0.00     0.118 C 
BRANCH  40  41
ATOM     41  N   UNL A   1      49.598  23.746  35.618  1.00  0.00    -0.352 N 
ATOM     42  C   UNL A   1      49.957  24.751  34.764  1.00  0.00     0.251 C 
ATOM     43  H   UNL A   1      50.370  23.376  36.104  1.00  0.00     0.163 HD
ATOM     44  O   UNL A   1      51.105  25.179  34.909  1.00  0.00    -0.269 OA
BRANCH  42  45
ATOM     45  C   UNL A   1      49.125  25.290  33.653  1.00  0.00     0.039 A 
ATOM     46  C   UNL A   1      47.895  25.930  33.793  1.00  0.00     0.014 A 
ATOM     47  C   UNL A   1      49.607  25.037  32.353  1.00  0.00     0.014 A 
ATOM     48  C   UNL A   1      47.103  26.177  32.674  1.00  0.00     0.010 A 
ATOM     49  C   UNL A   1      48.835  25.311  31.230  1.00  0.00     0.010 A 
ATOM     50  C   UNL A   1      47.556  25.825  31.397  1.00  0.00    -0.014 A 
BRANCH  50  51
ATOM     51  C   UNL A   1      46.702  26.133  30.252  1.00  0.00     0.031 A 
ATOM     52  C   UNL A   1      45.791  25.019  29.868  1.00  0.00     0.074 A 
ATOM     53  C   UNL A   1      46.660  27.339  29.646  1.00  0.00     0.049 A 
ATOM     54  N   UNL A   1      45.831  24.295  28.797  1.00  0.00    -0.248 NA
ATOM     55  C   UNL A   1      44.817  24.555  30.869  1.00  0.00     0.031 C 
ATOM     56  C   UNL A   1      47.286  28.587  30.096  1.00  0.00     0.029 A 
ATOM     57  N   UNL A   1      45.944  27.736  28.552  1.00  0.00    -0.354 N 
ATOM     58  C   UNL A   1      44.734  23.439  28.887  1.00  0.00     0.074 A 
ATOM     59  C   UNL A   1      44.259  23.518  30.242  1.00  0.00     0.031 C 
ATOM     60  C   UNL A   1      46.729  29.630  29.437  1.00  0.00     0.029 A 
ATOM     61  C   UNL A   1      45.827  29.121  28.423  1.00  0.00     0.049 A 
ATOM     62  H   UNL A   1      45.546  27.102  27.912  1.00  0.00     0.167 HD
ATOM     63  C   UNL A   1      44.132  22.932  27.777  1.00  0.00     0.034 A 
ATOM     64  C   UNL A   1      44.994  29.778  27.577  1.00  0.00     0.034 A 
ATOM     65  C   UNL A   1      44.935  23.121  26.602  1.00  0.00     0.049 A 
ATOM     66  C   UNL A   1      44.689  28.843  26.473  1.00  0.00     0.074 A 
ATOM     67  C   UNL A   1      46.095  22.594  26.083  1.00  0.00     0.029 A 
ATOM     68  N   UNL A   1      44.692  24.306  25.960  1.00  0.00    -0.354 N 
ATOM     69  N   UNL A   1      45.577  28.417  25.620  1.00  0.00    -0.248 NA
ATOM     70  C   UNL A   1      43.419  28.129  26.472  1.00  0.00     0.031 C 
ATOM     71  C   UNL A   1      46.673  23.637  25.299  1.00  0.00     0.029 A 
ATOM     72  C   UNL A   1      45.828  24.746  25.341  1.00  0.00     0.049 A 
ATOM     73  H   UNL A   1      43.824  24.771  25.945  1.00  0.00     0.167 HD
ATOM     74  C   UNL A   1      45.151  27.139  25.309  1.00  0.00     0.074 A 
ATOM     75  C   UNL A   1      43.749  27.094  25.698  1.00  0.00     0.031 C 
ATOM     76  C   UNL A   1      46.053  26.148  25.070  1.00  0.00     0.034 A 
BRANCH  63  77
ATOM     77  C   UNL A   1      42.647  22.682  27.656  1.00  0.00     0.023 A 
ATOM     78  C   UNL A   1      42.212  21.380  27.325  1.00  0.00     0.012 A 
ATOM     79  C   UNL A   1      41.691  23.720  27.561  1.00  0.00     0.148 A 
ATOM     80  C   UNL A   1      40.893  21.126  26.927  1.00  0.00     0.002 A 
ATOM     81  C   UNL A   1      40.366  23.453  27.237  1.00  0.00     0.091 A 
ATOM     82  F   UNL A   1      42.091  24.994  27.644  1.00  0.00    -0.205 F 
ATOM     83  C   UNL A   1      39.965  22.160  26.900  1.00  0.00     0.022 A 
BRANCH  81  84
ATOM     84  S   UNL A   1      39.125  24.752  27.211  1.00  0.00     0.127 S 
ATOM     85  O   UNL A   1      38.006  24.073  26.563  1.00  0.00    -0.237 OA
ATOM     86  O   UNL A   1      38.946  25.020  28.639  1.00  0.00    -0.237 OA
ATOM     87  O   UNL A   1      39.728  25.850  26.469  1.00  0.00    -0.744 OA
ENDBRANCH  81  84
ENDBRANCH  63  77
BRANCH  64  88
ATOM     88  C   UNL A   1      44.215  31.036  27.736  1.00  0.00     0.023 A 
ATOM     89  C   UNL A   1      43.168  31.063  28.688  1.00  0.00     0.012 A 
ATOM     90  C   UNL A   1      44.698  32.270  27.255  1.00  0.00     0.148 A 
ATOM     91  C   UNL A   1      42.703  32.269  29.226  1.00  0.00     0.002 A 
ATOM     92  C   UNL A   1      44.225  33.468  27.787  1.00  0.00     0.091 A 
ATOM     93  F   UNL A   1      45.688  32.274  26.355  1.00  0.00    -0.205 F 
ATOM     94  C   UNL A   1      43.249  33.471  28.792  1.00  0.00     0.022 A 
BRANCH  92  95
ATOM     95  S   UNL A   1      44.891  35.059  27.280  1.00  0.00     0.127 S 
ATOM     96  O   UNL A   1      46.277  34.976  27.743  1.00  0.00    -0.237 OA
ATOM     97  O   UNL A   1      44.726  35.008  25.831  1.00  0.00    -0.237 OA
ATOM     98  O   UNL A   1      44.090  36.057  27.980  1.00  0.00    -0.744 OA
ENDBRANCH  92  95
ENDBRANCH  64  88
BRANCH  76  99
ATOM     99  C   UNL A   1      47.445  26.555  24.690  1.00  0.00     0.023 A 
ATOM    100  C   UNL A   1      47.790  26.990  23.396  1.00  0.00     0.012 A 
ATOM    101  C   UNL A   1      48.394  26.633  25.721  1.00  0.00     0.148 A 
ATOM    102  C   UNL A   1      49.067  27.496  23.139  1.00  0.00     0.002 A 
ATOM    103  C   UNL A   1      49.646  27.172  25.471  1.00  0.00     0.091 A 
ATOM    104  F   UNL A   1      48.032  26.211  26.943  1.00  0.00    -0.205 F 
ATOM    105  C   UNL A   1      49.991  27.601  24.179  1.00  0.00     0.022 A 
BRANCH 103 106
ATOM    106  S   UNL A   1      50.839  27.431  26.785  1.00  0.00     0.127 S 
ATOM    107  O   UNL A   1      51.932  28.097  26.080  1.00  0.00    -0.237 OA
ATOM    108  O   UNL A   1      50.095  28.286  27.710  1.00  0.00    -0.237 OA
ATOM    109  O   UNL A   1      51.157  26.110  27.313  1.00  0.00    -0.744 OA
ENDBRANCH 103 106
ENDBRANCH  76  99
ENDBRANCH  50  51
ENDBRANCH  42  45
ENDBRANCH  40  41
ENDBRANCH  39  40
ENDBRANCH   1  39
TORSDOF 19
ENDMDL
MODEL 3
REMARK VINA RESULT:     -11.5      3.498      7.742
REMARK SMILES COc1ccc2c(c1)c(Cc1nc(-c3ccc(C(=O)NCCCNC(=O)c4ccc(-c5c6nc(c(-c7cccc(S(=O)(=O)[O-])c7F)c7ccc([nH]7)c(-c7cccc(S(=O)(=O)[O-])c7F)c7nc(c(-c8cccc(S(=O)(=O)[O-])c8F)c8ccc5[nH]8)C=C7)C=C6)cc4)cc3)cs1)c(C)n2C(=O)c1ccc(Cl)cc1
REMARK SMILES IDX 21 1 20 2 18 3 19 4 17 6 14 7 15 8 91 9 16 10 90 11 13 12
REMARK SMILES IDX 11 13 12 14 93 15 92 16 10 17 9 18 3 19 4 20 8 21 5 22 7 23
REMARK SMILES IDX 6 24 96 25 94 26 95 27 2 28 1 29 97 30 98 31 99 32 100 33
REMARK SMILES IDX 105 34 101 35 104 36 102 37 103 38 22 39 23 40 24 41 25 42
REMARK SMILES IDX 26 44 27 45 28 46 89 47 29 48 88 49 30 50 31 51 32 52 82 53
REMARK SMILES IDX 33 54 87 55 81 56 83 57 34 58 86 59 80 60 79 61 35 63 67 64
REMARK SMILES IDX 47 65 66 66 48 67 51 68 65 69 84 70 49 71 50 72 64 74 85 75
REMARK SMILES IDX 52 76 36 77 37 78 45 79 38 80 40 81 46 82 39 83 41 84 42 85
REMARK SMILES IDX 43 86 44 87 68 88 69 89 77 90 70 91 72 92 78 93 71 94 73 95
REMARK SMILES IDX 74 96 75 97 76 98 53 99 54 100 62 101 55 102 57 103 63 104
REMARK SMILES IDX 56 105 58 106 59 107 60 108 61 109
REMARK H PARENT 20 5 24 43 83 62 51 73
REMARK Flexibility Score: inf
ROOT
ATOM      1  C   UNL A   1      33.743  27.978  24.828  1.00  0.00     0.118 C 
ENDROOT
BRANCH   1   2
ATOM      2  N   UNL A   1      32.739  27.065  24.303  1.00  0.00    -0.352 N 
ATOM      3  C   UNL A   1      32.667  25.696  24.204  1.00  0.00     0.251 C 
ATOM      4  O   UNL A   1      31.632  25.216  23.733  1.00  0.00    -0.269 OA
ATOM      5  H   UNL A   1      31.946  27.523  23.944  1.00  0.00     0.163 HD
BRANCH   3   6
ATOM      6  C   UNL A   1      33.785  24.774  24.555  1.00  0.00     0.039 A 
ATOM      7  C   UNL A   1      36.101  23.233  25.044  1.00  0.00     0.001 A 
ATOM      8  C   UNL A   1      35.688  23.479  23.733  1.00  0.00     0.011 A 
ATOM      9  C   UNL A   1      35.281  23.658  26.096  1.00  0.00     0.011 A 
ATOM     10  C   UNL A   1      34.544  24.252  23.493  1.00  0.00     0.014 A 
ATOM     11  C   UNL A   1      34.112  24.383  25.850  1.00  0.00     0.014 A 
BRANCH   7  12
ATOM     12  C   UNL A   1      37.314  22.494  25.351  1.00  0.00     0.081 A 
ATOM     13  C   UNL A   1      39.261  22.239  26.376  1.00  0.00     0.098 A 
ATOM     14  N   UNL A   1      38.303  23.093  26.099  1.00  0.00    -0.241 NA
ATOM     15  S   UNL A   1      39.118  20.715  25.598  1.00  0.00    -0.126 S 
ATOM     16  C   UNL A   1      37.610  21.212  24.935  1.00  0.00     0.095 A 
BRANCH  13  17
ATOM     17  C   UNL A   1      40.372  22.545  27.336  1.00  0.00     0.105 C 
BRANCH  17  18
ATOM     18  C   UNL A   1      41.452  23.371  26.672  1.00  0.00    -0.012 A 
ATOM     19  C   UNL A   1      44.022  21.315  24.719  1.00  0.00     0.119 A 
ATOM     20  C   UNL A   1      44.816  22.382  24.343  1.00  0.00     0.048 A 
ATOM     21  C   UNL A   1      42.889  21.543  25.496  1.00  0.00     0.057 A 
ATOM     22  C   UNL A   1      44.498  23.682  24.750  1.00  0.00     0.031 A 
ATOM     23  C   UNL A   1      42.522  22.854  25.887  1.00  0.00     0.008 A 
ATOM     24  C   UNL A   1      43.314  23.932  25.479  1.00  0.00     0.057 A 
ATOM     25  N   UNL A   1      42.694  25.121  25.918  1.00  0.00    -0.280 N 
ATOM     26  C   UNL A   1      41.585  24.755  26.701  1.00  0.00     0.028 A 
ATOM     27  C   UNL A   1      40.668  25.691  27.424  1.00  0.00     0.065 C 
BRANCH  19  28
ATOM     28  O   UNL A   1      44.247  20.022  24.334  1.00  0.00    -0.497 OA
ATOM     29  C   UNL A   1      44.451  19.124  25.421  1.00  0.00     0.278 C 
ENDBRANCH  19  28
BRANCH  25  30
ATOM     30  C   UNL A   1      43.125  26.448  25.616  1.00  0.00     0.262 C 
ATOM     31  O   UNL A   1      42.542  27.096  24.744  1.00  0.00    -0.268 OA
BRANCH  30  32
ATOM     32  C   UNL A   1      44.223  27.163  26.287  1.00  0.00     0.040 A 
ATOM     33  C   UNL A   1      44.302  27.218  27.684  1.00  0.00     0.015 A 
ATOM     34  C   UNL A   1      45.162  27.827  25.490  1.00  0.00     0.015 A 
ATOM     35  C   UNL A   1      45.275  28.025  28.280  1.00  0.00     0.021 A 
ATOM     36  C   UNL A   1      46.138  28.620  26.092  1.00  0.00     0.021 A 
ATOM     37  C   UNL A   1      46.177  28.734  27.482  1.00  0.00     0.041 A 
ATOM     38  Cl  UNL A   1      47.329  29.777  28.216  1.00  0.00    -0.084 Cl
ENDBRANCH  30  32
ENDBRANCH  25  30
ENDBRANCH  17  18
ENDBRANCH  13  17
ENDBRANCH   7  12
ENDBRANCH   3   6
ENDBRANCH   1   2
BRANCH   1  39
ATOM     39  C   UNL A   1      33.826  28.030  26.349  1.00  0.00     0.042 C 
BRANCH  39  40
ATOM     40  C   UNL A   1      34.798  29.048  26.938  1.00  0.00     0.118 C 
BRANCH  40  41
ATOM     41  N   UNL A   1      34.207  30.300  27.364  1.00  0.00    -0.352 N 
ATOM     42  C   UNL A   1      34.652  31.415  28.019  1.00  0.00     0.251 C 
ATOM     43  H   UNL A   1      33.254  30.363  27.125  1.00  0.00     0.163 HD
ATOM     44  O   UNL A   1      33.884  32.380  27.993  1.00  0.00    -0.269 OA
BRANCH  42  45
ATOM     45  C   UNL A   1      35.911  31.519  28.806  1.00  0.00     0.039 A 
ATOM     46  C   UNL A   1      36.891  32.497  28.649  1.00  0.00     0.014 A 
ATOM     47  C   UNL A   1      36.147  30.472  29.720  1.00  0.00     0.014 A 
ATOM     48  C   UNL A   1      38.128  32.355  29.275  1.00  0.00     0.010 A 
ATOM     49  C   UNL A   1      37.367  30.343  30.373  1.00  0.00     0.010 A 
ATOM     50  C   UNL A   1      38.379  31.253  30.100  1.00  0.00    -0.014 A 
BRANCH  50  51
ATOM     51  C   UNL A   1      39.681  31.166  30.759  1.00  0.00     0.031 A 
ATOM     52  C   UNL A   1      39.894  32.208  31.801  1.00  0.00     0.074 A 
ATOM     53  C   UNL A   1      40.580  30.186  30.526  1.00  0.00     0.049 A 
ATOM     54  N   UNL A   1      40.720  33.203  31.772  1.00  0.00    -0.248 NA
ATOM     55  C   UNL A   1      38.966  32.234  32.944  1.00  0.00     0.031 C 
ATOM     56  C   UNL A   1      40.382  28.960  29.747  1.00  0.00     0.029 A 
ATOM     57  N   UNL A   1      41.835  30.019  31.041  1.00  0.00    -0.354 N 
ATOM     58  C   UNL A   1      40.576  33.841  33.003  1.00  0.00     0.074 A 
ATOM     59  C   UNL A   1      39.377  33.319  33.601  1.00  0.00     0.031 C 
ATOM     60  C   UNL A   1      41.367  28.078  30.041  1.00  0.00     0.029 A 
ATOM     61  C   UNL A   1      42.338  28.725  30.902  1.00  0.00     0.049 A 
ATOM     62  H   UNL A   1      42.339  30.748  31.470  1.00  0.00     0.167 HD
ATOM     63  C   UNL A   1      41.593  34.554  33.560  1.00  0.00     0.034 A 
ATOM     64  C   UNL A   1      43.442  28.226  31.512  1.00  0.00     0.034 A 
ATOM     65  C   UNL A   1      42.641  34.814  32.614  1.00  0.00     0.049 A 
ATOM     66  C   UNL A   1      44.296  29.384  31.853  1.00  0.00     0.074 A 
ATOM     67  C   UNL A   1      42.823  35.620  31.514  1.00  0.00     0.029 A 
ATOM     68  N   UNL A   1      43.600  33.837  32.579  1.00  0.00    -0.354 N 
ATOM     69  N   UNL A   1      44.863  30.150  30.965  1.00  0.00    -0.248 NA
ATOM     70  C   UNL A   1      44.302  29.888  33.220  1.00  0.00     0.031 C 
ATOM     71  C   UNL A   1      43.755  34.929  30.683  1.00  0.00     0.029 A 
ATOM     72  C   UNL A   1      44.133  33.749  31.324  1.00  0.00     0.049 A 
ATOM     73  H   UNL A   1      43.867  33.282  33.346  1.00  0.00     0.167 HD
ATOM     74  C   UNL A   1      44.890  31.393  31.570  1.00  0.00     0.074 A 
ATOM     75  C   UNL A   1      44.721  31.135  32.992  1.00  0.00     0.031 C 
ATOM     76  C   UNL A   1      44.723  32.524  30.831  1.00  0.00     0.034 A 
BRANCH  63  77
ATOM     77  C   UNL A   1      41.868  34.622  35.045  1.00  0.00     0.023 A 
ATOM     78  C   UNL A   1      42.042  35.893  35.634  1.00  0.00     0.012 A 
ATOM     79  C   UNL A   1      42.252  33.500  35.814  1.00  0.00     0.148 A 
ATOM     80  C   UNL A   1      42.566  36.037  36.926  1.00  0.00     0.002 A 
ATOM     81  C   UNL A   1      42.701  33.642  37.122  1.00  0.00     0.091 A 
ATOM     82  F   UNL A   1      42.320  32.296  35.237  1.00  0.00    -0.205 F 
ATOM     83  C   UNL A   1      42.880  34.910  37.677  1.00  0.00     0.022 A 
BRANCH  81  84
ATOM     84  S   UNL A   1      43.097  32.216  38.141  1.00  0.00     0.127 S 
ATOM     85  O   UNL A   1      43.103  32.804  39.477  1.00  0.00    -0.237 OA
ATOM     86  O   UNL A   1      41.969  31.327  37.858  1.00  0.00    -0.237 OA
ATOM     87  O   UNL A   1      44.378  31.730  37.647  1.00  0.00    -0.744 OA
ENDBRANCH  81  84
ENDBRANCH  63  77
BRANCH  64  88
ATOM     88  C   UNL A   1      43.736  26.880  32.075  1.00  0.00     0.023 A 
ATOM     89  C   UNL A   1      44.837  26.159  31.557  1.00  0.00     0.012 A 
ATOM     90  C   UNL A   1      43.203  26.465  33.313  1.00  0.00     0.148 A 
ATOM     91  C   UNL A   1      45.457  25.143  32.294  1.00  0.00     0.002 A 
ATOM     92  C   UNL A   1      43.818  25.447  34.039  1.00  0.00     0.091 A 
ATOM     93  F   UNL A   1      42.162  27.129  33.828  1.00  0.00    -0.205 F 
ATOM     94  C   UNL A   1      44.961  24.803  33.547  1.00  0.00     0.022 A 
BRANCH  92  95
ATOM     95  S   UNL A   1      43.236  24.960  35.669  1.00  0.00     0.127 S 
ATOM     96  O   UNL A   1      44.253  23.992  36.084  1.00  0.00    -0.237 OA
ATOM     97  O   UNL A   1      43.266  26.227  36.392  1.00  0.00    -0.237 OA
ATOM     98  O   UNL A   1      41.916  24.379  35.453  1.00  0.00    -0.744 OA
ENDBRANCH  92  95
ENDBRANCH  64  88
BRANCH  76  99
ATOM     99  C   UNL A   1      44.981  32.434  29.357  1.00  0.00     0.023 A 
ATOM    100  C   UNL A   1      44.055  31.886  28.449  1.00  0.00     0.012 A 
ATOM    101  C   UNL A   1      46.140  33.057  28.870  1.00  0.00     0.148 A 
ATOM    102  C   UNL A   1      44.286  31.962  27.073  1.00  0.00     0.002 A 
ATOM    103  C   UNL A   1      46.347  33.166  27.504  1.00  0.00     0.091 A 
ATOM    104  F   UNL A   1      47.002  33.570  29.763  1.00  0.00    -0.205 F 
ATOM    105  C   UNL A   1      45.425  32.615  26.600  1.00  0.00     0.022 A 
BRANCH 103 106
ATOM    106  S   UNL A   1      47.733  34.082  26.831  1.00  0.00     0.127 S 
ATOM    107  O   UNL A   1      48.862  33.211  27.153  1.00  0.00    -0.237 OA
ATOM    108  O   UNL A   1      47.396  34.148  25.409  1.00  0.00    -0.237 OA
ATOM    109  O   UNL A   1      47.735  35.374  27.507  1.00  0.00    -0.744 OA
ENDBRANCH 103 106
ENDBRANCH  76  99
ENDBRANCH  50  51
ENDBRANCH  42  45
ENDBRANCH  40  41
ENDBRANCH  39  40
ENDBRANCH   1  39
TORSDOF 19
ENDMDL
