MODEL 1
REMARK VINA RESULT:     -12.2      0.000      0.000
REMARK SMILES C[C@@H]1[C@H](C(=O)NCCCNC(=O)c2ccc(-c3c4nc(c(-c5cccc(S(=O)(=O)[O-])c5F)c5ccc([nH]5)c(-c5cccc(S(=O)(=O)[O-])c5F)c5nc(c(-c6cccc(S(=O)(=O)[O-])c6F)c6ccc3[nH]6)C=C5)C=C4)cc2)CC[N@@H+]1Cc1ccc2c(c1)CCN2C
REMARK SMILES IDX 8 1 7 2 6 3 4 4 5 5 3 7 1 8 2 9 78 10 76 11 77 12 79 14
REMARK SMILES IDX 80 15 81 16 85 17 82 18 84 19 83 20 86 21 88 22 87 23 89 24
REMARK SMILES IDX 9 25 10 26 11 27 12 29 13 30 14 31 75 32 15 33 74 34 16 35
REMARK SMILES IDX 17 36 18 37 68 38 19 39 73 40 67 41 69 42 20 43 72 44 66 45
REMARK SMILES IDX 65 46 21 48 53 49 33 50 52 51 34 52 37 53 51 54 70 55 35 56
REMARK SMILES IDX 36 57 50 59 71 60 38 61 22 62 23 63 31 64 24 65 26 66 32 67
REMARK SMILES IDX 25 68 27 69 28 70 29 71 30 72 54 73 55 74 63 75 56 76 58 77
REMARK SMILES IDX 64 78 57 79 59 80 60 81 61 82 62 83 39 84 40 85 48 86 41 87
REMARK SMILES IDX 43 88 49 89 42 90 44 91 45 92 46 93 47 94
REMARK H PARENT 6 6 78 13 10 28 69 47 37 58
REMARK Flexibility Score: inf
ROOT
ATOM      1  C   UNL A   1      31.387  32.062  26.793  1.00  0.00     0.042 C 
ENDROOT
BRANCH   1   2
ATOM      2  C   UNL A   1      31.486  30.917  25.791  1.00  0.00     0.117 C 
BRANCH   2   3
ATOM      3  N   UNL A   1      31.924  29.686  26.418  1.00  0.00    -0.356 N 
ATOM      4  C   UNL A   1      31.882  28.398  26.007  1.00  0.00     0.229 C 
ATOM      5  O   UNL A   1      32.298  27.559  26.817  1.00  0.00    -0.275 OA
ATOM      6  H   UNL A   1      32.328  29.811  27.308  1.00  0.00     0.163 HD
BRANCH   4   7
ATOM      7  C   UNL A   1      31.424  27.936  24.631  1.00  0.00     0.142 C 
ATOM      8  C   UNL A   1      33.722  28.615  23.523  1.00  0.00     0.076 C 
ATOM      9  C   UNL A   1      32.303  28.101  23.376  1.00  0.00     0.193 C 
ATOM     10  N   UNL A   1      32.077  26.885  22.576  1.00  0.00    -0.328 N 
ATOM     11  C   UNL A   1      30.857  26.523  24.550  1.00  0.00     0.081 C 
ATOM     12  C   UNL A   1      30.854  26.262  23.052  1.00  0.00     0.263 C 
ATOM     13  H   UNL A   1      31.971  27.206  21.613  1.00  0.00     0.348 HD
BRANCH  10  14
ATOM     14  C   UNL A   1      33.178  26.029  22.127  1.00  0.00     0.299 C 
BRANCH  14  15
ATOM     15  C   UNL A   1      33.563  24.800  22.937  1.00  0.00     0.007 A 
ATOM     16  C   UNL A   1      33.211  23.504  22.487  1.00  0.00     0.012 A 
ATOM     17  C   UNL A   1      34.179  24.912  24.192  1.00  0.00     0.015 A 
ATOM     18  C   UNL A   1      33.507  22.350  23.238  1.00  0.00     0.026 A 
ATOM     19  C   UNL A   1      34.469  23.767  24.914  1.00  0.00    -0.022 A 
ATOM     20  C   UNL A   1      34.140  22.493  24.455  1.00  0.00     0.040 A 
ATOM     21  C   UNL A   1      35.214  23.645  26.202  1.00  0.00     0.059 C 
ATOM     22  N   UNL A   1      34.507  21.492  25.369  1.00  0.00    -0.374 N 
ATOM     23  C   UNL A   1      34.788  22.228  26.611  1.00  0.00     0.121 C 
ATOM     24  C   UNL A   1      35.431  20.470  24.911  1.00  0.00     0.143 C 
ENDBRANCH  14  15
ENDBRANCH  10  14
ENDBRANCH   4   7
ENDBRANCH   2   3
ENDBRANCH   1   2
BRANCH   1  25
ATOM     25  C   UNL A   1      32.709  32.720  27.142  1.00  0.00     0.118 C 
BRANCH  25  26
ATOM     26  N   UNL A   1      32.546  34.089  27.604  1.00  0.00    -0.352 N 
ATOM     27  C   UNL A   1      33.131  34.756  28.655  1.00  0.00     0.251 C 
ATOM     28  H   UNL A   1      31.911  34.627  27.080  1.00  0.00     0.163 HD
ATOM     29  O   UNL A   1      32.656  35.839  28.998  1.00  0.00    -0.269 OA
BRANCH  27  30
ATOM     30  C   UNL A   1      34.295  34.194  29.389  1.00  0.00     0.039 A 
ATOM     31  C   UNL A   1      34.059  33.417  30.529  1.00  0.00     0.014 A 
ATOM     32  C   UNL A   1      35.613  34.459  29.013  1.00  0.00     0.014 A 
ATOM     33  C   UNL A   1      35.131  32.866  31.243  1.00  0.00     0.010 A 
ATOM     34  C   UNL A   1      36.672  33.819  29.652  1.00  0.00     0.010 A 
ATOM     35  C   UNL A   1      36.450  33.031  30.790  1.00  0.00    -0.014 A 
BRANCH  35  36
ATOM     36  C   UNL A   1      37.606  32.412  31.498  1.00  0.00     0.031 A 
ATOM     37  C   UNL A   1      38.370  31.275  30.863  1.00  0.00     0.074 A 
ATOM     38  C   UNL A   1      37.924  32.812  32.746  1.00  0.00     0.049 A 
ATOM     39  N   UNL A   1      39.354  30.566  31.352  1.00  0.00    -0.248 NA
ATOM     40  C   UNL A   1      37.953  30.859  29.513  1.00  0.00     0.031 C 
ATOM     41  C   UNL A   1      37.221  33.846  33.509  1.00  0.00     0.029 A 
ATOM     42  N   UNL A   1      38.905  32.379  33.604  1.00  0.00    -0.354 N 
ATOM     43  C   UNL A   1      39.641  29.598  30.394  1.00  0.00     0.074 A 
ATOM     44  C   UNL A   1      38.702  29.785  29.312  1.00  0.00     0.031 C 
ATOM     45  C   UNL A   1      37.799  33.975  34.714  1.00  0.00     0.029 A 
ATOM     46  C   UNL A   1      38.890  33.012  34.827  1.00  0.00     0.049 A 
ATOM     47  H   UNL A   1      39.559  31.682  33.368  1.00  0.00     0.167 HD
ATOM     48  C   UNL A   1      40.619  28.659  30.396  1.00  0.00     0.034 A 
ATOM     49  C   UNL A   1      39.659  32.834  35.918  1.00  0.00     0.034 A 
ATOM     50  C   UNL A   1      41.590  28.508  31.445  1.00  0.00     0.049 A 
ATOM     51  C   UNL A   1      40.767  31.816  35.876  1.00  0.00     0.074 A 
ATOM     52  C   UNL A   1      42.674  27.649  31.497  1.00  0.00     0.029 A 
ATOM     53  N   UNL A   1      41.594  29.230  32.629  1.00  0.00    -0.354 N 
ATOM     54  N   UNL A   1      41.117  31.016  34.899  1.00  0.00    -0.248 NA
ATOM     55  C   UNL A   1      41.609  31.699  37.077  1.00  0.00     0.031 C 
ATOM     56  C   UNL A   1      43.320  27.837  32.723  1.00  0.00     0.029 A 
ATOM     57  C   UNL A   1      42.657  28.832  33.422  1.00  0.00     0.049 A 
ATOM     58  H   UNL A   1      40.938  29.923  32.870  1.00  0.00     0.167 HD
ATOM     59  C   UNL A   1      42.240  30.331  35.349  1.00  0.00     0.074 A 
ATOM     60  C   UNL A   1      42.525  30.825  36.680  1.00  0.00     0.031 C 
ATOM     61  C   UNL A   1      42.963  29.370  34.723  1.00  0.00     0.034 A 
BRANCH  48  62
ATOM     62  C   UNL A   1      40.726  27.754  29.193  1.00  0.00     0.023 A 
ATOM     63  C   UNL A   1      39.900  26.615  29.104  1.00  0.00     0.012 A 
ATOM     64  C   UNL A   1      41.595  28.062  28.127  1.00  0.00     0.148 A 
ATOM     65  C   UNL A   1      39.965  25.773  27.994  1.00  0.00     0.002 A 
ATOM     66  C   UNL A   1      41.620  27.243  27.003  1.00  0.00     0.091 A 
ATOM     67  F   UNL A   1      42.386  29.138  28.236  1.00  0.00    -0.205 F 
ATOM     68  C   UNL A   1      40.816  26.094  26.940  1.00  0.00     0.022 A 
BRANCH  66  69
ATOM     69  S   UNL A   1      42.619  27.611  25.556  1.00  0.00     0.127 S 
ATOM     70  O   UNL A   1      42.359  26.445  24.713  1.00  0.00    -0.237 OA
ATOM     71  O   UNL A   1      42.019  28.856  25.076  1.00  0.00    -0.237 OA
ATOM     72  O   UNL A   1      43.988  27.743  26.036  1.00  0.00    -0.744 OA
ENDBRANCH  66  69
ENDBRANCH  48  62
BRANCH  49  73
ATOM     73  C   UNL A   1      39.456  33.690  37.123  1.00  0.00     0.023 A 
ATOM     74  C   UNL A   1      39.952  35.009  37.125  1.00  0.00     0.012 A 
ATOM     75  C   UNL A   1      38.757  33.217  38.250  1.00  0.00     0.148 A 
ATOM     76  C   UNL A   1      39.786  35.830  38.240  1.00  0.00     0.002 A 
ATOM     77  C   UNL A   1      38.546  34.060  39.336  1.00  0.00     0.091 A 
ATOM     78  F   UNL A   1      38.304  31.957  38.235  1.00  0.00    -0.205 F 
ATOM     79  C   UNL A   1      39.075  35.360  39.341  1.00  0.00     0.022 A 
BRANCH  77  80
ATOM     80  S   UNL A   1      37.533  33.585  40.742  1.00  0.00     0.127 S 
ATOM     81  O   UNL A   1      36.323  33.097  40.089  1.00  0.00    -0.237 OA
ATOM     82  O   UNL A   1      38.355  32.552  41.371  1.00  0.00    -0.237 OA
ATOM     83  O   UNL A   1      37.380  34.795  41.540  1.00  0.00    -0.744 OA
ENDBRANCH  77  80
ENDBRANCH  49  73
BRANCH  61  84
ATOM     84  C   UNL A   1      44.161  28.811  35.443  1.00  0.00     0.023 A 
ATOM     85  C   UNL A   1      45.432  29.385  35.245  1.00  0.00     0.012 A 
ATOM     86  C   UNL A   1      44.012  27.765  36.376  1.00  0.00     0.148 A 
ATOM     87  C   UNL A   1      46.542  28.905  35.939  1.00  0.00     0.002 A 
ATOM     88  C   UNL A   1      45.114  27.326  37.101  1.00  0.00     0.091 A 
ATOM     89  F   UNL A   1      42.798  27.220  36.538  1.00  0.00    -0.205 F 
ATOM     90  C   UNL A   1      46.381  27.886  36.874  1.00  0.00     0.022 A 
BRANCH  88  91
ATOM     91  S   UNL A   1      44.983  26.087  38.395  1.00  0.00     0.127 S 
ATOM     92  O   UNL A   1      44.058  26.726  39.329  1.00  0.00    -0.237 OA
ATOM     93  O   UNL A   1      44.428  24.942  37.673  1.00  0.00    -0.237 OA
ATOM     94  O   UNL A   1      46.338  25.885  38.896  1.00  0.00    -0.744 OA
ENDBRANCH  88  91
ENDBRANCH  61  84
ENDBRANCH  35  36
ENDBRANCH  27  30
ENDBRANCH  25  26
ENDBRANCH   1  25
TORSDOF 15
ENDMDL
MODEL 2
REMARK VINA RESULT:     -12.1      2.573      8.192
REMARK SMILES C[C@@H]1[C@H](C(=O)NCCCNC(=O)c2ccc(-c3c4nc(c(-c5cccc(S(=O)(=O)[O-])c5F)c5ccc([nH]5)c(-c5cccc(S(=O)(=O)[O-])c5F)c5nc(c(-c6cccc(S(=O)(=O)[O-])c6F)c6ccc3[nH]6)C=C5)C=C4)cc2)CC[N@@H+]1Cc1ccc2c(c1)CCN2C
REMARK SMILES IDX 8 1 7 2 6 3 4 4 5 5 3 7 1 8 2 9 78 10 76 11 77 12 79 14
REMARK SMILES IDX 80 15 81 16 85 17 82 18 84 19 83 20 86 21 88 22 87 23 89 24
REMARK SMILES IDX 9 25 10 26 11 27 12 29 13 30 14 31 75 32 15 33 74 34 16 35
REMARK SMILES IDX 17 36 18 37 68 38 19 39 73 40 67 41 69 42 20 43 72 44 66 45
REMARK SMILES IDX 65 46 21 48 53 49 33 50 52 51 34 52 37 53 51 54 70 55 35 56
REMARK SMILES IDX 36 57 50 59 71 60 38 61 22 62 23 63 31 64 24 65 26 66 32 67
REMARK SMILES IDX 25 68 27 69 28 70 29 71 30 72 54 73 55 74 63 75 56 76 58 77
REMARK SMILES IDX 64 78 57 79 59 80 60 81 61 82 62 83 39 84 40 85 48 86 41 87
REMARK SMILES IDX 43 88 49 89 42 90 44 91 45 92 46 93 47 94
REMARK H PARENT 6 6 78 13 10 28 69 47 37 58
REMARK Flexibility Score: inf
ROOT
ATOM      1  C   UNL A   1      31.709  28.816  24.640  1.00  0.00     0.042 C 
ENDROOT
BRANCH   1   2
ATOM      2  C   UNL A   1      31.919  28.390  23.191  1.00  0.00     0.117 C 
BRANCH   2   3
ATOM      3  N   UNL A   1      31.410  27.055  22.941  1.00  0.00    -0.356 N 
ATOM      4  C   UNL A   1      31.961  25.831  23.114  1.00  0.00     0.229 C 
ATOM      5  O   UNL A   1      31.270  24.872  22.745  1.00  0.00    -0.275 OA
ATOM      6  H   UNL A   1      30.495  27.036  22.578  1.00  0.00     0.163 HD
BRANCH   4   7
ATOM      7  C   UNL A   1      33.309  25.566  23.768  1.00  0.00     0.142 C 
ATOM      8  C   UNL A   1      32.214  25.276  26.151  1.00  0.00     0.076 C 
ATOM      9  C   UNL A   1      33.457  25.356  25.287  1.00  0.00     0.193 C 
ATOM     10  N   UNL A   1      34.487  24.314  25.441  1.00  0.00    -0.328 N 
ATOM     11  C   UNL A   1      34.169  24.487  23.121  1.00  0.00     0.081 C 
ATOM     12  C   UNL A   1      35.219  24.226  24.189  1.00  0.00     0.263 C 
ATOM     13  H   UNL A   1      35.093  24.637  26.195  1.00  0.00     0.348 HD
BRANCH  10  14
ATOM     14  C   UNL A   1      34.251  23.089  26.208  1.00  0.00     0.299 C 
BRANCH  14  15
ATOM     15  C   UNL A   1      33.837  21.811  25.492  1.00  0.00     0.007 A 
ATOM     16  C   UNL A   1      32.528  21.673  24.968  1.00  0.00     0.012 A 
ATOM     17  C   UNL A   1      34.691  20.701  25.420  1.00  0.00     0.015 A 
ATOM     18  C   UNL A   1      32.098  20.486  24.347  1.00  0.00     0.026 A 
ATOM     19  C   UNL A   1      34.255  19.544  24.800  1.00  0.00    -0.022 A 
ATOM     20  C   UNL A   1      32.973  19.422  24.266  1.00  0.00     0.040 A 
ATOM     21  C   UNL A   1      35.024  18.298  24.512  1.00  0.00     0.059 C 
ATOM     22  N   UNL A   1      32.750  18.150  23.715  1.00  0.00    -0.374 N 
ATOM     23  C   UNL A   1      33.860  17.337  24.233  1.00  0.00     0.121 C 
ATOM     24  C   UNL A   1      32.400  18.081  22.307  1.00  0.00     0.143 C 
ENDBRANCH  14  15
ENDBRANCH  10  14
ENDBRANCH   4   7
ENDBRANCH   2   3
ENDBRANCH   1   2
BRANCH   1  25
ATOM     25  C   UNL A   1      32.904  29.494  25.284  1.00  0.00     0.118 C 
BRANCH  25  26
ATOM     26  N   UNL A   1      32.577  30.803  25.827  1.00  0.00    -0.352 N 
ATOM     27  C   UNL A   1      33.093  31.480  26.907  1.00  0.00     0.251 C 
ATOM     28  H   UNL A   1      31.867  31.283  25.343  1.00  0.00     0.163 HD
ATOM     29  O   UNL A   1      32.490  32.471  27.319  1.00  0.00    -0.269 OA
BRANCH  27  30
ATOM     30  C   UNL A   1      34.333  31.033  27.593  1.00  0.00     0.039 A 
ATOM     31  C   UNL A   1      35.343  31.971  27.835  1.00  0.00     0.014 A 
ATOM     32  C   UNL A   1      34.546  29.701  27.955  1.00  0.00     0.014 A 
ATOM     33  C   UNL A   1      36.523  31.586  28.485  1.00  0.00     0.010 A 
ATOM     34  C   UNL A   1      35.667  29.343  28.702  1.00  0.00     0.010 A 
ATOM     35  C   UNL A   1      36.683  30.274  28.959  1.00  0.00    -0.014 A 
BRANCH  35  36
ATOM     36  C   UNL A   1      37.904  29.850  29.700  1.00  0.00     0.031 A 
ATOM     37  C   UNL A   1      38.173  30.375  31.090  1.00  0.00     0.074 A 
ATOM     38  C   UNL A   1      38.815  29.058  29.100  1.00  0.00     0.049 A 
ATOM     39  N   UNL A   1      39.212  30.177  31.861  1.00  0.00    -0.248 NA
ATOM     40  C   UNL A   1      37.158  31.266  31.679  1.00  0.00     0.031 C 
ATOM     41  C   UNL A   1      38.719  28.541  27.732  1.00  0.00     0.029 A 
ATOM     42  N   UNL A   1      40.015  28.568  29.553  1.00  0.00    -0.354 N 
ATOM     43  C   UNL A   1      38.996  30.949  32.999  1.00  0.00     0.074 A 
ATOM     44  C   UNL A   1      37.747  31.649  32.802  1.00  0.00     0.031 C 
ATOM     45  C   UNL A   1      39.805  27.801  27.462  1.00  0.00     0.029 A 
ATOM     46  C   UNL A   1      40.693  27.815  28.621  1.00  0.00     0.049 A 
ATOM     47  H   UNL A   1      40.359  28.738  30.460  1.00  0.00     0.167 HD
ATOM     48  C   UNL A   1      39.748  31.042  34.122  1.00  0.00     0.034 A 
ATOM     49  C   UNL A   1      41.895  27.211  28.685  1.00  0.00     0.034 A 
ATOM     50  C   UNL A   1      40.961  30.302  34.343  1.00  0.00     0.049 A 
ATOM     51  C   UNL A   1      42.690  27.293  29.961  1.00  0.00     0.074 A 
ATOM     52  C   UNL A   1      41.745  30.257  35.483  1.00  0.00     0.029 A 
ATOM     53  N   UNL A   1      41.568  29.480  33.407  1.00  0.00    -0.354 N 
ATOM     54  N   UNL A   1      42.392  27.904  31.082  1.00  0.00    -0.248 NA
ATOM     55  C   UNL A   1      43.971  26.571  29.995  1.00  0.00     0.031 C 
ATOM     56  C   UNL A   1      42.840  29.425  35.227  1.00  0.00     0.029 A 
ATOM     57  C   UNL A   1      42.721  28.928  33.939  1.00  0.00     0.049 A 
ATOM     58  H   UNL A   1      41.229  29.313  32.498  1.00  0.00     0.167 HD
ATOM     59  C   UNL A   1      43.426  27.611  31.964  1.00  0.00     0.074 A 
ATOM     60  C   UNL A   1      44.348  26.749  31.254  1.00  0.00     0.031 C 
ATOM     61  C   UNL A   1      43.603  28.027  33.241  1.00  0.00     0.034 A 
BRANCH  48  62
ATOM     62  C   UNL A   1      39.248  31.936  35.230  1.00  0.00     0.023 A 
ATOM     63  C   UNL A   1      38.315  31.435  36.160  1.00  0.00     0.012 A 
ATOM     64  C   UNL A   1      39.744  33.245  35.387  1.00  0.00     0.148 A 
ATOM     65  C   UNL A   1      37.851  32.233  37.205  1.00  0.00     0.002 A 
ATOM     66  C   UNL A   1      39.313  34.019  36.460  1.00  0.00     0.091 A 
ATOM     67  F   UNL A   1      40.617  33.712  34.485  1.00  0.00    -0.205 F 
ATOM     68  C   UNL A   1      38.358  33.520  37.360  1.00  0.00     0.022 A 
BRANCH  66  69
ATOM     69  S   UNL A   1      39.964  35.659  36.798  1.00  0.00     0.127 S 
ATOM     70  O   UNL A   1      41.396  35.389  36.913  1.00  0.00    -0.237 OA
ATOM     71  O   UNL A   1      39.578  36.398  35.596  1.00  0.00    -0.237 OA
ATOM     72  O   UNL A   1      39.312  36.106  38.021  1.00  0.00    -0.744 OA
ENDBRANCH  66  69
ENDBRANCH  48  62
BRANCH  49  73
ATOM     73  C   UNL A   1      42.393  26.412  27.527  1.00  0.00     0.023 A 
ATOM     74  C   UNL A   1      43.239  27.022  26.580  1.00  0.00     0.012 A 
ATOM     75  C   UNL A   1      42.055  25.054  27.373  1.00  0.00     0.148 A 
ATOM     76  C   UNL A   1      43.712  26.304  25.482  1.00  0.00     0.002 A 
ATOM     77  C   UNL A   1      42.576  24.329  26.307  1.00  0.00     0.091 A 
ATOM     78  F   UNL A   1      41.239  24.495  28.278  1.00  0.00    -0.205 F 
ATOM     79  C   UNL A   1      43.389  24.956  25.350  1.00  0.00     0.022 A 
BRANCH  77  80
ATOM     80  S   UNL A   1      42.320  22.560  26.128  1.00  0.00     0.127 S 
ATOM     81  O   UNL A   1      42.911  22.045  27.359  1.00  0.00    -0.237 OA
ATOM     82  O   UNL A   1      40.862  22.471  26.059  1.00  0.00    -0.237 OA
ATOM     83  O   UNL A   1      43.001  22.189  24.893  1.00  0.00    -0.744 OA
ENDBRANCH  77  80
ENDBRANCH  49  73
BRANCH  61  84
ATOM     84  C   UNL A   1      44.817  27.529  33.980  1.00  0.00     0.023 A 
ATOM     85  C   UNL A   1      46.014  28.271  33.946  1.00  0.00     0.012 A 
ATOM     86  C   UNL A   1      44.746  26.366  34.773  1.00  0.00     0.148 A 
ATOM     87  C   UNL A   1      47.133  27.843  34.661  1.00  0.00     0.002 A 
ATOM     88  C   UNL A   1      45.849  25.975  35.523  1.00  0.00     0.091 A 
ATOM     89  F   UNL A   1      43.604  25.665  34.779  1.00  0.00    -0.205 F 
ATOM     90  C   UNL A   1      47.047  26.705  35.457  1.00  0.00     0.022 A 
BRANCH  88  91
ATOM     91  S   UNL A   1      45.799  24.578  36.652  1.00  0.00     0.127 S 
ATOM     92  O   UNL A   1      45.584  23.460  35.735  1.00  0.00    -0.237 OA
ATOM     93  O   UNL A   1      47.130  24.623  37.259  1.00  0.00    -0.237 OA
ATOM     94  O   UNL A   1      44.705  24.849  37.577  1.00  0.00    -0.744 OA
ENDBRANCH  88  91
ENDBRANCH  61  84
ENDBRANCH  35  36
ENDBRANCH  27  30
ENDBRANCH  25  26
ENDBRANCH   1  25
TORSDOF 15
ENDMDL
MODEL 3
REMARK VINA RESULT:     -12.0      6.194     11.596
REMARK SMILES C[C@@H]1[C@H](C(=O)NCCCNC(=O)c2ccc(-c3c4nc(c(-c5cccc(S(=O)(=O)[O-])c5F)c5ccc([nH]5)c(-c5cccc(S(=O)(=O)[O-])c5F)c5nc(c(-c6cccc(S(=O)(=O)[O-])c6F)c6ccc3[nH]6)C=C5)C=C4)cc2)CC[N@@H+]1Cc1ccc2c(c1)CCN2C
REMARK SMILES IDX 8 1 7 2 6 3 4 4 5 5 3 7 1 8 2 9 78 10 76 11 77 12 79 14
REMARK SMILES IDX 80 15 81 16 85 17 82 18 84 19 83 20 86 21 88 22 87 23 89 24
REMARK SMILES IDX 9 25 10 26 11 27 12 29 13 30 14 31 75 32 15 33 74 34 16 35
REMARK SMILES IDX 17 36 18 37 68 38 19 39 73 40 67 41 69 42 20 43 72 44 66 45
REMARK SMILES IDX 65 46 21 48 53 49 33 50 52 51 34 52 37 53 51 54 70 55 35 56
REMARK SMILES IDX 36 57 50 59 71 60 38 61 22 62 23 63 31 64 24 65 26 66 32 67
REMARK SMILES IDX 25 68 27 69 28 70 29 71 30 72 54 73 55 74 63 75 56 76 58 77
REMARK SMILES IDX 64 78 57 79 59 80 60 81 61 82 62 83 39 84 40 85 48 86 41 87
REMARK SMILES IDX 43 88 49 89 42 90 44 91 45 92 46 93 47 94
REMARK H PARENT 6 6 78 13 10 28 69 47 37 58
REMARK Flexibility Score: inf
ROOT
ATOM      1  C   UNL A   1      37.604  19.462  24.727  1.00  0.00     0.042 C 
ENDROOT
BRANCH   1   2
ATOM      2  C   UNL A   1      36.129  19.733  25.003  1.00  0.00     0.117 C 
BRANCH   2   3
ATOM      3  N   UNL A   1      35.923  21.034  25.609  1.00  0.00    -0.356 N 
ATOM      4  C   UNL A   1      35.225  22.120  25.202  1.00  0.00     0.229 C 
ATOM      5  O   UNL A   1      35.296  23.113  25.938  1.00  0.00    -0.275 OA
ATOM      6  H   UNL A   1      36.372  21.148  26.478  1.00  0.00     0.163 HD
BRANCH   4   7
ATOM      7  C   UNL A   1      34.344  22.176  23.963  1.00  0.00     0.142 C 
ATOM      8  C   UNL A   1      32.211  21.415  25.320  1.00  0.00     0.076 C 
ATOM      9  C   UNL A   1      32.859  21.763  23.994  1.00  0.00     0.193 C 
ATOM     10  N   UNL A   1      32.169  22.711  23.103  1.00  0.00    -0.328 N 
ATOM     11  C   UNL A   1      34.390  23.473  23.163  1.00  0.00     0.081 C 
ATOM     12  C   UNL A   1      33.172  23.340  22.261  1.00  0.00     0.263 C 
ATOM     13  H   UNL A   1      31.528  22.147  22.546  1.00  0.00     0.348 HD
BRANCH  10  14
ATOM     14  C   UNL A   1      31.021  23.506  23.547  1.00  0.00     0.299 C 
BRANCH  14  15
ATOM     15  C   UNL A   1      31.217  24.954  23.971  1.00  0.00     0.007 A 
ATOM     16  C   UNL A   1      31.842  25.262  25.205  1.00  0.00     0.012 A 
ATOM     17  C   UNL A   1      30.700  26.016  23.216  1.00  0.00     0.015 A 
ATOM     18  C   UNL A   1      31.992  26.590  25.650  1.00  0.00     0.026 A 
ATOM     19  C   UNL A   1      30.862  27.315  23.665  1.00  0.00    -0.022 A 
ATOM     20  C   UNL A   1      31.498  27.613  24.869  1.00  0.00     0.040 A 
ATOM     21  C   UNL A   1      30.498  28.588  22.976  1.00  0.00     0.059 C 
ATOM     22  N   UNL A   1      31.517  28.994  25.127  1.00  0.00    -0.374 N 
ATOM     23  C   UNL A   1      30.547  29.549  24.173  1.00  0.00     0.121 C 
ATOM     24  C   UNL A   1      32.813  29.627  25.290  1.00  0.00     0.143 C 
ENDBRANCH  14  15
ENDBRANCH  10  14
ENDBRANCH   4   7
ENDBRANCH   2   3
ENDBRANCH   1   2
BRANCH   1  25
ATOM     25  C   UNL A   1      38.562  20.061  25.741  1.00  0.00     0.118 C 
BRANCH  25  26
ATOM     26  N   UNL A   1      39.731  19.225  25.965  1.00  0.00    -0.352 N 
ATOM     27  C   UNL A   1      41.047  19.563  26.179  1.00  0.00     0.251 C 
ATOM     28  H   UNL A   1      39.551  18.258  25.961  1.00  0.00     0.163 HD
ATOM     29  O   UNL A   1      41.898  18.677  26.102  1.00  0.00    -0.269 OA
BRANCH  27  30
ATOM     30  C   UNL A   1      41.459  20.960  26.474  1.00  0.00     0.039 A 
ATOM     31  C   UNL A   1      41.888  21.275  27.768  1.00  0.00     0.014 A 
ATOM     32  C   UNL A   1      41.383  21.977  25.520  1.00  0.00     0.014 A 
ATOM     33  C   UNL A   1      42.291  22.580  28.081  1.00  0.00     0.010 A 
ATOM     34  C   UNL A   1      41.891  23.245  25.798  1.00  0.00     0.010 A 
ATOM     35  C   UNL A   1      42.331  23.572  27.088  1.00  0.00    -0.014 A 
BRANCH  35  36
ATOM     36  C   UNL A   1      42.805  24.955  27.378  1.00  0.00     0.031 A 
ATOM     37  C   UNL A   1      41.883  25.957  28.030  1.00  0.00     0.074 A 
ATOM     38  C   UNL A   1      44.035  25.341  26.984  1.00  0.00     0.049 A 
ATOM     39  N   UNL A   1      42.092  27.221  28.295  1.00  0.00    -0.248 NA
ATOM     40  C   UNL A   1      40.539  25.486  28.405  1.00  0.00     0.031 C 
ATOM     41  C   UNL A   1      45.001  24.498  26.274  1.00  0.00     0.029 A 
ATOM     42  N   UNL A   1      44.678  26.549  27.101  1.00  0.00    -0.354 N 
ATOM     43  C   UNL A   1      40.898  27.703  28.823  1.00  0.00     0.074 A 
ATOM     44  C   UNL A   1      39.957  26.607  28.805  1.00  0.00     0.031 C 
ATOM     45  C   UNL A   1      46.113  25.210  26.029  1.00  0.00     0.029 A 
ATOM     46  C   UNL A   1      45.931  26.568  26.532  1.00  0.00     0.049 A 
ATOM     47  H   UNL A   1      44.280  27.329  27.551  1.00  0.00     0.167 HD
ATOM     48  C   UNL A   1      40.617  28.936  29.312  1.00  0.00     0.034 A 
ATOM     49  C   UNL A   1      46.830  27.565  26.418  1.00  0.00     0.034 A 
ATOM     50  C   UNL A   1      41.569  30.010  29.384  1.00  0.00     0.049 A 
ATOM     51  C   UNL A   1      46.510  28.912  27.010  1.00  0.00     0.074 A 
ATOM     52  C   UNL A   1      41.409  31.266  29.944  1.00  0.00     0.029 A 
ATOM     53  N   UNL A   1      42.858  29.961  28.876  1.00  0.00    -0.354 N 
ATOM     54  N   UNL A   1      45.430  29.300  27.643  1.00  0.00    -0.248 NA
ATOM     55  C   UNL A   1      47.548  29.948  26.904  1.00  0.00     0.031 C 
ATOM     56  C   UNL A   1      42.595  31.983  29.756  1.00  0.00     0.029 A 
ATOM     57  C   UNL A   1      43.503  31.164  29.104  1.00  0.00     0.049 A 
ATOM     58  H   UNL A   1      43.256  29.183  28.421  1.00  0.00     0.167 HD
ATOM     59  C   UNL A   1      45.671  30.610  28.043  1.00  0.00     0.074 A 
ATOM     60  C   UNL A   1      47.010  30.941  27.599  1.00  0.00     0.031 C 
ATOM     61  C   UNL A   1      44.855  31.464  28.706  1.00  0.00     0.034 A 
BRANCH  48  62
ATOM     62  C   UNL A   1      39.234  29.173  29.867  1.00  0.00     0.023 A 
ATOM     63  C   UNL A   1      38.935  28.771  31.185  1.00  0.00     0.012 A 
ATOM     64  C   UNL A   1      38.252  29.843  29.110  1.00  0.00     0.148 A 
ATOM     65  C   UNL A   1      37.671  28.995  31.729  1.00  0.00     0.002 A 
ATOM     66  C   UNL A   1      37.009  30.106  29.676  1.00  0.00     0.091 A 
ATOM     67  F   UNL A   1      38.547  30.202  27.853  1.00  0.00    -0.205 F 
ATOM     68  C   UNL A   1      36.713  29.672  30.979  1.00  0.00     0.022 A 
BRANCH  66  69
ATOM     69  S   UNL A   1      35.733  31.042  28.826  1.00  0.00     0.127 S 
ATOM     70  O   UNL A   1      35.064  29.995  28.055  1.00  0.00    -0.237 OA
ATOM     71  O   UNL A   1      34.949  31.575  29.939  1.00  0.00    -0.237 OA
ATOM     72  O   UNL A   1      36.432  32.049  28.038  1.00  0.00    -0.744 OA
ENDBRANCH  66  69
ENDBRANCH  48  62
BRANCH  49  73
ATOM     73  C   UNL A   1      48.152  27.309  25.777  1.00  0.00     0.023 A 
ATOM     74  C   UNL A   1      49.220  26.831  26.562  1.00  0.00     0.012 A 
ATOM     75  C   UNL A   1      48.351  27.510  24.398  1.00  0.00     0.148 A 
ATOM     76  C   UNL A   1      50.471  26.593  25.993  1.00  0.00     0.002 A 
ATOM     77  C   UNL A   1      49.583  27.216  23.827  1.00  0.00     0.091 A 
ATOM     78  F   UNL A   1      47.327  27.976  23.669  1.00  0.00    -0.205 F 
ATOM     79  C   UNL A   1      50.651  26.775  24.625  1.00  0.00     0.022 A 
BRANCH  77  80
ATOM     80  S   UNL A   1      49.869  27.296  22.054  1.00  0.00     0.127 S 
ATOM     81  O   UNL A   1      51.251  26.838  21.952  1.00  0.00    -0.237 OA
ATOM     82  O   UNL A   1      48.868  26.360  21.545  1.00  0.00    -0.237 OA
ATOM     83  O   UNL A   1      49.632  28.686  21.682  1.00  0.00    -0.744 OA
ENDBRANCH  77  80
ENDBRANCH  49  73
BRANCH  61  84
ATOM     84  C   UNL A   1      45.390  32.833  29.036  1.00  0.00     0.023 A 
ATOM     85  C   UNL A   1      46.066  33.049  30.253  1.00  0.00     0.012 A 
ATOM     86  C   UNL A   1      45.291  33.885  28.104  1.00  0.00     0.148 A 
ATOM     87  C   UNL A   1      46.604  34.300  30.552  1.00  0.00     0.002 A 
ATOM     88  C   UNL A   1      45.874  35.115  28.387  1.00  0.00     0.091 A 
ATOM     89  F   UNL A   1      44.629  33.665  26.959  1.00  0.00    -0.205 F 
ATOM     90  C   UNL A   1      46.519  35.328  29.616  1.00  0.00     0.022 A 
BRANCH  88  91
ATOM     91  S   UNL A   1      45.900  36.464  27.202  1.00  0.00     0.127 S 
ATOM     92  O   UNL A   1      44.481  36.804  27.105  1.00  0.00    -0.237 OA
ATOM     93  O   UNL A   1      46.722  37.462  27.886  1.00  0.00    -0.237 OA
ATOM     94  O   UNL A   1      46.497  35.921  25.988  1.00  0.00    -0.744 OA
ENDBRANCH  88  91
ENDBRANCH  61  84
ENDBRANCH  35  36
ENDBRANCH  27  30
ENDBRANCH  25  26
ENDBRANCH   1  25
TORSDOF 15
ENDMDL
