MODEL 1
REMARK VINA RESULT:     -12.6      0.000      0.000
REMARK SMILES O=C(NCCCNC(=O)[C@H]1CCCN(c2ccc(O)nn2)C1)c1ccc(-c2c3nc(c(-c4cccc(S(=O)(=O)[O-])c4F)c4ccc([nH]4)c(-c4cccc(S(=O)(=O)[O-])c4F)c4nc(c(-c5cccc(S(=O)(=O)[O-])c5F)c5ccc2[nH]5)C=C4)C=C3)cc1
REMARK SMILES IDX 4 1 3 2 1 3 2 4 23 6 24 7 85 8 25 9 84 10 26 11 27 12 28 13
REMARK SMILES IDX 78 14 29 15 83 16 77 17 79 18 30 19 82 20 76 21 75 22 31 24
REMARK SMILES IDX 63 25 43 26 62 27 44 28 47 29 61 30 80 31 45 32 46 33 60 35
REMARK SMILES IDX 81 36 48 37 32 38 33 39 41 40 34 41 36 42 42 43 35 44 37 45
REMARK SMILES IDX 38 46 39 47 40 48 64 49 65 50 73 51 66 52 68 53 74 54 67 55
REMARK SMILES IDX 69 56 70 57 71 58 72 59 49 60 50 61 58 62 51 63 53 64 59 65
REMARK SMILES IDX 52 66 54 67 55 68 56 69 57 70 5 71 6 72 7 73 8 74 9 76 10 77
REMARK SMILES IDX 11 78 22 79 12 80 14 81 13 82 15 83 16 84 21 85 17 86 20 87
REMARK SMILES IDX 18 88 19 89
REMARK H PARENT 3 5 79 23 47 34 7 75 19 90
REMARK Flexibility Score: inf
ROOT
ATOM      1  C   UNL A   1      32.927  29.267  25.757  1.00  0.00     0.118 C 
ENDROOT
BRANCH   1   2
ATOM      2  N   UNL A   1      32.693  30.660  26.118  1.00  0.00    -0.352 N 
ATOM      3  O   UNL A   1      32.683  32.428  27.499  1.00  0.00    -0.269 OA
ATOM      4  C   UNL A   1      33.259  31.415  27.114  1.00  0.00     0.251 C 
ATOM      5  H   UNL A   1      32.027  31.128  25.565  1.00  0.00     0.163 HD
BRANCH   4   6
ATOM      6  C   UNL A   1      34.559  31.026  27.701  1.00  0.00     0.039 A 
ATOM      7  C   UNL A   1      35.564  31.979  27.884  1.00  0.00     0.014 A 
ATOM      8  C   UNL A   1      34.740  29.719  28.165  1.00  0.00     0.014 A 
ATOM      9  C   UNL A   1      36.782  31.607  28.442  1.00  0.00     0.010 A 
ATOM     10  C   UNL A   1      35.942  29.359  28.782  1.00  0.00     0.010 A 
ATOM     11  C   UNL A   1      36.976  30.297  28.910  1.00  0.00    -0.014 A 
BRANCH  11  12
ATOM     12  C   UNL A   1      38.233  29.979  29.623  1.00  0.00     0.031 A 
ATOM     13  C   UNL A   1      38.506  30.503  30.998  1.00  0.00     0.074 A 
ATOM     14  C   UNL A   1      39.123  29.170  29.014  1.00  0.00     0.049 A 
ATOM     15  N   UNL A   1      39.470  30.174  31.817  1.00  0.00    -0.248 NA
ATOM     16  C   UNL A   1      37.588  31.523  31.527  1.00  0.00     0.031 C 
ATOM     17  C   UNL A   1      38.990  28.657  27.649  1.00  0.00     0.029 A 
ATOM     18  N   UNL A   1      40.298  28.629  29.464  1.00  0.00    -0.354 N 
ATOM     19  C   UNL A   1      39.291  30.957  32.948  1.00  0.00     0.074 A 
ATOM     20  C   UNL A   1      38.132  31.788  32.709  1.00  0.00     0.031 C 
ATOM     21  C   UNL A   1      40.026  27.850  27.383  1.00  0.00     0.029 A 
ATOM     22  C   UNL A   1      40.901  27.797  28.551  1.00  0.00     0.049 A 
ATOM     23  H   UNL A   1      40.675  28.817  30.354  1.00  0.00     0.167 HD
ATOM     24  C   UNL A   1      40.018  30.961  34.090  1.00  0.00     0.034 A 
ATOM     25  C   UNL A   1      42.023  27.058  28.644  1.00  0.00     0.034 A 
ATOM     26  C   UNL A   1      41.144  30.103  34.334  1.00  0.00     0.049 A 
ATOM     27  C   UNL A   1      42.787  27.047  29.936  1.00  0.00     0.074 A 
ATOM     28  C   UNL A   1      41.873  29.956  35.500  1.00  0.00     0.029 A 
ATOM     29  N   UNL A   1      41.715  29.259  33.393  1.00  0.00    -0.354 N 
ATOM     30  N   UNL A   1      42.500  27.658  31.059  1.00  0.00    -0.248 NA
ATOM     31  C   UNL A   1      44.006  26.230  29.987  1.00  0.00     0.031 C 
ATOM     32  C   UNL A   1      42.896  29.033  35.260  1.00  0.00     0.029 A 
ATOM     33  C   UNL A   1      42.800  28.604  33.945  1.00  0.00     0.049 A 
ATOM     34  H   UNL A   1      41.396  29.144  32.469  1.00  0.00     0.167 HD
ATOM     35  C   UNL A   1      43.494  27.294  31.957  1.00  0.00     0.074 A 
ATOM     36  C   UNL A   1      44.385  26.394  31.251  1.00  0.00     0.031 C 
ATOM     37  C   UNL A   1      43.657  27.683  33.244  1.00  0.00     0.034 A 
BRANCH  24  38
ATOM     38  C   UNL A   1      39.584  31.878  35.197  1.00  0.00     0.023 A 
ATOM     39  C   UNL A   1      39.877  33.253  35.101  1.00  0.00     0.012 A 
ATOM     40  C   UNL A   1      38.816  31.403  36.276  1.00  0.00     0.148 A 
ATOM     41  C   UNL A   1      39.420  34.144  36.070  1.00  0.00     0.002 A 
ATOM     42  C   UNL A   1      38.343  32.301  37.227  1.00  0.00     0.091 A 
ATOM     43  F   UNL A   1      38.568  30.088  36.355  1.00  0.00    -0.205 F 
ATOM     44  C   UNL A   1      38.646  33.669  37.126  1.00  0.00     0.022 A 
BRANCH  42  45
ATOM     45  S   UNL A   1      37.298  31.798  38.599  1.00  0.00     0.127 S 
ATOM     46  O   UNL A   1      38.165  32.075  39.743  1.00  0.00    -0.237 OA
ATOM     47  O   UNL A   1      36.156  32.704  38.466  1.00  0.00    -0.237 OA
ATOM     48  O   UNL A   1      36.989  30.394  38.374  1.00  0.00    -0.744 OA
ENDBRANCH  42  45
ENDBRANCH  24  38
BRANCH  25  49
ATOM     49  C   UNL A   1      42.413  26.208  27.490  1.00  0.00     0.023 A 
ATOM     50  C   UNL A   1      43.349  26.698  26.560  1.00  0.00     0.012 A 
ATOM     51  C   UNL A   1      41.969  24.873  27.391  1.00  0.00     0.148 A 
ATOM     52  C   UNL A   1      43.843  25.871  25.552  1.00  0.00     0.002 A 
ATOM     53  C   UNL A   1      42.496  24.045  26.409  1.00  0.00     0.091 A 
ATOM     54  F   UNL A   1      41.084  24.433  28.297  1.00  0.00    -0.205 F 
ATOM     55  C   UNL A   1      43.427  24.543  25.483  1.00  0.00     0.022 A 
BRANCH  53  56
ATOM     56  S   UNL A   1      42.114  22.292  26.310  1.00  0.00     0.127 S 
ATOM     57  O   UNL A   1      40.671  22.314  26.086  1.00  0.00    -0.237 OA
ATOM     58  O   UNL A   1      42.911  21.882  25.153  1.00  0.00    -0.237 OA
ATOM     59  O   UNL A   1      42.538  21.719  27.579  1.00  0.00    -0.744 OA
ENDBRANCH  53  56
ENDBRANCH  25  49
BRANCH  37  60
ATOM     60  C   UNL A   1      44.848  27.161  33.997  1.00  0.00     0.023 A 
ATOM     61  C   UNL A   1      46.001  27.964  34.091  1.00  0.00     0.012 A 
ATOM     62  C   UNL A   1      44.767  25.965  34.735  1.00  0.00     0.148 A 
ATOM     63  C   UNL A   1      47.060  27.584  34.914  1.00  0.00     0.002 A 
ATOM     64  C   UNL A   1      45.813  25.608  35.577  1.00  0.00     0.091 A 
ATOM     65  F   UNL A   1      43.657  25.221  34.624  1.00  0.00    -0.205 F 
ATOM     66  C   UNL A   1      46.960  26.415  35.666  1.00  0.00     0.022 A 
BRANCH  64  67
ATOM     67  S   UNL A   1      45.751  24.165  36.646  1.00  0.00     0.127 S 
ATOM     68  O   UNL A   1      47.055  24.226  37.305  1.00  0.00    -0.237 OA
ATOM     69  O   UNL A   1      44.614  24.473  37.513  1.00  0.00    -0.237 OA
ATOM     70  O   UNL A   1      45.558  23.019  35.769  1.00  0.00    -0.744 OA
ENDBRANCH  64  67
ENDBRANCH  37  60
ENDBRANCH  11  12
ENDBRANCH   4   6
ENDBRANCH   1   2
BRANCH   1  71
ATOM     71  C   UNL A   1      31.892  28.348  26.399  1.00  0.00     0.042 C 
BRANCH  71  72
ATOM     72  C   UNL A   1      31.267  27.380  25.401  1.00  0.00     0.117 C 
BRANCH  72  73
ATOM     73  N   UNL A   1      30.475  26.354  26.062  1.00  0.00    -0.356 N 
ATOM     74  C   UNL A   1      30.576  25.017  26.227  1.00  0.00     0.224 C 
ATOM     75  H   UNL A   1      29.671  26.724  26.492  1.00  0.00     0.163 HD
ATOM     76  O   UNL A   1      29.642  24.500  26.857  1.00  0.00    -0.275 OA
BRANCH  74  77
ATOM     77  C   UNL A   1      31.700  24.117  25.705  1.00  0.00     0.098 C 
ATOM     78  C   UNL A   1      33.138  24.404  26.138  1.00  0.00     0.017 C 
ATOM     79  C   UNL A   1      31.294  22.673  26.072  1.00  0.00     0.131 C 
ATOM     80  C   UNL A   1      34.125  23.321  25.702  1.00  0.00     0.022 C 
ATOM     81  N   UNL A   1      32.347  21.716  25.749  1.00  0.00    -0.354 N 
ATOM     82  C   UNL A   1      33.681  21.973  26.264  1.00  0.00     0.118 C 
BRANCH  81  83
ATOM     83  C   UNL A   1      32.233  20.746  24.779  1.00  0.00     0.151 A 
ATOM     84  C   UNL A   1      32.187  21.064  23.425  1.00  0.00     0.054 A 
ATOM     85  N   UNL A   1      32.232  19.443  25.156  1.00  0.00    -0.129 NA
ATOM     86  C   UNL A   1      32.153  20.048  22.477  1.00  0.00     0.074 A 
ATOM     87  N   UNL A   1      32.166  18.434  24.236  1.00  0.00    -0.110 NA
ATOM     88  C   UNL A   1      32.134  18.757  22.937  1.00  0.00     0.231 A 
BRANCH  88  89
ATOM     89  O   UNL A   1      32.091  17.707  22.077  1.00  0.00    -0.492 OA
ATOM     90  H   UNL A   1      32.110  17.857  21.153  1.00  0.00     0.295 HD
ENDBRANCH  88  89
ENDBRANCH  81  83
ENDBRANCH  74  77
ENDBRANCH  72  73
ENDBRANCH  71  72
ENDBRANCH   1  71
TORSDOF 15
ENDMDL
MODEL 2
REMARK VINA RESULT:     -12.6      1.306      1.733
REMARK SMILES O=C(NCCCNC(=O)[C@H]1CCCN(c2ccc(O)nn2)C1)c1ccc(-c2c3nc(c(-c4cccc(S(=O)(=O)[O-])c4F)c4ccc([nH]4)c(-c4cccc(S(=O)(=O)[O-])c4F)c4nc(c(-c5cccc(S(=O)(=O)[O-])c5F)c5ccc2[nH]5)C=C4)C=C3)cc1
REMARK SMILES IDX 4 1 3 2 1 3 2 4 23 6 24 7 85 8 25 9 84 10 26 11 27 12 28 13
REMARK SMILES IDX 78 14 29 15 83 16 77 17 79 18 30 19 82 20 76 21 75 22 31 24
REMARK SMILES IDX 63 25 43 26 62 27 44 28 47 29 61 30 80 31 45 32 46 33 60 35
REMARK SMILES IDX 81 36 48 37 32 38 33 39 41 40 34 41 36 42 42 43 35 44 37 45
REMARK SMILES IDX 38 46 39 47 40 48 64 49 65 50 73 51 66 52 68 53 74 54 67 55
REMARK SMILES IDX 69 56 70 57 71 58 72 59 49 60 50 61 58 62 51 63 53 64 59 65
REMARK SMILES IDX 52 66 54 67 55 68 56 69 57 70 5 71 6 72 7 73 8 74 9 76 10 77
REMARK SMILES IDX 11 78 22 79 12 80 14 81 13 82 15 83 16 84 21 85 17 86 20 87
REMARK SMILES IDX 18 88 19 89
REMARK H PARENT 3 5 79 23 47 34 7 75 19 90
REMARK Flexibility Score: inf
ROOT
ATOM      1  C   UNL A   1      33.120  29.003  25.430  1.00  0.00     0.118 C 
ENDROOT
BRANCH   1   2
ATOM      2  N   UNL A   1      32.660  30.361  25.701  1.00  0.00    -0.352 N 
ATOM      3  O   UNL A   1      32.205  32.131  27.001  1.00  0.00    -0.269 OA
ATOM      4  C   UNL A   1      32.956  31.193  26.750  1.00  0.00     0.251 C 
ATOM      5  H   UNL A   1      32.045  30.735  25.030  1.00  0.00     0.163 HD
BRANCH   4   6
ATOM      6  C   UNL A   1      34.177  30.978  27.556  1.00  0.00     0.039 A 
ATOM      7  C   UNL A   1      34.413  29.741  28.161  1.00  0.00     0.014 A 
ATOM      8  C   UNL A   1      35.142  31.988  27.626  1.00  0.00     0.014 A 
ATOM      9  C   UNL A   1      35.565  29.544  28.914  1.00  0.00     0.010 A 
ATOM     10  C   UNL A   1      36.329  31.769  28.331  1.00  0.00     0.010 A 
ATOM     11  C   UNL A   1      36.540  30.551  28.993  1.00  0.00    -0.014 A 
BRANCH  11  12
ATOM     12  C   UNL A   1      37.813  30.251  29.686  1.00  0.00     0.031 A 
ATOM     13  C   UNL A   1      38.083  30.745  31.073  1.00  0.00     0.074 A 
ATOM     14  C   UNL A   1      38.720  29.485  29.048  1.00  0.00     0.049 A 
ATOM     15  N   UNL A   1      39.065  30.423  31.874  1.00  0.00    -0.248 NA
ATOM     16  C   UNL A   1      37.141  31.723  31.637  1.00  0.00     0.031 C 
ATOM     17  C   UNL A   1      38.589  29.006  27.671  1.00  0.00     0.029 A 
ATOM     18  N   UNL A   1      39.915  28.967  29.472  1.00  0.00    -0.354 N 
ATOM     19  C   UNL A   1      38.874  31.170  33.027  1.00  0.00     0.074 A 
ATOM     20  C   UNL A   1      37.688  31.972  32.821  1.00  0.00     0.031 C 
ATOM     21  C   UNL A   1      39.646  28.236  27.373  1.00  0.00     0.029 A 
ATOM     22  C   UNL A   1      40.534  28.178  28.531  1.00  0.00     0.049 A 
ATOM     23  H   UNL A   1      40.295  29.141  30.364  1.00  0.00     0.167 HD
ATOM     24  C   UNL A   1      39.611  31.164  34.162  1.00  0.00     0.034 A 
ATOM     25  C   UNL A   1      41.678  27.471  28.595  1.00  0.00     0.034 A 
ATOM     26  C   UNL A   1      40.764  30.333  34.373  1.00  0.00     0.049 A 
ATOM     27  C   UNL A   1      42.454  27.447  29.879  1.00  0.00     0.074 A 
ATOM     28  C   UNL A   1      41.508  30.177  35.528  1.00  0.00     0.029 A 
ATOM     29  N   UNL A   1      41.351  29.532  33.404  1.00  0.00    -0.354 N 
ATOM     30  N   UNL A   1      42.160  28.019  31.021  1.00  0.00    -0.248 NA
ATOM     31  C   UNL A   1      43.697  26.665  29.897  1.00  0.00     0.031 C 
ATOM     32  C   UNL A   1      42.555  29.291  35.254  1.00  0.00     0.029 A 
ATOM     33  C   UNL A   1      42.460  28.895  33.929  1.00  0.00     0.049 A 
ATOM     34  H   UNL A   1      41.026  29.433  32.480  1.00  0.00     0.167 HD
ATOM     35  C   UNL A   1      43.173  27.660  31.900  1.00  0.00     0.074 A 
ATOM     36  C   UNL A   1      44.083  26.806  31.161  1.00  0.00     0.031 C 
ATOM     37  C   UNL A   1      43.336  28.018  33.195  1.00  0.00     0.034 A 
BRANCH  24  38
ATOM     38  C   UNL A   1      39.161  32.038  35.298  1.00  0.00     0.023 A 
ATOM     39  C   UNL A   1      38.258  31.517  36.246  1.00  0.00     0.012 A 
ATOM     40  C   UNL A   1      39.694  33.328  35.478  1.00  0.00     0.148 A 
ATOM     41  C   UNL A   1      37.882  32.273  37.355  1.00  0.00     0.002 A 
ATOM     42  C   UNL A   1      39.334  34.067  36.599  1.00  0.00     0.091 A 
ATOM     43  F   UNL A   1      40.535  33.808  34.551  1.00  0.00    -0.205 F 
ATOM     44  C   UNL A   1      38.427  33.542  37.536  1.00  0.00     0.022 A 
BRANCH  42  45
ATOM     45  S   UNL A   1      40.016  35.691  36.949  1.00  0.00     0.127 S 
ATOM     46  O   UNL A   1      39.364  36.014  38.218  1.00  0.00    -0.237 OA
ATOM     47  O   UNL A   1      41.448  35.409  37.054  1.00  0.00    -0.237 OA
ATOM     48  O   UNL A   1      39.643  36.534  35.823  1.00  0.00    -0.744 OA
ENDBRANCH  42  45
ENDBRANCH  24  38
BRANCH  25  49
ATOM     49  C   UNL A   1      42.081  26.663  27.414  1.00  0.00     0.023 A 
ATOM     50  C   UNL A   1      42.890  27.251  26.424  1.00  0.00     0.012 A 
ATOM     51  C   UNL A   1      41.785  25.287  27.343  1.00  0.00     0.148 A 
ATOM     52  C   UNL A   1      43.404  26.480  25.382  1.00  0.00     0.002 A 
ATOM     53  C   UNL A   1      42.333  24.518  26.325  1.00  0.00     0.091 A 
ATOM     54  F   UNL A   1      41.019  24.755  28.306  1.00  0.00    -0.205 F 
ATOM     55  C   UNL A   1      43.136  25.113  25.338  1.00  0.00     0.022 A 
BRANCH  53  56
ATOM     56  S   UNL A   1      42.145  22.733  26.248  1.00  0.00     0.127 S 
ATOM     57  O   UNL A   1      42.841  22.307  27.459  1.00  0.00    -0.237 OA
ATOM     58  O   UNL A   1      40.689  22.588  26.290  1.00  0.00    -0.237 OA
ATOM     59  O   UNL A   1      42.764  22.320  24.997  1.00  0.00    -0.744 OA
ENDBRANCH  53  56
ENDBRANCH  25  49
BRANCH  37  60
ATOM     60  C   UNL A   1      44.549  27.512  33.924  1.00  0.00     0.023 A 
ATOM     61  C   UNL A   1      45.722  28.290  33.918  1.00  0.00     0.012 A 
ATOM     62  C   UNL A   1      44.476  26.364  34.734  1.00  0.00     0.148 A 
ATOM     63  C   UNL A   1      46.810  27.932  34.713  1.00  0.00     0.002 A 
ATOM     64  C   UNL A   1      45.552  26.031  35.549  1.00  0.00     0.091 A 
ATOM     65  F   UNL A   1      43.346  25.643  34.718  1.00  0.00    -0.205 F 
ATOM     66  C   UNL A   1      46.720  26.812  35.537  1.00  0.00     0.022 A 
BRANCH  64  67
ATOM     67  S   UNL A   1      45.508  24.655  36.703  1.00  0.00     0.127 S 
ATOM     68  O   UNL A   1      45.244  23.526  35.812  1.00  0.00    -0.237 OA
ATOM     69  O   UNL A   1      46.857  24.685  37.268  1.00  0.00    -0.237 OA
ATOM     70  O   UNL A   1      44.443  24.954  37.650  1.00  0.00    -0.744 OA
ENDBRANCH  64  67
ENDBRANCH  37  60
ENDBRANCH  11  12
ENDBRANCH   4   6
ENDBRANCH   1   2
BRANCH   1  71
ATOM     71  C   UNL A   1      32.260  27.974  26.158  1.00  0.00     0.042 C 
BRANCH  71  72
ATOM     72  C   UNL A   1      31.194  27.358  25.259  1.00  0.00     0.117 C 
BRANCH  72  73
ATOM     73  N   UNL A   1      30.418  26.343  25.954  1.00  0.00    -0.356 N 
ATOM     74  C   UNL A   1      30.537  25.014  26.162  1.00  0.00     0.224 C 
ATOM     75  H   UNL A   1      29.608  26.716  26.374  1.00  0.00     0.163 HD
ATOM     76  O   UNL A   1      29.612  24.504  26.810  1.00  0.00    -0.275 OA
BRANCH  74  77
ATOM     77  C   UNL A   1      31.673  24.113  25.668  1.00  0.00     0.098 C 
ATOM     78  C   UNL A   1      33.104  24.414  26.116  1.00  0.00     0.017 C 
ATOM     79  C   UNL A   1      31.270  22.672  26.050  1.00  0.00     0.131 C 
ATOM     80  C   UNL A   1      34.102  23.331  25.708  1.00  0.00     0.022 C 
ATOM     81  N   UNL A   1      32.333  21.716  25.754  1.00  0.00    -0.354 N 
ATOM     82  C   UNL A   1      33.659  21.989  26.283  1.00  0.00     0.118 C 
BRANCH  81  83
ATOM     83  C   UNL A   1      32.237  20.733  24.797  1.00  0.00     0.151 A 
ATOM     84  C   UNL A   1      32.210  21.031  23.438  1.00  0.00     0.054 A 
ATOM     85  N   UNL A   1      32.236  19.435  25.192  1.00  0.00    -0.129 NA
ATOM     86  C   UNL A   1      32.195  20.001  22.503  1.00  0.00     0.074 A 
ATOM     87  N   UNL A   1      32.187  18.413  24.285  1.00  0.00    -0.110 NA
ATOM     88  C   UNL A   1      32.174  18.717  22.982  1.00  0.00     0.231 A 
BRANCH  88  89
ATOM     89  O   UNL A   1      32.148  17.655  22.136  1.00  0.00    -0.492 OA
ATOM     90  H   UNL A   1      32.359  16.799  22.453  1.00  0.00     0.295 HD
ENDBRANCH  88  89
ENDBRANCH  81  83
ENDBRANCH  74  77
ENDBRANCH  72  73
ENDBRANCH  71  72
ENDBRANCH   1  71
TORSDOF 15
ENDMDL
MODEL 3
REMARK VINA RESULT:     -12.6      1.924      2.396
REMARK SMILES O=C(NCCCNC(=O)[C@H]1CCCN(c2ccc(O)nn2)C1)c1ccc(-c2c3nc(c(-c4cccc(S(=O)(=O)[O-])c4F)c4ccc([nH]4)c(-c4cccc(S(=O)(=O)[O-])c4F)c4nc(c(-c5cccc(S(=O)(=O)[O-])c5F)c5ccc2[nH]5)C=C4)C=C3)cc1
REMARK SMILES IDX 4 1 3 2 1 3 2 4 23 6 24 7 85 8 25 9 84 10 26 11 27 12 28 13
REMARK SMILES IDX 78 14 29 15 83 16 77 17 79 18 30 19 82 20 76 21 75 22 31 24
REMARK SMILES IDX 63 25 43 26 62 27 44 28 47 29 61 30 80 31 45 32 46 33 60 35
REMARK SMILES IDX 81 36 48 37 32 38 33 39 41 40 34 41 36 42 42 43 35 44 37 45
REMARK SMILES IDX 38 46 39 47 40 48 64 49 65 50 73 51 66 52 68 53 74 54 67 55
REMARK SMILES IDX 69 56 70 57 71 58 72 59 49 60 50 61 58 62 51 63 53 64 59 65
REMARK SMILES IDX 52 66 54 67 55 68 56 69 57 70 5 71 6 72 7 73 8 74 9 76 10 77
REMARK SMILES IDX 11 78 22 79 12 80 14 81 13 82 15 83 16 84 21 85 17 86 20 87
REMARK SMILES IDX 18 88 19 89
REMARK H PARENT 3 5 79 23 47 34 7 75 19 90
REMARK Flexibility Score: inf
ROOT
ATOM      1  C   UNL A   1      32.583  29.804  27.148  1.00  0.00     0.118 C 
ENDROOT
BRANCH   1   2
ATOM      2  N   UNL A   1      32.718  31.249  27.001  1.00  0.00    -0.352 N 
ATOM      3  O   UNL A   1      33.355  33.306  27.630  1.00  0.00    -0.269 OA
ATOM      4  C   UNL A   1      33.620  32.108  27.575  1.00  0.00     0.251 C 
ATOM      5  H   UNL A   1      32.062  31.670  26.400  1.00  0.00     0.163 HD
BRANCH   4   6
ATOM      6  C   UNL A   1      34.906  31.602  28.101  1.00  0.00     0.039 A 
ATOM      7  C   UNL A   1      35.988  32.469  28.273  1.00  0.00     0.014 A 
ATOM      8  C   UNL A   1      35.001  30.271  28.519  1.00  0.00     0.014 A 
ATOM      9  C   UNL A   1      37.192  31.987  28.772  1.00  0.00     0.010 A 
ATOM     10  C   UNL A   1      36.193  29.801  29.079  1.00  0.00     0.010 A 
ATOM     11  C   UNL A   1      37.300  30.653  29.194  1.00  0.00    -0.014 A 
BRANCH  11  12
ATOM     12  C   UNL A   1      38.554  30.217  29.850  1.00  0.00     0.031 A 
ATOM     13  C   UNL A   1      38.914  30.672  31.229  1.00  0.00     0.074 A 
ATOM     14  C   UNL A   1      39.357  29.363  29.184  1.00  0.00     0.049 A 
ATOM     15  N   UNL A   1      39.879  30.245  32.001  1.00  0.00    -0.248 NA
ATOM     16  C   UNL A   1      38.097  31.741  31.823  1.00  0.00     0.031 C 
ATOM     17  C   UNL A   1      39.136  28.907  27.810  1.00  0.00     0.029 A 
ATOM     18  N   UNL A   1      40.502  28.719  29.572  1.00  0.00    -0.354 N 
ATOM     19  C   UNL A   1      39.801  31.002  33.160  1.00  0.00     0.074 A 
ATOM     20  C   UNL A   1      38.701  31.925  32.991  1.00  0.00     0.031 C 
ATOM     21  C   UNL A   1      40.097  28.033  27.480  1.00  0.00     0.029 A 
ATOM     22  C   UNL A   1      41.007  27.875  28.612  1.00  0.00     0.049 A 
ATOM     23  H   UNL A   1      40.923  28.849  30.453  1.00  0.00     0.167 HD
ATOM     24  C   UNL A   1      40.566  30.913  34.274  1.00  0.00     0.034 A 
ATOM     25  C   UNL A   1      42.071  27.051  28.641  1.00  0.00     0.034 A 
ATOM     26  C   UNL A   1      41.630  29.964  34.449  1.00  0.00     0.049 A 
ATOM     27  C   UNL A   1      42.877  26.939  29.902  1.00  0.00     0.074 A 
ATOM     28  C   UNL A   1      42.387  29.724  35.582  1.00  0.00     0.029 A 
ATOM     29  N   UNL A   1      42.101  29.111  33.462  1.00  0.00    -0.354 N 
ATOM     30  N   UNL A   1      42.678  27.533  31.053  1.00  0.00    -0.248 NA
ATOM     31  C   UNL A   1      44.031  26.031  29.882  1.00  0.00     0.031 C 
ATOM     32  C   UNL A   1      43.326  28.734  35.276  1.00  0.00     0.029 A 
ATOM     33  C   UNL A   1      43.152  28.357  33.953  1.00  0.00     0.049 A 
ATOM     34  H   UNL A   1      41.741  29.051  32.548  1.00  0.00     0.167 HD
ATOM     35  C   UNL A   1      43.672  27.065  31.901  1.00  0.00     0.074 A 
ATOM     36  C   UNL A   1      44.465  26.123  31.135  1.00  0.00     0.031 C 
ATOM     37  C   UNL A   1      43.909  27.397  33.192  1.00  0.00     0.034 A 
BRANCH  24  38
ATOM     38  C   UNL A   1      40.243  31.823  35.424  1.00  0.00     0.023 A 
ATOM     39  C   UNL A   1      41.010  32.991  35.607  1.00  0.00     0.012 A 
ATOM     40  C   UNL A   1      39.138  31.576  36.259  1.00  0.00     0.148 A 
ATOM     41  C   UNL A   1      40.688  33.898  36.615  1.00  0.00     0.002 A 
ATOM     42  C   UNL A   1      38.808  32.498  37.247  1.00  0.00     0.091 A 
ATOM     43  F   UNL A   1      38.438  30.448  36.076  1.00  0.00    -0.205 F 
ATOM     44  C   UNL A   1      39.583  33.656  37.427  1.00  0.00     0.022 A 
BRANCH  42  45
ATOM     45  S   UNL A   1      37.376  32.303  38.314  1.00  0.00     0.127 S 
ATOM     46  O   UNL A   1      37.851  32.912  39.555  1.00  0.00    -0.237 OA
ATOM     47  O   UNL A   1      36.356  33.078  37.606  1.00  0.00    -0.237 OA
ATOM     48  O   UNL A   1      37.116  30.872  38.380  1.00  0.00    -0.744 OA
ENDBRANCH  42  45
ENDBRANCH  24  38
BRANCH  25  49
ATOM     49  C   UNL A   1      42.352  26.211  27.447  1.00  0.00     0.023 A 
ATOM     50  C   UNL A   1      43.189  26.716  26.435  1.00  0.00     0.012 A 
ATOM     51  C   UNL A   1      41.913  24.874  27.383  1.00  0.00     0.148 A 
ATOM     52  C   UNL A   1      43.589  25.901  25.376  1.00  0.00     0.002 A 
ATOM     53  C   UNL A   1      42.348  24.057  26.347  1.00  0.00     0.091 A 
ATOM     54  F   UNL A   1      41.125  24.420  28.367  1.00  0.00    -0.205 F 
ATOM     55  C   UNL A   1      43.179  24.570  25.338  1.00  0.00     0.022 A 
BRANCH  53  56
ATOM     56  S   UNL A   1      41.972  22.302  26.272  1.00  0.00     0.127 S 
ATOM     57  O   UNL A   1      42.660  21.901  25.047  1.00  0.00    -0.237 OA
ATOM     58  O   UNL A   1      42.585  21.817  27.510  1.00  0.00    -0.237 OA
ATOM     59  O   UNL A   1      40.521  22.205  26.231  1.00  0.00    -0.744 OA
ENDBRANCH  53  56
ENDBRANCH  25  49
BRANCH  37  60
ATOM     60  C   UNL A   1      45.083  26.763  33.884  1.00  0.00     0.023 A 
ATOM     61  C   UNL A   1      46.333  27.408  33.837  1.00  0.00     0.012 A 
ATOM     62  C   UNL A   1      44.911  25.629  34.702  1.00  0.00     0.148 A 
ATOM     63  C   UNL A   1      47.400  26.934  34.598  1.00  0.00     0.002 A 
ATOM     64  C   UNL A   1      45.970  25.182  35.483  1.00  0.00     0.091 A 
ATOM     65  F   UNL A   1      43.709  25.036  34.725  1.00  0.00    -0.205 F 
ATOM     66  C   UNL A   1      47.215  25.831  35.430  1.00  0.00     0.022 A 
BRANCH  64  67
ATOM     67  S   UNL A   1      45.813  23.820  36.644  1.00  0.00     0.127 S 
ATOM     68  O   UNL A   1      45.432  22.718  35.763  1.00  0.00    -0.237 OA
ATOM     69  O   UNL A   1      47.166  23.726  37.191  1.00  0.00    -0.237 OA
ATOM     70  O   UNL A   1      44.793  24.221  37.604  1.00  0.00    -0.744 OA
ENDBRANCH  64  67
ENDBRANCH  37  60
ENDBRANCH  11  12
ENDBRANCH   4   6
ENDBRANCH   1   2
BRANCH   1  71
ATOM     71  C   UNL A   1      31.787  29.203  25.993  1.00  0.00     0.042 C 
BRANCH  71  72
ATOM     72  C   UNL A   1      32.560  29.215  24.679  1.00  0.00     0.117 C 
BRANCH  72  73
ATOM     73  N   UNL A   1      31.726  28.822  23.554  1.00  0.00    -0.356 N 
ATOM     74  C   UNL A   1      31.345  27.649  23.001  1.00  0.00     0.224 C 
ATOM     75  H   UNL A   1      31.347  29.598  23.082  1.00  0.00     0.163 HD
ATOM     76  O   UNL A   1      30.622  27.758  22.000  1.00  0.00    -0.275 OA
BRANCH  74  77
ATOM     77  C   UNL A   1      31.733  26.248  23.480  1.00  0.00     0.098 C 
ATOM     78  C   UNL A   1      30.667  25.151  23.498  1.00  0.00     0.017 C 
ATOM     79  C   UNL A   1      32.943  25.823  22.618  1.00  0.00     0.131 C 
ATOM     80  C   UNL A   1      31.234  23.767  23.812  1.00  0.00     0.022 C 
ATOM     81  N   UNL A   1      33.335  24.442  22.879  1.00  0.00    -0.354 N 
ATOM     82  C   UNL A   1      32.311  23.415  22.789  1.00  0.00     0.118 C 
BRANCH  81  83
ATOM     83  C   UNL A   1      34.527  24.080  23.464  1.00  0.00     0.151 A 
ATOM     84  C   UNL A   1      34.826  24.406  24.783  1.00  0.00     0.054 A 
ATOM     85  N   UNL A   1      35.403  23.327  22.751  1.00  0.00    -0.129 NA
ATOM     86  C   UNL A   1      36.007  23.950  25.358  1.00  0.00     0.074 A 
ATOM     87  N   UNL A   1      36.583  22.900  23.293  1.00  0.00    -0.110 NA
ATOM     88  C   UNL A   1      36.850  23.213  24.567  1.00  0.00     0.231 A 
BRANCH  88  89
ATOM     89  O   UNL A   1      38.027  22.738  25.048  1.00  0.00    -0.492 OA
ATOM     90  H   UNL A   1      38.070  21.879  25.418  1.00  0.00     0.295 HD
ENDBRANCH  88  89
ENDBRANCH  81  83
ENDBRANCH  74  77
ENDBRANCH  72  73
ENDBRANCH  71  72
ENDBRANCH   1  71
TORSDOF 15
ENDMDL
