MODEL 1
REMARK VINA RESULT:     -12.0      0.000      0.000
REMARK SMILES CC1(C)CC[C@@]2(C(=O)NCCCNC(=O)c3ccc(-c4c5nc(c(-c6cccc(S(=O)(=O)[O-])c6F)c6ccc([nH]6)c(-c6cccc(S(=O)(=O)[O-])c6F)c6nc(c(-c7cccc(S(=O)(=O)[O-])c7F)c7ccc4[nH]7)C=C6)C=C5)cc3)CC[C@@]3(C)C(=CC[C@H]4[C@@]5(C)CC[C@H](O)C(C)(C)[C@@H]5CC[C@]43C)[C@@H]2C1
REMARK SMILES IDX 12 1 11 2 10 3 9 4 7 5 8 6 6 8 1 9 2 10 3 11 4 12 102 13
REMARK SMILES IDX 5 14 101 15 83 16 79 17 81 18 84 19 80 20 82 21 99 22 85 23
REMARK SMILES IDX 86 24 98 25 100 26 87 27 97 28 88 29 89 30 96 31 90 32 93 33
REMARK SMILES IDX 91 34 94 35 95 36 92 37 13 39 14 40 15 42 16 43 17 44 78 45
REMARK SMILES IDX 18 46 77 47 19 48 20 49 21 50 71 51 22 52 76 53 70 54 72 55
REMARK SMILES IDX 23 56 75 57 69 58 68 59 24 61 56 62 36 63 55 64 37 65 40 66
REMARK SMILES IDX 54 67 73 68 38 69 39 70 53 72 74 73 41 74 25 75 26 76 34 77
REMARK SMILES IDX 27 78 29 79 35 80 28 81 30 82 31 83 32 84 33 85 57 86 58 87
REMARK SMILES IDX 66 88 59 89 61 90 67 91 60 92 62 93 63 94 64 95 65 96 42 97
REMARK SMILES IDX 43 98 51 99 44 100 46 101 52 102 45 103 47 104 48 105 49 106
REMARK SMILES IDX 50 107
REMARK H PARENT 9 7 92 38 13 41 72 60 40 71
REMARK Flexibility Score: inf
ROOT
ATOM      1  C   UNL A   1      34.273  29.170  27.740  1.00  0.00     0.118 C 
ENDROOT
BRANCH   1   2
ATOM      2  C   UNL A   1      35.198  28.897  26.568  1.00  0.00     0.042 C 
BRANCH   2   3
ATOM      3  C   UNL A   1      34.825  27.732  25.683  1.00  0.00     0.117 C 
BRANCH   3   4
ATOM      4  N   UNL A   1      33.792  27.951  24.704  1.00  0.00    -0.356 N 
ATOM      5  C   UNL A   1      32.627  27.257  24.515  1.00  0.00     0.226 C 
ATOM      6  O   UNL A   1      32.570  26.345  23.690  1.00  0.00    -0.274 OA
ATOM      7  H   UNL A   1      33.944  28.703  24.086  1.00  0.00     0.163 HD
BRANCH   5   8
ATOM      8  C   UNL A   1      31.369  27.691  25.325  1.00  0.00     0.056 C 
ATOM      9  C   UNL A   1      29.195  30.611  23.423  1.00  0.00     0.011 C 
ATOM     10  C   UNL A   1      30.134  29.408  23.148  1.00  0.00    -0.035 C 
ATOM     11  C   UNL A   1      30.353  29.455  21.601  1.00  0.00     0.011 C 
ATOM     12  C   UNL A   1      31.433  29.768  23.907  1.00  0.00     0.007 C 
ATOM     13  C   UNL A   1      29.454  28.023  23.585  1.00  0.00     0.015 C 
ATOM     14  C   UNL A   1      31.424  29.229  25.329  1.00  0.00     0.018 C 
ATOM     15  C   UNL A   1      30.012  27.160  24.804  1.00  0.00     0.031 C 
ATOM     16  C   UNL A   1      30.110  25.562  24.805  1.00  0.00    -0.064 C 
ATOM     17  C   UNL A   1      31.473  27.221  26.794  1.00  0.00     0.018 C 
ATOM     18  C   UNL A   1      30.500  24.858  26.161  1.00  0.00    -0.006 C 
ATOM     19  C   UNL A   1      30.039  24.834  23.674  1.00  0.00    -0.027 C 
ATOM     20  C   UNL A   1      31.558  25.703  26.924  1.00  0.00     0.013 C 
ATOM     21  C   UNL A   1      29.190  24.905  27.013  1.00  0.00     0.017 C 
ATOM     22  C   UNL A   1      31.021  23.271  26.019  1.00  0.00    -0.020 C 
ATOM     23  C   UNL A   1      30.664  23.474  23.483  1.00  0.00     0.032 C 
ATOM     24  C   UNL A   1      31.627  22.963  24.596  1.00  0.00     0.006 C 
ATOM     25  C   UNL A   1      31.989  22.754  27.159  1.00  0.00     0.008 C 
ATOM     26  C   UNL A   1      29.777  22.301  26.139  1.00  0.00     0.012 C 
ATOM     27  C   UNL A   1      33.251  22.932  24.346  1.00  0.00    -0.025 C 
ATOM     28  C   UNL A   1      33.262  22.005  26.693  1.00  0.00     0.005 C 
ATOM     29  C   UNL A   1      33.468  21.693  23.425  1.00  0.00     0.012 C 
ATOM     30  C   UNL A   1      33.905  24.119  23.633  1.00  0.00     0.010 C 
ATOM     31  C   UNL A   1      34.020  22.887  25.708  1.00  0.00     0.003 C 
ATOM     32  C   UNL A   1      35.425  24.114  23.447  1.00  0.00     0.033 C 
ATOM     33  C   UNL A   1      35.603  22.789  25.628  1.00  0.00    -0.006 C 
ATOM     34  C   UNL A   1      36.122  24.009  24.796  1.00  0.00     0.120 C 
ATOM     35  C   UNL A   1      36.147  21.474  25.040  1.00  0.00     0.014 C 
ATOM     36  C   UNL A   1      36.219  22.917  27.044  1.00  0.00     0.014 C 
BRANCH  34  37
ATOM     37  O   UNL A   1      37.530  23.943  24.601  1.00  0.00    -0.393 OA
ATOM     38  H   UNL A   1      37.808  24.657  24.006  1.00  0.00     0.210 HD
ENDBRANCH  34  37
ENDBRANCH   5   8
ENDBRANCH   3   4
ENDBRANCH   2   3
ENDBRANCH   1   2
BRANCH   1  39
ATOM     39  N   UNL A   1      33.783  30.531  27.894  1.00  0.00    -0.352 N 
ATOM     40  C   UNL A   1      34.510  31.577  28.429  1.00  0.00     0.251 C 
ATOM     41  H   UNL A   1      32.864  30.721  27.596  1.00  0.00     0.163 HD
ATOM     42  O   UNL A   1      34.070  32.722  28.455  1.00  0.00    -0.269 OA
BRANCH  40  43
ATOM     43  C   UNL A   1      35.823  31.250  29.025  1.00  0.00     0.039 A 
ATOM     44  C   UNL A   1      35.871  30.261  30.008  1.00  0.00     0.014 A 
ATOM     45  C   UNL A   1      36.995  31.744  28.440  1.00  0.00     0.014 A 
ATOM     46  C   UNL A   1      37.105  29.723  30.374  1.00  0.00     0.010 A 
ATOM     47  C   UNL A   1      38.212  31.140  28.748  1.00  0.00     0.010 A 
ATOM     48  C   UNL A   1      38.283  30.134  29.727  1.00  0.00    -0.014 A 
BRANCH  48  49
ATOM     49  C   UNL A   1      39.597  29.547  30.103  1.00  0.00     0.031 A 
ATOM     50  C   UNL A   1      40.361  30.126  31.262  1.00  0.00     0.074 A 
ATOM     51  C   UNL A   1      40.123  28.529  29.391  1.00  0.00     0.049 A 
ATOM     52  N   UNL A   1      41.502  29.742  31.772  1.00  0.00    -0.248 NA
ATOM     53  C   UNL A   1      39.782  31.310  31.921  1.00  0.00     0.031 C 
ATOM     54  C   UNL A   1      39.531  27.936  28.189  1.00  0.00     0.029 A 
ATOM     55  N   UNL A   1      41.284  27.818  29.571  1.00  0.00    -0.354 N 
ATOM     56  C   UNL A   1      41.792  30.655  32.777  1.00  0.00     0.074 A 
ATOM     57  C   UNL A   1      40.735  31.639  32.778  1.00  0.00     0.031 C 
ATOM     58  C   UNL A   1      40.323  26.942  27.752  1.00  0.00     0.029 A 
ATOM     59  C   UNL A   1      41.483  26.830  28.633  1.00  0.00     0.049 A 
ATOM     60  H   UNL A   1      41.916  27.998  30.303  1.00  0.00     0.167 HD
ATOM     61  C   UNL A   1      42.820  30.653  33.659  1.00  0.00     0.034 A 
ATOM     62  C   UNL A   1      42.478  25.927  28.509  1.00  0.00     0.034 A 
ATOM     63  C   UNL A   1      43.831  29.636  33.706  1.00  0.00     0.049 A 
ATOM     64  C   UNL A   1      43.572  25.899  29.546  1.00  0.00     0.074 A 
ATOM     65  C   UNL A   1      44.855  29.483  34.623  1.00  0.00     0.029 A 
ATOM     66  N   UNL A   1      43.946  28.597  32.797  1.00  0.00    -0.354 N 
ATOM     67  N   UNL A   1      43.726  26.659  30.604  1.00  0.00    -0.248 NA
ATOM     68  C   UNL A   1      44.606  24.864  29.398  1.00  0.00     0.031 C 
ATOM     69  C   UNL A   1      45.596  28.354  34.262  1.00  0.00     0.029 A 
ATOM     70  C   UNL A   1      45.024  27.797  33.129  1.00  0.00     0.049 A 
ATOM     71  H   UNL A   1      43.348  28.449  32.029  1.00  0.00     0.167 HD
ATOM     72  C   UNL A   1      44.848  26.172  31.265  1.00  0.00     0.074 A 
ATOM     73  C   UNL A   1      45.324  25.038  30.500  1.00  0.00     0.031 C 
ATOM     74  C   UNL A   1      45.444  26.632  32.393  1.00  0.00     0.034 A 
BRANCH  61  75
ATOM     75  C   UNL A   1      42.853  31.751  34.689  1.00  0.00     0.023 A 
ATOM     76  C   UNL A   1      43.623  32.906  34.444  1.00  0.00     0.012 A 
ATOM     77  C   UNL A   1      42.101  31.660  35.875  1.00  0.00     0.148 A 
ATOM     78  C   UNL A   1      43.677  33.936  35.381  1.00  0.00     0.002 A 
ATOM     79  C   UNL A   1      42.124  32.710  36.784  1.00  0.00     0.091 A 
ATOM     80  F   UNL A   1      41.394  30.542  36.101  1.00  0.00    -0.205 F 
ATOM     81  C   UNL A   1      42.922  33.843  36.544  1.00  0.00     0.022 A 
BRANCH  79  82
ATOM     82  S   UNL A   1      41.128  32.719  38.278  1.00  0.00     0.127 S 
ATOM     83  O   UNL A   1      41.909  31.853  39.160  1.00  0.00    -0.237 OA
ATOM     84  O   UNL A   1      41.141  34.135  38.649  1.00  0.00    -0.237 OA
ATOM     85  O   UNL A   1      39.822  32.207  37.891  1.00  0.00    -0.744 OA
ENDBRANCH  79  82
ENDBRANCH  61  75
BRANCH  62  86
ATOM     86  C   UNL A   1      42.436  24.908  27.419  1.00  0.00     0.023 A 
ATOM     87  C   UNL A   1      43.272  25.066  26.295  1.00  0.00     0.012 A 
ATOM     88  C   UNL A   1      41.598  23.780  27.495  1.00  0.00     0.148 A 
ATOM     89  C   UNL A   1      43.249  24.139  25.252  1.00  0.00     0.002 A 
ATOM     90  C   UNL A   1      41.619  22.831  26.477  1.00  0.00     0.091 A 
ATOM     91  F   UNL A   1      40.798  23.651  28.562  1.00  0.00    -0.205 F 
ATOM     92  C   UNL A   1      42.431  23.016  25.347  1.00  0.00     0.022 A 
BRANCH  90  93
ATOM     93  S   UNL A   1      40.697  21.292  26.580  1.00  0.00     0.127 S 
ATOM     94  O   UNL A   1      39.390  21.691  26.064  1.00  0.00    -0.237 OA
ATOM     95  O   UNL A   1      41.467  20.415  25.695  1.00  0.00    -0.237 OA
ATOM     96  O   UNL A   1      40.740  20.908  27.984  1.00  0.00    -0.744 OA
ENDBRANCH  90  93
ENDBRANCH  62  86
BRANCH  74  97
ATOM     97  C   UNL A   1      46.658  25.899  32.898  1.00  0.00     0.023 A 
ATOM     98  C   UNL A   1      47.942  26.338  32.521  1.00  0.00     0.012 A 
ATOM     99  C   UNL A   1      46.529  24.841  33.820  1.00  0.00     0.148 A 
ATOM    100  C   UNL A   1      49.080  25.718  33.037  1.00  0.00     0.002 A 
ATOM    101  C   UNL A   1      47.667  24.260  34.364  1.00  0.00     0.091 A 
ATOM    102  F   UNL A   1      45.296  24.427  34.150  1.00  0.00    -0.205 F 
ATOM    103  C   UNL A   1      48.943  24.690  33.966  1.00  0.00     0.022 A 
BRANCH 101 104
ATOM    104  S   UNL A   1      47.582  22.997  35.640  1.00  0.00     0.127 S 
ATOM    105  O   UNL A   1      46.826  23.681  36.687  1.00  0.00    -0.237 OA
ATOM    106  O   UNL A   1      46.856  21.920  34.967  1.00  0.00    -0.237 OA
ATOM    107  O   UNL A   1      48.963  22.673  35.972  1.00  0.00    -0.744 OA
ENDBRANCH 101 104
ENDBRANCH  74  97
ENDBRANCH  48  49
ENDBRANCH  40  43
ENDBRANCH   1  39
TORSDOF 14
ENDMDL
MODEL 2
REMARK VINA RESULT:     -11.9      4.621     14.128
REMARK SMILES CC1(C)CC[C@@]2(C(=O)NCCCNC(=O)c3ccc(-c4c5nc(c(-c6cccc(S(=O)(=O)[O-])c6F)c6ccc([nH]6)c(-c6cccc(S(=O)(=O)[O-])c6F)c6nc(c(-c7cccc(S(=O)(=O)[O-])c7F)c7ccc4[nH]7)C=C6)C=C5)cc3)CC[C@@]3(C)C(=CC[C@H]4[C@@]5(C)CC[C@H](O)C(C)(C)[C@@H]5CC[C@]43C)[C@@H]2C1
REMARK SMILES IDX 12 1 11 2 10 3 9 4 7 5 8 6 6 8 1 9 2 10 3 11 4 12 102 13
REMARK SMILES IDX 5 14 101 15 83 16 79 17 81 18 84 19 80 20 82 21 99 22 85 23
REMARK SMILES IDX 86 24 98 25 100 26 87 27 97 28 88 29 89 30 96 31 90 32 93 33
REMARK SMILES IDX 91 34 94 35 95 36 92 37 13 39 14 40 15 42 16 43 17 44 78 45
REMARK SMILES IDX 18 46 77 47 19 48 20 49 21 50 71 51 22 52 76 53 70 54 72 55
REMARK SMILES IDX 23 56 75 57 69 58 68 59 24 61 56 62 36 63 55 64 37 65 40 66
REMARK SMILES IDX 54 67 73 68 38 69 39 70 53 72 74 73 41 74 25 75 26 76 34 77
REMARK SMILES IDX 27 78 29 79 35 80 28 81 30 82 31 83 32 84 33 85 57 86 58 87
REMARK SMILES IDX 66 88 59 89 61 90 67 91 60 92 62 93 63 94 64 95 65 96 42 97
REMARK SMILES IDX 43 98 51 99 44 100 46 101 52 102 45 103 47 104 48 105 49 106
REMARK SMILES IDX 50 107
REMARK H PARENT 9 7 92 38 13 41 72 60 40 71
REMARK Flexibility Score: inf
ROOT
ATOM      1  C   UNL A   1      49.941  28.426  34.431  1.00  0.00     0.118 C 
ENDROOT
BRANCH   1   2
ATOM      2  C   UNL A   1      50.503  27.016  34.425  1.00  0.00     0.042 C 
BRANCH   2   3
ATOM      3  C   UNL A   1      49.737  25.992  35.228  1.00  0.00     0.117 C 
BRANCH   3   4
ATOM      4  N   UNL A   1      48.545  25.445  34.633  1.00  0.00    -0.356 N 
ATOM      5  C   UNL A   1      48.135  24.139  34.576  1.00  0.00     0.226 C 
ATOM      6  O   UNL A   1      48.386  23.449  33.589  1.00  0.00    -0.274 OA
ATOM      7  H   UNL A   1      47.943  26.099  34.209  1.00  0.00     0.163 HD
BRANCH   5   8
ATOM      8  C   UNL A   1      47.296  23.577  35.763  1.00  0.00     0.056 C 
ATOM      9  C   UNL A   1      43.277  23.432  34.927  1.00  0.00     0.011 C 
ATOM     10  C   UNL A   1      44.671  23.355  34.253  1.00  0.00    -0.035 C 
ATOM     11  C   UNL A   1      44.343  23.306  32.726  1.00  0.00     0.011 C 
ATOM     12  C   UNL A   1      45.344  24.695  34.636  1.00  0.00     0.007 C 
ATOM     13  C   UNL A   1      45.471  22.041  34.708  1.00  0.00     0.015 C 
ATOM     14  C   UNL A   1      46.140  24.579  35.927  1.00  0.00     0.018 C 
ATOM     15  C   UNL A   1      46.787  22.124  35.603  1.00  0.00     0.031 C 
ATOM     16  C   UNL A   1      48.079  21.203  35.391  1.00  0.00    -0.064 C 
ATOM     17  C   UNL A   1      48.116  23.598  37.073  1.00  0.00     0.018 C 
ATOM     18  C   UNL A   1      49.213  21.278  36.483  1.00  0.00    -0.006 C 
ATOM     19  C   UNL A   1      48.296  20.514  34.254  1.00  0.00    -0.027 C 
ATOM     20  C   UNL A   1      49.374  22.737  36.996  1.00  0.00     0.013 C 
ATOM     21  C   UNL A   1      48.656  20.442  37.681  1.00  0.00     0.017 C 
ATOM     22  C   UNL A   1      50.701  20.666  36.014  1.00  0.00    -0.020 C 
ATOM     23  C   UNL A   1      49.655  20.114  33.734  1.00  0.00     0.032 C 
ATOM     24  C   UNL A   1      50.902  20.710  34.451  1.00  0.00     0.006 C 
ATOM     25  C   UNL A   1      51.965  21.265  36.754  1.00  0.00     0.008 C 
ATOM     26  C   UNL A   1      50.770  19.128  36.380  1.00  0.00     0.012 C 
ATOM     27  C   UNL A   1      51.791  21.893  33.735  1.00  0.00    -0.025 C 
ATOM     28  C   UNL A   1      53.148  21.698  35.854  1.00  0.00     0.005 C 
ATOM     29  C   UNL A   1      52.624  21.139  32.655  1.00  0.00     0.012 C 
ATOM     30  C   UNL A   1      51.056  23.020  33.005  1.00  0.00     0.010 C 
ATOM     31  C   UNL A   1      52.635  22.671  34.799  1.00  0.00     0.003 C 
ATOM     32  C   UNL A   1      51.882  24.150  32.383  1.00  0.00     0.033 C 
ATOM     33  C   UNL A   1      53.597  23.808  34.250  1.00  0.00    -0.006 C 
ATOM     34  C   UNL A   1      52.727  24.833  33.449  1.00  0.00     0.120 C 
ATOM     35  C   UNL A   1      54.768  23.311  33.382  1.00  0.00     0.014 C 
ATOM     36  C   UNL A   1      54.234  24.585  35.429  1.00  0.00     0.014 C 
BRANCH  34  37
ATOM     37  O   UNL A   1      53.534  25.838  32.845  1.00  0.00    -0.393 OA
ATOM     38  H   UNL A   1      54.468  25.584  32.907  1.00  0.00     0.210 HD
ENDBRANCH  34  37
ENDBRANCH   5   8
ENDBRANCH   3   4
ENDBRANCH   2   3
ENDBRANCH   1   2
BRANCH   1  39
ATOM     39  N   UNL A   1      49.686  29.033  35.728  1.00  0.00    -0.352 N 
ATOM     40  C   UNL A   1      48.444  29.427  36.187  1.00  0.00     0.251 C 
ATOM     41  H   UNL A   1      50.457  29.173  36.325  1.00  0.00     0.163 HD
ATOM     42  O   UNL A   1      48.281  29.856  37.324  1.00  0.00    -0.269 OA
BRANCH  40  43
ATOM     43  C   UNL A   1      47.321  29.366  35.227  1.00  0.00     0.039 A 
ATOM     44  C   UNL A   1      46.421  28.305  35.333  1.00  0.00     0.014 A 
ATOM     45  C   UNL A   1      47.042  30.469  34.410  1.00  0.00     0.014 A 
ATOM     46  C   UNL A   1      45.204  28.372  34.654  1.00  0.00     0.010 A 
ATOM     47  C   UNL A   1      45.791  30.567  33.807  1.00  0.00     0.010 A 
ATOM     48  C   UNL A   1      44.864  29.515  33.910  1.00  0.00    -0.014 A 
BRANCH  48  49
ATOM     49  C   UNL A   1      43.559  29.596  33.202  1.00  0.00     0.031 A 
ATOM     50  C   UNL A   1      42.392  30.263  33.876  1.00  0.00     0.074 A 
ATOM     51  C   UNL A   1      43.406  29.045  31.980  1.00  0.00     0.049 A 
ATOM     52  N   UNL A   1      41.183  30.467  33.422  1.00  0.00    -0.248 NA
ATOM     53  C   UNL A   1      42.598  30.739  35.255  1.00  0.00     0.031 C 
ATOM     54  C   UNL A   1      44.428  28.288  31.253  1.00  0.00     0.029 A 
ATOM     55  N   UNL A   1      42.322  29.027  31.136  1.00  0.00    -0.354 N 
ATOM     56  C   UNL A   1      40.481  31.056  34.466  1.00  0.00     0.074 A 
ATOM     57  C   UNL A   1      41.381  31.135  35.593  1.00  0.00     0.031 C 
ATOM     58  C   UNL A   1      43.929  27.898  30.067  1.00  0.00     0.029 A 
ATOM     59  C   UNL A   1      42.550  28.365  29.951  1.00  0.00     0.049 A 
ATOM     60  H   UNL A   1      41.461  29.449  31.358  1.00  0.00     0.167 HD
ATOM     61  C   UNL A   1      39.216  31.536  34.477  1.00  0.00     0.034 A 
ATOM     62  C   UNL A   1      41.744  28.172  28.885  1.00  0.00     0.034 A 
ATOM     63  C   UNL A   1      38.346  31.525  33.336  1.00  0.00     0.049 A 
ATOM     64  C   UNL A   1      40.364  28.781  28.895  1.00  0.00     0.074 A 
ATOM     65  C   UNL A   1      37.084  32.079  33.211  1.00  0.00     0.029 A 
ATOM     66  N   UNL A   1      38.646  30.929  32.122  1.00  0.00    -0.354 N 
ATOM     67  N   UNL A   1      39.786  29.500  29.825  1.00  0.00    -0.248 NA
ATOM     68  C   UNL A   1      39.542  28.588  27.690  1.00  0.00     0.031 C 
ATOM     69  C   UNL A   1      36.618  31.809  31.920  1.00  0.00     0.029 A 
ATOM     70  C   UNL A   1      37.595  31.099  31.240  1.00  0.00     0.049 A 
ATOM     71  H   UNL A   1      39.485  30.456  31.917  1.00  0.00     0.167 HD
ATOM     72  C   UNL A   1      38.551  29.876  29.307  1.00  0.00     0.074 A 
ATOM     73  C   UNL A   1      38.473  29.322  27.971  1.00  0.00     0.031 C 
ATOM     74  C   UNL A   1      37.563  30.598  29.890  1.00  0.00     0.034 A 
BRANCH  61  75
ATOM     75  C   UNL A   1      38.730  32.182  35.748  1.00  0.00     0.023 A 
ATOM     76  C   UNL A   1      38.897  33.571  35.925  1.00  0.00     0.012 A 
ATOM     77  C   UNL A   1      38.081  31.430  36.745  1.00  0.00     0.148 A 
ATOM     78  C   UNL A   1      38.463  34.196  37.092  1.00  0.00     0.002 A 
ATOM     79  C   UNL A   1      37.611  32.068  37.887  1.00  0.00     0.091 A 
ATOM     80  F   UNL A   1      37.954  30.107  36.569  1.00  0.00    -0.205 F 
ATOM     81  C   UNL A   1      37.813  33.447  38.067  1.00  0.00     0.022 A 
BRANCH  79  82
ATOM     82  S   UNL A   1      36.695  31.206  39.168  1.00  0.00     0.127 S 
ATOM     83  O   UNL A   1      37.660  31.194  40.266  1.00  0.00    -0.237 OA
ATOM     84  O   UNL A   1      35.548  32.091  39.376  1.00  0.00    -0.237 OA
ATOM     85  O   UNL A   1      36.360  29.903  38.612  1.00  0.00    -0.744 OA
ENDBRANCH  79  82
ENDBRANCH  61  75
BRANCH  62  86
ATOM     86  C   UNL A   1      42.252  27.456  27.679  1.00  0.00     0.023 A 
ATOM     87  C   UNL A   1      42.772  28.202  26.602  1.00  0.00     0.012 A 
ATOM     88  C   UNL A   1      42.244  26.051  27.596  1.00  0.00     0.148 A 
ATOM     89  C   UNL A   1      43.243  27.565  25.453  1.00  0.00     0.002 A 
ATOM     90  C   UNL A   1      42.764  25.420  26.470  1.00  0.00     0.091 A 
ATOM     91  F   UNL A   1      41.732  25.356  28.621  1.00  0.00    -0.205 F 
ATOM     92  C   UNL A   1      43.249  26.175  25.391  1.00  0.00     0.022 A 
BRANCH  90  93
ATOM     93  S   UNL A   1      42.932  23.634  26.363  1.00  0.00     0.127 S 
ATOM     94  O   UNL A   1      43.584  23.317  27.631  1.00  0.00    -0.237 OA
ATOM     95  O   UNL A   1      41.537  23.202  26.263  1.00  0.00    -0.237 OA
ATOM     96  O   UNL A   1      43.720  23.391  25.162  1.00  0.00    -0.744 OA
ENDBRANCH  90  93
ENDBRANCH  62  86
BRANCH  74  97
ATOM     97  C   UNL A   1      36.318  30.866  29.086  1.00  0.00     0.023 A 
ATOM     98  C   UNL A   1      35.589  29.786  28.551  1.00  0.00     0.012 A 
ATOM     99  C   UNL A   1      35.821  32.177  28.944  1.00  0.00     0.148 A 
ATOM    100  C   UNL A   1      34.394  30.009  27.867  1.00  0.00     0.002 A 
ATOM    101  C   UNL A   1      34.607  32.386  28.301  1.00  0.00     0.091 A 
ATOM    102  F   UNL A   1      36.540  33.192  29.445  1.00  0.00    -0.205 F 
ATOM    103  C   UNL A   1      33.898  31.306  27.754  1.00  0.00     0.022 A 
BRANCH 101 104
ATOM    104  S   UNL A   1      33.846  34.011  28.197  1.00  0.00     0.127 S 
ATOM    105  O   UNL A   1      33.893  34.454  29.589  1.00  0.00    -0.237 OA
ATOM    106  O   UNL A   1      34.754  34.725  27.298  1.00  0.00    -0.237 OA
ATOM    107  O   UNL A   1      32.513  33.792  27.652  1.00  0.00    -0.744 OA
ENDBRANCH 101 104
ENDBRANCH  74  97
ENDBRANCH  48  49
ENDBRANCH  40  43
ENDBRANCH   1  39
TORSDOF 14
ENDMDL
MODEL 3
REMARK VINA RESULT:     -11.7      4.659      9.369
REMARK SMILES CC1(C)CC[C@@]2(C(=O)NCCCNC(=O)c3ccc(-c4c5nc(c(-c6cccc(S(=O)(=O)[O-])c6F)c6ccc([nH]6)c(-c6cccc(S(=O)(=O)[O-])c6F)c6nc(c(-c7cccc(S(=O)(=O)[O-])c7F)c7ccc4[nH]7)C=C6)C=C5)cc3)CC[C@@]3(C)C(=CC[C@H]4[C@@]5(C)CC[C@H](O)C(C)(C)[C@@H]5CC[C@]43C)[C@@H]2C1
REMARK SMILES IDX 12 1 11 2 10 3 9 4 7 5 8 6 6 8 1 9 2 10 3 11 4 12 102 13
REMARK SMILES IDX 5 14 101 15 83 16 79 17 81 18 84 19 80 20 82 21 99 22 85 23
REMARK SMILES IDX 86 24 98 25 100 26 87 27 97 28 88 29 89 30 96 31 90 32 93 33
REMARK SMILES IDX 91 34 94 35 95 36 92 37 13 39 14 40 15 42 16 43 17 44 78 45
REMARK SMILES IDX 18 46 77 47 19 48 20 49 21 50 71 51 22 52 76 53 70 54 72 55
REMARK SMILES IDX 23 56 75 57 69 58 68 59 24 61 56 62 36 63 55 64 37 65 40 66
REMARK SMILES IDX 54 67 73 68 38 69 39 70 53 72 74 73 41 74 25 75 26 76 34 77
REMARK SMILES IDX 27 78 29 79 35 80 28 81 30 82 31 83 32 84 33 85 57 86 58 87
REMARK SMILES IDX 66 88 59 89 61 90 67 91 60 92 62 93 63 94 64 95 65 96 42 97
REMARK SMILES IDX 43 98 51 99 44 100 46 101 52 102 45 103 47 104 48 105 49 106
REMARK SMILES IDX 50 107
REMARK H PARENT 9 7 92 38 13 41 72 60 40 71
REMARK Flexibility Score: inf
ROOT
ATOM      1  C   UNL A   1      37.952  23.460  27.020  1.00  0.00     0.118 C 
ENDROOT
BRANCH   1   2
ATOM      2  C   UNL A   1      37.171  24.379  26.099  1.00  0.00     0.042 C 
BRANCH   2   3
ATOM      3  C   UNL A   1      35.705  24.550  26.417  1.00  0.00     0.117 C 
BRANCH   3   4
ATOM      4  N   UNL A   1      34.863  23.388  26.299  1.00  0.00    -0.356 N 
ATOM      5  C   UNL A   1      33.955  23.081  25.321  1.00  0.00     0.226 C 
ATOM      6  O   UNL A   1      32.764  23.356  25.467  1.00  0.00    -0.274 OA
ATOM      7  H   UNL A   1      34.953  22.723  27.021  1.00  0.00     0.163 HD
BRANCH   5   8
ATOM      8  C   UNL A   1      34.460  22.327  24.055  1.00  0.00     0.056 C 
ATOM      9  C   UNL A   1      34.123  18.249  24.409  1.00  0.00     0.011 C 
ATOM     10  C   UNL A   1      33.476  19.576  24.880  1.00  0.00    -0.035 C 
ATOM     11  C   UNL A   1      32.400  19.116  25.917  1.00  0.00     0.011 C 
ATOM     12  C   UNL A   1      34.634  20.330  25.575  1.00  0.00     0.007 C 
ATOM     13  C   UNL A   1      32.793  20.361  23.659  1.00  0.00     0.015 C 
ATOM     14  C   UNL A   1      35.386  21.228  24.606  1.00  0.00     0.018 C 
ATOM     15  C   UNL A   1      33.363  21.751  23.128  1.00  0.00     0.031 C 
ATOM     16  C   UNL A   1      32.449  22.984  22.673  1.00  0.00    -0.064 C 
ATOM     17  C   UNL A   1      35.320  23.256  23.169  1.00  0.00     0.018 C 
ATOM     18  C   UNL A   1      33.168  24.209  21.990  1.00  0.00    -0.006 C 
ATOM     19  C   UNL A   1      31.146  23.076  23.001  1.00  0.00    -0.027 C 
ATOM     20  C   UNL A   1      34.547  24.469  22.660  1.00  0.00     0.013 C 
ATOM     21  C   UNL A   1      33.462  23.725  20.533  1.00  0.00     0.017 C 
ATOM     22  C   UNL A   1      32.275  25.627  21.942  1.00  0.00    -0.020 C 
ATOM     23  C   UNL A   1      30.379  24.369  23.134  1.00  0.00     0.032 C 
ATOM     24  C   UNL A   1      31.195  25.695  23.088  1.00  0.00     0.006 C 
ATOM     25  C   UNL A   1      33.108  26.971  21.883  1.00  0.00     0.008 C 
ATOM     26  C   UNL A   1      31.435  25.668  20.601  1.00  0.00     0.012 C 
ATOM     27  C   UNL A   1      31.454  26.564  24.459  1.00  0.00    -0.025 C 
ATOM     28  C   UNL A   1      32.681  28.089  22.865  1.00  0.00     0.005 C 
ATOM     29  C   UNL A   1      30.091  27.273  24.723  1.00  0.00     0.012 C 
ATOM     30  C   UNL A   1      31.806  25.813  25.746  1.00  0.00     0.010 C 
ATOM     31  C   UNL A   1      32.677  27.525  24.282  1.00  0.00     0.003 C 
ATOM     32  C   UNL A   1      32.100  26.625  27.010  1.00  0.00     0.033 C 
ATOM     33  C   UNL A   1      33.014  28.479  25.505  1.00  0.00    -0.006 C 
ATOM     34  C   UNL A   1      33.256  27.584  26.765  1.00  0.00     0.120 C 
ATOM     35  C   UNL A   1      31.952  29.551  25.810  1.00  0.00     0.014 C 
ATOM     36  C   UNL A   1      34.335  29.244  25.238  1.00  0.00     0.014 C 
BRANCH  34  37
ATOM     37  O   UNL A   1      33.475  28.373  27.928  1.00  0.00    -0.393 OA
ATOM     38  H   UNL A   1      32.855  29.120  27.934  1.00  0.00     0.210 HD
ENDBRANCH  34  37
ENDBRANCH   5   8
ENDBRANCH   3   4
ENDBRANCH   2   3
ENDBRANCH   1   2
BRANCH   1  39
ATOM     39  N   UNL A   1      38.836  22.489  26.394  1.00  0.00    -0.352 N 
ATOM     40  C   UNL A   1      40.214  22.579  26.364  1.00  0.00     0.251 C 
ATOM     41  H   UNL A   1      38.421  21.710  25.958  1.00  0.00     0.163 HD
ATOM     42  O   UNL A   1      40.910  21.685  25.892  1.00  0.00    -0.269 OA
BRANCH  40  43
ATOM     43  C   UNL A   1      40.819  23.829  26.871  1.00  0.00     0.039 A 
ATOM     44  C   UNL A   1      40.787  24.957  26.050  1.00  0.00     0.014 A 
ATOM     45  C   UNL A   1      41.183  23.930  28.220  1.00  0.00     0.014 A 
ATOM     46  C   UNL A   1      41.072  26.208  26.597  1.00  0.00     0.010 A 
ATOM     47  C   UNL A   1      41.380  25.191  28.777  1.00  0.00     0.010 A 
ATOM     48  C   UNL A   1      41.341  26.341  27.970  1.00  0.00    -0.014 A 
BRANCH  48  49
ATOM     49  C   UNL A   1      41.626  27.677  28.559  1.00  0.00     0.031 A 
ATOM     50  C   UNL A   1      43.053  28.124  28.722  1.00  0.00     0.074 A 
ATOM     51  C   UNL A   1      40.620  28.471  28.980  1.00  0.00     0.049 A 
ATOM     52  N   UNL A   1      43.515  29.258  29.180  1.00  0.00    -0.248 NA
ATOM     53  C   UNL A   1      44.103  27.160  28.349  1.00  0.00     0.031 C 
ATOM     54  C   UNL A   1      39.197  28.122  28.966  1.00  0.00     0.029 A 
ATOM     55  N   UNL A   1      40.642  29.737  29.514  1.00  0.00    -0.354 N 
ATOM     56  C   UNL A   1      44.898  29.128  29.185  1.00  0.00     0.074 A 
ATOM     57  C   UNL A   1      45.202  27.791  28.730  1.00  0.00     0.031 C 
ATOM     58  C   UNL A   1      38.484  29.153  29.449  1.00  0.00     0.029 A 
ATOM     59  C   UNL A   1      39.395  30.234  29.818  1.00  0.00     0.049 A 
ATOM     60  H   UNL A   1      41.473  30.241  29.664  1.00  0.00     0.167 HD
ATOM     61  C   UNL A   1      45.839  30.051  29.492  1.00  0.00     0.034 A 
ATOM     62  C   UNL A   1      39.028  31.432  30.320  1.00  0.00     0.034 A 
ATOM     63  C   UNL A   1      45.540  31.402  29.873  1.00  0.00     0.049 A 
ATOM     64  C   UNL A   1      40.091  32.469  30.585  1.00  0.00     0.074 A 
ATOM     65  C   UNL A   1      46.418  32.445  30.103  1.00  0.00     0.029 A 
ATOM     66  N   UNL A   1      44.263  31.898  30.079  1.00  0.00    -0.354 N 
ATOM     67  N   UNL A   1      41.387  32.388  30.402  1.00  0.00    -0.248 NA
ATOM     68  C   UNL A   1      39.638  33.777  31.082  1.00  0.00     0.031 C 
ATOM     69  C   UNL A   1      45.670  33.572  30.459  1.00  0.00     0.029 A 
ATOM     70  C   UNL A   1      44.327  33.232  30.436  1.00  0.00     0.049 A 
ATOM     71  H   UNL A   1      43.432  31.378  29.985  1.00  0.00     0.167 HD
ATOM     72  C   UNL A   1      41.898  33.639  30.727  1.00  0.00     0.074 A 
ATOM     73  C   UNL A   1      40.770  34.469  31.097  1.00  0.00     0.031 C 
ATOM     74  C   UNL A   1      43.187  34.061  30.736  1.00  0.00     0.034 A 
BRANCH  61  75
ATOM     75  C   UNL A   1      47.282  29.644  29.353  1.00  0.00     0.023 A 
ATOM     76  C   UNL A   1      47.968  29.137  30.476  1.00  0.00     0.012 A 
ATOM     77  C   UNL A   1      47.947  29.727  28.116  1.00  0.00     0.148 A 
ATOM     78  C   UNL A   1      49.305  28.757  30.380  1.00  0.00     0.002 A 
ATOM     79  C   UNL A   1      49.267  29.304  28.017  1.00  0.00     0.091 A 
ATOM     80  F   UNL A   1      47.285  30.234  27.065  1.00  0.00    -0.205 F 
ATOM     81  C   UNL A   1      49.951  28.831  29.151  1.00  0.00     0.022 A 
BRANCH  79  82
ATOM     82  S   UNL A   1      50.164  29.290  26.462  1.00  0.00     0.127 S 
ATOM     83  O   UNL A   1      50.306  30.719  26.189  1.00  0.00    -0.237 OA
ATOM     84  O   UNL A   1      51.410  28.614  26.830  1.00  0.00    -0.237 OA
ATOM     85  O   UNL A   1      49.330  28.551  25.525  1.00  0.00    -0.744 OA
ENDBRANCH  79  82
ENDBRANCH  61  75
BRANCH  62  86
ATOM     86  C   UNL A   1      37.584  31.756  30.512  1.00  0.00     0.023 A 
ATOM     87  C   UNL A   1      37.034  31.709  31.809  1.00  0.00     0.012 A 
ATOM     88  C   UNL A   1      36.761  32.129  29.433  1.00  0.00     0.148 A 
ATOM     89  C   UNL A   1      35.684  31.993  32.022  1.00  0.00     0.002 A 
ATOM     90  C   UNL A   1      35.430  32.464  29.660  1.00  0.00     0.091 A 
ATOM     91  F   UNL A   1      37.295  32.154  28.204  1.00  0.00    -0.205 F 
ATOM     92  C   UNL A   1      34.885  32.381  30.950  1.00  0.00     0.022 A 
BRANCH  90  93
ATOM     93  S   UNL A   1      34.365  33.100  28.360  1.00  0.00     0.127 S 
ATOM     94  O   UNL A   1      33.916  31.870  27.711  1.00  0.00    -0.237 OA
ATOM     95  O   UNL A   1      33.334  33.803  29.125  1.00  0.00    -0.237 OA
ATOM     96  O   UNL A   1      35.212  33.973  27.558  1.00  0.00    -0.744 OA
ENDBRANCH  90  93
ENDBRANCH  62  86
BRANCH  74  97
ATOM     97  C   UNL A   1      43.458  35.489  31.127  1.00  0.00     0.023 A 
ATOM     98  C   UNL A   1      43.736  35.802  32.472  1.00  0.00     0.012 A 
ATOM     99  C   UNL A   1      43.534  36.501  30.149  1.00  0.00     0.148 A 
ATOM    100  C   UNL A   1      44.062  37.107  32.841  1.00  0.00     0.002 A 
ATOM    101  C   UNL A   1      43.905  37.788  30.519  1.00  0.00     0.091 A 
ATOM    102  F   UNL A   1      43.248  36.185  28.877  1.00  0.00    -0.205 F 
ATOM    103  C   UNL A   1      44.159  38.095  31.864  1.00  0.00     0.022 A 
BRANCH 101 104
ATOM    104  S   UNL A   1      44.150  39.098  29.313  1.00  0.00     0.127 S 
ATOM    105  O   UNL A   1      44.585  40.207  30.160  1.00  0.00    -0.237 OA
ATOM    106  O   UNL A   1      45.193  38.541  28.452  1.00  0.00    -0.237 OA
ATOM    107  O   UNL A   1      42.863  39.279  28.655  1.00  0.00    -0.744 OA
ENDBRANCH 101 104
ENDBRANCH  74  97
ENDBRANCH  48  49
ENDBRANCH  40  43
ENDBRANCH   1  39
TORSDOF 14
ENDMDL
