MODEL 1
REMARK VINA RESULT:     -12.6      0.000      0.000
REMARK SMILES CN(C)c1ccc(NC(=O)[C@H]2CC=CC[C@@H]2C(=O)NCCCNC(=O)c2ccc(-c3c4nc(c(-c5cccc(S(=O)(=O)[O-])c5F)c5ccc([nH]5)c(-c5cccc(S(=O)(=O)[O-])c5F)c5nc(c(-c6cccc(S(=O)(=O)[O-])c6F)c6ccc3[nH]6)C=C5)C=C4)cc2)cc1
REMARK SMILES IDX 21 1 20 2 19 3 17 4 18 5 16 7 11 8 12 9 13 10 15 11 14 12
REMARK SMILES IDX 9 13 8 14 10 16 7 17 4 18 5 19 90 20 6 21 89 22 2 23 1 24
REMARK SMILES IDX 3 25 22 26 23 27 24 28 25 30 26 31 27 32 88 33 28 34 87 35
REMARK SMILES IDX 29 36 30 37 31 38 81 39 32 40 86 41 80 42 82 43 33 44 85 45
REMARK SMILES IDX 79 46 78 47 34 49 66 50 46 51 65 52 47 53 50 54 64 55 83 56
REMARK SMILES IDX 48 57 49 58 63 60 84 61 51 62 35 63 36 64 44 65 37 66 39 67
REMARK SMILES IDX 45 68 38 69 40 70 41 71 42 72 43 73 67 74 68 75 76 76 69 77
REMARK SMILES IDX 71 78 77 79 70 80 72 81 73 82 74 83 75 84 52 85 53 86 61 87
REMARK SMILES IDX 54 88 56 89 62 90 55 91 57 92 58 93 59 94 60 95
REMARK H PARENT 19 6 8 15 23 29 82 48 50 59
REMARK Flexibility Score: inf
ROOT
ATOM      1  C   UNL A   1      31.465  31.902  26.502  1.00  0.00     0.042 C 
ENDROOT
BRANCH   1   2
ATOM      2  C   UNL A   1      31.757  30.593  25.781  1.00  0.00     0.117 C 
BRANCH   2   3
ATOM      3  N   UNL A   1      32.062  29.562  26.750  1.00  0.00    -0.356 N 
ATOM      4  C   UNL A   1      31.617  28.278  26.725  1.00  0.00     0.224 C 
ATOM      5  O   UNL A   1      31.361  27.753  27.808  1.00  0.00    -0.275 OA
ATOM      6  H   UNL A   1      32.649  29.816  27.499  1.00  0.00     0.163 HD
BRANCH   4   7
ATOM      7  C   UNL A   1      31.505  27.566  25.372  1.00  0.00     0.095 C 
ATOM      8  C   UNL A   1      30.703  26.244  25.510  1.00  0.00     0.095 C 
ATOM      9  C   UNL A   1      31.426  25.288  26.468  1.00  0.00     0.041 C 
ATOM     10  C   UNL A   1      32.927  25.295  26.344  1.00  0.00    -0.030 C 
ATOM     11  C   UNL A   1      32.917  27.273  24.825  1.00  0.00     0.041 C 
ATOM     12  C   UNL A   1      33.598  26.165  25.574  1.00  0.00    -0.030 C 
BRANCH   8  13
ATOM     13  C   UNL A   1      30.209  25.821  24.103  1.00  0.00     0.228 C 
ATOM     14  N   UNL A   1      29.364  26.528  23.296  1.00  0.00    -0.326 N 
ATOM     15  H   UNL A   1      28.796  25.962  22.726  1.00  0.00     0.169 HD
ATOM     16  O   UNL A   1      30.390  24.640  23.761  1.00  0.00    -0.274 OA
BRANCH  14  17
ATOM     17  C   UNL A   1      29.145  27.897  23.119  1.00  0.00     0.041 A 
ATOM     18  C   UNL A   1      28.629  30.613  22.432  1.00  0.00     0.036 A 
ATOM     19  C   UNL A   1      27.696  29.827  23.121  1.00  0.00     0.028 A 
ATOM     20  C   UNL A   1      29.903  30.039  22.278  1.00  0.00     0.028 A 
ATOM     21  C   UNL A   1      27.970  28.509  23.501  1.00  0.00     0.028 A 
ATOM     22  C   UNL A   1      30.165  28.699  22.618  1.00  0.00     0.028 A 
BRANCH  18  23
ATOM     23  N   UNL A   1      28.305  31.882  21.953  1.00  0.00    -0.378 N 
ATOM     24  C   UNL A   1      28.718  33.070  22.691  1.00  0.00     0.143 C 
ATOM     25  C   UNL A   1      28.026  32.065  20.530  1.00  0.00     0.143 C 
ENDBRANCH  18  23
ENDBRANCH  14  17
ENDBRANCH   8  13
ENDBRANCH   4   7
ENDBRANCH   2   3
ENDBRANCH   1   2
BRANCH   1  26
ATOM     26  C   UNL A   1      32.652  32.421  27.307  1.00  0.00     0.118 C 
BRANCH  26  27
ATOM     27  N   UNL A   1      32.558  33.852  27.567  1.00  0.00    -0.352 N 
ATOM     28  C   UNL A   1      33.192  34.599  28.528  1.00  0.00     0.251 C 
ATOM     29  H   UNL A   1      31.955  34.352  26.971  1.00  0.00     0.163 HD
ATOM     30  O   UNL A   1      32.823  35.746  28.752  1.00  0.00    -0.269 OA
BRANCH  28  31
ATOM     31  C   UNL A   1      34.311  34.007  29.287  1.00  0.00     0.039 A 
ATOM     32  C   UNL A   1      34.029  33.144  30.346  1.00  0.00     0.014 A 
ATOM     33  C   UNL A   1      35.634  34.309  28.953  1.00  0.00     0.014 A 
ATOM     34  C   UNL A   1      35.080  32.555  31.048  1.00  0.00     0.010 A 
ATOM     35  C   UNL A   1      36.676  33.645  29.587  1.00  0.00     0.010 A 
ATOM     36  C   UNL A   1      36.412  32.782  30.660  1.00  0.00    -0.014 A 
BRANCH  36  37
ATOM     37  C   UNL A   1      37.540  32.145  31.383  1.00  0.00     0.031 A 
ATOM     38  C   UNL A   1      38.301  31.014  30.745  1.00  0.00     0.074 A 
ATOM     39  C   UNL A   1      37.838  32.544  32.635  1.00  0.00     0.049 A 
ATOM     40  N   UNL A   1      39.302  30.321  31.224  1.00  0.00    -0.248 NA
ATOM     41  C   UNL A   1      37.865  30.581  29.406  1.00  0.00     0.031 C 
ATOM     42  C   UNL A   1      37.117  33.570  33.391  1.00  0.00     0.029 A 
ATOM     43  N   UNL A   1      38.815  32.119  33.499  1.00  0.00    -0.354 N 
ATOM     44  C   UNL A   1      39.590  29.357  30.266  1.00  0.00     0.074 A 
ATOM     45  C   UNL A   1      38.630  29.521  29.198  1.00  0.00     0.031 C 
ATOM     46  C   UNL A   1      37.684  33.704  34.601  1.00  0.00     0.029 A 
ATOM     47  C   UNL A   1      38.786  32.754  34.718  1.00  0.00     0.049 A 
ATOM     48  H   UNL A   1      39.474  31.424  33.268  1.00  0.00     0.167 HD
ATOM     49  C   UNL A   1      40.585  28.438  30.258  1.00  0.00     0.034 A 
ATOM     50  C   UNL A   1      39.559  32.587  35.809  1.00  0.00     0.034 A 
ATOM     51  C   UNL A   1      41.561  28.305  31.306  1.00  0.00     0.049 A 
ATOM     52  C   UNL A   1      40.684  31.590  35.758  1.00  0.00     0.074 A 
ATOM     53  C   UNL A   1      42.657  27.465  31.358  1.00  0.00     0.029 A 
ATOM     54  N   UNL A   1      41.550  29.025  32.491  1.00  0.00    -0.354 N 
ATOM     55  N   UNL A   1      41.038  30.795  34.777  1.00  0.00    -0.248 NA
ATOM     56  C   UNL A   1      41.543  31.499  36.946  1.00  0.00     0.031 C 
ATOM     57  C   UNL A   1      43.292  27.653  32.589  1.00  0.00     0.029 A 
ATOM     58  C   UNL A   1      42.616  28.642  33.286  1.00  0.00     0.049 A 
ATOM     59  H   UNL A   1      40.883  29.707  32.731  1.00  0.00     0.167 HD
ATOM     60  C   UNL A   1      42.183  30.137  35.215  1.00  0.00     0.074 A 
ATOM     61  C   UNL A   1      42.473  30.645  36.539  1.00  0.00     0.031 C 
ATOM     62  C   UNL A   1      42.920  29.191  34.582  1.00  0.00     0.034 A 
BRANCH  49  63
ATOM     63  C   UNL A   1      40.696  27.537  29.054  1.00  0.00     0.023 A 
ATOM     64  C   UNL A   1      39.861  26.406  28.948  1.00  0.00     0.012 A 
ATOM     65  C   UNL A   1      41.589  27.835  28.007  1.00  0.00     0.148 A 
ATOM     66  C   UNL A   1      39.941  25.562  27.840  1.00  0.00     0.002 A 
ATOM     67  C   UNL A   1      41.626  27.019  26.882  1.00  0.00     0.091 A 
ATOM     68  F   UNL A   1      42.390  28.903  28.133  1.00  0.00    -0.205 F 
ATOM     69  C   UNL A   1      40.814  25.876  26.803  1.00  0.00     0.022 A 
BRANCH  67  70
ATOM     70  S   UNL A   1      42.655  27.382  25.455  1.00  0.00     0.127 S 
ATOM     71  O   UNL A   1      42.438  26.196  24.626  1.00  0.00    -0.237 OA
ATOM     72  O   UNL A   1      42.041  28.606  24.939  1.00  0.00    -0.237 OA
ATOM     73  O   UNL A   1      44.008  27.546  25.964  1.00  0.00    -0.744 OA
ENDBRANCH  67  70
ENDBRANCH  49  63
BRANCH  50  74
ATOM     74  C   UNL A   1      39.331  33.427  37.019  1.00  0.00     0.023 A 
ATOM     75  C   UNL A   1      39.836  34.741  37.058  1.00  0.00     0.012 A 
ATOM     76  C   UNL A   1      38.599  32.939  38.118  1.00  0.00     0.148 A 
ATOM     77  C   UNL A   1      39.651  35.541  38.186  1.00  0.00     0.002 A 
ATOM     78  C   UNL A   1      38.368  33.761  39.215  1.00  0.00     0.091 A 
ATOM     79  F   UNL A   1      38.133  31.684  38.062  1.00  0.00    -0.205 F 
ATOM     80  C   UNL A   1      38.908  35.055  39.260  1.00  0.00     0.022 A 
BRANCH  78  81
ATOM     81  S   UNL A   1      37.314  33.267  40.582  1.00  0.00     0.127 S 
ATOM     82  O   UNL A   1      38.099  32.198  41.192  1.00  0.00    -0.237 OA
ATOM     83  O   UNL A   1      37.241  34.502  41.365  1.00  0.00    -0.237 OA
ATOM     84  O   UNL A   1      36.050  32.862  39.982  1.00  0.00    -0.744 OA
ENDBRANCH  78  81
ENDBRANCH  50  74
BRANCH  62  85
ATOM     85  C   UNL A   1      44.147  28.675  35.289  1.00  0.00     0.023 A 
ATOM     86  C   UNL A   1      45.406  29.255  35.039  1.00  0.00     0.012 A 
ATOM     87  C   UNL A   1      44.036  27.651  36.251  1.00  0.00     0.148 A 
ATOM     88  C   UNL A   1      46.542  28.795  35.704  1.00  0.00     0.002 A 
ATOM     89  C   UNL A   1      45.162  27.236  36.949  1.00  0.00     0.091 A 
ATOM     90  F   UNL A   1      42.832  27.099  36.463  1.00  0.00    -0.205 F 
ATOM     91  C   UNL A   1      46.418  27.796  36.666  1.00  0.00     0.022 A 
BRANCH  89  92
ATOM     92  S   UNL A   1      45.080  26.029  38.276  1.00  0.00     0.127 S 
ATOM     93  O   UNL A   1      44.657  24.827  37.558  1.00  0.00    -0.237 OA
ATOM     94  O   UNL A   1      46.462  25.998  38.754  1.00  0.00    -0.237 OA
ATOM     95  O   UNL A   1      44.120  26.553  39.238  1.00  0.00    -0.744 OA
ENDBRANCH  89  92
ENDBRANCH  62  85
ENDBRANCH  36  37
ENDBRANCH  28  31
ENDBRANCH  26  27
ENDBRANCH   1  26
TORSDOF 16
ENDMDL
MODEL 2
REMARK VINA RESULT:     -12.5      1.599      3.277
REMARK SMILES CN(C)c1ccc(NC(=O)[C@H]2CC=CC[C@@H]2C(=O)NCCCNC(=O)c2ccc(-c3c4nc(c(-c5cccc(S(=O)(=O)[O-])c5F)c5ccc([nH]5)c(-c5cccc(S(=O)(=O)[O-])c5F)c5nc(c(-c6cccc(S(=O)(=O)[O-])c6F)c6ccc3[nH]6)C=C5)C=C4)cc2)cc1
REMARK SMILES IDX 21 1 20 2 19 3 17 4 18 5 16 7 11 8 12 9 13 10 15 11 14 12
REMARK SMILES IDX 9 13 8 14 10 16 7 17 4 18 5 19 90 20 6 21 89 22 2 23 1 24
REMARK SMILES IDX 3 25 22 26 23 27 24 28 25 30 26 31 27 32 88 33 28 34 87 35
REMARK SMILES IDX 29 36 30 37 31 38 81 39 32 40 86 41 80 42 82 43 33 44 85 45
REMARK SMILES IDX 79 46 78 47 34 49 66 50 46 51 65 52 47 53 50 54 64 55 83 56
REMARK SMILES IDX 48 57 49 58 63 60 84 61 51 62 35 63 36 64 44 65 37 66 39 67
REMARK SMILES IDX 45 68 38 69 40 70 41 71 42 72 43 73 67 74 68 75 76 76 69 77
REMARK SMILES IDX 71 78 77 79 70 80 72 81 73 82 74 83 75 84 52 85 53 86 61 87
REMARK SMILES IDX 54 88 56 89 62 90 55 91 57 92 58 93 59 94 60 95
REMARK H PARENT 19 6 8 15 23 29 82 48 50 59
REMARK Flexibility Score: inf
ROOT
ATOM      1  C   UNL A   1      31.528  32.107  26.893  1.00  0.00     0.042 C 
ENDROOT
BRANCH   1   2
ATOM      2  C   UNL A   1      31.741  30.820  26.107  1.00  0.00     0.117 C 
BRANCH   2   3
ATOM      3  N   UNL A   1      32.037  29.737  27.020  1.00  0.00    -0.356 N 
ATOM      4  C   UNL A   1      31.560  28.466  26.941  1.00  0.00     0.224 C 
ATOM      5  O   UNL A   1      31.310  27.896  28.001  1.00  0.00    -0.275 OA
ATOM      6  H   UNL A   1      32.642  29.940  27.769  1.00  0.00     0.163 HD
BRANCH   4   7
ATOM      7  C   UNL A   1      31.409  27.824  25.556  1.00  0.00     0.095 C 
ATOM      8  C   UNL A   1      30.949  26.347  25.683  1.00  0.00     0.095 C 
ATOM      9  C   UNL A   1      32.000  25.532  26.449  1.00  0.00     0.041 C 
ATOM     10  C   UNL A   1      33.427  25.894  26.129  1.00  0.00    -0.030 C 
ATOM     11  C   UNL A   1      32.753  27.896  24.805  1.00  0.00     0.041 C 
ATOM     12  C   UNL A   1      33.767  26.937  25.357  1.00  0.00    -0.030 C 
BRANCH   8  13
ATOM     13  C   UNL A   1      30.357  25.900  24.322  1.00  0.00     0.228 C 
ATOM     14  N   UNL A   1      30.920  25.014  23.447  1.00  0.00    -0.326 N 
ATOM     15  H   UNL A   1      30.711  25.203  22.505  1.00  0.00     0.169 HD
ATOM     16  O   UNL A   1      29.417  26.566  23.856  1.00  0.00    -0.274 OA
BRANCH  14  17
ATOM     17  C   UNL A   1      31.734  23.893  23.625  1.00  0.00     0.041 A 
ATOM     18  C   UNL A   1      33.524  21.769  24.260  1.00  0.00     0.036 A 
ATOM     19  C   UNL A   1      32.160  21.716  24.575  1.00  0.00     0.028 A 
ATOM     20  C   UNL A   1      33.910  22.844  23.441  1.00  0.00     0.028 A 
ATOM     21  C   UNL A   1      31.273  22.737  24.220  1.00  0.00     0.028 A 
ATOM     22  C   UNL A   1      33.030  23.895  23.122  1.00  0.00     0.028 A 
BRANCH  18  23
ATOM     23  N   UNL A   1      34.420  20.805  24.721  1.00  0.00    -0.378 N 
ATOM     24  C   UNL A   1      34.087  19.389  24.626  1.00  0.00     0.143 C 
ATOM     25  C   UNL A   1      35.841  21.134  24.820  1.00  0.00     0.143 C 
ENDBRANCH  18  23
ENDBRANCH  14  17
ENDBRANCH   8  13
ENDBRANCH   4   7
ENDBRANCH   2   3
ENDBRANCH   1   2
BRANCH   1  26
ATOM     26  C   UNL A   1      32.829  32.819  27.244  1.00  0.00     0.118 C 
BRANCH  26  27
ATOM     27  N   UNL A   1      32.608  34.196  27.667  1.00  0.00    -0.352 N 
ATOM     28  C   UNL A   1      33.137  34.866  28.742  1.00  0.00     0.251 C 
ATOM     29  H   UNL A   1      31.994  34.718  27.103  1.00  0.00     0.163 HD
ATOM     30  O   UNL A   1      32.667  35.945  29.080  1.00  0.00    -0.269 OA
BRANCH  28  31
ATOM     31  C   UNL A   1      34.266  34.270  29.484  1.00  0.00     0.039 A 
ATOM     32  C   UNL A   1      33.998  33.466  30.591  1.00  0.00     0.014 A 
ATOM     33  C   UNL A   1      35.584  34.513  29.086  1.00  0.00     0.014 A 
ATOM     34  C   UNL A   1      35.057  32.873  31.279  1.00  0.00     0.010 A 
ATOM     35  C   UNL A   1      36.628  33.843  29.711  1.00  0.00     0.010 A 
ATOM     36  C   UNL A   1      36.380  33.038  30.831  1.00  0.00    -0.014 A 
BRANCH  36  37
ATOM     37  C   UNL A   1      37.514  32.397  31.540  1.00  0.00     0.031 A 
ATOM     38  C   UNL A   1      38.273  31.273  30.885  1.00  0.00     0.074 A 
ATOM     39  C   UNL A   1      37.822  32.784  32.792  1.00  0.00     0.049 A 
ATOM     40  N   UNL A   1      39.278  30.578  31.349  1.00  0.00    -0.248 NA
ATOM     41  C   UNL A   1      37.826  30.852  29.545  1.00  0.00     0.031 C 
ATOM     42  C   UNL A   1      37.105  33.802  33.564  1.00  0.00     0.029 A 
ATOM     43  N   UNL A   1      38.806  32.353  33.645  1.00  0.00    -0.354 N 
ATOM     44  C   UNL A   1      39.561  29.623  30.380  1.00  0.00     0.074 A 
ATOM     45  C   UNL A   1      38.592  29.795  29.321  1.00  0.00     0.031 C 
ATOM     46  C   UNL A   1      37.681  33.925  34.770  1.00  0.00     0.029 A 
ATOM     47  C   UNL A   1      38.786  32.977  34.869  1.00  0.00     0.049 A 
ATOM     48  H   UNL A   1      39.464  31.662  33.402  1.00  0.00     0.167 HD
ATOM     49  C   UNL A   1      40.557  28.706  30.356  1.00  0.00     0.034 A 
ATOM     50  C   UNL A   1      39.567  32.801  35.953  1.00  0.00     0.034 A 
ATOM     51  C   UNL A   1      41.541  28.565  31.395  1.00  0.00     0.049 A 
ATOM     52  C   UNL A   1      40.694  31.807  35.883  1.00  0.00     0.074 A 
ATOM     53  C   UNL A   1      42.639  27.726  31.430  1.00  0.00     0.029 A 
ATOM     54  N   UNL A   1      41.539  29.273  32.586  1.00  0.00    -0.354 N 
ATOM     55  N   UNL A   1      41.042  31.021  34.893  1.00  0.00    -0.248 NA
ATOM     56  C   UNL A   1      41.563  31.706  37.064  1.00  0.00     0.031 C 
ATOM     57  C   UNL A   1      43.284  27.904  32.658  1.00  0.00     0.029 A 
ATOM     58  C   UNL A   1      42.612  28.885  33.369  1.00  0.00     0.049 A 
ATOM     59  H   UNL A   1      40.872  29.952  32.838  1.00  0.00     0.167 HD
ATOM     60  C   UNL A   1      42.191  30.362  35.315  1.00  0.00     0.074 A 
ATOM     61  C   UNL A   1      42.491  30.858  36.642  1.00  0.00     0.031 C 
ATOM     62  C   UNL A   1      42.925  29.423  34.667  1.00  0.00     0.034 A 
BRANCH  49  63
ATOM     63  C   UNL A   1      40.660  27.816  29.143  1.00  0.00     0.023 A 
ATOM     64  C   UNL A   1      39.844  26.670  29.045  1.00  0.00     0.012 A 
ATOM     65  C   UNL A   1      41.525  28.139  28.080  1.00  0.00     0.148 A 
ATOM     66  C   UNL A   1      39.917  25.837  27.929  1.00  0.00     0.002 A 
ATOM     67  C   UNL A   1      41.554  27.332  26.948  1.00  0.00     0.091 A 
ATOM     68  F   UNL A   1      42.308  29.220  28.197  1.00  0.00    -0.205 F 
ATOM     69  C   UNL A   1      40.762  26.174  26.877  1.00  0.00     0.022 A 
BRANCH  67  70
ATOM     70  S   UNL A   1      42.546  27.725  25.502  1.00  0.00     0.127 S 
ATOM     71  O   UNL A   1      42.310  26.556  24.656  1.00  0.00    -0.237 OA
ATOM     72  O   UNL A   1      41.917  28.958  25.026  1.00  0.00    -0.237 OA
ATOM     73  O   UNL A   1      43.912  27.883  25.980  1.00  0.00    -0.744 OA
ENDBRANCH  67  70
ENDBRANCH  49  63
BRANCH  50  74
ATOM     74  C   UNL A   1      39.348  33.629  37.172  1.00  0.00     0.023 A 
ATOM     75  C   UNL A   1      39.825  34.954  37.208  1.00  0.00     0.012 A 
ATOM     76  C   UNL A   1      38.652  33.120  38.284  1.00  0.00     0.148 A 
ATOM     77  C   UNL A   1      39.646  35.744  38.344  1.00  0.00     0.002 A 
ATOM     78  C   UNL A   1      38.426  33.930  39.390  1.00  0.00     0.091 A 
ATOM     79  F   UNL A   1      38.212  31.855  38.231  1.00  0.00    -0.205 F 
ATOM     80  C   UNL A   1      38.938  35.236  39.431  1.00  0.00     0.022 A 
BRANCH  78  81
ATOM     81  S   UNL A   1      37.414  33.406  40.778  1.00  0.00     0.127 S 
ATOM     82  O   UNL A   1      38.330  32.528  41.500  1.00  0.00    -0.237 OA
ATOM     83  O   UNL A   1      37.130  34.680  41.440  1.00  0.00    -0.237 OA
ATOM     84  O   UNL A   1      36.246  32.760  40.194  1.00  0.00    -0.744 OA
ENDBRANCH  78  81
ENDBRANCH  50  74
BRANCH  62  85
ATOM     85  C   UNL A   1      44.158  28.903  35.360  1.00  0.00     0.023 A 
ATOM     86  C   UNL A   1      45.410  29.505  35.127  1.00  0.00     0.012 A 
ATOM     87  C   UNL A   1      44.060  27.851  36.292  1.00  0.00     0.148 A 
ATOM     88  C   UNL A   1      46.552  29.041  35.778  1.00  0.00     0.002 A 
ATOM     89  C   UNL A   1      45.192  27.430  36.979  1.00  0.00     0.091 A 
ATOM     90  F   UNL A   1      42.863  27.278  36.488  1.00  0.00    -0.205 F 
ATOM     91  C   UNL A   1      46.441  28.013  36.712  1.00  0.00     0.022 A 
BRANCH  89  92
ATOM     92  S   UNL A   1      45.124  26.185  38.271  1.00  0.00     0.127 S 
ATOM     93  O   UNL A   1      44.675  25.008  37.528  1.00  0.00    -0.237 OA
ATOM     94  O   UNL A   1      46.516  26.127  38.720  1.00  0.00    -0.237 OA
ATOM     95  O   UNL A   1      44.190  26.689  39.268  1.00  0.00    -0.744 OA
ENDBRANCH  89  92
ENDBRANCH  62  85
ENDBRANCH  36  37
ENDBRANCH  28  31
ENDBRANCH  26  27
ENDBRANCH   1  26
TORSDOF 16
ENDMDL
MODEL 3
REMARK VINA RESULT:     -12.4      1.774      7.827
REMARK SMILES CN(C)c1ccc(NC(=O)[C@H]2CC=CC[C@@H]2C(=O)NCCCNC(=O)c2ccc(-c3c4nc(c(-c5cccc(S(=O)(=O)[O-])c5F)c5ccc([nH]5)c(-c5cccc(S(=O)(=O)[O-])c5F)c5nc(c(-c6cccc(S(=O)(=O)[O-])c6F)c6ccc3[nH]6)C=C5)C=C4)cc2)cc1
REMARK SMILES IDX 21 1 20 2 19 3 17 4 18 5 16 7 11 8 12 9 13 10 15 11 14 12
REMARK SMILES IDX 9 13 8 14 10 16 7 17 4 18 5 19 90 20 6 21 89 22 2 23 1 24
REMARK SMILES IDX 3 25 22 26 23 27 24 28 25 30 26 31 27 32 88 33 28 34 87 35
REMARK SMILES IDX 29 36 30 37 31 38 81 39 32 40 86 41 80 42 82 43 33 44 85 45
REMARK SMILES IDX 79 46 78 47 34 49 66 50 46 51 65 52 47 53 50 54 64 55 83 56
REMARK SMILES IDX 48 57 49 58 63 60 84 61 51 62 35 63 36 64 44 65 37 66 39 67
REMARK SMILES IDX 45 68 38 69 40 70 41 71 42 72 43 73 67 74 68 75 76 76 69 77
REMARK SMILES IDX 71 78 77 79 70 80 72 81 73 82 74 83 75 84 52 85 53 86 61 87
REMARK SMILES IDX 54 88 56 89 62 90 55 91 57 92 58 93 59 94 60 95
REMARK H PARENT 19 6 8 15 23 29 82 48 50 59
REMARK Flexibility Score: inf
ROOT
ATOM      1  C   UNL A   1      31.399  31.251  26.442  1.00  0.00     0.042 C 
ENDROOT
BRANCH   1   2
ATOM      2  C   UNL A   1      31.421  30.098  25.448  1.00  0.00     0.117 C 
BRANCH   2   3
ATOM      3  N   UNL A   1      32.779  29.867  25.003  1.00  0.00    -0.356 N 
ATOM      4  C   UNL A   1      33.355  28.656  24.775  1.00  0.00     0.224 C 
ATOM      5  O   UNL A   1      34.544  28.540  25.067  1.00  0.00    -0.275 OA
ATOM      6  H   UNL A   1      33.338  30.662  24.851  1.00  0.00     0.163 HD
BRANCH   4   7
ATOM      7  C   UNL A   1      32.507  27.548  24.140  1.00  0.00     0.095 C 
ATOM      8  C   UNL A   1      31.389  27.086  25.112  1.00  0.00     0.095 C 
ATOM      9  C   UNL A   1      32.009  26.506  26.390  1.00  0.00     0.041 C 
ATOM     10  C   UNL A   1      33.253  25.687  26.166  1.00  0.00    -0.030 C 
ATOM     11  C   UNL A   1      33.411  26.355  23.769  1.00  0.00     0.041 C 
ATOM     12  C   UNL A   1      33.865  25.588  24.977  1.00  0.00    -0.030 C 
BRANCH   8  13
ATOM     13  C   UNL A   1      30.299  26.351  24.291  1.00  0.00     0.228 C 
ATOM     14  N   UNL A   1      29.232  26.928  23.664  1.00  0.00    -0.326 N 
ATOM     15  H   UNL A   1      28.436  26.350  23.627  1.00  0.00     0.169 HD
ATOM     16  O   UNL A   1      30.234  25.114  24.399  1.00  0.00    -0.274 OA
BRANCH  14  17
ATOM     17  C   UNL A   1      29.046  28.175  23.064  1.00  0.00     0.041 A 
ATOM     18  C   UNL A   1      28.724  30.855  22.149  1.00  0.00     0.036 A 
ATOM     19  C   UNL A   1      29.897  30.124  21.923  1.00  0.00     0.028 A 
ATOM     20  C   UNL A   1      27.650  30.119  22.680  1.00  0.00     0.028 A 
ATOM     21  C   UNL A   1      30.036  28.793  22.329  1.00  0.00     0.028 A 
ATOM     22  C   UNL A   1      27.802  28.794  23.131  1.00  0.00     0.028 A 
BRANCH  18  23
ATOM     23  N   UNL A   1      28.638  32.214  21.849  1.00  0.00    -0.378 N 
ATOM     24  C   UNL A   1      27.857  32.662  20.702  1.00  0.00     0.143 C 
ATOM     25  C   UNL A   1      28.870  33.200  22.903  1.00  0.00     0.143 C 
ENDBRANCH  18  23
ENDBRANCH  14  17
ENDBRANCH   8  13
ENDBRANCH   4   7
ENDBRANCH   2   3
ENDBRANCH   1   2
BRANCH   1  26
ATOM     26  C   UNL A   1      32.790  31.681  26.895  1.00  0.00     0.118 C 
BRANCH  26  27
ATOM     27  N   UNL A   1      32.849  33.098  27.227  1.00  0.00    -0.352 N 
ATOM     28  C   UNL A   1      33.675  33.745  28.112  1.00  0.00     0.251 C 
ATOM     29  H   UNL A   1      32.207  33.672  26.750  1.00  0.00     0.163 HD
ATOM     30  O   UNL A   1      33.435  34.901  28.438  1.00  0.00    -0.269 OA
BRANCH  28  31
ATOM     31  C   UNL A   1      34.843  33.033  28.668  1.00  0.00     0.039 A 
ATOM     32  C   UNL A   1      36.124  33.467  28.329  1.00  0.00     0.014 A 
ATOM     33  C   UNL A   1      34.667  31.938  29.519  1.00  0.00     0.014 A 
ATOM     34  C   UNL A   1      37.233  32.820  28.876  1.00  0.00     0.010 A 
ATOM     35  C   UNL A   1      35.769  31.361  30.138  1.00  0.00     0.010 A 
ATOM     36  C   UNL A   1      37.064  31.776  29.802  1.00  0.00    -0.014 A 
BRANCH  36  37
ATOM     37  C   UNL A   1      38.234  31.094  30.408  1.00  0.00     0.031 A 
ATOM     38  C   UNL A   1      38.679  31.455  31.800  1.00  0.00     0.074 A 
ATOM     39  C   UNL A   1      38.929  30.195  29.684  1.00  0.00     0.049 A 
ATOM     40  N   UNL A   1      39.684  30.984  32.491  1.00  0.00    -0.248 NA
ATOM     41  C   UNL A   1      37.917  32.504  32.498  1.00  0.00     0.031 C 
ATOM     42  C   UNL A   1      38.646  29.826  28.295  1.00  0.00     0.029 A 
ATOM     43  N   UNL A   1      40.028  29.442  30.011  1.00  0.00    -0.354 N 
ATOM     44  C   UNL A   1      39.694  31.697  33.683  1.00  0.00     0.074 A 
ATOM     45  C   UNL A   1      38.625  32.667  33.605  1.00  0.00     0.031 C 
ATOM     46  C   UNL A   1      39.540  28.908  27.894  1.00  0.00     0.029 A 
ATOM     47  C   UNL A   1      40.476  28.648  28.983  1.00  0.00     0.049 A 
ATOM     48  H   UNL A   1      40.455  29.470  30.898  1.00  0.00     0.167 HD
ATOM     49  C   UNL A   1      40.498  31.540  34.762  1.00  0.00     0.034 A 
ATOM     50  C   UNL A   1      41.527  27.806  28.924  1.00  0.00     0.034 A 
ATOM     51  C   UNL A   1      41.536  30.548  34.849  1.00  0.00     0.049 A 
ATOM     52  C   UNL A   1      42.378  27.617  30.150  1.00  0.00     0.074 A 
ATOM     53  C   UNL A   1      42.351  30.249  35.924  1.00  0.00     0.029 A 
ATOM     54  N   UNL A   1      41.907  29.701  33.816  1.00  0.00    -0.354 N 
ATOM     55  N   UNL A   1      42.272  28.190  31.324  1.00  0.00    -0.248 NA
ATOM     56  C   UNL A   1      43.465  26.633  30.057  1.00  0.00     0.031 C 
ATOM     57  C   UNL A   1      43.239  29.243  35.531  1.00  0.00     0.029 A 
ATOM     58  C   UNL A   1      42.947  28.885  34.225  1.00  0.00     0.049 A 
ATOM     59  H   UNL A   1      41.493  29.684  32.923  1.00  0.00     0.167 HD
ATOM     60  C   UNL A   1      43.253  27.609  32.121  1.00  0.00     0.074 A 
ATOM     61  C   UNL A   1      43.926  26.625  31.300  1.00  0.00     0.031 C 
ATOM     62  C   UNL A   1      43.574  27.875  33.412  1.00  0.00     0.034 A 
BRANCH  49  63
ATOM     63  C   UNL A   1      40.254  32.430  35.954  1.00  0.00     0.023 A 
ATOM     64  C   UNL A   1      41.016  33.606  36.116  1.00  0.00     0.012 A 
ATOM     65  C   UNL A   1      39.240  32.133  36.884  1.00  0.00     0.148 A 
ATOM     66  C   UNL A   1      40.803  34.448  37.207  1.00  0.00     0.002 A 
ATOM     67  C   UNL A   1      38.998  33.004  37.939  1.00  0.00     0.091 A 
ATOM     68  F   UNL A   1      38.538  31.002  36.725  1.00  0.00    -0.205 F 
ATOM     69  C   UNL A   1      39.787  34.154  38.110  1.00  0.00     0.022 A 
BRANCH  67  70
ATOM     70  S   UNL A   1      37.657  32.760  39.110  1.00  0.00     0.127 S 
ATOM     71  O   UNL A   1      37.885  33.856  40.052  1.00  0.00    -0.237 OA
ATOM     72  O   UNL A   1      36.476  32.923  38.261  1.00  0.00    -0.237 OA
ATOM     73  O   UNL A   1      37.836  31.423  39.656  1.00  0.00    -0.744 OA
ENDBRANCH  67  70
ENDBRANCH  49  63
BRANCH  50  74
ATOM     74  C   UNL A   1      41.793  27.033  27.677  1.00  0.00     0.023 A 
ATOM     75  C   UNL A   1      42.282  27.700  26.537  1.00  0.00     0.012 A 
ATOM     76  C   UNL A   1      41.587  25.642  27.624  1.00  0.00     0.148 A 
ATOM     77  C   UNL A   1      42.522  27.002  25.354  1.00  0.00     0.002 A 
ATOM     78  C   UNL A   1      41.884  24.943  26.460  1.00  0.00     0.091 A 
ATOM     79  F   UNL A   1      41.116  25.029  28.719  1.00  0.00    -0.205 F 
ATOM     80  C   UNL A   1      42.334  25.622  25.318  1.00  0.00     0.022 A 
BRANCH  78  81
ATOM     81  S   UNL A   1      41.797  23.151  26.365  1.00  0.00     0.127 S 
ATOM     82  O   UNL A   1      42.585  22.752  27.527  1.00  0.00    -0.237 OA
ATOM     83  O   UNL A   1      40.358  22.915  26.484  1.00  0.00    -0.237 OA
ATOM     84  O   UNL A   1      42.358  22.797  25.068  1.00  0.00    -0.744 OA
ENDBRANCH  78  81
ENDBRANCH  50  74
BRANCH  62  85
ATOM     85  C   UNL A   1      44.671  27.055  34.039  1.00  0.00     0.023 A 
ATOM     86  C   UNL A   1      46.020  27.435  33.881  1.00  0.00     0.012 A 
ATOM     87  C   UNL A   1      44.358  25.939  34.840  1.00  0.00     0.148 A 
ATOM     88  C   UNL A   1      47.038  26.692  34.475  1.00  0.00     0.002 A 
ATOM     89  C   UNL A   1      45.375  25.236  35.473  1.00  0.00     0.091 A 
ATOM     90  F   UNL A   1      43.071  25.582  34.964  1.00  0.00    -0.205 F 
ATOM     91  C   UNL A   1      46.716  25.602  35.280  1.00  0.00     0.022 A 
BRANCH  89  92
ATOM     92  S   UNL A   1      45.046  23.884  36.607  1.00  0.00     0.127 S 
ATOM     93  O   UNL A   1      44.324  22.944  35.750  1.00  0.00    -0.237 OA
ATOM     94  O   UNL A   1      46.395  23.456  36.980  1.00  0.00    -0.237 OA
ATOM     95  O   UNL A   1      44.271  24.454  37.701  1.00  0.00    -0.744 OA
ENDBRANCH  89  92
ENDBRANCH  62  85
ENDBRANCH  36  37
ENDBRANCH  28  31
ENDBRANCH  26  27
ENDBRANCH   1  26
TORSDOF 16
ENDMDL
