MODEL 1
REMARK VINA RESULT:     -12.9      0.000      0.000
REMARK SMILES Nc1nc(N2CCCCC2)nc2c1[C@H](C(=O)NCCCNC(=O)c1ccc(-c3c4nc(c(-c5cccc(S(=O)(=O)[O-])c5F)c5ccc([nH]5)c(-c5cccc(S(=O)(=O)[O-])c5F)c5nc(c(-c6cccc(S(=O)(=O)[O-])c6F)c6ccc3[nH]6)C=C5)C=C4)cc1)CC(=O)N2
REMARK SMILES IDX 20 1 19 2 18 3 17 4 15 5 16 6 14 8 2 9 3 10 13 11 4 12 12 13
REMARK SMILES IDX 11 14 90 15 87 16 88 17 89 19 1 20 5 23 6 24 10 25 7 26 9 27
REMARK SMILES IDX 8 28 21 29 22 30 23 32 24 33 25 34 86 35 26 36 85 37 27 38
REMARK SMILES IDX 28 39 29 40 79 41 30 42 84 43 78 44 80 45 31 46 83 47 77 48
REMARK SMILES IDX 76 49 32 51 64 52 44 53 63 54 45 55 48 56 62 57 81 58 46 59
REMARK SMILES IDX 47 60 61 62 82 63 49 64 33 65 34 66 42 67 35 68 37 69 43 70
REMARK SMILES IDX 36 71 38 72 39 73 40 74 41 75 65 76 66 77 74 78 67 79 69 80
REMARK SMILES IDX 75 81 68 82 70 83 71 84 72 85 73 86 50 87 51 88 59 89 52 90
REMARK SMILES IDX 54 91 60 92 53 93 55 94 56 95 57 96 58 97
REMARK H PARENT 17 7 90 18 1 21 1 22 21 31 80 50 48 61
REMARK Flexibility Score: inf
ROOT
ATOM      1  C   UNL A   1      33.841  28.838  24.834  1.00  0.00     0.118 C 
ENDROOT
BRANCH   1   2
ATOM      2  C   UNL A   1      32.964  27.588  24.793  1.00  0.00     0.042 C 
BRANCH   2   3
ATOM      3  C   UNL A   1      33.458  26.544  23.798  1.00  0.00     0.117 C 
BRANCH   3   4
ATOM      4  N   UNL A   1      34.022  25.377  24.445  1.00  0.00    -0.355 N 
ATOM      5  C   UNL A   1      33.636  24.085  24.565  1.00  0.00     0.228 C 
ATOM      6  O   UNL A   1      34.453  23.361  25.148  1.00  0.00    -0.274 OA
ATOM      7  H   UNL A   1      34.877  25.565  24.897  1.00  0.00     0.163 HD
BRANCH   5   8
ATOM      8  C   UNL A   1      32.264  23.522  24.142  1.00  0.00     0.125 C 
ATOM      9  C   UNL A   1      32.212  21.293  22.875  1.00  0.00     0.135 A 
ATOM     10  N   UNL A   1      32.306  19.957  22.885  1.00  0.00    -0.196 NA
ATOM     11  C   UNL A   1      32.165  22.029  24.038  1.00  0.00     0.050 A 
ATOM     12  C   UNL A   1      32.314  19.330  24.069  1.00  0.00     0.229 A 
ATOM     13  C   UNL A   1      32.065  21.284  25.192  1.00  0.00     0.144 A 
ATOM     14  N   UNL A   1      32.153  19.954  25.239  1.00  0.00    -0.195 NA
ATOM     15  N   UNL A   1      31.821  21.935  26.395  1.00  0.00    -0.310 N 
ATOM     16  C   UNL A   1      31.223  23.975  25.181  1.00  0.00     0.119 C 
ATOM     17  C   UNL A   1      31.434  23.243  26.495  1.00  0.00     0.226 C 
ATOM     18  H   UNL A   1      31.935  21.423  27.229  1.00  0.00     0.171 HD
ATOM     19  O   UNL A   1      31.162  23.741  27.585  1.00  0.00    -0.275 OA
BRANCH   9  20
ATOM     20  N   UNL A   1      32.149  21.875  21.627  1.00  0.00    -0.383 N 
ATOM     21  H   UNL A   1      32.653  22.700  21.443  1.00  0.00     0.158 HD
ATOM     22  H   UNL A   1      31.599  21.466  20.919  1.00  0.00     0.158 HD
ENDBRANCH   9  20
BRANCH  12  23
ATOM     23  N   UNL A   1      32.532  17.980  24.106  1.00  0.00    -0.341 N 
ATOM     24  C   UNL A   1      32.482  17.289  25.379  1.00  0.00     0.119 C 
ATOM     25  C   UNL A   1      33.147  17.351  22.958  1.00  0.00     0.119 C 
ATOM     26  C   UNL A   1      33.852  16.729  25.751  1.00  0.00     0.022 C 
ATOM     27  C   UNL A   1      34.533  16.822  23.334  1.00  0.00     0.022 C 
ATOM     28  C   UNL A   1      34.472  15.953  24.590  1.00  0.00     0.004 C 
ENDBRANCH  12  23
ENDBRANCH   5   8
ENDBRANCH   3   4
ENDBRANCH   2   3
ENDBRANCH   1   2
BRANCH   1  29
ATOM     29  N   UNL A   1      33.111  29.990  25.349  1.00  0.00    -0.352 N 
ATOM     30  C   UNL A   1      33.207  30.644  26.550  1.00  0.00     0.251 C 
ATOM     31  H   UNL A   1      32.439  30.360  24.733  1.00  0.00     0.163 HD
ATOM     32  O   UNL A   1      32.302  31.405  26.885  1.00  0.00    -0.269 OA
BRANCH  30  33
ATOM     33  C   UNL A   1      34.383  30.463  27.427  1.00  0.00     0.039 A 
ATOM     34  C   UNL A   1      35.267  31.535  27.596  1.00  0.00     0.014 A 
ATOM     35  C   UNL A   1      34.675  29.221  27.996  1.00  0.00     0.014 A 
ATOM     36  C   UNL A   1      36.430  31.366  28.350  1.00  0.00     0.010 A 
ATOM     37  C   UNL A   1      35.798  29.072  28.804  1.00  0.00     0.010 A 
ATOM     38  C   UNL A   1      36.700  30.134  28.964  1.00  0.00    -0.014 A 
BRANCH  38  39
ATOM     39  C   UNL A   1      37.948  29.905  29.730  1.00  0.00     0.031 A 
ATOM     40  C   UNL A   1      39.005  28.989  29.173  1.00  0.00     0.074 A 
ATOM     41  C   UNL A   1      38.097  30.455  30.949  1.00  0.00     0.049 A 
ATOM     42  N   UNL A   1      40.110  28.570  29.729  1.00  0.00    -0.248 NA
ATOM     43  C   UNL A   1      38.775  28.456  27.819  1.00  0.00     0.031 C 
ATOM     44  C   UNL A   1      37.122  31.328  31.606  1.00  0.00     0.029 A 
ATOM     45  N   UNL A   1      39.113  30.341  31.863  1.00  0.00    -0.354 N 
ATOM     46  C   UNL A   1      40.689  27.701  28.812  1.00  0.00     0.074 A 
ATOM     47  C   UNL A   1      39.797  27.626  27.676  1.00  0.00     0.031 C 
ATOM     48  C   UNL A   1      37.588  31.671  32.817  1.00  0.00     0.029 A 
ATOM     49  C   UNL A   1      38.876  31.018  33.037  1.00  0.00     0.049 A 
ATOM     50  H   UNL A   1      39.933  29.824  31.695  1.00  0.00     0.167 HD
ATOM     51  C   UNL A   1      41.874  27.050  28.893  1.00  0.00     0.034 A 
ATOM     52  C   UNL A   1      39.609  31.094  34.164  1.00  0.00     0.034 A 
ATOM     53  C   UNL A   1      42.778  27.166  30.006  1.00  0.00     0.049 A 
ATOM     54  C   UNL A   1      40.928  30.371  34.223  1.00  0.00     0.074 A 
ATOM     55  C   UNL A   1      44.026  26.592  30.162  1.00  0.00     0.029 A 
ATOM     56  N   UNL A   1      42.532  27.909  31.151  1.00  0.00    -0.354 N 
ATOM     57  N   UNL A   1      41.513  29.643  33.302  1.00  0.00    -0.248 NA
ATOM     58  C   UNL A   1      41.703  30.504  35.465  1.00  0.00     0.031 C 
ATOM     59  C   UNL A   1      44.531  26.979  31.408  1.00  0.00     0.029 A 
ATOM     60  C   UNL A   1      43.604  27.807  32.020  1.00  0.00     0.049 A 
ATOM     61  H   UNL A   1      41.715  28.432  31.320  1.00  0.00     0.167 HD
ATOM     62  C   UNL A   1      42.732  29.248  33.843  1.00  0.00     0.074 A 
ATOM     63  C   UNL A   1      42.815  29.847  35.160  1.00  0.00     0.031 C 
ATOM     64  C   UNL A   1      43.687  28.444  33.311  1.00  0.00     0.034 A 
BRANCH  51  65
ATOM     65  C   UNL A   1      42.293  26.206  27.717  1.00  0.00     0.023 A 
ATOM     66  C   UNL A   1      43.114  26.772  26.719  1.00  0.00     0.012 A 
ATOM     67  C   UNL A   1      41.937  24.847  27.627  1.00  0.00     0.148 A 
ATOM     68  C   UNL A   1      43.550  26.008  25.638  1.00  0.00     0.002 A 
ATOM     69  C   UNL A   1      42.412  24.080  26.569  1.00  0.00     0.091 A 
ATOM     70  F   UNL A   1      41.138  24.331  28.572  1.00  0.00    -0.205 F 
ATOM     71  C   UNL A   1      43.209  24.661  25.569  1.00  0.00     0.022 A 
BRANCH  69  72
ATOM     72  S   UNL A   1      42.097  22.316  26.427  1.00  0.00     0.127 S 
ATOM     73  O   UNL A   1      42.615  21.821  27.702  1.00  0.00    -0.237 OA
ATOM     74  O   UNL A   1      40.640  22.274  26.304  1.00  0.00    -0.237 OA
ATOM     75  O   UNL A   1      42.821  21.872  25.245  1.00  0.00    -0.744 OA
ENDBRANCH  69  72
ENDBRANCH  51  65
BRANCH  52  76
ATOM     76  C   UNL A   1      39.145  31.949  35.293  1.00  0.00     0.023 A 
ATOM     77  C   UNL A   1      38.240  31.415  36.230  1.00  0.00     0.012 A 
ATOM     78  C   UNL A   1      39.634  33.257  35.480  1.00  0.00     0.148 A 
ATOM     79  C   UNL A   1      37.812  32.172  37.319  1.00  0.00     0.002 A 
ATOM     80  C   UNL A   1      39.249  33.986  36.600  1.00  0.00     0.091 A 
ATOM     81  F   UNL A   1      40.485  33.753  34.571  1.00  0.00    -0.205 F 
ATOM     82  C   UNL A   1      38.325  33.452  37.512  1.00  0.00     0.022 A 
BRANCH  80  83
ATOM     83  S   UNL A   1      39.966  35.583  37.007  1.00  0.00     0.127 S 
ATOM     84  O   UNL A   1      39.292  35.903  38.262  1.00  0.00    -0.237 OA
ATOM     85  O   UNL A   1      41.386  35.252  37.134  1.00  0.00    -0.237 OA
ATOM     86  O   UNL A   1      39.653  36.453  35.881  1.00  0.00    -0.744 OA
ENDBRANCH  80  83
ENDBRANCH  52  76
BRANCH  64  87
ATOM     87  C   UNL A   1      44.905  28.159  34.150  1.00  0.00     0.023 A 
ATOM     88  C   UNL A   1      46.020  29.016  34.064  1.00  0.00     0.012 A 
ATOM     89  C   UNL A   1      44.918  27.100  35.079  1.00  0.00     0.148 A 
ATOM     90  C   UNL A   1      47.142  28.806  34.865  1.00  0.00     0.002 A 
ATOM     91  C   UNL A   1      46.020  26.927  35.910  1.00  0.00     0.091 A 
ATOM     92  F   UNL A   1      43.857  26.283  35.136  1.00  0.00    -0.205 F 
ATOM     93  C   UNL A   1      47.137  27.770  35.796  1.00  0.00     0.022 A 
BRANCH  91  94
ATOM     94  S   UNL A   1      46.055  25.684  37.207  1.00  0.00     0.127 S 
ATOM     95  O   UNL A   1      44.881  26.046  37.999  1.00  0.00    -0.237 OA
ATOM     96  O   UNL A   1      45.919  24.438  36.451  1.00  0.00    -0.237 OA
ATOM     97  O   UNL A   1      47.340  25.843  37.875  1.00  0.00    -0.744 OA
ENDBRANCH  91  94
ENDBRANCH  64  87
ENDBRANCH  38  39
ENDBRANCH  30  33
ENDBRANCH   1  29
TORSDOF 15
ENDMDL
MODEL 2
REMARK VINA RESULT:     -12.9      1.620      2.086
REMARK SMILES Nc1nc(N2CCCCC2)nc2c1[C@H](C(=O)NCCCNC(=O)c1ccc(-c3c4nc(c(-c5cccc(S(=O)(=O)[O-])c5F)c5ccc([nH]5)c(-c5cccc(S(=O)(=O)[O-])c5F)c5nc(c(-c6cccc(S(=O)(=O)[O-])c6F)c6ccc3[nH]6)C=C5)C=C4)cc1)CC(=O)N2
REMARK SMILES IDX 20 1 19 2 18 3 17 4 15 5 16 6 14 8 2 9 3 10 13 11 4 12 12 13
REMARK SMILES IDX 11 14 90 15 87 16 88 17 89 19 1 20 5 23 6 24 10 25 7 26 9 27
REMARK SMILES IDX 8 28 21 29 22 30 23 32 24 33 25 34 86 35 26 36 85 37 27 38
REMARK SMILES IDX 28 39 29 40 79 41 30 42 84 43 78 44 80 45 31 46 83 47 77 48
REMARK SMILES IDX 76 49 32 51 64 52 44 53 63 54 45 55 48 56 62 57 81 58 46 59
REMARK SMILES IDX 47 60 61 62 82 63 49 64 33 65 34 66 42 67 35 68 37 69 43 70
REMARK SMILES IDX 36 71 38 72 39 73 40 74 41 75 65 76 66 77 74 78 67 79 69 80
REMARK SMILES IDX 75 81 68 82 70 83 71 84 72 85 73 86 50 87 51 88 59 89 52 90
REMARK SMILES IDX 54 91 60 92 53 93 55 94 56 95 57 96 58 97
REMARK H PARENT 17 7 90 18 1 21 1 22 21 31 80 50 48 61
REMARK Flexibility Score: inf
ROOT
ATOM      1  C   UNL A   1      33.648  28.920  24.879  1.00  0.00     0.118 C 
ENDROOT
BRANCH   1   2
ATOM      2  C   UNL A   1      32.945  27.617  25.254  1.00  0.00     0.042 C 
BRANCH   2   3
ATOM      3  C   UNL A   1      32.249  26.953  24.071  1.00  0.00     0.117 C 
BRANCH   3   4
ATOM      4  N   UNL A   1      33.098  26.003  23.384  1.00  0.00    -0.355 N 
ATOM      5  C   UNL A   1      33.616  24.793  23.705  1.00  0.00     0.228 C 
ATOM      6  O   UNL A   1      34.249  24.250  22.791  1.00  0.00    -0.274 OA
ATOM      7  H   UNL A   1      33.355  26.302  22.481  1.00  0.00     0.163 HD
BRANCH   5   8
ATOM      8  C   UNL A   1      33.559  24.143  25.102  1.00  0.00     0.125 C 
ATOM      9  C   UNL A   1      32.014  22.124  25.435  1.00  0.00     0.135 A 
ATOM     10  N   UNL A   1      31.764  20.820  25.261  1.00  0.00    -0.196 NA
ATOM     11  C   UNL A   1      33.239  22.678  25.138  1.00  0.00     0.050 A 
ATOM     12  C   UNL A   1      32.759  20.037  24.822  1.00  0.00     0.229 A 
ATOM     13  C   UNL A   1      34.220  21.771  24.804  1.00  0.00     0.144 A 
ATOM     14  N   UNL A   1      34.008  20.467  24.624  1.00  0.00    -0.195 NA
ATOM     15  N   UNL A   1      35.531  22.213  24.674  1.00  0.00    -0.310 N 
ATOM     16  C   UNL A   1      34.936  24.323  25.766  1.00  0.00     0.119 C 
ATOM     17  C   UNL A   1      35.971  23.442  25.087  1.00  0.00     0.226 C 
ATOM     18  H   UNL A   1      36.185  21.605  24.259  1.00  0.00     0.171 HD
ATOM     19  O   UNL A   1      37.158  23.746  25.011  1.00  0.00    -0.275 OA
BRANCH   9  20
ATOM     20  N   UNL A   1      30.969  22.866  25.943  1.00  0.00    -0.383 N 
ATOM     21  H   UNL A   1      31.100  23.817  26.160  1.00  0.00     0.158 HD
ATOM     22  H   UNL A   1      30.090  22.444  26.091  1.00  0.00     0.158 HD
ENDBRANCH   9  20
BRANCH  12  23
ATOM     23  N   UNL A   1      32.494  18.729  24.521  1.00  0.00    -0.341 N 
ATOM     24  C   UNL A   1      32.543  17.736  25.575  1.00  0.00     0.119 C 
ATOM     25  C   UNL A   1      32.524  18.323  23.134  1.00  0.00     0.119 C 
ATOM     26  C   UNL A   1      33.677  16.742  25.337  1.00  0.00     0.022 C 
ATOM     27  C   UNL A   1      33.684  17.352  22.900  1.00  0.00     0.022 C 
ATOM     28  C   UNL A   1      33.657  16.204  23.907  1.00  0.00     0.004 C 
ENDBRANCH  12  23
ENDBRANCH   5   8
ENDBRANCH   3   4
ENDBRANCH   2   3
ENDBRANCH   1   2
BRANCH   1  29
ATOM     29  N   UNL A   1      32.932  30.083  25.390  1.00  0.00    -0.352 N 
ATOM     30  C   UNL A   1      33.045  30.748  26.583  1.00  0.00     0.251 C 
ATOM     31  H   UNL A   1      32.257  30.452  24.776  1.00  0.00     0.163 HD
ATOM     32  O   UNL A   1      32.149  31.520  26.919  1.00  0.00    -0.269 OA
BRANCH  30  33
ATOM     33  C   UNL A   1      34.228  30.567  27.450  1.00  0.00     0.039 A 
ATOM     34  C   UNL A   1      35.104  31.645  27.627  1.00  0.00     0.014 A 
ATOM     35  C   UNL A   1      34.533  29.321  28.003  1.00  0.00     0.014 A 
ATOM     36  C   UNL A   1      36.273  31.476  28.371  1.00  0.00     0.010 A 
ATOM     37  C   UNL A   1      35.663  29.172  28.802  1.00  0.00     0.010 A 
ATOM     38  C   UNL A   1      36.557  30.239  28.969  1.00  0.00    -0.014 A 
BRANCH  38  39
ATOM     39  C   UNL A   1      37.812  30.013  29.725  1.00  0.00     0.031 A 
ATOM     40  C   UNL A   1      38.874  29.116  29.148  1.00  0.00     0.074 A 
ATOM     41  C   UNL A   1      37.962  30.546  30.951  1.00  0.00     0.049 A 
ATOM     42  N   UNL A   1      39.987  28.699  29.692  1.00  0.00    -0.248 NA
ATOM     43  C   UNL A   1      38.642  28.600  27.788  1.00  0.00     0.031 C 
ATOM     44  C   UNL A   1      36.982  31.399  31.626  1.00  0.00     0.029 A 
ATOM     45  N   UNL A   1      38.985  30.430  31.857  1.00  0.00    -0.354 N 
ATOM     46  C   UNL A   1      40.570  27.850  28.758  1.00  0.00     0.074 A 
ATOM     47  C   UNL A   1      39.672  27.783  27.626  1.00  0.00     0.031 C 
ATOM     48  C   UNL A   1      37.452  31.730  32.839  1.00  0.00     0.029 A 
ATOM     49  C   UNL A   1      38.747  31.087  33.042  1.00  0.00     0.049 A 
ATOM     50  H   UNL A   1      39.809  29.923  31.677  1.00  0.00     0.167 HD
ATOM     51  C   UNL A   1      41.762  27.210  28.823  1.00  0.00     0.034 A 
ATOM     52  C   UNL A   1      39.487  31.153  34.165  1.00  0.00     0.034 A 
ATOM     53  C   UNL A   1      42.670  27.319  29.933  1.00  0.00     0.049 A 
ATOM     54  C   UNL A   1      40.814  30.444  34.207  1.00  0.00     0.074 A 
ATOM     55  C   UNL A   1      43.926  26.756  30.073  1.00  0.00     0.029 A 
ATOM     56  N   UNL A   1      42.424  28.043  31.090  1.00  0.00    -0.354 N 
ATOM     57  N   UNL A   1      41.400  29.735  33.272  1.00  0.00    -0.248 NA
ATOM     58  C   UNL A   1      41.594  30.566  35.446  1.00  0.00     0.031 C 
ATOM     59  C   UNL A   1      44.434  27.130  31.322  1.00  0.00     0.029 A 
ATOM     60  C   UNL A   1      43.502  27.939  31.952  1.00  0.00     0.049 A 
ATOM     61  H   UNL A   1      41.603  28.555  31.271  1.00  0.00     0.167 HD
ATOM     62  C   UNL A   1      42.626  29.344  33.800  1.00  0.00     0.074 A 
ATOM     63  C   UNL A   1      42.711  29.925  35.125  1.00  0.00     0.031 C 
ATOM     64  C   UNL A   1      43.586  28.557  33.251  1.00  0.00     0.034 A 
BRANCH  51  65
ATOM     65  C   UNL A   1      42.182  26.388  27.632  1.00  0.00     0.023 A 
ATOM     66  C   UNL A   1      42.988  26.978  26.636  1.00  0.00     0.012 A 
ATOM     67  C   UNL A   1      41.843  25.025  27.527  1.00  0.00     0.148 A 
ATOM     68  C   UNL A   1      43.425  26.234  25.542  1.00  0.00     0.002 A 
ATOM     69  C   UNL A   1      42.319  24.278  26.455  1.00  0.00     0.091 A 
ATOM     70  F   UNL A   1      41.058  24.487  28.471  1.00  0.00    -0.205 F 
ATOM     71  C   UNL A   1      43.101  24.884  25.457  1.00  0.00     0.022 A 
BRANCH  69  72
ATOM     72  S   UNL A   1      42.026  22.513  26.291  1.00  0.00     0.127 S 
ATOM     73  O   UNL A   1      42.743  22.210  25.053  1.00  0.00    -0.237 OA
ATOM     74  O   UNL A   1      42.652  21.985  27.503  1.00  0.00    -0.237 OA
ATOM     75  O   UNL A   1      40.581  22.349  26.230  1.00  0.00    -0.744 OA
ENDBRANCH  69  72
ENDBRANCH  51  65
BRANCH  52  76
ATOM     76  C   UNL A   1      39.021  31.987  35.310  1.00  0.00     0.023 A 
ATOM     77  C   UNL A   1      39.105  33.390  35.214  1.00  0.00     0.012 A 
ATOM     78  C   UNL A   1      38.445  31.411  36.459  1.00  0.00     0.148 A 
ATOM     79  C   UNL A   1      38.645  34.203  36.249  1.00  0.00     0.002 A 
ATOM     80  C   UNL A   1      37.936  32.229  37.462  1.00  0.00     0.091 A 
ATOM     81  F   UNL A   1      38.386  30.075  36.539  1.00  0.00    -0.205 F 
ATOM     82  C   UNL A   1      38.049  33.625  37.366  1.00  0.00     0.022 A 
BRANCH  80  83
ATOM     83  S   UNL A   1      37.024  31.581  38.869  1.00  0.00     0.127 S 
ATOM     84  O   UNL A   1      35.823  32.409  38.856  1.00  0.00    -0.237 OA
ATOM     85  O   UNL A   1      36.818  30.186  38.476  1.00  0.00    -0.237 OA
ATOM     86  O   UNL A   1      37.902  31.754  40.019  1.00  0.00    -0.744 OA
ENDBRANCH  80  83
ENDBRANCH  52  76
BRANCH  64  87
ATOM     87  C   UNL A   1      44.812  28.273  34.079  1.00  0.00     0.023 A 
ATOM     88  C   UNL A   1      45.899  29.169  34.036  1.00  0.00     0.012 A 
ATOM     89  C   UNL A   1      44.858  27.173  34.957  1.00  0.00     0.148 A 
ATOM     90  C   UNL A   1      47.026  28.957  34.829  1.00  0.00     0.002 A 
ATOM     91  C   UNL A   1      45.964  26.996  35.781  1.00  0.00     0.091 A 
ATOM     92  F   UNL A   1      43.824  26.320  34.973  1.00  0.00    -0.205 F 
ATOM     93  C   UNL A   1      47.053  27.879  35.710  1.00  0.00     0.022 A 
BRANCH  91  94
ATOM     94  S   UNL A   1      46.038  25.695  37.019  1.00  0.00     0.127 S 
ATOM     95  O   UNL A   1      47.341  25.942  37.634  1.00  0.00    -0.237 OA
ATOM     96  O   UNL A   1      44.891  26.008  37.872  1.00  0.00    -0.237 OA
ATOM     97  O   UNL A   1      45.915  24.442  36.285  1.00  0.00    -0.744 OA
ENDBRANCH  91  94
ENDBRANCH  64  87
ENDBRANCH  38  39
ENDBRANCH  30  33
ENDBRANCH   1  29
TORSDOF 15
ENDMDL
MODEL 3
REMARK VINA RESULT:     -12.8      3.181      5.092
REMARK SMILES Nc1nc(N2CCCCC2)nc2c1[C@H](C(=O)NCCCNC(=O)c1ccc(-c3c4nc(c(-c5cccc(S(=O)(=O)[O-])c5F)c5ccc([nH]5)c(-c5cccc(S(=O)(=O)[O-])c5F)c5nc(c(-c6cccc(S(=O)(=O)[O-])c6F)c6ccc3[nH]6)C=C5)C=C4)cc1)CC(=O)N2
REMARK SMILES IDX 20 1 19 2 18 3 17 4 15 5 16 6 14 8 2 9 3 10 13 11 4 12 12 13
REMARK SMILES IDX 11 14 90 15 87 16 88 17 89 19 1 20 5 23 6 24 10 25 7 26 9 27
REMARK SMILES IDX 8 28 21 29 22 30 23 32 24 33 25 34 86 35 26 36 85 37 27 38
REMARK SMILES IDX 28 39 29 40 79 41 30 42 84 43 78 44 80 45 31 46 83 47 77 48
REMARK SMILES IDX 76 49 32 51 64 52 44 53 63 54 45 55 48 56 62 57 81 58 46 59
REMARK SMILES IDX 47 60 61 62 82 63 49 64 33 65 34 66 42 67 35 68 37 69 43 70
REMARK SMILES IDX 36 71 38 72 39 73 40 74 41 75 65 76 66 77 74 78 67 79 69 80
REMARK SMILES IDX 75 81 68 82 70 83 71 84 72 85 73 86 50 87 51 88 59 89 52 90
REMARK SMILES IDX 54 91 60 92 53 93 55 94 56 95 57 96 58 97
REMARK H PARENT 17 7 90 18 1 21 1 22 21 31 80 50 48 61
REMARK Flexibility Score: inf
ROOT
ATOM      1  C   UNL A   1      32.678  29.548  26.148  1.00  0.00     0.118 C 
ENDROOT
BRANCH   1   2
ATOM      2  C   UNL A   1      31.696  28.778  27.029  1.00  0.00     0.042 C 
BRANCH   2   3
ATOM      3  C   UNL A   1      31.253  27.456  26.414  1.00  0.00     0.117 C 
BRANCH   3   4
ATOM      4  N   UNL A   1      32.342  26.737  25.786  1.00  0.00    -0.355 N 
ATOM      5  C   UNL A   1      32.456  25.983  24.667  1.00  0.00     0.228 C 
ATOM      6  O   UNL A   1      33.607  25.594  24.430  1.00  0.00    -0.274 OA
ATOM      7  H   UNL A   1      33.189  26.814  26.284  1.00  0.00     0.163 HD
BRANCH   5   8
ATOM      8  C   UNL A   1      31.282  25.515  23.785  1.00  0.00     0.125 C 
ATOM      9  C   UNL A   1      29.064  26.793  23.948  1.00  0.00     0.135 A 
ATOM     10  N   UNL A   1      28.330  27.873  23.652  1.00  0.00    -0.196 NA
ATOM     11  C   UNL A   1      30.298  26.572  23.378  1.00  0.00     0.050 A 
ATOM     12  C   UNL A   1      28.806  28.735  22.742  1.00  0.00     0.229 A 
ATOM     13  C   UNL A   1      30.641  27.454  22.377  1.00  0.00     0.144 A 
ATOM     14  N   UNL A   1      29.934  28.538  22.055  1.00  0.00    -0.195 NA
ATOM     15  N   UNL A   1      31.775  27.201  21.615  1.00  0.00    -0.310 N 
ATOM     16  C   UNL A   1      31.866  24.917  22.493  1.00  0.00     0.119 C 
ATOM     17  C   UNL A   1      32.454  26.013  21.621  1.00  0.00     0.226 C 
ATOM     18  H   UNL A   1      32.112  27.922  21.035  1.00  0.00     0.171 HD
ATOM     19  O   UNL A   1      33.408  25.827  20.869  1.00  0.00    -0.275 OA
BRANCH   9  20
ATOM     20  N   UNL A   1      28.495  25.915  24.846  1.00  0.00    -0.383 N 
ATOM     21  H   UNL A   1      27.713  25.379  24.581  1.00  0.00     0.158 HD
ATOM     22  H   UNL A   1      28.870  25.825  25.752  1.00  0.00     0.158 HD
ENDBRANCH   9  20
BRANCH  12  23
ATOM     23  N   UNL A   1      28.132  29.904  22.516  1.00  0.00    -0.341 N 
ATOM     24  C   UNL A   1      28.025  30.408  21.163  1.00  0.00     0.119 C 
ATOM     25  C   UNL A   1      27.861  30.770  23.642  1.00  0.00     0.119 C 
ATOM     26  C   UNL A   1      28.777  31.728  21.010  1.00  0.00     0.022 C 
ATOM     27  C   UNL A   1      28.645  32.076  23.495  1.00  0.00     0.022 C 
ATOM     28  C   UNL A   1      28.414  32.709  22.123  1.00  0.00     0.004 C 
ENDBRANCH  12  23
ENDBRANCH   5   8
ENDBRANCH   3   4
ENDBRANCH   2   3
ENDBRANCH   1   2
BRANCH   1  29
ATOM     29  N   UNL A   1      32.565  30.988  26.349  1.00  0.00    -0.352 N 
ATOM     30  C   UNL A   1      33.250  31.829  27.186  1.00  0.00     0.251 C 
ATOM     31  H   UNL A   1      31.885  31.429  25.790  1.00  0.00     0.163 HD
ATOM     32  O   UNL A   1      32.797  32.952  27.399  1.00  0.00    -0.269 OA
BRANCH  30  33
ATOM     33  C   UNL A   1      34.524  31.415  27.812  1.00  0.00     0.039 A 
ATOM     34  C   UNL A   1      34.637  30.111  28.308  1.00  0.00     0.014 A 
ATOM     35  C   UNL A   1      35.563  32.329  28.004  1.00  0.00     0.014 A 
ATOM     36  C   UNL A   1      35.798  29.721  28.979  1.00  0.00     0.010 A 
ATOM     37  C   UNL A   1      36.746  31.918  28.612  1.00  0.00     0.010 A 
ATOM     38  C   UNL A   1      36.863  30.621  29.130  1.00  0.00    -0.014 A 
BRANCH  38  39
ATOM     39  C   UNL A   1      38.088  30.255  29.879  1.00  0.00     0.031 A 
ATOM     40  C   UNL A   1      39.073  29.294  29.268  1.00  0.00     0.074 A 
ATOM     41  C   UNL A   1      38.277  30.722  31.126  1.00  0.00     0.049 A 
ATOM     42  N   UNL A   1      40.142  28.760  29.797  1.00  0.00    -0.248 NA
ATOM     43  C   UNL A   1      38.805  28.857  27.887  1.00  0.00     0.031 C 
ATOM     44  C   UNL A   1      37.370  31.628  31.834  1.00  0.00     0.029 A 
ATOM     45  N   UNL A   1      39.280  30.479  32.030  1.00  0.00    -0.354 N 
ATOM     46  C   UNL A   1      40.654  27.903  28.830  1.00  0.00     0.074 A 
ATOM     47  C   UNL A   1      39.761  27.961  27.694  1.00  0.00     0.031 C 
ATOM     48  C   UNL A   1      37.859  31.866  33.062  1.00  0.00     0.029 A 
ATOM     49  C   UNL A   1      39.092  31.105  33.241  1.00  0.00     0.049 A 
ATOM     50  H   UNL A   1      40.058  29.911  31.831  1.00  0.00     0.167 HD
ATOM     51  C   UNL A   1      41.786  27.159  28.871  1.00  0.00     0.034 A 
ATOM     52  C   UNL A   1      39.827  31.060  34.368  1.00  0.00     0.034 A 
ATOM     53  C   UNL A   1      42.693  27.142  29.987  1.00  0.00     0.049 A 
ATOM     54  C   UNL A   1      41.087  30.236  34.383  1.00  0.00     0.074 A 
ATOM     55  C   UNL A   1      43.894  26.467  30.107  1.00  0.00     0.029 A 
ATOM     56  N   UNL A   1      42.503  27.836  31.173  1.00  0.00    -0.354 N 
ATOM     57  N   UNL A   1      41.616  29.519  33.422  1.00  0.00    -0.248 NA
ATOM     58  C   UNL A   1      41.868  30.238  35.629  1.00  0.00     0.031 C 
ATOM     59  C   UNL A   1      44.425  26.743  31.372  1.00  0.00     0.029 A 
ATOM     60  C   UNL A   1      43.562  27.604  32.033  1.00  0.00     0.049 A 
ATOM     61  H   UNL A   1      41.729  28.410  31.373  1.00  0.00     0.167 HD
ATOM     62  C   UNL A   1      42.800  29.001  33.936  1.00  0.00     0.074 A 
ATOM     63  C   UNL A   1      42.926  29.517  35.285  1.00  0.00     0.031 C 
ATOM     64  C   UNL A   1      43.691  28.158  33.356  1.00  0.00     0.034 A 
BRANCH  51  65
ATOM     65  C   UNL A   1      42.141  26.354  27.648  1.00  0.00     0.023 A 
ATOM     66  C   UNL A   1      42.849  26.972  26.597  1.00  0.00     0.012 A 
ATOM     67  C   UNL A   1      41.839  24.981  27.563  1.00  0.00     0.148 A 
ATOM     68  C   UNL A   1      43.226  26.246  25.469  1.00  0.00     0.002 A 
ATOM     69  C   UNL A   1      42.256  24.253  26.454  1.00  0.00     0.091 A 
ATOM     70  F   UNL A   1      41.145  24.415  28.560  1.00  0.00    -0.205 F 
ATOM     71  C   UNL A   1      42.940  24.886  25.402  1.00  0.00     0.022 A 
BRANCH  69  72
ATOM     72  S   UNL A   1      42.008  22.480  26.304  1.00  0.00     0.127 S 
ATOM     73  O   UNL A   1      42.644  22.201  25.017  1.00  0.00    -0.237 OA
ATOM     74  O   UNL A   1      42.737  21.970  27.466  1.00  0.00    -0.237 OA
ATOM     75  O   UNL A   1      40.569  22.269  26.346  1.00  0.00    -0.744 OA
ENDBRANCH  69  72
ENDBRANCH  51  65
BRANCH  52  76
ATOM     76  C   UNL A   1      39.428  31.883  35.545  1.00  0.00     0.023 A 
ATOM     77  C   UNL A   1      39.813  33.237  35.596  1.00  0.00     0.012 A 
ATOM     78  C   UNL A   1      38.627  31.357  36.578  1.00  0.00     0.148 A 
ATOM     79  C   UNL A   1      39.427  34.047  36.663  1.00  0.00     0.002 A 
ATOM     80  C   UNL A   1      38.197  32.186  37.609  1.00  0.00     0.091 A 
ATOM     81  F   UNL A   1      38.282  30.064  36.519  1.00  0.00    -0.205 F 
ATOM     82  C   UNL A   1      38.609  33.526  37.663  1.00  0.00     0.022 A 
BRANCH  80  83
ATOM     83  S   UNL A   1      37.028  31.643  38.861  1.00  0.00     0.127 S 
ATOM     84  O   UNL A   1      37.811  31.784  40.085  1.00  0.00    -0.237 OA
ATOM     85  O   UNL A   1      35.945  32.615  38.704  1.00  0.00    -0.237 OA
ATOM     86  O   UNL A   1      36.665  30.280  38.495  1.00  0.00    -0.744 OA
ENDBRANCH  80  83
ENDBRANCH  52  76
BRANCH  64  87
ATOM     87  C   UNL A   1      44.883  27.734  34.175  1.00  0.00     0.023 A 
ATOM     88  C   UNL A   1      46.048  28.526  34.163  1.00  0.00     0.012 A 
ATOM     89  C   UNL A   1      44.824  26.605  35.017  1.00  0.00     0.148 A 
ATOM     90  C   UNL A   1      47.148  28.185  34.949  1.00  0.00     0.002 A 
ATOM     91  C   UNL A   1      45.906  26.299  35.835  1.00  0.00     0.091 A 
ATOM     92  F   UNL A   1      43.715  25.851  35.002  1.00  0.00    -0.205 F 
ATOM     93  C   UNL A   1      47.072  27.080  35.794  1.00  0.00     0.022 A 
BRANCH  91  94
ATOM     94  S   UNL A   1      45.854  24.956  37.028  1.00  0.00     0.127 S 
ATOM     95  O   UNL A   1      45.823  23.784  36.156  1.00  0.00    -0.237 OA
ATOM     96  O   UNL A   1      47.108  25.139  37.760  1.00  0.00    -0.237 OA
ATOM     97  O   UNL A   1      44.655  25.179  37.825  1.00  0.00    -0.744 OA
ENDBRANCH  91  94
ENDBRANCH  64  87
ENDBRANCH  38  39
ENDBRANCH  30  33
ENDBRANCH   1  29
TORSDOF 15
ENDMDL
