MODEL 1
REMARK VINA RESULT:     -11.3      0.000      0.000
REMARK SMILES Cc1nc2cc(SCC(=O)NCCCNC(=O)c3ccc(-c4c5nc(c(-c6cccc(S(=O)(=O)[O-])c6F)c6ccc([nH]6)c(-c6cccc(S(=O)(=O)[O-])c6F)c6nc(c(-c7cccc(S(=O)(=O)[O-])c7F)c7ccc4[nH]7)C=C6)C=C5)cc3)ccc2s1
REMARK SMILES IDX 13 1 12 2 11 3 9 4 10 5 8 7 7 8 6 9 1 10 2 11 3 12 84 13
REMARK SMILES IDX 4 14 83 15 5 16 82 17 81 18 14 19 15 20 16 21 17 23 18 24
REMARK SMILES IDX 19 25 80 26 20 27 79 28 21 29 22 30 23 31 73 32 24 33 78 34
REMARK SMILES IDX 72 35 74 36 25 37 77 38 71 39 70 40 26 42 58 43 38 44 57 45
REMARK SMILES IDX 39 46 42 47 56 48 75 49 40 50 41 51 55 53 76 54 43 55 27 56
REMARK SMILES IDX 28 57 36 58 29 59 31 60 37 61 30 62 32 63 33 64 34 65 35 66
REMARK SMILES IDX 59 67 60 68 68 69 61 70 63 71 69 72 62 73 64 74 65 75 66 76
REMARK SMILES IDX 67 77 44 78 45 79 53 80 46 81 48 82 54 83 47 84 49 85 50 86
REMARK SMILES IDX 51 87 52 88
REMARK H PARENT 11 6 15 22 74 41 42 52
REMARK Flexibility Score: inf
ROOT
ATOM      1  C   UNL A   1      31.512  32.129  26.601  1.00  0.00     0.042 C 
ENDROOT
BRANCH   1   2
ATOM      2  C   UNL A   1      31.729  30.708  26.087  1.00  0.00     0.117 C 
BRANCH   2   3
ATOM      3  N   UNL A   1      31.641  29.721  27.148  1.00  0.00    -0.355 N 
ATOM      4  C   UNL A   1      31.657  28.362  27.078  1.00  0.00     0.230 C 
ATOM      5  O   UNL A   1      31.577  27.733  28.137  1.00  0.00    -0.274 OA
ATOM      6  H   UNL A   1      31.557  30.091  28.056  1.00  0.00     0.163 HD
BRANCH   4   7
ATOM      7  C   UNL A   1      31.873  27.639  25.761  1.00  0.00     0.174 C 
BRANCH   7   8
ATOM      8  S   UNL A   1      33.595  27.175  25.420  1.00  0.00    -0.116 SA
BRANCH   8   9
ATOM      9  C   UNL A   1      33.655  25.392  25.522  1.00  0.00     0.010 A 
ATOM     10  C   UNL A   1      37.109  20.411  24.896  1.00  0.00     0.079 C 
ATOM     11  C   UNL A   1      36.051  21.435  25.109  1.00  0.00     0.091 A 
ATOM     12  N   UNL A   1      36.232  22.727  24.958  1.00  0.00    -0.241 NA
ATOM     13  S   UNL A   1      34.476  20.960  25.602  1.00  0.00    -0.119 S 
ATOM     14  C   UNL A   1      35.062  23.409  25.239  1.00  0.00     0.083 A 
ATOM     15  C   UNL A   1      33.988  22.612  25.630  1.00  0.00     0.055 A 
ATOM     16  C   UNL A   1      34.884  24.805  25.176  1.00  0.00     0.045 A 
ATOM     17  C   UNL A   1      32.749  23.170  25.976  1.00  0.00     0.022 A 
ATOM     18  C   UNL A   1      32.610  24.566  25.933  1.00  0.00     0.016 A 
ENDBRANCH   8   9
ENDBRANCH   7   8
ENDBRANCH   4   7
ENDBRANCH   2   3
ENDBRANCH   1   2
BRANCH   1  19
ATOM     19  C   UNL A   1      32.744  32.768  27.236  1.00  0.00     0.118 C 
BRANCH  19  20
ATOM     20  N   UNL A   1      32.521  34.149  27.645  1.00  0.00    -0.352 N 
ATOM     21  C   UNL A   1      33.106  34.881  28.647  1.00  0.00     0.251 C 
ATOM     22  H   UNL A   1      31.844  34.632  27.119  1.00  0.00     0.163 HD
ATOM     23  O   UNL A   1      32.640  35.986  28.930  1.00  0.00    -0.269 OA
BRANCH  21  24
ATOM     24  C   UNL A   1      34.268  34.358  29.398  1.00  0.00     0.039 A 
ATOM     25  C   UNL A   1      34.041  33.659  30.588  1.00  0.00     0.014 A 
ATOM     26  C   UNL A   1      35.578  34.578  28.960  1.00  0.00     0.014 A 
ATOM     27  C   UNL A   1      35.120  33.126  31.300  1.00  0.00     0.010 A 
ATOM     28  C   UNL A   1      36.645  33.982  29.630  1.00  0.00     0.010 A 
ATOM     29  C   UNL A   1      36.429  33.252  30.809  1.00  0.00    -0.014 A 
BRANCH  29  30
ATOM     30  C   UNL A   1      37.576  32.606  31.501  1.00  0.00     0.031 A 
ATOM     31  C   UNL A   1      38.306  31.453  30.867  1.00  0.00     0.074 A 
ATOM     32  C   UNL A   1      37.910  33.008  32.744  1.00  0.00     0.049 A 
ATOM     33  N   UNL A   1      39.295  30.740  31.343  1.00  0.00    -0.248 NA
ATOM     34  C   UNL A   1      37.850  31.027  29.533  1.00  0.00     0.031 C 
ATOM     35  C   UNL A   1      37.230  34.059  33.504  1.00  0.00     0.029 A 
ATOM     36  N   UNL A   1      38.886  32.561  33.600  1.00  0.00    -0.354 N 
ATOM     37  C   UNL A   1      39.557  29.764  30.389  1.00  0.00     0.074 A 
ATOM     38  C   UNL A   1      38.602  29.955  29.319  1.00  0.00     0.031 C 
ATOM     39  C   UNL A   1      37.810  34.179  34.709  1.00  0.00     0.029 A 
ATOM     40  C   UNL A   1      38.879  33.192  34.822  1.00  0.00     0.049 A 
ATOM     41  H   UNL A   1      39.529  31.854  33.362  1.00  0.00     0.167 HD
ATOM     42  C   UNL A   1      40.522  28.813  30.388  1.00  0.00     0.034 A 
ATOM     43  C   UNL A   1      39.641  32.995  35.917  1.00  0.00     0.034 A 
ATOM     44  C   UNL A   1      41.493  28.647  31.437  1.00  0.00     0.049 A 
ATOM     45  C   UNL A   1      40.728  31.954  35.876  1.00  0.00     0.074 A 
ATOM     46  C   UNL A   1      42.562  27.770  31.488  1.00  0.00     0.029 A 
ATOM     47  N   UNL A   1      41.507  29.362  32.625  1.00  0.00    -0.354 N 
ATOM     48  N   UNL A   1      41.064  31.150  34.898  1.00  0.00    -0.248 NA
ATOM     49  C   UNL A   1      41.564  31.821  37.078  1.00  0.00     0.031 C 
ATOM     50  C   UNL A   1      43.207  27.935  32.718  1.00  0.00     0.029 A 
ATOM     51  C   UNL A   1      42.560  28.939  33.420  1.00  0.00     0.049 A 
ATOM     52  H   UNL A   1      40.865  30.067  32.867  1.00  0.00     0.167 HD
ATOM     53  C   UNL A   1      42.170  30.440  35.351  1.00  0.00     0.074 A 
ATOM     54  C   UNL A   1      42.461  30.927  36.683  1.00  0.00     0.031 C 
ATOM     55  C   UNL A   1      42.871  29.463  34.725  1.00  0.00     0.034 A 
BRANCH  42  56
ATOM     56  C   UNL A   1      40.609  27.902  29.189  1.00  0.00     0.023 A 
ATOM     57  C   UNL A   1      39.750  26.786  29.100  1.00  0.00     0.012 A 
ATOM     58  C   UNL A   1      41.489  28.181  28.126  1.00  0.00     0.148 A 
ATOM     59  C   UNL A   1      39.792  25.943  27.990  1.00  0.00     0.002 A 
ATOM     60  C   UNL A   1      41.492  27.363  27.002  1.00  0.00     0.091 A 
ATOM     61  F   UNL A   1      42.311  29.234  28.235  1.00  0.00    -0.205 F 
ATOM     62  C   UNL A   1      40.654  26.237  26.939  1.00  0.00     0.022 A 
BRANCH  60  63
ATOM     63  S   UNL A   1      42.507  27.700  25.559  1.00  0.00     0.127 S 
ATOM     64  O   UNL A   1      41.921  28.947  25.070  1.00  0.00    -0.237 OA
ATOM     65  O   UNL A   1      43.839  27.842  26.147  1.00  0.00    -0.237 OA
ATOM     66  O   UNL A   1      42.350  26.550  24.679  1.00  0.00    -0.744 OA
ENDBRANCH  60  63
ENDBRANCH  42  56
BRANCH  43  67
ATOM     67  C   UNL A   1      39.438  33.842  37.127  1.00  0.00     0.023 A 
ATOM     68  C   UNL A   1      39.898  35.175  37.124  1.00  0.00     0.012 A 
ATOM     69  C   UNL A   1      38.775  33.347  38.265  1.00  0.00     0.148 A 
ATOM     70  C   UNL A   1      39.729  35.986  38.246  1.00  0.00     0.002 A 
ATOM     71  C   UNL A   1      38.561  34.179  39.357  1.00  0.00     0.091 A 
ATOM     72  F   UNL A   1      38.355  32.074  38.250  1.00  0.00    -0.205 F 
ATOM     73  C   UNL A   1      39.054  35.492  39.357  1.00  0.00     0.022 A 
BRANCH  71  74
ATOM     74  S   UNL A   1      37.585  33.671  40.779  1.00  0.00     0.127 S 
ATOM     75  O   UNL A   1      38.442  32.648  41.375  1.00  0.00    -0.237 OA
ATOM     76  O   UNL A   1      37.494  34.918  41.540  1.00  0.00    -0.237 OA
ATOM     77  O   UNL A   1      36.319  33.201  40.240  1.00  0.00    -0.744 OA
ENDBRANCH  71  74
ENDBRANCH  43  67
BRANCH  55  78
ATOM     78  C   UNL A   1      44.053  28.874  35.454  1.00  0.00     0.023 A 
ATOM     79  C   UNL A   1      45.337  29.421  35.266  1.00  0.00     0.012 A 
ATOM     80  C   UNL A   1      43.877  27.823  36.375  1.00  0.00     0.148 A 
ATOM     81  C   UNL A   1      46.435  28.906  35.956  1.00  0.00     0.002 A 
ATOM     82  C   UNL A   1      44.965  27.349  37.097  1.00  0.00     0.091 A 
ATOM     83  F   UNL A   1      42.650  27.303  36.527  1.00  0.00    -0.205 F 
ATOM     84  C   UNL A   1      46.247  27.880  36.879  1.00  0.00     0.022 A 
BRANCH  82  85
ATOM     85  S   UNL A   1      44.803  26.098  38.375  1.00  0.00     0.127 S 
ATOM     86  O   UNL A   1      46.186  25.955  38.830  1.00  0.00    -0.237 OA
ATOM     87  O   UNL A   1      43.910  26.750  39.336  1.00  0.00    -0.237 OA
ATOM     88  O   UNL A   1      44.236  24.926  37.722  1.00  0.00    -0.744 OA
ENDBRANCH  82  85
ENDBRANCH  55  78
ENDBRANCH  29  30
ENDBRANCH  21  24
ENDBRANCH  19  20
ENDBRANCH   1  19
TORSDOF 15
ENDMDL
MODEL 2
REMARK VINA RESULT:     -11.3      5.888      9.226
REMARK SMILES Cc1nc2cc(SCC(=O)NCCCNC(=O)c3ccc(-c4c5nc(c(-c6cccc(S(=O)(=O)[O-])c6F)c6ccc([nH]6)c(-c6cccc(S(=O)(=O)[O-])c6F)c6nc(c(-c7cccc(S(=O)(=O)[O-])c7F)c7ccc4[nH]7)C=C6)C=C5)cc3)ccc2s1
REMARK SMILES IDX 13 1 12 2 11 3 9 4 10 5 8 7 7 8 6 9 1 10 2 11 3 12 84 13
REMARK SMILES IDX 4 14 83 15 5 16 82 17 81 18 14 19 15 20 16 21 17 23 18 24
REMARK SMILES IDX 19 25 80 26 20 27 79 28 21 29 22 30 23 31 73 32 24 33 78 34
REMARK SMILES IDX 72 35 74 36 25 37 77 38 71 39 70 40 26 42 58 43 38 44 57 45
REMARK SMILES IDX 39 46 42 47 56 48 75 49 40 50 41 51 55 53 76 54 43 55 27 56
REMARK SMILES IDX 28 57 36 58 29 59 31 60 37 61 30 62 32 63 33 64 34 65 35 66
REMARK SMILES IDX 59 67 60 68 68 69 61 70 63 71 69 72 62 73 64 74 65 75 66 76
REMARK SMILES IDX 67 77 44 78 45 79 53 80 46 81 48 82 54 83 47 84 49 85 50 86
REMARK SMILES IDX 51 87 52 88
REMARK H PARENT 11 6 15 22 74 41 42 52
REMARK Flexibility Score: inf
ROOT
ATOM      1  C   UNL A   1      36.323  21.108  24.897  1.00  0.00     0.042 C 
ENDROOT
BRANCH   1   2
ATOM      2  C   UNL A   1      35.202  21.210  25.930  1.00  0.00     0.117 C 
BRANCH   2   3
ATOM      3  N   UNL A   1      34.134  20.261  25.675  1.00  0.00    -0.355 N 
ATOM      4  C   UNL A   1      32.860  20.477  25.246  1.00  0.00     0.230 C 
ATOM      5  O   UNL A   1      32.133  19.491  25.092  1.00  0.00    -0.274 OA
ATOM      6  H   UNL A   1      34.365  19.318  25.837  1.00  0.00     0.163 HD
BRANCH   4   7
ATOM      7  C   UNL A   1      32.377  21.863  24.864  1.00  0.00     0.174 C 
BRANCH   7   8
ATOM      8  S   UNL A   1      32.887  22.421  23.212  1.00  0.00    -0.116 SA
BRANCH   8   9
ATOM      9  C   UNL A   1      33.090  24.192  23.330  1.00  0.00     0.010 A 
ATOM     10  C   UNL A   1      34.091  28.925  27.035  1.00  0.00     0.079 C 
ATOM     11  C   UNL A   1      33.828  27.975  25.920  1.00  0.00     0.091 A 
ATOM     12  N   UNL A   1      33.697  26.677  26.071  1.00  0.00    -0.241 NA
ATOM     13  S   UNL A   1      33.694  28.551  24.308  1.00  0.00    -0.119 S 
ATOM     14  C   UNL A   1      33.470  26.075  24.847  1.00  0.00     0.083 A 
ATOM     15  C   UNL A   1      33.451  26.938  23.753  1.00  0.00     0.055 A 
ATOM     16  C   UNL A   1      33.276  24.697  24.627  1.00  0.00     0.045 A 
ATOM     17  C   UNL A   1      33.263  26.463  22.448  1.00  0.00     0.022 A 
ATOM     18  C   UNL A   1      33.103  25.082  22.256  1.00  0.00     0.016 A 
ENDBRANCH   8   9
ENDBRANCH   7   8
ENDBRANCH   4   7
ENDBRANCH   2   3
ENDBRANCH   1   2
BRANCH   1  19
ATOM     19  C   UNL A   1      37.624  21.793  25.306  1.00  0.00     0.118 C 
BRANCH  19  20
ATOM     20  N   UNL A   1      38.608  20.866  25.851  1.00  0.00    -0.352 N 
ATOM     21  C   UNL A   1      39.806  21.109  26.473  1.00  0.00     0.251 C 
ATOM     22  H   UNL A   1      38.375  19.914  25.757  1.00  0.00     0.163 HD
ATOM     23  O   UNL A   1      40.565  20.166  26.700  1.00  0.00    -0.269 OA
BRANCH  21  24
ATOM     24  C   UNL A   1      40.204  22.482  26.855  1.00  0.00     0.039 A 
ATOM     25  C   UNL A   1      41.103  22.653  27.912  1.00  0.00     0.014 A 
ATOM     26  C   UNL A   1      39.677  23.602  26.204  1.00  0.00     0.014 A 
ATOM     27  C   UNL A   1      41.521  23.937  28.272  1.00  0.00     0.010 A 
ATOM     28  C   UNL A   1      40.153  24.875  26.513  1.00  0.00     0.010 A 
ATOM     29  C   UNL A   1      41.077  25.058  27.552  1.00  0.00    -0.014 A 
BRANCH  29  30
ATOM     30  C   UNL A   1      41.589  26.421  27.858  1.00  0.00     0.031 A 
ATOM     31  C   UNL A   1      43.007  26.801  27.526  1.00  0.00     0.074 A 
ATOM     32  C   UNL A   1      40.797  27.294  28.512  1.00  0.00     0.049 A 
ATOM     33  N   UNL A   1      43.637  27.923  27.761  1.00  0.00    -0.248 NA
ATOM     34  C   UNL A   1      43.836  25.778  26.866  1.00  0.00     0.031 C 
ATOM     35  C   UNL A   1      39.431  27.022  28.963  1.00  0.00     0.029 A 
ATOM     36  N   UNL A   1      41.036  28.578  28.937  1.00  0.00    -0.354 N 
ATOM     37  C   UNL A   1      44.938  27.733  27.312  1.00  0.00     0.074 A 
ATOM     38  C   UNL A   1      45.019  26.376  26.819  1.00  0.00     0.031 C 
ATOM     39  C   UNL A   1      38.952  28.103  29.598  1.00  0.00     0.029 A 
ATOM     40  C   UNL A   1      39.985  29.134  29.629  1.00  0.00     0.049 A 
ATOM     41  H   UNL A   1      41.879  29.054  28.764  1.00  0.00     0.167 HD
ATOM     42  C   UNL A   1      45.966  28.616  27.286  1.00  0.00     0.034 A 
ATOM     43  C   UNL A   1      39.866  30.334  30.231  1.00  0.00     0.034 A 
ATOM     44  C   UNL A   1      45.874  29.977  27.744  1.00  0.00     0.049 A 
ATOM     45  C   UNL A   1      41.012  31.307  30.157  1.00  0.00     0.074 A 
ATOM     46  C   UNL A   1      46.833  30.973  27.679  1.00  0.00     0.029 A 
ATOM     47  N   UNL A   1      44.765  30.532  28.364  1.00  0.00    -0.354 N 
ATOM     48  N   UNL A   1      42.181  31.164  29.582  1.00  0.00    -0.248 NA
ATOM     49  C   UNL A   1      40.807  32.623  30.782  1.00  0.00     0.031 C 
ATOM     50  C   UNL A   1      46.314  32.122  28.285  1.00  0.00     0.029 A 
ATOM     51  C   UNL A   1      45.019  31.852  28.697  1.00  0.00     0.049 A 
ATOM     52  H   UNL A   1      43.921  30.058  28.540  1.00  0.00     0.167 HD
ATOM     53  C   UNL A   1      42.838  32.378  29.745  1.00  0.00     0.074 A 
ATOM     54  C   UNL A   1      41.926  33.254  30.452  1.00  0.00     0.031 C 
ATOM     55  C   UNL A   1      44.088  32.731  29.358  1.00  0.00     0.034 A 
BRANCH  42  56
ATOM     56  C   UNL A   1      47.274  28.152  26.695  1.00  0.00     0.023 A 
ATOM     57  C   UNL A   1      48.335  27.790  27.552  1.00  0.00     0.012 A 
ATOM     58  C   UNL A   1      47.435  28.014  25.303  1.00  0.00     0.148 A 
ATOM     59  C   UNL A   1      49.545  27.334  27.033  1.00  0.00     0.002 A 
ATOM     60  C   UNL A   1      48.629  27.513  24.795  1.00  0.00     0.091 A 
ATOM     61  F   UNL A   1      46.425  28.379  24.502  1.00  0.00    -0.205 F 
ATOM     62  C   UNL A   1      49.688  27.186  25.657  1.00  0.00     0.022 A 
BRANCH  60  63
ATOM     63  S   UNL A   1      48.886  27.209  23.043  1.00  0.00     0.127 S 
ATOM     64  O   UNL A   1      50.344  27.143  22.965  1.00  0.00    -0.237 OA
ATOM     65  O   UNL A   1      48.207  25.926  22.852  1.00  0.00    -0.237 OA
ATOM     66  O   UNL A   1      48.273  28.331  22.346  1.00  0.00    -0.744 OA
ENDBRANCH  60  63
ENDBRANCH  42  56
BRANCH  43  67
ATOM     67  C   UNL A   1      38.592  30.704  30.909  1.00  0.00     0.023 A 
ATOM     68  C   UNL A   1      38.409  30.376  32.268  1.00  0.00     0.012 A 
ATOM     69  C   UNL A   1      37.573  31.398  30.227  1.00  0.00     0.148 A 
ATOM     70  C   UNL A   1      37.223  30.703  32.924  1.00  0.00     0.002 A 
ATOM     71  C   UNL A   1      36.418  31.769  30.904  1.00  0.00     0.091 A 
ATOM     72  F   UNL A   1      37.763  31.691  28.934  1.00  0.00    -0.205 F 
ATOM     73  C   UNL A   1      36.232  31.406  32.246  1.00  0.00     0.022 A 
BRANCH  71  74
ATOM     74  S   UNL A   1      35.147  32.791  30.149  1.00  0.00     0.127 S 
ATOM     75  O   UNL A   1      35.926  33.936  29.680  1.00  0.00    -0.237 OA
ATOM     76  O   UNL A   1      34.647  31.913  29.090  1.00  0.00    -0.237 OA
ATOM     77  O   UNL A   1      34.186  33.069  31.204  1.00  0.00    -0.744 OA
ENDBRANCH  71  74
ENDBRANCH  43  67
BRANCH  55  78
ATOM     78  C   UNL A   1      44.540  34.139  29.651  1.00  0.00     0.023 A 
ATOM     79  C   UNL A   1      45.179  34.431  30.873  1.00  0.00     0.012 A 
ATOM     80  C   UNL A   1      44.390  35.156  28.689  1.00  0.00     0.148 A 
ATOM     81  C   UNL A   1      45.629  35.723  31.146  1.00  0.00     0.002 A 
ATOM     82  C   UNL A   1      44.887  36.428  28.946  1.00  0.00     0.091 A 
ATOM     83  F   UNL A   1      43.763  34.863  27.540  1.00  0.00    -0.205 F 
ATOM     84  C   UNL A   1      45.494  36.717  30.180  1.00  0.00     0.022 A 
BRANCH  82  85
ATOM     85  S   UNL A   1      44.846  37.744  27.725  1.00  0.00     0.127 S 
ATOM     86  O   UNL A   1      43.420  37.811  27.406  1.00  0.00    -0.237 OA
ATOM     87  O   UNL A   1      45.355  38.888  28.484  1.00  0.00    -0.237 OA
ATOM     88  O   UNL A   1      45.710  37.309  26.636  1.00  0.00    -0.744 OA
ENDBRANCH  82  85
ENDBRANCH  55  78
ENDBRANCH  29  30
ENDBRANCH  21  24
ENDBRANCH  19  20
ENDBRANCH   1  19
TORSDOF 15
ENDMDL
MODEL 3
REMARK VINA RESULT:     -11.2      5.726     10.211
REMARK SMILES Cc1nc2cc(SCC(=O)NCCCNC(=O)c3ccc(-c4c5nc(c(-c6cccc(S(=O)(=O)[O-])c6F)c6ccc([nH]6)c(-c6cccc(S(=O)(=O)[O-])c6F)c6nc(c(-c7cccc(S(=O)(=O)[O-])c7F)c7ccc4[nH]7)C=C6)C=C5)cc3)ccc2s1
REMARK SMILES IDX 13 1 12 2 11 3 9 4 10 5 8 7 7 8 6 9 1 10 2 11 3 12 84 13
REMARK SMILES IDX 4 14 83 15 5 16 82 17 81 18 14 19 15 20 16 21 17 23 18 24
REMARK SMILES IDX 19 25 80 26 20 27 79 28 21 29 22 30 23 31 73 32 24 33 78 34
REMARK SMILES IDX 72 35 74 36 25 37 77 38 71 39 70 40 26 42 58 43 38 44 57 45
REMARK SMILES IDX 39 46 42 47 56 48 75 49 40 50 41 51 55 53 76 54 43 55 27 56
REMARK SMILES IDX 28 57 36 58 29 59 31 60 37 61 30 62 32 63 33 64 34 65 35 66
REMARK SMILES IDX 59 67 60 68 68 69 61 70 63 71 69 72 62 73 64 74 65 75 66 76
REMARK SMILES IDX 67 77 44 78 45 79 53 80 46 81 48 82 54 83 47 84 49 85 50 86
REMARK SMILES IDX 51 87 52 88
REMARK H PARENT 11 6 15 22 74 41 42 52
REMARK Flexibility Score: inf
ROOT
ATOM      1  C   UNL A   1      41.782  20.256  27.487  1.00  0.00     0.042 C 
ENDROOT
BRANCH   1   2
ATOM      2  C   UNL A   1      42.078  19.636  26.123  1.00  0.00     0.117 C 
BRANCH   2   3
ATOM      3  N   UNL A   1      43.195  18.709  26.173  1.00  0.00    -0.355 N 
ATOM      4  C   UNL A   1      44.320  18.660  25.409  1.00  0.00     0.230 C 
ATOM      5  O   UNL A   1      45.140  17.770  25.656  1.00  0.00    -0.274 OA
ATOM      6  H   UNL A   1      43.127  18.011  26.864  1.00  0.00     0.163 HD
BRANCH   4   7
ATOM      7  C   UNL A   1      44.616  19.719  24.364  1.00  0.00     0.174 C 
BRANCH   7   8
ATOM      8  S   UNL A   1      46.018  20.805  24.755  1.00  0.00    -0.116 SA
BRANCH   8   9
ATOM      9  C   UNL A   1      45.338  22.450  24.916  1.00  0.00     0.010 A 
ATOM     10  C   UNL A   1      46.524  28.427  24.929  1.00  0.00     0.079 C 
ATOM     11  C   UNL A   1      45.958  27.052  24.985  1.00  0.00     0.091 A 
ATOM     12  N   UNL A   1      46.668  25.955  24.851  1.00  0.00    -0.241 NA
ATOM     13  S   UNL A   1      44.273  26.819  25.217  1.00  0.00    -0.119 S 
ATOM     14  C   UNL A   1      45.850  24.844  24.940  1.00  0.00     0.083 A 
ATOM     15  C   UNL A   1      44.496  25.114  25.123  1.00  0.00     0.055 A 
ATOM     16  C   UNL A   1      46.268  23.501  24.849  1.00  0.00     0.045 A 
ATOM     17  C   UNL A   1      43.546  24.085  25.199  1.00  0.00     0.022 A 
ATOM     18  C   UNL A   1      43.988  22.759  25.074  1.00  0.00     0.016 A 
ENDBRANCH   8   9
ENDBRANCH   7   8
ENDBRANCH   4   7
ENDBRANCH   2   3
ENDBRANCH   1   2
BRANCH   1  19
ATOM     19  C   UNL A   1      41.230  21.679  27.428  1.00  0.00     0.118 C 
BRANCH  19  20
ATOM     20  N   UNL A   1      40.031  21.790  26.607  1.00  0.00    -0.352 N 
ATOM     21  C   UNL A   1      39.185  22.852  26.415  1.00  0.00     0.251 C 
ATOM     22  H   UNL A   1      39.792  20.973  26.113  1.00  0.00     0.163 HD
ATOM     23  O   UNL A   1      38.127  22.672  25.809  1.00  0.00    -0.269 OA
BRANCH  21  24
ATOM     24  C   UNL A   1      39.514  24.197  26.937  1.00  0.00     0.039 A 
ATOM     25  C   UNL A   1      39.191  24.501  28.263  1.00  0.00     0.014 A 
ATOM     26  C   UNL A   1      40.106  25.168  26.125  1.00  0.00     0.014 A 
ATOM     27  C   UNL A   1      39.521  25.753  28.791  1.00  0.00     0.010 A 
ATOM     28  C   UNL A   1      40.502  26.387  26.674  1.00  0.00     0.010 A 
ATOM     29  C   UNL A   1      40.211  26.695  28.011  1.00  0.00    -0.014 A 
BRANCH  29  30
ATOM     30  C   UNL A   1      40.657  27.992  28.587  1.00  0.00     0.031 A 
ATOM     31  C   UNL A   1      42.120  28.276  28.799  1.00  0.00     0.074 A 
ATOM     32  C   UNL A   1      39.735  28.886  28.998  1.00  0.00     0.049 A 
ATOM     33  N   UNL A   1      42.688  29.329  29.330  1.00  0.00    -0.248 NA
ATOM     34  C   UNL A   1      43.071  27.231  28.382  1.00  0.00     0.031 C 
ATOM     35  C   UNL A   1      38.285  28.697  28.925  1.00  0.00     0.029 A 
ATOM     36  N   UNL A   1      39.879  30.119  29.585  1.00  0.00    -0.354 N 
ATOM     37  C   UNL A   1      44.051  29.062  29.344  1.00  0.00     0.074 A 
ATOM     38  C   UNL A   1      44.226  27.734  28.797  1.00  0.00     0.031 C 
ATOM     39  C   UNL A   1      37.673  29.774  29.443  1.00  0.00     0.029 A 
ATOM     40  C   UNL A   1      38.684  30.715  29.915  1.00  0.00     0.049 A 
ATOM     41  H   UNL A   1      40.754  30.535  29.755  1.00  0.00     0.167 HD
ATOM     42  C   UNL A   1      45.070  29.860  29.748  1.00  0.00     0.034 A 
ATOM     43  C   UNL A   1      38.427  31.883  30.537  1.00  0.00     0.034 A 
ATOM     44  C   UNL A   1      44.897  31.195  30.258  1.00  0.00     0.049 A 
ATOM     45  C   UNL A   1      39.577  32.764  30.945  1.00  0.00     0.074 A 
ATOM     46  C   UNL A   1      45.870  32.112  30.612  1.00  0.00     0.029 A 
ATOM     47  N   UNL A   1      43.672  31.798  30.501  1.00  0.00    -0.354 N 
ATOM     48  N   UNL A   1      40.864  32.562  30.800  1.00  0.00    -0.248 NA
ATOM     49  C   UNL A   1      39.238  34.052  31.568  1.00  0.00     0.031 C 
ATOM     50  C   UNL A   1      45.235  33.261  31.095  1.00  0.00     0.029 A 
ATOM     51  C   UNL A   1      43.865  33.072  31.010  1.00  0.00     0.049 A 
ATOM     52  H   UNL A   1      42.796  31.384  30.335  1.00  0.00     0.167 HD
ATOM     53  C   UNL A   1      41.487  33.708  31.281  1.00  0.00     0.074 A 
ATOM     54  C   UNL A   1      40.434  34.610  31.699  1.00  0.00     0.031 C 
ATOM     55  C   UNL A   1      42.811  33.982  31.380  1.00  0.00     0.034 A 
BRANCH  42  56
ATOM     56  C   UNL A   1      46.474  29.329  29.609  1.00  0.00     0.023 A 
ATOM     57  C   UNL A   1      47.223  29.636  28.454  1.00  0.00     0.012 A 
ATOM     58  C   UNL A   1      47.075  28.583  30.642  1.00  0.00     0.148 A 
ATOM     59  C   UNL A   1      48.532  29.179  28.312  1.00  0.00     0.002 A 
ATOM     60  C   UNL A   1      48.396  28.170  30.513  1.00  0.00     0.091 A 
ATOM     61  F   UNL A   1      46.344  28.284  31.724  1.00  0.00    -0.205 F 
ATOM     62  C   UNL A   1      49.121  28.455  29.344  1.00  0.00     0.022 A 
BRANCH  60  63
ATOM     63  S   UNL A   1      49.274  27.303  31.819  1.00  0.00     0.127 S 
ATOM     64  O   UNL A   1      50.539  26.981  31.162  1.00  0.00    -0.237 OA
ATOM     65  O   UNL A   1      49.370  28.330  32.858  1.00  0.00    -0.237 OA
ATOM     66  O   UNL A   1      48.444  26.159  32.171  1.00  0.00    -0.744 OA
ENDBRANCH  60  63
ENDBRANCH  42  56
BRANCH  43  67
ATOM     67  C   UNL A   1      37.018  32.313  30.761  1.00  0.00     0.023 A 
ATOM     68  C   UNL A   1      36.443  32.164  32.040  1.00  0.00     0.012 A 
ATOM     69  C   UNL A   1      36.254  32.889  29.728  1.00  0.00     0.148 A 
ATOM     70  C   UNL A   1      35.124  32.549  32.275  1.00  0.00     0.002 A 
ATOM     71  C   UNL A   1      34.959  33.323  29.986  1.00  0.00     0.091 A 
ATOM     72  F   UNL A   1      36.816  33.012  28.518  1.00  0.00    -0.205 F 
ATOM     73  C   UNL A   1      34.386  33.137  31.252  1.00  0.00     0.022 A 
BRANCH  71  74
ATOM     74  S   UNL A   1      33.981  34.209  28.766  1.00  0.00     0.127 S 
ATOM     75  O   UNL A   1      32.815  34.607  29.553  1.00  0.00    -0.237 OA
ATOM     76  O   UNL A   1      34.881  35.305  28.401  1.00  0.00    -0.237 OA
ATOM     77  O   UNL A   1      33.727  33.257  27.697  1.00  0.00    -0.744 OA
ENDBRANCH  71  74
ENDBRANCH  43  67
BRANCH  55  78
ATOM     78  C   UNL A   1      43.207  35.329  31.928  1.00  0.00     0.023 A 
ATOM     79  C   UNL A   1      43.334  35.511  33.319  1.00  0.00     0.012 A 
ATOM     80  C   UNL A   1      43.517  36.394  31.060  1.00  0.00     0.148 A 
ATOM     81  C   UNL A   1      43.729  36.744  33.839  1.00  0.00     0.002 A 
ATOM     82  C   UNL A   1      43.959  37.604  31.582  1.00  0.00     0.091 A 
ATOM     83  F   UNL A   1      43.372  36.207  29.740  1.00  0.00    -0.205 F 
ATOM     84  C   UNL A   1      44.052  37.785  32.972  1.00  0.00     0.022 A 
BRANCH  82  85
ATOM     85  S   UNL A   1      44.491  38.966  30.541  1.00  0.00     0.127 S 
ATOM     86  O   UNL A   1      44.859  39.974  31.534  1.00  0.00    -0.237 OA
ATOM     87  O   UNL A   1      45.621  38.382  29.817  1.00  0.00    -0.237 OA
ATOM     88  O   UNL A   1      43.347  39.303  29.704  1.00  0.00    -0.744 OA
ENDBRANCH  82  85
ENDBRANCH  55  78
ENDBRANCH  29  30
ENDBRANCH  21  24
ENDBRANCH  19  20
ENDBRANCH   1  19
TORSDOF 15
ENDMDL
