MODEL 1
REMARK VINA RESULT:     -13.2      0.000      0.000
REMARK SMILES O=C(COc1ccccc1/C=C1\N=C(c2ccccc2OC(F)F)OC1=O)NCCCNC(=O)c1ccc(-c2c3nc(c(-c4cccc(S(=O)(=O)[O-])c4F)c4ccc([nH]4)c(-c4cccc(S(=O)(=O)[O-])c4F)c4nc(c(-c5cccc(S(=O)(=O)[O-])c5F)c5ccc2[nH]5)C=C4)C=C3)cc1
REMARK SMILES IDX 1 1 2 2 28 3 3 5 4 6 5 7 6 8 10 9 7 10 9 11 8 12 11 13 12 14
REMARK SMILES IDX 13 15 26 16 14 17 25 18 27 19 15 20 16 21 20 22 17 23 19 24
REMARK SMILES IDX 18 25 21 26 22 27 23 28 24 29 29 30 30 31 31 32 32 33 33 34
REMARK SMILES IDX 34 36 35 37 36 38 97 39 37 40 96 41 38 42 39 43 40 44 90 45
REMARK SMILES IDX 41 46 95 47 89 48 91 49 42 50 94 51 88 52 87 53 43 55 75 56
REMARK SMILES IDX 55 57 74 58 56 59 59 60 73 61 92 62 57 63 58 64 72 66 93 67
REMARK SMILES IDX 60 68 44 69 45 70 53 71 46 72 48 73 54 74 47 75 49 76 50 77
REMARK SMILES IDX 51 78 52 79 76 80 77 81 85 82 78 83 80 84 86 85 79 86 81 87
REMARK SMILES IDX 82 88 83 89 84 90 61 91 62 92 70 93 63 94 65 95 71 96 64 97
REMARK SMILES IDX 66 98 67 99 68 100 69 101
REMARK H PARENT 28 4 32 35 91 54 59 65
REMARK Flexibility Score: inf
ROOT
ATOM      1  O   UNL A   1      35.627  23.951  23.052  1.00  0.00    -0.271 OA
ATOM      2  C   UNL A   1      35.468  23.745  24.248  1.00  0.00     0.257 C 
ATOM      3  N   UNL A   1      35.804  22.557  24.971  1.00  0.00    -0.353 N 
ATOM      4  H   UNL A   1      35.872  22.846  25.909  1.00  0.00     0.163 HD
ENDROOT
BRANCH   2   5
ATOM      5  C   UNL A   1      34.678  24.729  25.151  1.00  0.00     0.329 C 
BRANCH   5   6
ATOM      6  O   UNL A   1      34.451  26.017  24.571  1.00  0.00    -0.483 OA
BRANCH   6   7
ATOM      7  C   UNL A   1      33.356  26.747  24.977  1.00  0.00     0.127 A 
ATOM      8  C   UNL A   1      33.320  26.970  26.358  1.00  0.00     0.047 A 
ATOM      9  C   UNL A   1      32.229  27.093  24.192  1.00  0.00     0.019 A 
ATOM     10  C   UNL A   1      32.204  27.556  26.959  1.00  0.00     0.004 A 
ATOM     11  C   UNL A   1      31.120  27.690  24.809  1.00  0.00     0.012 A 
ATOM     12  C   UNL A   1      31.105  27.915  26.186  1.00  0.00     0.001 A 
BRANCH   9  13
ATOM     13  C   UNL A   1      32.097  26.832  22.758  1.00  0.00     0.048 C 
ATOM     14  C   UNL A   1      31.850  25.588  22.316  1.00  0.00     0.153 C 
ATOM     15  N   UNL A   1      31.715  24.130  23.389  1.00  0.00    -0.205 NA
ATOM     16  C   UNL A   1      32.858  24.971  20.674  1.00  0.00     0.363 C 
ATOM     17  C   UNL A   1      32.450  22.843  22.739  1.00  0.00     0.235 C 
ATOM     18  O   UNL A   1      33.191  23.180  21.106  1.00  0.00    -0.402 OA
ATOM     19  O   UNL A   1      32.983  25.476  19.574  1.00  0.00    -0.244 OA
BRANCH  17  20
ATOM     20  C   UNL A   1      32.486  21.493  23.367  1.00  0.00     0.080 A 
ATOM     21  C   UNL A   1      32.151  20.513  22.395  1.00  0.00     0.017 A 
ATOM     22  C   UNL A   1      32.744  21.055  24.676  1.00  0.00     0.138 A 
ATOM     23  C   UNL A   1      32.119  19.148  22.676  1.00  0.00     0.001 A 
ATOM     24  C   UNL A   1      32.690  19.662  24.936  1.00  0.00     0.047 A 
ATOM     25  C   UNL A   1      32.395  18.718  23.957  1.00  0.00     0.004 A 
BRANCH  22  26
ATOM     26  O   UNL A   1      33.013  21.676  25.856  1.00  0.00    -0.434 OA
BRANCH  26  27
ATOM     27  C   UNL A   1      32.036  22.280  26.664  1.00  0.00     0.542 C 
ATOM     28  F   UNL A   1      32.482  22.293  27.933  1.00  0.00    -0.167 F 
ATOM     29  F   UNL A   1      31.813  23.526  26.207  1.00  0.00    -0.167 F 
ENDBRANCH  26  27
ENDBRANCH  22  26
ENDBRANCH  17  20
ENDBRANCH   9  13
ENDBRANCH   6   7
ENDBRANCH   5   6
ENDBRANCH   2   5
BRANCH   3  30
ATOM     30  C   UNL A   1      36.236  20.448  25.017  1.00  0.00     0.117 C 
BRANCH  30  31
ATOM     31  C   UNL A   1      37.747  19.669  24.937  1.00  0.00     0.042 C 
BRANCH  31  32
ATOM     32  C   UNL A   1      38.778  20.097  25.974  1.00  0.00     0.118 C 
BRANCH  32  33
ATOM     33  N   UNL A   1      40.020  19.331  25.914  1.00  0.00    -0.352 N 
ATOM     34  C   UNL A   1      41.279  19.747  26.271  1.00  0.00     0.251 C 
ATOM     35  H   UNL A   1      39.946  18.408  25.578  1.00  0.00     0.163 HD
ATOM     36  O   UNL A   1      42.245  19.000  26.169  1.00  0.00    -0.269 OA
BRANCH  34  37
ATOM     37  C   UNL A   1      41.445  21.147  26.689  1.00  0.00     0.039 A 
ATOM     38  C   UNL A   1      42.233  21.402  27.812  1.00  0.00     0.014 A 
ATOM     39  C   UNL A   1      40.955  22.185  25.895  1.00  0.00     0.014 A 
ATOM     40  C   UNL A   1      42.592  22.714  28.104  1.00  0.00     0.010 A 
ATOM     41  C   UNL A   1      41.362  23.487  26.156  1.00  0.00     0.010 A 
ATOM     42  C   UNL A   1      42.191  23.759  27.254  1.00  0.00    -0.014 A 
BRANCH  42  43
ATOM     43  C   UNL A   1      42.666  25.140  27.491  1.00  0.00     0.031 A 
ATOM     44  C   UNL A   1      41.755  26.144  28.131  1.00  0.00     0.074 A 
ATOM     45  C   UNL A   1      43.894  25.496  27.066  1.00  0.00     0.049 A 
ATOM     46  N   UNL A   1      41.986  27.398  28.416  1.00  0.00    -0.248 NA
ATOM     47  C   UNL A   1      40.399  25.688  28.479  1.00  0.00     0.031 C 
ATOM     48  C   UNL A   1      44.831  24.620  26.359  1.00  0.00     0.029 A 
ATOM     49  N   UNL A   1      44.556  26.694  27.146  1.00  0.00    -0.354 N 
ATOM     50  C   UNL A   1      40.803  27.888  28.952  1.00  0.00     0.074 A 
ATOM     51  C   UNL A   1      39.844  26.807  28.921  1.00  0.00     0.031 C 
ATOM     52  C   UNL A   1      45.948  25.309  26.074  1.00  0.00     0.029 A 
ATOM     53  C   UNL A   1      45.798  26.678  26.555  1.00  0.00     0.049 A 
ATOM     54  H   UNL A   1      44.179  27.491  27.584  1.00  0.00     0.167 HD
ATOM     55  C   UNL A   1      40.549  29.120  29.451  1.00  0.00     0.034 A 
ATOM     56  C   UNL A   1      46.708  27.661  26.414  1.00  0.00     0.034 A 
ATOM     57  C   UNL A   1      41.520  30.178  29.501  1.00  0.00     0.049 A 
ATOM     58  C   UNL A   1      46.408  29.014  27.001  1.00  0.00     0.074 A 
ATOM     59  C   UNL A   1      41.393  31.435  30.062  1.00  0.00     0.029 A 
ATOM     60  N   UNL A   1      42.794  30.108  28.956  1.00  0.00    -0.354 N 
ATOM     61  N   UNL A   1      45.347  29.411  27.661  1.00  0.00    -0.248 NA
ATOM     62  C   UNL A   1      47.445  30.045  26.856  1.00  0.00     0.031 C 
ATOM     63  C   UNL A   1      42.583  32.136  29.832  1.00  0.00     0.029 A 
ATOM     64  C   UNL A   1      43.459  31.306  29.151  1.00  0.00     0.049 A 
ATOM     65  H   UNL A   1      43.170  29.322  28.498  1.00  0.00     0.167 HD
ATOM     66  C   UNL A   1      45.597  30.726  28.034  1.00  0.00     0.074 A 
ATOM     67  C   UNL A   1      46.924  31.049  27.549  1.00  0.00     0.031 C 
ATOM     68  C   UNL A   1      44.797  31.594  28.701  1.00  0.00     0.034 A 
BRANCH  55  69
ATOM     69  C   UNL A   1      39.180  29.370  30.023  1.00  0.00     0.023 A 
ATOM     70  C   UNL A   1      38.879  28.922  31.326  1.00  0.00     0.012 A 
ATOM     71  C   UNL A   1      38.208  30.082  29.296  1.00  0.00     0.148 A 
ATOM     72  C   UNL A   1      37.622  29.148  31.884  1.00  0.00     0.002 A 
ATOM     73  C   UNL A   1      36.971  30.341  29.874  1.00  0.00     0.091 A 
ATOM     74  F   UNL A   1      38.504  30.477  28.050  1.00  0.00    -0.205 F 
ATOM     75  C   UNL A   1      36.672  29.866  31.162  1.00  0.00     0.022 A 
BRANCH  73  76
ATOM     76  S   UNL A   1      35.704  31.318  29.057  1.00  0.00     0.127 S 
ATOM     77  O   UNL A   1      36.510  32.310  28.346  1.00  0.00    -0.237 OA
ATOM     78  O   UNL A   1      35.060  30.326  28.196  1.00  0.00    -0.237 OA
ATOM     79  O   UNL A   1      34.857  31.846  30.117  1.00  0.00    -0.744 OA
ENDBRANCH  73  76
ENDBRANCH  55  69
BRANCH  56  80
ATOM     80  C   UNL A   1      48.010  27.385  25.742  1.00  0.00     0.023 A 
ATOM     81  C   UNL A   1      49.104  26.939  26.508  1.00  0.00     0.012 A 
ATOM     82  C   UNL A   1      48.164  27.541  24.350  1.00  0.00     0.148 A 
ATOM     83  C   UNL A   1      50.338  26.683  25.907  1.00  0.00     0.002 A 
ATOM     84  C   UNL A   1      49.379  27.233  23.750  1.00  0.00     0.091 A 
ATOM     85  F   UNL A   1      47.115  27.978  23.641  1.00  0.00    -0.205 F 
ATOM     86  C   UNL A   1      50.472  26.820  24.528  1.00  0.00     0.022 A 
BRANCH  84  87
ATOM     87  S   UNL A   1      49.610  27.260  21.969  1.00  0.00     0.127 S 
ATOM     88  O   UNL A   1      49.365  28.665  21.658  1.00  0.00    -0.237 OA
ATOM     89  O   UNL A   1      51.004  26.832  21.840  1.00  0.00    -0.237 OA
ATOM     90  O   UNL A   1      48.639  26.314  21.435  1.00  0.00    -0.744 OA
ENDBRANCH  84  87
ENDBRANCH  56  80
BRANCH  68  91
ATOM     91  C   UNL A   1      45.338  32.974  28.966  1.00  0.00     0.023 A 
ATOM     92  C   UNL A   1      46.088  33.217  30.133  1.00  0.00     0.012 A 
ATOM     93  C   UNL A   1      45.172  34.005  28.022  1.00  0.00     0.148 A 
ATOM     94  C   UNL A   1      46.637  34.477  30.372  1.00  0.00     0.002 A 
ATOM     95  C   UNL A   1      45.765  35.242  28.242  1.00  0.00     0.091 A 
ATOM     96  F   UNL A   1      44.440  33.758  26.925  1.00  0.00    -0.205 F 
ATOM     97  C   UNL A   1      46.486  35.484  29.422  1.00  0.00     0.022 A 
BRANCH  95  98
ATOM     98  S   UNL A   1      45.708  36.567  27.030  1.00  0.00     0.127 S 
ATOM     99  O   UNL A   1      44.274  36.842  26.956  1.00  0.00    -0.237 OA
ATOM    100  O   UNL A   1      46.496  37.615  27.681  1.00  0.00    -0.237 OA
ATOM    101  O   UNL A   1      46.305  36.028  25.817  1.00  0.00    -0.744 OA
ENDBRANCH  95  98
ENDBRANCH  68  91
ENDBRANCH  42  43
ENDBRANCH  34  37
ENDBRANCH  32  33
ENDBRANCH  31  32
ENDBRANCH  30  31
ENDBRANCH   3  30
TORSDOF 19
ENDMDL
MODEL 2
REMARK VINA RESULT:     -12.7      1.003      7.253
REMARK SMILES O=C(COc1ccccc1/C=C1\N=C(c2ccccc2OC(F)F)OC1=O)NCCCNC(=O)c1ccc(-c2c3nc(c(-c4cccc(S(=O)(=O)[O-])c4F)c4ccc([nH]4)c(-c4cccc(S(=O)(=O)[O-])c4F)c4nc(c(-c5cccc(S(=O)(=O)[O-])c5F)c5ccc2[nH]5)C=C4)C=C3)cc1
REMARK SMILES IDX 1 1 2 2 28 3 3 5 4 6 5 7 6 8 10 9 7 10 9 11 8 12 11 13 12 14
REMARK SMILES IDX 13 15 26 16 14 17 25 18 27 19 15 20 16 21 20 22 17 23 19 24
REMARK SMILES IDX 18 25 21 26 22 27 23 28 24 29 29 30 30 31 31 32 32 33 33 34
REMARK SMILES IDX 34 36 35 37 36 38 97 39 37 40 96 41 38 42 39 43 40 44 90 45
REMARK SMILES IDX 41 46 95 47 89 48 91 49 42 50 94 51 88 52 87 53 43 55 75 56
REMARK SMILES IDX 55 57 74 58 56 59 59 60 73 61 92 62 57 63 58 64 72 66 93 67
REMARK SMILES IDX 60 68 44 69 45 70 53 71 46 72 48 73 54 74 47 75 49 76 50 77
REMARK SMILES IDX 51 78 52 79 76 80 77 81 85 82 78 83 80 84 86 85 79 86 81 87
REMARK SMILES IDX 82 88 83 89 84 90 61 91 62 92 70 93 63 94 65 95 71 96 64 97
REMARK SMILES IDX 66 98 67 99 68 100 69 101
REMARK H PARENT 28 4 32 35 91 54 59 65
REMARK Flexibility Score: inf
ROOT
ATOM      1  O   UNL A   1      35.723  23.978  23.047  1.00  0.00    -0.271 OA
ATOM      2  C   UNL A   1      35.496  23.738  24.225  1.00  0.00     0.257 C 
ATOM      3  N   UNL A   1      35.855  22.558  24.951  1.00  0.00    -0.353 N 
ATOM      4  H   UNL A   1      35.839  22.831  25.896  1.00  0.00     0.163 HD
ENDROOT
BRANCH   2   5
ATOM      5  C   UNL A   1      34.585  24.653  25.087  1.00  0.00     0.329 C 
BRANCH   5   6
ATOM      6  O   UNL A   1      34.398  25.970  24.562  1.00  0.00    -0.483 OA
BRANCH   6   7
ATOM      7  C   UNL A   1      33.304  26.701  24.969  1.00  0.00     0.127 A 
ATOM      8  C   UNL A   1      33.263  26.914  26.352  1.00  0.00     0.047 A 
ATOM      9  C   UNL A   1      32.182  27.057  24.183  1.00  0.00     0.019 A 
ATOM     10  C   UNL A   1      32.148  27.499  26.953  1.00  0.00     0.004 A 
ATOM     11  C   UNL A   1      31.072  27.653  24.800  1.00  0.00     0.012 A 
ATOM     12  C   UNL A   1      31.053  27.868  26.178  1.00  0.00     0.001 A 
BRANCH   9  13
ATOM     13  C   UNL A   1      32.054  26.807  22.747  1.00  0.00     0.048 C 
ATOM     14  C   UNL A   1      31.814  25.566  22.293  1.00  0.00     0.153 C 
ATOM     15  N   UNL A   1      31.685  24.098  23.353  1.00  0.00    -0.205 NA
ATOM     16  C   UNL A   1      32.828  24.968  20.648  1.00  0.00     0.363 C 
ATOM     17  C   UNL A   1      32.427  22.821  22.694  1.00  0.00     0.235 C 
ATOM     18  O   UNL A   1      33.170  23.175  21.066  1.00  0.00    -0.402 OA
ATOM     19  O   UNL A   1      32.953  25.484  19.553  1.00  0.00    -0.244 OA
BRANCH  17  20
ATOM     20  C   UNL A   1      32.469  21.466  23.310  1.00  0.00     0.080 A 
ATOM     21  C   UNL A   1      32.184  20.489  22.320  1.00  0.00     0.017 A 
ATOM     22  C   UNL A   1      32.694  21.020  24.624  1.00  0.00     0.138 A 
ATOM     23  C   UNL A   1      32.169  19.121  22.587  1.00  0.00     0.001 A 
ATOM     24  C   UNL A   1      32.658  19.624  24.869  1.00  0.00     0.047 A 
ATOM     25  C   UNL A   1      32.412  18.684  23.872  1.00  0.00     0.004 A 
BRANCH  22  26
ATOM     26  O   UNL A   1      32.914  21.634  25.817  1.00  0.00    -0.434 OA
BRANCH  26  27
ATOM     27  C   UNL A   1      32.046  22.583  26.381  1.00  0.00     0.542 C 
ATOM     28  F   UNL A   1      30.793  22.096  26.328  1.00  0.00    -0.167 F 
ATOM     29  F   UNL A   1      32.431  22.817  27.649  1.00  0.00    -0.167 F 
ENDBRANCH  26  27
ENDBRANCH  22  26
ENDBRANCH  17  20
ENDBRANCH   9  13
ENDBRANCH   6   7
ENDBRANCH   5   6
ENDBRANCH   2   5
BRANCH   3  30
ATOM     30  C   UNL A   1      36.413  20.478  24.992  1.00  0.00     0.117 C 
BRANCH  30  31
ATOM     31  C   UNL A   1      37.969  19.796  25.096  1.00  0.00     0.042 C 
BRANCH  31  32
ATOM     32  C   UNL A   1      39.013  20.617  25.843  1.00  0.00     0.118 C 
BRANCH  32  33
ATOM     33  N   UNL A   1      40.253  19.890  26.099  1.00  0.00    -0.352 N 
ATOM     34  C   UNL A   1      41.395  20.366  26.697  1.00  0.00     0.251 C 
ATOM     35  H   UNL A   1      40.274  18.949  25.809  1.00  0.00     0.163 HD
ATOM     36  O   UNL A   1      42.375  19.647  26.851  1.00  0.00    -0.269 OA
BRANCH  34  37
ATOM     37  C   UNL A   1      41.435  21.790  27.059  1.00  0.00     0.039 A 
ATOM     38  C   UNL A   1      41.763  22.118  28.375  1.00  0.00     0.014 A 
ATOM     39  C   UNL A   1      41.301  22.774  26.078  1.00  0.00     0.014 A 
ATOM     40  C   UNL A   1      42.028  23.446  28.697  1.00  0.00     0.010 A 
ATOM     41  C   UNL A   1      41.622  24.089  26.389  1.00  0.00     0.010 A 
ATOM     42  C   UNL A   1      41.997  24.431  27.697  1.00  0.00    -0.014 A 
BRANCH  42  43
ATOM     43  C   UNL A   1      42.391  25.824  28.005  1.00  0.00     0.031 A 
ATOM     44  C   UNL A   1      43.815  26.256  27.821  1.00  0.00     0.074 A 
ATOM     45  C   UNL A   1      41.474  26.671  28.512  1.00  0.00     0.049 A 
ATOM     46  N   UNL A   1      44.352  27.427  28.040  1.00  0.00    -0.248 NA
ATOM     47  C   UNL A   1      44.766  25.236  27.349  1.00  0.00     0.031 C 
ATOM     48  C   UNL A   1      40.080  26.330  28.807  1.00  0.00     0.029 A 
ATOM     49  N   UNL A   1      41.581  27.984  28.890  1.00  0.00    -0.354 N 
ATOM     50  C   UNL A   1      45.703  27.280  27.758  1.00  0.00     0.074 A 
ATOM     51  C   UNL A   1      45.912  25.899  27.386  1.00  0.00     0.031 C 
ATOM     52  C   UNL A   1      39.461  27.408  29.315  1.00  0.00     0.029 A 
ATOM     53  C   UNL A   1      40.417  28.506  29.405  1.00  0.00     0.049 A 
ATOM     54  H   UNL A   1      42.412  28.505  28.802  1.00  0.00     0.167 HD
ATOM     55  C   UNL A   1      46.676  28.221  27.780  1.00  0.00     0.034 A 
ATOM     56  C   UNL A   1      40.156  29.732  29.899  1.00  0.00     0.034 A 
ATOM     57  C   UNL A   1      46.451  29.597  28.126  1.00  0.00     0.049 A 
ATOM     58  C   UNL A   1      41.252  30.764  29.888  1.00  0.00     0.074 A 
ATOM     59  C   UNL A   1      47.348  30.649  28.098  1.00  0.00     0.029 A 
ATOM     60  N   UNL A   1      45.244  30.111  28.577  1.00  0.00    -0.354 N 
ATOM     61  N   UNL A   1      42.484  30.656  29.453  1.00  0.00    -0.248 NA
ATOM     62  C   UNL A   1      40.911  32.099  30.402  1.00  0.00     0.031 C 
ATOM     63  C   UNL A   1      46.690  31.795  28.559  1.00  0.00     0.029 A 
ATOM     64  C   UNL A   1      45.376  31.462  28.849  1.00  0.00     0.049 A 
ATOM     65  H   UNL A   1      44.415  29.592  28.688  1.00  0.00     0.167 HD
ATOM     66  C   UNL A   1      43.059  31.911  29.614  1.00  0.00     0.074 A 
ATOM     67  C   UNL A   1      42.029  32.772  30.161  1.00  0.00     0.031 C 
ATOM     68  C   UNL A   1      44.327  32.312  29.351  1.00  0.00     0.034 A 
BRANCH  55  69
ATOM     69  C   UNL A   1      48.062  27.797  27.375  1.00  0.00     0.023 A 
ATOM     70  C   UNL A   1      48.961  27.329  28.356  1.00  0.00     0.012 A 
ATOM     71  C   UNL A   1      48.462  27.818  26.026  1.00  0.00     0.148 A 
ATOM     72  C   UNL A   1      50.247  26.922  28.007  1.00  0.00     0.002 A 
ATOM     73  C   UNL A   1      49.732  27.370  25.678  1.00  0.00     0.091 A 
ATOM     74  F   UNL A   1      47.604  28.288  25.111  1.00  0.00    -0.205 F 
ATOM     75  C   UNL A   1      50.629  26.932  26.668  1.00  0.00     0.022 A 
BRANCH  73  76
ATOM     76  S   UNL A   1      50.295  27.275  23.976  1.00  0.00     0.127 S 
ATOM     77  O   UNL A   1      51.534  26.512  24.116  1.00  0.00    -0.237 OA
ATOM     78  O   UNL A   1      49.201  26.549  23.331  1.00  0.00    -0.237 OA
ATOM     79  O   UNL A   1      50.457  28.652  23.529  1.00  0.00    -0.744 OA
ENDBRANCH  73  76
ENDBRANCH  55  69
BRANCH  56  80
ATOM     80  C   UNL A   1      38.788  30.067  30.387  1.00  0.00     0.023 A 
ATOM     81  C   UNL A   1      38.370  29.605  31.649  1.00  0.00     0.012 A 
ATOM     82  C   UNL A   1      37.910  30.858  29.619  1.00  0.00     0.148 A 
ATOM     83  C   UNL A   1      37.090  29.895  32.126  1.00  0.00     0.002 A 
ATOM     84  C   UNL A   1      36.657  31.188  30.123  1.00  0.00     0.091 A 
ATOM     85  F   UNL A   1      38.323  31.278  28.416  1.00  0.00    -0.205 F 
ATOM     86  C   UNL A   1      36.239  30.695  31.368  1.00  0.00     0.022 A 
BRANCH  84  87
ATOM     87  S   UNL A   1      35.542  32.312  29.275  1.00  0.00     0.127 S 
ATOM     88  O   UNL A   1      34.387  32.316  30.168  1.00  0.00    -0.237 OA
ATOM     89  O   UNL A   1      36.318  33.553  29.262  1.00  0.00    -0.237 OA
ATOM     90  O   UNL A   1      35.323  31.727  27.959  1.00  0.00    -0.744 OA
ENDBRANCH  84  87
ENDBRANCH  56  80
BRANCH  68  91
ATOM     91  C   UNL A   1      44.672  33.751  29.631  1.00  0.00     0.023 A 
ATOM     92  C   UNL A   1      45.288  34.096  30.850  1.00  0.00     0.012 A 
ATOM     93  C   UNL A   1      44.460  34.745  28.656  1.00  0.00     0.148 A 
ATOM     94  C   UNL A   1      45.657  35.416  31.108  1.00  0.00     0.002 A 
ATOM     95  C   UNL A   1      44.878  36.047  28.899  1.00  0.00     0.091 A 
ATOM     96  F   UNL A   1      43.858  34.398  27.509  1.00  0.00    -0.205 F 
ATOM     97  C   UNL A   1      45.464  36.388  30.129  1.00  0.00     0.022 A 
BRANCH  95  98
ATOM     98  S   UNL A   1      44.761  37.343  27.660  1.00  0.00     0.127 S 
ATOM     99  O   UNL A   1      44.893  38.549  28.477  1.00  0.00    -0.237 OA
ATOM    100  O   UNL A   1      45.913  37.057  26.804  1.00  0.00    -0.237 OA
ATOM    101  O   UNL A   1      43.469  37.165  27.013  1.00  0.00    -0.744 OA
ENDBRANCH  95  98
ENDBRANCH  68  91
ENDBRANCH  42  43
ENDBRANCH  34  37
ENDBRANCH  32  33
ENDBRANCH  31  32
ENDBRANCH  30  31
ENDBRANCH   3  30
TORSDOF 19
ENDMDL
MODEL 3
REMARK VINA RESULT:     -12.4      1.543      1.957
REMARK SMILES O=C(COc1ccccc1/C=C1\N=C(c2ccccc2OC(F)F)OC1=O)NCCCNC(=O)c1ccc(-c2c3nc(c(-c4cccc(S(=O)(=O)[O-])c4F)c4ccc([nH]4)c(-c4cccc(S(=O)(=O)[O-])c4F)c4nc(c(-c5cccc(S(=O)(=O)[O-])c5F)c5ccc2[nH]5)C=C4)C=C3)cc1
REMARK SMILES IDX 1 1 2 2 28 3 3 5 4 6 5 7 6 8 10 9 7 10 9 11 8 12 11 13 12 14
REMARK SMILES IDX 13 15 26 16 14 17 25 18 27 19 15 20 16 21 20 22 17 23 19 24
REMARK SMILES IDX 18 25 21 26 22 27 23 28 24 29 29 30 30 31 31 32 32 33 33 34
REMARK SMILES IDX 34 36 35 37 36 38 97 39 37 40 96 41 38 42 39 43 40 44 90 45
REMARK SMILES IDX 41 46 95 47 89 48 91 49 42 50 94 51 88 52 87 53 43 55 75 56
REMARK SMILES IDX 55 57 74 58 56 59 59 60 73 61 92 62 57 63 58 64 72 66 93 67
REMARK SMILES IDX 60 68 44 69 45 70 53 71 46 72 48 73 54 74 47 75 49 76 50 77
REMARK SMILES IDX 51 78 52 79 76 80 77 81 85 82 78 83 80 84 86 85 79 86 81 87
REMARK SMILES IDX 82 88 83 89 84 90 61 91 62 92 70 93 63 94 65 95 71 96 64 97
REMARK SMILES IDX 66 98 67 99 68 100 69 101
REMARK H PARENT 28 4 32 35 91 54 59 65
REMARK Flexibility Score: inf
ROOT
ATOM      1  O   UNL A   1      35.583  24.098  23.202  1.00  0.00    -0.271 OA
ATOM      2  C   UNL A   1      35.568  24.134  24.425  1.00  0.00     0.257 C 
ATOM      3  N   UNL A   1      36.166  23.195  25.324  1.00  0.00    -0.353 N 
ATOM      4  H   UNL A   1      36.265  23.687  26.170  1.00  0.00     0.163 HD
ENDROOT
BRANCH   2   5
ATOM      5  C   UNL A   1      34.704  25.161  25.203  1.00  0.00     0.329 C 
BRANCH   5   6
ATOM      6  O   UNL A   1      34.366  26.338  24.463  1.00  0.00    -0.483 OA
BRANCH   6   7
ATOM      7  C   UNL A   1      33.261  27.069  24.841  1.00  0.00     0.127 A 
ATOM      8  C   UNL A   1      33.236  27.366  26.208  1.00  0.00     0.047 A 
ATOM      9  C   UNL A   1      32.121  27.352  24.051  1.00  0.00     0.019 A 
ATOM     10  C   UNL A   1      32.116  27.964  26.789  1.00  0.00     0.004 A 
ATOM     11  C   UNL A   1      31.007  27.961  24.648  1.00  0.00     0.012 A 
ATOM     12  C   UNL A   1      31.002  28.260  26.010  1.00  0.00     0.001 A 
BRANCH   9  13
ATOM     13  C   UNL A   1      31.979  27.010  22.636  1.00  0.00     0.048 C 
ATOM     14  C   UNL A   1      31.780  25.736  22.262  1.00  0.00     0.153 C 
ATOM     15  N   UNL A   1      31.724  24.331  23.411  1.00  0.00    -0.205 NA
ATOM     16  C   UNL A   1      32.788  25.077  20.638  1.00  0.00     0.363 C 
ATOM     17  C   UNL A   1      32.504  23.045  22.816  1.00  0.00     0.235 C 
ATOM     18  O   UNL A   1      33.206  23.327  21.156  1.00  0.00    -0.402 OA
ATOM     19  O   UNL A   1      32.875  25.529  19.510  1.00  0.00    -0.244 OA
BRANCH  17  20
ATOM     20  C   UNL A   1      32.608  21.732  23.512  1.00  0.00     0.080 A 
ATOM     21  C   UNL A   1      32.157  20.702  22.644  1.00  0.00     0.017 A 
ATOM     22  C   UNL A   1      33.016  21.366  24.805  1.00  0.00     0.138 A 
ATOM     23  C   UNL A   1      32.153  19.355  23.005  1.00  0.00     0.001 A 
ATOM     24  C   UNL A   1      32.988  19.991  25.149  1.00  0.00     0.047 A 
ATOM     25  C   UNL A   1      32.575  18.996  24.267  1.00  0.00     0.004 A 
BRANCH  22  26
ATOM     26  O   UNL A   1      33.425  22.050  25.908  1.00  0.00    -0.434 OA
BRANCH  26  27
ATOM     27  C   UNL A   1      32.563  22.465  26.936  1.00  0.00     0.542 C 
ATOM     28  F   UNL A   1      33.274  22.561  28.073  1.00  0.00    -0.167 F 
ATOM     29  F   UNL A   1      32.023  23.647  26.591  1.00  0.00    -0.167 F 
ENDBRANCH  26  27
ENDBRANCH  22  26
ENDBRANCH  17  20
ENDBRANCH   9  13
ENDBRANCH   6   7
ENDBRANCH   5   6
ENDBRANCH   2   5
BRANCH   3  30
ATOM     30  C   UNL A   1      36.956  21.234  25.735  1.00  0.00     0.117 C 
BRANCH  30  31
ATOM     31  C   UNL A   1      38.358  20.499  25.111  1.00  0.00     0.042 C 
BRANCH  31  32
ATOM     32  C   UNL A   1      39.604  20.582  25.984  1.00  0.00     0.118 C 
BRANCH  32  33
ATOM     33  N   UNL A   1      40.414  19.367  25.962  1.00  0.00    -0.352 N 
ATOM     34  C   UNL A   1      41.762  19.255  26.199  1.00  0.00     0.251 C 
ATOM     35  H   UNL A   1      39.939  18.531  25.751  1.00  0.00     0.163 HD
ATOM     36  O   UNL A   1      42.326  18.168  26.146  1.00  0.00    -0.269 OA
BRANCH  34  37
ATOM     37  C   UNL A   1      42.523  20.493  26.424  1.00  0.00     0.039 A 
ATOM     38  C   UNL A   1      42.763  21.318  25.325  1.00  0.00     0.014 A 
ATOM     39  C   UNL A   1      42.855  20.893  27.720  1.00  0.00     0.014 A 
ATOM     40  C   UNL A   1      43.280  22.593  25.536  1.00  0.00     0.010 A 
ATOM     41  C   UNL A   1      43.317  22.186  27.931  1.00  0.00     0.010 A 
ATOM     42  C   UNL A   1      43.522  23.048  26.843  1.00  0.00    -0.014 A 
BRANCH  42  43
ATOM     43  C   UNL A   1      43.960  24.441  27.083  1.00  0.00     0.031 A 
ATOM     44  C   UNL A   1      42.977  25.459  27.577  1.00  0.00     0.074 A 
ATOM     45  C   UNL A   1      45.227  24.792  26.790  1.00  0.00     0.049 A 
ATOM     46  N   UNL A   1      43.168  26.723  27.841  1.00  0.00    -0.248 NA
ATOM     47  C   UNL A   1      41.592  25.003  27.782  1.00  0.00     0.031 C 
ATOM     48  C   UNL A   1      46.244  23.899  26.228  1.00  0.00     0.029 A 
ATOM     49  N   UNL A   1      45.870  25.998  26.903  1.00  0.00    -0.354 N 
ATOM     50  C   UNL A   1      41.929  27.222  28.219  1.00  0.00     0.074 A 
ATOM     51  C   UNL A   1      40.984  26.132  28.116  1.00  0.00     0.031 C 
ATOM     52  C   UNL A   1      47.383  24.587  26.050  1.00  0.00     0.029 A 
ATOM     53  C   UNL A   1      47.173  25.971  26.460  1.00  0.00     0.049 A 
ATOM     54  H   UNL A   1      45.442  26.806  27.266  1.00  0.00     0.167 HD
ATOM     55  C   UNL A   1      41.613  28.468  28.641  1.00  0.00     0.034 A 
ATOM     56  C   UNL A   1      48.089  26.956  26.390  1.00  0.00     0.034 A 
ATOM     57  C   UNL A   1      42.567  29.536  28.765  1.00  0.00     0.049 A 
ATOM     58  C   UNL A   1      47.717  28.326  26.890  1.00  0.00     0.074 A 
ATOM     59  C   UNL A   1      42.371  30.811  29.263  1.00  0.00     0.029 A 
ATOM     60  N   UNL A   1      43.896  29.457  28.374  1.00  0.00    -0.354 N 
ATOM     61  N   UNL A   1      46.585  28.737  27.408  1.00  0.00    -0.248 NA
ATOM     62  C   UNL A   1      48.760  29.361  26.829  1.00  0.00     0.031 C 
ATOM     63  C   UNL A   1      43.576  31.513  29.146  1.00  0.00     0.029 A 
ATOM     64  C   UNL A   1      44.529  30.667  28.602  1.00  0.00     0.049 A 
ATOM     65  H   UNL A   1      44.326  28.659  27.990  1.00  0.00     0.167 HD
ATOM     66  C   UNL A   1      46.784  30.066  27.760  1.00  0.00     0.074 A 
ATOM     67  C   UNL A   1      48.157  30.384  27.421  1.00  0.00     0.031 C 
ATOM     68  C   UNL A   1      45.908  30.951  28.299  1.00  0.00     0.034 A 
BRANCH  55  69
ATOM     69  C   UNL A   1      40.186  28.726  29.042  1.00  0.00     0.023 A 
ATOM     70  C   UNL A   1      39.200  28.876  28.045  1.00  0.00     0.012 A 
ATOM     71  C   UNL A   1      39.811  28.777  30.398  1.00  0.00     0.148 A 
ATOM     72  C   UNL A   1      37.869  29.107  28.389  1.00  0.00     0.002 A 
ATOM     73  C   UNL A   1      38.475  28.965  30.734  1.00  0.00     0.091 A 
ATOM     74  F   UNL A   1      40.765  28.658  31.330  1.00  0.00    -0.205 F 
ATOM     75  C   UNL A   1      37.505  29.141  29.732  1.00  0.00     0.022 A 
BRANCH  73  76
ATOM     76  S   UNL A   1      37.892  28.953  32.433  1.00  0.00     0.127 S 
ATOM     77  O   UNL A   1      38.188  27.580  32.837  1.00  0.00    -0.237 OA
ATOM     78  O   UNL A   1      38.741  29.969  33.055  1.00  0.00    -0.237 OA
ATOM     79  O   UNL A   1      36.478  29.296  32.375  1.00  0.00    -0.744 OA
ENDBRANCH  73  76
ENDBRANCH  55  69
BRANCH  56  80
ATOM     80  C   UNL A   1      49.461  26.668  25.884  1.00  0.00     0.023 A 
ATOM     81  C   UNL A   1      50.351  25.924  26.681  1.00  0.00     0.012 A 
ATOM     82  C   UNL A   1      49.879  27.106  24.612  1.00  0.00     0.148 A 
ATOM     83  C   UNL A   1      51.646  25.649  26.236  1.00  0.00     0.002 A 
ATOM     84  C   UNL A   1      51.151  26.783  24.153  1.00  0.00     0.091 A 
ATOM     85  F   UNL A   1      49.021  27.823  23.874  1.00  0.00    -0.205 F 
ATOM     86  C   UNL A   1      52.042  26.069  24.969  1.00  0.00     0.022 A 
BRANCH  84  87
ATOM     87  S   UNL A   1      51.704  27.173  22.489  1.00  0.00     0.127 S 
ATOM     88  O   UNL A   1      50.710  26.480  21.675  1.00  0.00    -0.237 OA
ATOM     89  O   UNL A   1      51.608  28.633  22.474  1.00  0.00    -0.237 OA
ATOM     90  O   UNL A   1      53.065  26.660  22.400  1.00  0.00    -0.744 OA
ENDBRANCH  84  87
ENDBRANCH  56  80
BRANCH  68  91
ATOM     91  C   UNL A   1      46.409  32.343  28.575  1.00  0.00     0.023 A 
ATOM     92  C   UNL A   1      47.006  32.637  29.817  1.00  0.00     0.012 A 
ATOM     93  C   UNL A   1      46.361  33.336  27.577  1.00  0.00     0.148 A 
ATOM     94  C   UNL A   1      47.518  33.909  30.073  1.00  0.00     0.002 A 
ATOM     95  C   UNL A   1      46.920  34.585  27.821  1.00  0.00     0.091 A 
ATOM     96  F   UNL A   1      45.774  33.041  26.408  1.00  0.00    -0.205 F 
ATOM     97  C   UNL A   1      47.486  34.877  29.073  1.00  0.00     0.022 A 
BRANCH  95  98
ATOM     98  S   UNL A   1      47.014  35.861  26.561  1.00  0.00     0.127 S 
ATOM     99  O   UNL A   1      47.733  36.922  27.264  1.00  0.00    -0.237 OA
ATOM    100  O   UNL A   1      47.782  35.198  25.506  1.00  0.00    -0.237 OA
ATOM    101  O   UNL A   1      45.637  36.172  26.201  1.00  0.00    -0.744 OA
ENDBRANCH  95  98
ENDBRANCH  68  91
ENDBRANCH  42  43
ENDBRANCH  34  37
ENDBRANCH  32  33
ENDBRANCH  31  32
ENDBRANCH  30  31
ENDBRANCH   3  30
TORSDOF 19
ENDMDL
