MODEL 1
REMARK VINA RESULT:     -11.7      0.000      0.000
REMARK SMILES O=C(Cc1ccccc1C(=O)NCCCNC(=O)c1ccc(-c2c3nc(c(-c4cccc(S(=O)(=O)[O-])c4F)c4ccc([nH]4)c(-c4cccc(S(=O)(=O)[O-])c4F)c4nc(c(-c5cccc(S(=O)(=O)[O-])c5F)c5ccc2[nH]5)C=C4)C=C3)cc1)Nc1cccc(OC[C@@H]2CCCO2)c1
REMARK SMILES IDX 10 1 11 2 12 3 9 5 4 6 5 7 6 8 8 9 7 10 3 11 2 12 1 13 82 14
REMARK SMILES IDX 83 16 84 17 95 18 85 19 87 20 86 21 88 22 89 23 90 24 91 25
REMARK SMILES IDX 94 26 92 27 93 28 13 29 14 30 15 31 16 32 17 33 18 35 19 36
REMARK SMILES IDX 20 37 81 38 21 39 80 40 22 41 23 42 24 43 74 44 25 45 79 46
REMARK SMILES IDX 73 47 75 48 26 49 78 50 72 51 71 52 27 54 59 55 39 56 58 57
REMARK SMILES IDX 40 58 43 59 57 60 76 61 41 62 42 63 56 65 77 66 44 67 28 68
REMARK SMILES IDX 29 69 37 70 30 71 32 72 38 73 31 74 33 75 34 76 35 77 36 78
REMARK SMILES IDX 60 79 61 80 69 81 62 82 64 83 70 84 63 85 65 86 66 87 67 88
REMARK SMILES IDX 68 89 45 90 46 91 54 92 47 93 49 94 55 95 48 96 50 97 51 98
REMARK SMILES IDX 52 99 53 100
REMARK H PARENT 12 4 82 15 16 34 75 53 43 64
REMARK Flexibility Score: inf
ROOT
ATOM      1  C   UNL A   1      31.944  29.624  25.283  1.00  0.00     0.251 C 
ATOM      2  O   UNL A   1      31.445  30.688  25.643  1.00  0.00    -0.269 OA
ATOM      3  N   UNL A   1      33.303  29.528  25.138  1.00  0.00    -0.352 N 
ATOM      4  H   UNL A   1      33.709  29.909  24.325  1.00  0.00     0.163 HD
ENDROOT
BRANCH   1   5
ATOM      5  C   UNL A   1      31.041  28.555  24.761  1.00  0.00     0.043 A 
ATOM      6  C   UNL A   1      30.736  27.305  25.337  1.00  0.00    -0.026 A 
ATOM      7  C   UNL A   1      29.797  26.474  24.676  1.00  0.00     0.005 A 
ATOM      8  C   UNL A   1      29.143  26.874  23.515  1.00  0.00     0.000 A 
ATOM      9  C   UNL A   1      30.352  28.947  23.592  1.00  0.00     0.014 A 
ATOM     10  C   UNL A   1      29.414  28.120  22.976  1.00  0.00     0.001 A 
BRANCH   6  11
ATOM     11  C   UNL A   1      31.341  26.713  26.577  1.00  0.00     0.136 C 
BRANCH  11  12
ATOM     12  C   UNL A   1      31.985  25.339  26.533  1.00  0.00     0.228 C 
ATOM     13  O   UNL A   1      31.451  24.439  27.183  1.00  0.00    -0.274 OA
ATOM     14  N   UNL A   1      33.064  25.139  25.693  1.00  0.00    -0.326 N 
ATOM     15  H   UNL A   1      33.588  25.928  25.425  1.00  0.00     0.169 HD
BRANCH  14  16
ATOM     16  C   UNL A   1      33.468  23.879  25.189  1.00  0.00     0.044 A 
ATOM     17  C   UNL A   1      34.828  23.569  25.187  1.00  0.00     0.026 A 
ATOM     18  C   UNL A   1      32.551  22.934  24.711  1.00  0.00     0.072 A 
ATOM     19  C   UNL A   1      35.243  22.279  24.850  1.00  0.00     0.006 A 
ATOM     20  C   UNL A   1      32.944  21.622  24.458  1.00  0.00     0.121 A 
ATOM     21  C   UNL A   1      34.300  21.304  24.525  1.00  0.00     0.046 A 
BRANCH  20  22
ATOM     22  O   UNL A   1      32.118  20.558  24.230  1.00  0.00    -0.491 OA
BRANCH  22  23
ATOM     23  C   UNL A   1      32.421  19.601  23.206  1.00  0.00     0.261 C 
BRANCH  23  24
ATOM     24  C   UNL A   1      32.461  18.131  23.662  1.00  0.00     0.156 C 
ATOM     25  C   UNL A   1      33.026  17.879  25.045  1.00  0.00     0.038 C 
ATOM     26  O   UNL A   1      33.229  17.288  22.773  1.00  0.00    -0.375 OA
ATOM     27  C   UNL A   1      33.446  16.439  24.978  1.00  0.00     0.031 C 
ATOM     28  C   UNL A   1      34.025  16.400  23.581  1.00  0.00     0.161 C 
ENDBRANCH  23  24
ENDBRANCH  22  23
ENDBRANCH  20  22
ENDBRANCH  14  16
ENDBRANCH  11  12
ENDBRANCH   6  11
ENDBRANCH   1   5
BRANCH   3  29
ATOM     29  C   UNL A   1      34.180  28.904  26.107  1.00  0.00     0.118 C 
BRANCH  29  30
ATOM     30  C   UNL A   1      34.106  29.570  27.466  1.00  0.00     0.042 C 
BRANCH  30  31
ATOM     31  C   UNL A   1      34.488  31.035  27.386  1.00  0.00     0.118 C 
BRANCH  31  32
ATOM     32  N   UNL A   1      34.196  31.798  28.595  1.00  0.00    -0.352 N 
ATOM     33  C   UNL A   1      34.918  31.876  29.769  1.00  0.00     0.251 C 
ATOM     34  H   UNL A   1      33.369  32.331  28.568  1.00  0.00     0.163 HD
ATOM     35  O   UNL A   1      34.488  32.508  30.714  1.00  0.00    -0.269 OA
BRANCH  33  36
ATOM     36  C   UNL A   1      36.197  31.137  29.886  1.00  0.00     0.039 A 
ATOM     37  C   UNL A   1      37.354  31.716  29.359  1.00  0.00     0.014 A 
ATOM     38  C   UNL A   1      36.264  29.916  30.555  1.00  0.00     0.014 A 
ATOM     39  C   UNL A   1      38.589  31.109  29.585  1.00  0.00     0.010 A 
ATOM     40  C   UNL A   1      37.500  29.389  30.893  1.00  0.00     0.010 A 
ATOM     41  C   UNL A   1      38.675  29.967  30.398  1.00  0.00    -0.014 A 
BRANCH  41  42
ATOM     42  C   UNL A   1      39.979  29.348  30.739  1.00  0.00     0.031 A 
ATOM     43  C   UNL A   1      40.800  29.913  31.868  1.00  0.00     0.074 A 
ATOM     44  C   UNL A   1      40.469  28.363  29.960  1.00  0.00     0.049 A 
ATOM     45  N   UNL A   1      42.001  29.580  32.258  1.00  0.00    -0.248 NA
ATOM     46  C   UNL A   1      40.218  31.036  32.625  1.00  0.00     0.031 C 
ATOM     47  C   UNL A   1      39.816  27.820  28.763  1.00  0.00     0.029 A 
ATOM     48  N   UNL A   1      41.645  27.662  30.037  1.00  0.00    -0.354 N 
ATOM     49  C   UNL A   1      42.340  30.489  33.254  1.00  0.00     0.074 A 
ATOM     50  C   UNL A   1      41.239  31.415  33.379  1.00  0.00     0.031 C 
ATOM     51  C   UNL A   1      40.593  26.863  28.231  1.00  0.00     0.029 A 
ATOM     52  C   UNL A   1      41.807  26.741  29.028  1.00  0.00     0.049 A 
ATOM     53  H   UNL A   1      42.310  27.805  30.749  1.00  0.00     0.167 HD
ATOM     54  C   UNL A   1      43.452  30.526  34.023  1.00  0.00     0.034 A 
ATOM     55  C   UNL A   1      42.823  25.892  28.780  1.00  0.00     0.034 A 
ATOM     56  C   UNL A   1      44.495  29.540  33.953  1.00  0.00     0.049 A 
ATOM     57  C   UNL A   1      43.983  25.862  29.737  1.00  0.00     0.074 A 
ATOM     58  C   UNL A   1      45.599  29.397  34.772  1.00  0.00     0.029 A 
ATOM     59  N   UNL A   1      44.552  28.522  33.016  1.00  0.00    -0.354 N 
ATOM     60  N   UNL A   1      44.201  26.614  30.791  1.00  0.00    -0.248 NA
ATOM     61  C   UNL A   1      45.012  24.841  29.504  1.00  0.00     0.031 C 
ATOM     62  C   UNL A   1      46.332  28.294  34.320  1.00  0.00     0.029 A 
ATOM     63  C   UNL A   1      45.672  27.742  33.233  1.00  0.00     0.049 A 
ATOM     64  H   UNL A   1      43.892  28.376  32.299  1.00  0.00     0.167 HD
ATOM     65  C   UNL A   1      45.372  26.135  31.365  1.00  0.00     0.074 A 
ATOM     66  C   UNL A   1      45.801  25.011  30.557  1.00  0.00     0.031 C 
ATOM     67  C   UNL A   1      46.043  26.593  32.450  1.00  0.00     0.034 A 
BRANCH  54  68
ATOM     68  C   UNL A   1      43.563  31.622  35.050  1.00  0.00     0.023 A 
ATOM     69  C   UNL A   1      44.287  32.794  34.746  1.00  0.00     0.012 A 
ATOM     70  C   UNL A   1      42.913  31.517  36.295  1.00  0.00     0.148 A 
ATOM     71  C   UNL A   1      44.396  33.825  35.677  1.00  0.00     0.002 A 
ATOM     72  C   UNL A   1      42.985  32.570  37.200  1.00  0.00     0.091 A 
ATOM     73  F   UNL A   1      42.250  30.386  36.576  1.00  0.00    -0.205 F 
ATOM     74  C   UNL A   1      43.737  33.718  36.898  1.00  0.00     0.022 A 
BRANCH  72  75
ATOM     75  S   UNL A   1      42.106  32.565  38.766  1.00  0.00     0.127 S 
ATOM     76  O   UNL A   1      42.736  31.440  39.455  1.00  0.00    -0.237 OA
ATOM     77  O   UNL A   1      42.444  33.880  39.312  1.00  0.00    -0.237 OA
ATOM     78  O   UNL A   1      40.698  32.387  38.437  1.00  0.00    -0.744 OA
ENDBRANCH  72  75
ENDBRANCH  54  68
BRANCH  55  79
ATOM     79  C   UNL A   1      42.740  24.940  27.635  1.00  0.00     0.023 A 
ATOM     80  C   UNL A   1      43.320  25.295  26.400  1.00  0.00     0.012 A 
ATOM     81  C   UNL A   1      42.125  23.680  27.766  1.00  0.00     0.148 A 
ATOM     82  C   UNL A   1      43.255  24.429  25.309  1.00  0.00     0.002 A 
ATOM     83  C   UNL A   1      42.112  22.800  26.690  1.00  0.00     0.091 A 
ATOM     84  F   UNL A   1      41.570  23.363  28.944  1.00  0.00    -0.205 F 
ATOM     85  C   UNL A   1      42.661  23.179  25.455  1.00  0.00     0.022 A 
BRANCH  83  86
ATOM     86  S   UNL A   1      41.491  21.121  26.835  1.00  0.00     0.127 S 
ATOM     87  O   UNL A   1      42.346  20.574  27.885  1.00  0.00    -0.237 OA
ATOM     88  O   UNL A   1      40.098  21.341  27.227  1.00  0.00    -0.237 OA
ATOM     89  O   UNL A   1      41.650  20.533  25.510  1.00  0.00    -0.744 OA
ENDBRANCH  83  86
ENDBRANCH  55  79
BRANCH  67  90
ATOM     90  C   UNL A   1      47.294  25.858  32.850  1.00  0.00     0.023 A 
ATOM     91  C   UNL A   1      47.223  24.826  33.805  1.00  0.00     0.012 A 
ATOM     92  C   UNL A   1      48.523  26.144  32.225  1.00  0.00     0.148 A 
ATOM     93  C   UNL A   1      48.367  24.111  34.159  1.00  0.00     0.002 A 
ATOM     94  C   UNL A   1      49.647  25.393  32.545  1.00  0.00     0.091 A 
ATOM     95  F   UNL A   1      48.572  27.145  31.333  1.00  0.00    -0.205 F 
ATOM     96  C   UNL A   1      49.574  24.386  33.521  1.00  0.00     0.022 A 
BRANCH  94  97
ATOM     97  S   UNL A   1      51.213  25.617  31.696  1.00  0.00     0.127 S 
ATOM     98  O   UNL A   1      51.580  26.973  32.098  1.00  0.00    -0.237 OA
ATOM     99  O   UNL A   1      52.042  24.562  32.283  1.00  0.00    -0.237 OA
ATOM    100  O   UNL A   1      50.926  25.434  30.280  1.00  0.00    -0.744 OA
ENDBRANCH  94  97
ENDBRANCH  67  90
ENDBRANCH  41  42
ENDBRANCH  33  36
ENDBRANCH  31  32
ENDBRANCH  30  31
ENDBRANCH  29  30
ENDBRANCH   3  29
TORSDOF 19
ENDMDL
MODEL 2
REMARK VINA RESULT:     -11.4      2.473      2.945
REMARK SMILES O=C(Cc1ccccc1C(=O)NCCCNC(=O)c1ccc(-c2c3nc(c(-c4cccc(S(=O)(=O)[O-])c4F)c4ccc([nH]4)c(-c4cccc(S(=O)(=O)[O-])c4F)c4nc(c(-c5cccc(S(=O)(=O)[O-])c5F)c5ccc2[nH]5)C=C4)C=C3)cc1)Nc1cccc(OC[C@@H]2CCCO2)c1
REMARK SMILES IDX 10 1 11 2 12 3 9 5 4 6 5 7 6 8 8 9 7 10 3 11 2 12 1 13 82 14
REMARK SMILES IDX 83 16 84 17 95 18 85 19 87 20 86 21 88 22 89 23 90 24 91 25
REMARK SMILES IDX 94 26 92 27 93 28 13 29 14 30 15 31 16 32 17 33 18 35 19 36
REMARK SMILES IDX 20 37 81 38 21 39 80 40 22 41 23 42 24 43 74 44 25 45 79 46
REMARK SMILES IDX 73 47 75 48 26 49 78 50 72 51 71 52 27 54 59 55 39 56 58 57
REMARK SMILES IDX 40 58 43 59 57 60 76 61 41 62 42 63 56 65 77 66 44 67 28 68
REMARK SMILES IDX 29 69 37 70 30 71 32 72 38 73 31 74 33 75 34 76 35 77 36 78
REMARK SMILES IDX 60 79 61 80 69 81 62 82 64 83 70 84 63 85 65 86 66 87 67 88
REMARK SMILES IDX 68 89 45 90 46 91 54 92 47 93 49 94 55 95 48 96 50 97 51 98
REMARK SMILES IDX 52 99 53 100
REMARK H PARENT 12 4 82 15 16 34 75 53 43 64
REMARK Flexibility Score: inf
ROOT
ATOM      1  C   UNL A   1      31.752  28.335  24.641  1.00  0.00     0.251 C 
ATOM      2  O   UNL A   1      32.773  28.464  23.968  1.00  0.00    -0.269 OA
ATOM      3  N   UNL A   1      31.838  27.831  25.912  1.00  0.00    -0.352 N 
ATOM      4  H   UNL A   1      31.941  26.857  26.016  1.00  0.00     0.163 HD
ENDROOT
BRANCH   1   5
ATOM      5  C   UNL A   1      30.430  28.482  23.963  1.00  0.00     0.043 A 
ATOM      6  C   UNL A   1      29.427  27.510  23.778  1.00  0.00    -0.026 A 
ATOM      7  C   UNL A   1      28.221  27.904  23.146  1.00  0.00     0.005 A 
ATOM      8  C   UNL A   1      27.987  29.217  22.751  1.00  0.00     0.000 A 
ATOM      9  C   UNL A   1      30.165  29.812  23.569  1.00  0.00     0.014 A 
ATOM     10  C   UNL A   1      28.959  30.178  22.972  1.00  0.00     0.001 A 
BRANCH   6  11
ATOM     11  C   UNL A   1      29.504  26.055  24.138  1.00  0.00     0.136 C 
BRANCH  11  12
ATOM     12  C   UNL A   1      30.678  25.213  23.673  1.00  0.00     0.228 C 
ATOM     13  O   UNL A   1      31.154  25.461  22.564  1.00  0.00    -0.274 OA
ATOM     14  N   UNL A   1      31.219  24.290  24.548  1.00  0.00    -0.326 N 
ATOM     15  H   UNL A   1      30.647  23.961  25.279  1.00  0.00     0.169 HD
BRANCH  14  16
ATOM     16  C   UNL A   1      32.539  23.783  24.467  1.00  0.00     0.044 A 
ATOM     17  C   UNL A   1      33.603  24.675  24.605  1.00  0.00     0.026 A 
ATOM     18  C   UNL A   1      32.809  22.423  24.271  1.00  0.00     0.072 A 
ATOM     19  C   UNL A   1      34.908  24.187  24.691  1.00  0.00     0.006 A 
ATOM     20  C   UNL A   1      34.095  21.917  24.443  1.00  0.00     0.121 A 
ATOM     21  C   UNL A   1      35.145  22.812  24.649  1.00  0.00     0.046 A 
BRANCH  20  22
ATOM     22  O   UNL A   1      34.444  20.599  24.525  1.00  0.00    -0.491 OA
BRANCH  22  23
ATOM     23  C   UNL A   1      33.628  19.670  25.251  1.00  0.00     0.261 C 
BRANCH  23  24
ATOM     24  C   UNL A   1      33.471  18.280  24.607  1.00  0.00     0.156 C 
ATOM     25  C   UNL A   1      32.692  17.259  25.411  1.00  0.00     0.038 C 
ATOM     26  O   UNL A   1      34.738  17.651  24.310  1.00  0.00    -0.375 OA
ATOM     27  C   UNL A   1      33.171  15.953  24.847  1.00  0.00     0.031 C 
ATOM     28  C   UNL A   1      34.642  16.263  24.681  1.00  0.00     0.161 C 
ENDBRANCH  23  24
ENDBRANCH  22  23
ENDBRANCH  20  22
ENDBRANCH  14  16
ENDBRANCH  11  12
ENDBRANCH   6  11
ENDBRANCH   1   5
BRANCH   3  29
ATOM     29  C   UNL A   1      31.790  28.642  27.111  1.00  0.00     0.118 C 
BRANCH  29  30
ATOM     30  C   UNL A   1      31.756  30.125  26.805  1.00  0.00     0.042 C 
BRANCH  30  31
ATOM     31  C   UNL A   1      33.141  30.737  26.877  1.00  0.00     0.118 C 
BRANCH  31  32
ATOM     32  N   UNL A   1      33.162  32.120  27.339  1.00  0.00    -0.352 N 
ATOM     33  C   UNL A   1      34.126  32.774  28.082  1.00  0.00     0.251 C 
ATOM     34  H   UNL A   1      32.380  32.663  27.087  1.00  0.00     0.163 HD
ATOM     35  O   UNL A   1      33.948  33.920  28.447  1.00  0.00    -0.269 OA
BRANCH  33  36
ATOM     36  C   UNL A   1      35.357  32.048  28.474  1.00  0.00     0.039 A 
ATOM     37  C   UNL A   1      36.586  32.697  28.344  1.00  0.00     0.014 A 
ATOM     38  C   UNL A   1      35.293  30.765  29.016  1.00  0.00     0.014 A 
ATOM     39  C   UNL A   1      37.739  32.089  28.842  1.00  0.00     0.010 A 
ATOM     40  C   UNL A   1      36.411  30.225  29.628  1.00  0.00     0.010 A 
ATOM     41  C   UNL A   1      37.651  30.871  29.534  1.00  0.00    -0.014 A 
BRANCH  41  42
ATOM     42  C   UNL A   1      38.838  30.239  30.159  1.00  0.00     0.031 A 
ATOM     43  C   UNL A   1      39.329  30.735  31.494  1.00  0.00     0.074 A 
ATOM     44  C   UNL A   1      39.535  29.312  29.472  1.00  0.00     0.049 A 
ATOM     45  N   UNL A   1      40.398  30.386  32.159  1.00  0.00    -0.248 NA
ATOM     46  C   UNL A   1      38.545  31.801  32.144  1.00  0.00     0.031 C 
ATOM     47  C   UNL A   1      39.223  28.845  28.117  1.00  0.00     0.029 A 
ATOM     48  N   UNL A   1      40.668  28.616  29.806  1.00  0.00    -0.354 N 
ATOM     49  C   UNL A   1      40.448  31.230  33.262  1.00  0.00     0.074 A 
ATOM     50  C   UNL A   1      39.330  32.137  33.157  1.00  0.00     0.031 C 
ATOM     51  C   UNL A   1      40.133  27.931  27.744  1.00  0.00     0.029 A 
ATOM     52  C   UNL A   1      41.106  27.766  28.817  1.00  0.00     0.049 A 
ATOM     53  H   UNL A   1      41.125  28.717  30.672  1.00  0.00     0.167 HD
ATOM     54  C   UNL A   1      41.325  31.224  34.292  1.00  0.00     0.034 A 
ATOM     55  C   UNL A   1      42.171  26.942  28.787  1.00  0.00     0.034 A 
ATOM     56  C   UNL A   1      42.375  30.253  34.432  1.00  0.00     0.049 A 
ATOM     57  C   UNL A   1      43.049  26.858  30.006  1.00  0.00     0.074 A 
ATOM     58  C   UNL A   1      43.236  30.065  35.496  1.00  0.00     0.029 A 
ATOM     59  N   UNL A   1      42.695  29.299  33.479  1.00  0.00    -0.354 N 
ATOM     60  N   UNL A   1      42.972  27.540  31.125  1.00  0.00    -0.248 NA
ATOM     61  C   UNL A   1      44.127  25.862  29.983  1.00  0.00     0.031 C 
ATOM     62  C   UNL A   1      44.087  28.999  35.180  1.00  0.00     0.029 A 
ATOM     63  C   UNL A   1      43.741  28.515  33.928  1.00  0.00     0.049 A 
ATOM     64  H   UNL A   1      42.244  29.196  32.609  1.00  0.00     0.167 HD
ATOM     65  C   UNL A   1      43.967  27.033  31.950  1.00  0.00     0.074 A 
ATOM     66  C   UNL A   1      44.617  25.968  31.211  1.00  0.00     0.031 C 
ATOM     67  C   UNL A   1      44.327  27.423  33.197  1.00  0.00     0.034 A 
BRANCH  54  68
ATOM     68  C   UNL A   1      41.143  32.250  35.379  1.00  0.00     0.023 A 
ATOM     69  C   UNL A   1      40.357  31.939  36.509  1.00  0.00     0.012 A 
ATOM     70  C   UNL A   1      41.784  33.502  35.309  1.00  0.00     0.148 A 
ATOM     71  C   UNL A   1      40.181  32.870  37.532  1.00  0.00     0.002 A 
ATOM     72  C   UNL A   1      41.644  34.406  36.355  1.00  0.00     0.091 A 
ATOM     73  F   UNL A   1      42.507  33.790  34.217  1.00  0.00    -0.205 F 
ATOM     74  C   UNL A   1      40.832  34.097  37.460  1.00  0.00     0.022 A 
BRANCH  72  75
ATOM     75  S   UNL A   1      42.506  35.982  36.398  1.00  0.00     0.127 S 
ATOM     76  O   UNL A   1      42.092  36.510  37.697  1.00  0.00    -0.237 OA
ATOM     77  O   UNL A   1      43.908  35.566  36.329  1.00  0.00    -0.237 OA
ATOM     78  O   UNL A   1      42.035  36.730  35.242  1.00  0.00    -0.744 OA
ENDBRANCH  72  75
ENDBRANCH  54  68
BRANCH  55  79
ATOM     79  C   UNL A   1      42.408  26.068  27.602  1.00  0.00     0.023 A 
ATOM     80  C   UNL A   1      43.148  26.568  26.512  1.00  0.00     0.012 A 
ATOM     81  C   UNL A   1      41.937  24.741  27.559  1.00  0.00     0.148 A 
ATOM     82  C   UNL A   1      43.382  25.777  25.387  1.00  0.00     0.002 A 
ATOM     83  C   UNL A   1      42.222  23.941  26.458  1.00  0.00     0.091 A 
ATOM     84  F   UNL A   1      41.227  24.284  28.600  1.00  0.00    -0.205 F 
ATOM     85  C   UNL A   1      42.928  24.462  25.363  1.00  0.00     0.022 A 
BRANCH  83  86
ATOM     86  S   UNL A   1      41.794  22.197  26.408  1.00  0.00     0.127 S 
ATOM     87  O   UNL A   1      40.354  22.247  26.173  1.00  0.00    -0.237 OA
ATOM     88  O   UNL A   1      42.587  21.718  25.274  1.00  0.00    -0.237 OA
ATOM     89  O   UNL A   1      42.213  21.658  27.696  1.00  0.00    -0.744 OA
ENDBRANCH  83  86
ENDBRANCH  55  79
BRANCH  67  90
ATOM     90  C   UNL A   1      45.451  26.673  33.858  1.00  0.00     0.023 A 
ATOM     91  C   UNL A   1      46.775  27.134  33.723  1.00  0.00     0.012 A 
ATOM     92  C   UNL A   1      45.185  25.556  34.673  1.00  0.00     0.148 A 
ATOM     93  C   UNL A   1      47.823  26.472  34.360  1.00  0.00     0.002 A 
ATOM     94  C   UNL A   1      46.228  24.933  35.346  1.00  0.00     0.091 A 
ATOM     95  F   UNL A   1      43.920  25.121  34.773  1.00  0.00    -0.205 F 
ATOM     96  C   UNL A   1      47.548  25.380  35.181  1.00  0.00     0.022 A 
BRANCH  94  97
ATOM     97  S   UNL A   1      45.945  23.586  36.500  1.00  0.00     0.127 S 
ATOM     98  O   UNL A   1      45.054  24.210  37.475  1.00  0.00    -0.237 OA
ATOM     99  O   UNL A   1      45.309  22.575  35.652  1.00  0.00    -0.237 OA
ATOM    100  O   UNL A   1      47.260  23.207  36.997  1.00  0.00    -0.744 OA
ENDBRANCH  94  97
ENDBRANCH  67  90
ENDBRANCH  41  42
ENDBRANCH  33  36
ENDBRANCH  31  32
ENDBRANCH  30  31
ENDBRANCH  29  30
ENDBRANCH   3  29
TORSDOF 19
ENDMDL
MODEL 3
REMARK VINA RESULT:     -10.7      3.143      4.018
REMARK SMILES O=C(Cc1ccccc1C(=O)NCCCNC(=O)c1ccc(-c2c3nc(c(-c4cccc(S(=O)(=O)[O-])c4F)c4ccc([nH]4)c(-c4cccc(S(=O)(=O)[O-])c4F)c4nc(c(-c5cccc(S(=O)(=O)[O-])c5F)c5ccc2[nH]5)C=C4)C=C3)cc1)Nc1cccc(OC[C@@H]2CCCO2)c1
REMARK SMILES IDX 10 1 11 2 12 3 9 5 4 6 5 7 6 8 8 9 7 10 3 11 2 12 1 13 82 14
REMARK SMILES IDX 83 16 84 17 95 18 85 19 87 20 86 21 88 22 89 23 90 24 91 25
REMARK SMILES IDX 94 26 92 27 93 28 13 29 14 30 15 31 16 32 17 33 18 35 19 36
REMARK SMILES IDX 20 37 81 38 21 39 80 40 22 41 23 42 24 43 74 44 25 45 79 46
REMARK SMILES IDX 73 47 75 48 26 49 78 50 72 51 71 52 27 54 59 55 39 56 58 57
REMARK SMILES IDX 40 58 43 59 57 60 76 61 41 62 42 63 56 65 77 66 44 67 28 68
REMARK SMILES IDX 29 69 37 70 30 71 32 72 38 73 31 74 33 75 34 76 35 77 36 78
REMARK SMILES IDX 60 79 61 80 69 81 62 82 64 83 70 84 63 85 65 86 66 87 67 88
REMARK SMILES IDX 68 89 45 90 46 91 54 92 47 93 49 94 55 95 48 96 50 97 51 98
REMARK SMILES IDX 52 99 53 100
REMARK H PARENT 12 4 82 15 16 34 75 53 43 64
REMARK Flexibility Score: inf
ROOT
ATOM      1  C   UNL A   1      32.293  29.821  25.433  1.00  0.00     0.251 C 
ATOM      2  O   UNL A   1      33.375  29.248  25.544  1.00  0.00    -0.269 OA
ATOM      3  N   UNL A   1      31.759  30.473  26.513  1.00  0.00    -0.352 N 
ATOM      4  H   UNL A   1      31.318  29.932  27.208  1.00  0.00     0.163 HD
ENDROOT
BRANCH   1   5
ATOM      5  C   UNL A   1      31.474  29.566  24.211  1.00  0.00     0.043 A 
ATOM      6  C   UNL A   1      31.826  28.841  23.055  1.00  0.00    -0.026 A 
ATOM      7  C   UNL A   1      30.850  28.686  22.039  1.00  0.00     0.005 A 
ATOM      8  C   UNL A   1      29.558  29.184  22.172  1.00  0.00     0.000 A 
ATOM      9  C   UNL A   1      30.151  30.047  24.332  1.00  0.00     0.014 A 
ATOM     10  C   UNL A   1      29.203  29.859  23.327  1.00  0.00     0.001 A 
BRANCH   6  11
ATOM     11  C   UNL A   1      33.165  28.238  22.742  1.00  0.00     0.136 C 
BRANCH  11  12
ATOM     12  C   UNL A   1      33.374  26.739  22.858  1.00  0.00     0.228 C 
ATOM     13  O   UNL A   1      34.090  26.197  22.014  1.00  0.00    -0.274 OA
ATOM     14  N   UNL A   1      32.844  26.078  23.950  1.00  0.00    -0.326 N 
ATOM     15  H   UNL A   1      32.086  26.499  24.416  1.00  0.00     0.169 HD
BRANCH  14  16
ATOM     16  C   UNL A   1      33.316  24.839  24.446  1.00  0.00     0.044 A 
ATOM     17  C   UNL A   1      34.026  24.830  25.646  1.00  0.00     0.026 A 
ATOM     18  C   UNL A   1      33.081  23.628  23.782  1.00  0.00     0.072 A 
ATOM     19  C   UNL A   1      34.364  23.614  26.242  1.00  0.00     0.006 A 
ATOM     20  C   UNL A   1      33.333  22.409  24.408  1.00  0.00     0.121 A 
ATOM     21  C   UNL A   1      33.984  22.412  25.642  1.00  0.00     0.046 A 
BRANCH  20  22
ATOM     22  O   UNL A   1      32.926  21.178  23.980  1.00  0.00    -0.491 OA
BRANCH  22  23
ATOM     23  C   UNL A   1      32.392  20.221  24.904  1.00  0.00     0.261 C 
BRANCH  23  24
ATOM     24  C   UNL A   1      33.126  18.869  24.957  1.00  0.00     0.156 C 
ATOM     25  C   UNL A   1      33.188  18.094  23.657  1.00  0.00     0.038 C 
ATOM     26  O   UNL A   1      32.553  17.956  25.922  1.00  0.00    -0.375 OA
ATOM     27  C   UNL A   1      33.423  16.685  24.117  1.00  0.00     0.031 C 
ATOM     28  C   UNL A   1      32.509  16.648  25.322  1.00  0.00     0.161 C 
ENDBRANCH  23  24
ENDBRANCH  22  23
ENDBRANCH  20  22
ENDBRANCH  14  16
ENDBRANCH  11  12
ENDBRANCH   6  11
ENDBRANCH   1   5
BRANCH   3  29
ATOM     29  C   UNL A   1      31.805  31.909  26.698  1.00  0.00     0.118 C 
BRANCH  29  30
ATOM     30  C   UNL A   1      32.885  32.331  27.673  1.00  0.00     0.042 C 
BRANCH  30  31
ATOM     31  C   UNL A   1      33.271  33.785  27.478  1.00  0.00     0.118 C 
BRANCH  31  32
ATOM     32  N   UNL A   1      32.898  34.658  28.585  1.00  0.00    -0.352 N 
ATOM     33  C   UNL A   1      33.460  34.755  29.843  1.00  0.00     0.251 C 
ATOM     34  H   UNL A   1      32.141  35.262  28.411  1.00  0.00     0.163 HD
ATOM     35  O   UNL A   1      32.974  35.492  30.679  1.00  0.00    -0.269 OA
BRANCH  33  36
ATOM     36  C   UNL A   1      34.630  33.911  30.183  1.00  0.00     0.039 A 
ATOM     37  C   UNL A   1      35.881  34.264  29.671  1.00  0.00     0.014 A 
ATOM     38  C   UNL A   1      34.505  32.819  31.040  1.00  0.00     0.014 A 
ATOM     39  C   UNL A   1      37.016  33.572  30.095  1.00  0.00     0.010 A 
ATOM     40  C   UNL A   1      35.642  32.223  31.561  1.00  0.00     0.010 A 
ATOM     41  C   UNL A   1      36.909  32.580  31.082  1.00  0.00    -0.014 A 
BRANCH  41  42
ATOM     42  C   UNL A   1      38.102  31.888  31.626  1.00  0.00     0.031 A 
ATOM     43  C   UNL A   1      38.759  32.407  32.877  1.00  0.00     0.074 A 
ATOM     44  C   UNL A   1      38.656  30.875  30.929  1.00  0.00     0.049 A 
ATOM     45  N   UNL A   1      39.860  32.007  33.456  1.00  0.00    -0.248 NA
ATOM     46  C   UNL A   1      38.126  33.563  33.538  1.00  0.00     0.031 C 
ATOM     47  C   UNL A   1      38.177  30.368  29.638  1.00  0.00     0.029 A 
ATOM     48  N   UNL A   1      39.762  30.108  31.191  1.00  0.00    -0.354 N 
ATOM     49  C   UNL A   1      40.083  32.897  34.500  1.00  0.00     0.074 A 
ATOM     50  C   UNL A   1      39.030  33.884  34.451  1.00  0.00     0.031 C 
ATOM     51  C   UNL A   1      38.975  29.368  29.232  1.00  0.00     0.029 A 
ATOM     52  C   UNL A   1      40.035  29.178  30.215  1.00  0.00     0.049 A 
ATOM     53  H   UNL A   1      40.310  30.214  32.003  1.00  0.00     0.167 HD
ATOM     54  C   UNL A   1      41.055  32.872  35.440  1.00  0.00     0.034 A 
ATOM     55  C   UNL A   1      41.028  28.272  30.130  1.00  0.00     0.034 A 
ATOM     56  C   UNL A   1      42.038  31.828  35.533  1.00  0.00     0.049 A 
ATOM     57  C   UNL A   1      42.013  28.178  31.263  1.00  0.00     0.074 A 
ATOM     58  C   UNL A   1      42.985  31.624  36.520  1.00  0.00     0.029 A 
ATOM     59  N   UNL A   1      42.190  30.806  34.610  1.00  0.00    -0.354 N 
ATOM     60  N   UNL A   1      42.099  28.918  32.343  1.00  0.00    -0.248 NA
ATOM     61  C   UNL A   1      43.007  27.100  31.192  1.00  0.00     0.031 C 
ATOM     62  C   UNL A   1      43.718  30.480  36.184  1.00  0.00     0.029 A 
ATOM     63  C   UNL A   1      43.213  29.964  35.000  1.00  0.00     0.049 A 
ATOM     64  H   UNL A   1      41.648  30.697  33.794  1.00  0.00     0.167 HD
ATOM     65  C   UNL A   1      43.131  28.374  33.096  1.00  0.00     0.074 A 
ATOM     66  C   UNL A   1      43.623  27.226  32.361  1.00  0.00     0.031 C 
ATOM     67  C   UNL A   1      43.642  28.794  34.279  1.00  0.00     0.034 A 
BRANCH  54  68
ATOM     68  C   UNL A   1      41.059  33.961  36.479  1.00  0.00     0.023 A 
ATOM     69  C   UNL A   1      41.692  35.191  36.200  1.00  0.00     0.012 A 
ATOM     70  C   UNL A   1      40.398  33.790  37.711  1.00  0.00     0.148 A 
ATOM     71  C   UNL A   1      41.701  36.217  37.144  1.00  0.00     0.002 A 
ATOM     72  C   UNL A   1      40.368  34.835  38.627  1.00  0.00     0.091 A 
ATOM     73  F   UNL A   1      39.822  32.607  37.969  1.00  0.00    -0.205 F 
ATOM     74  C   UNL A   1      41.031  36.043  38.351  1.00  0.00     0.022 A 
BRANCH  72  75
ATOM     75  S   UNL A   1      39.464  34.742  40.176  1.00  0.00     0.127 S 
ATOM     76  O   UNL A   1      38.199  34.149  39.745  1.00  0.00    -0.237 OA
ATOM     77  O   UNL A   1      40.312  33.855  40.974  1.00  0.00    -0.237 OA
ATOM     78  O   UNL A   1      39.376  36.108  40.674  1.00  0.00    -0.744 OA
ENDBRANCH  72  75
ENDBRANCH  54  68
BRANCH  55  79
ATOM     79  C   UNL A   1      41.079  27.325  28.979  1.00  0.00     0.023 A 
ATOM     80  C   UNL A   1      40.189  26.232  28.944  1.00  0.00     0.012 A 
ATOM     81  C   UNL A   1      41.973  27.514  27.907  1.00  0.00     0.148 A 
ATOM     82  C   UNL A   1      40.215  25.326  27.884  1.00  0.00     0.002 A 
ATOM     83  C   UNL A   1      41.955  26.638  26.827  1.00  0.00     0.091 A 
ATOM     84  F   UNL A   1      42.818  28.553  27.960  1.00  0.00    -0.205 F 
ATOM     85  C   UNL A   1      41.090  25.533  26.822  1.00  0.00     0.022 A 
BRANCH  83  86
ATOM     86  S   UNL A   1      42.951  26.912  25.357  1.00  0.00     0.127 S 
ATOM     87  O   UNL A   1      44.277  27.128  25.929  1.00  0.00    -0.237 OA
ATOM     88  O   UNL A   1      42.789  25.649  24.637  1.00  0.00    -0.237 OA
ATOM     89  O   UNL A   1      42.348  28.059  24.690  1.00  0.00    -0.744 OA
ENDBRANCH  83  86
ENDBRANCH  55  79
BRANCH  67  90
ATOM     90  C   UNL A   1      44.767  27.991  34.872  1.00  0.00     0.023 A 
ATOM     91  C   UNL A   1      46.099  28.404  34.680  1.00  0.00     0.012 A 
ATOM     92  C   UNL A   1      44.498  26.869  35.679  1.00  0.00     0.148 A 
ATOM     93  C   UNL A   1      47.150  27.692  35.254  1.00  0.00     0.002 A 
ATOM     94  C   UNL A   1      45.547  26.194  36.289  1.00  0.00     0.091 A 
ATOM     95  F   UNL A   1      43.223  26.479  35.833  1.00  0.00    -0.205 F 
ATOM     96  C   UNL A   1      46.874  26.595  36.067  1.00  0.00     0.022 A 
BRANCH  94  97
ATOM     97  S   UNL A   1      45.269  24.836  37.432  1.00  0.00     0.127 S 
ATOM     98  O   UNL A   1      44.635  23.844  36.568  1.00  0.00    -0.237 OA
ATOM     99  O   UNL A   1      46.629  24.497  37.853  1.00  0.00    -0.237 OA
ATOM    100  O   UNL A   1      44.431  25.378  38.493  1.00  0.00    -0.744 OA
ENDBRANCH  94  97
ENDBRANCH  67  90
ENDBRANCH  41  42
ENDBRANCH  33  36
ENDBRANCH  31  32
ENDBRANCH  30  31
ENDBRANCH  29  30
ENDBRANCH   3  29
TORSDOF 19
ENDMDL
