MODEL 1
REMARK VINA RESULT:     -12.0      0.000      0.000
REMARK SMILES O=C(Cn1c(=O)n(Cc2cccnc2)c(=O)c2sccc21)NCCCNC(=O)c1ccc(-c2c3nc(c(-c4cccc(S(=O)(=O)[O-])c4F)c4ccc([nH]4)c(-c4cccc(S(=O)(=O)[O-])c4F)c4nc(c(-c5cccc(S(=O)(=O)[O-])c5F)c5ccc2[nH]5)C=C4)C=C3)cc1
REMARK SMILES IDX 24 1 23 2 22 3 1 4 2 5 3 7 4 8 5 9 21 10 6 11 7 12 17 13
REMARK SMILES IDX 20 14 15 15 18 16 19 17 16 18 8 19 9 20 10 21 14 22 11 23
REMARK SMILES IDX 13 24 12 25 25 26 26 27 27 28 28 30 29 31 30 32 91 33 31 34
REMARK SMILES IDX 90 35 32 36 33 37 34 38 84 39 35 40 89 41 83 42 85 43 36 44
REMARK SMILES IDX 88 45 82 46 81 47 37 49 69 50 49 51 68 52 50 53 53 54 67 55
REMARK SMILES IDX 86 56 51 57 52 58 66 60 87 61 54 62 38 63 39 64 47 65 40 66
REMARK SMILES IDX 42 67 48 68 41 69 43 70 44 71 45 72 46 73 70 74 71 75 79 76
REMARK SMILES IDX 72 77 74 78 80 79 73 80 75 81 76 82 77 83 78 84 55 85 56 86
REMARK SMILES IDX 64 87 57 88 59 89 65 90 58 91 60 92 61 93 62 94 63 95
REMARK H PARENT 22 6 26 29 85 48 53 59
REMARK Flexibility Score: inf
ROOT
ATOM      1  C   UNL A   1      39.148  21.134  25.386  1.00  0.00     0.042 C 
ENDROOT
BRANCH   1   2
ATOM      2  C   UNL A   1      38.513  22.310  26.132  1.00  0.00     0.117 C 
BRANCH   2   3
ATOM      3  N   UNL A   1      37.704  23.162  25.278  1.00  0.00    -0.354 N 
ATOM      4  O   UNL A   1      35.731  22.910  26.432  1.00  0.00    -0.273 OA
ATOM      5  C   UNL A   1      36.366  23.416  25.509  1.00  0.00     0.240 C 
ATOM      6  H   UNL A   1      38.131  23.579  24.495  1.00  0.00     0.163 HD
BRANCH   5   7
ATOM      7  C   UNL A   1      35.733  24.414  24.534  1.00  0.00     0.227 C 
BRANCH   7   8
ATOM      8  N   UNL A   1      34.301  24.125  24.391  1.00  0.00    -0.283 N 
ATOM      9  C   UNL A   1      33.920  23.108  23.501  1.00  0.00     0.332 A 
ATOM     10  C   UNL A   1      33.328  24.885  25.042  1.00  0.00     0.070 A 
ATOM     11  O   UNL A   1      34.757  22.588  22.755  1.00  0.00    -0.247 OA
ATOM     12  N   UNL A   1      32.559  22.801  23.416  1.00  0.00    -0.254 N 
ATOM     13  C   UNL A   1      32.008  24.670  24.761  1.00  0.00     0.116 A 
ATOM     14  C   UNL A   1      33.491  25.952  25.973  1.00  0.00     0.039 A 
ATOM     15  C   UNL A   1      31.551  23.680  23.827  1.00  0.00     0.274 A 
ATOM     16  S   UNL A   1      30.960  25.702  25.606  1.00  0.00    -0.136 S 
ATOM     17  C   UNL A   1      32.279  26.476  26.376  1.00  0.00     0.068 A 
ATOM     18  O   UNL A   1      30.410  23.642  23.384  1.00  0.00    -0.268 OA
BRANCH  12  19
ATOM     19  C   UNL A   1      32.153  21.650  22.611  1.00  0.00     0.168 C 
BRANCH  19  20
ATOM     20  C   UNL A   1      32.303  20.322  23.321  1.00  0.00    -0.010 A 
ATOM     21  C   UNL A   1      32.422  19.121  22.612  1.00  0.00     0.009 A 
ATOM     22  C   UNL A   1      32.297  20.226  24.713  1.00  0.00     0.116 A 
ATOM     23  C   UNL A   1      32.530  17.914  23.302  1.00  0.00     0.020 A 
ATOM     24  N   UNL A   1      32.410  19.070  25.411  1.00  0.00    -0.264 NA
ATOM     25  C   UNL A   1      32.528  17.940  24.685  1.00  0.00     0.111 A 
ENDBRANCH  19  20
ENDBRANCH  12  19
ENDBRANCH   7   8
ENDBRANCH   5   7
ENDBRANCH   2   3
ENDBRANCH   1   2
BRANCH   1  26
ATOM     26  C   UNL A   1      39.393  19.926  26.277  1.00  0.00     0.118 C 
BRANCH  26  27
ATOM     27  N   UNL A   1      40.569  19.139  25.889  1.00  0.00    -0.352 N 
ATOM     28  C   UNL A   1      41.875  19.576  25.770  1.00  0.00     0.251 C 
ATOM     29  H   UNL A   1      40.408  18.189  25.689  1.00  0.00     0.163 HD
ATOM     30  O   UNL A   1      42.701  18.924  25.140  1.00  0.00    -0.269 OA
BRANCH  28  31
ATOM     31  C   UNL A   1      42.263  20.841  26.422  1.00  0.00     0.039 A 
ATOM     32  C   UNL A   1      42.818  21.900  25.696  1.00  0.00     0.014 A 
ATOM     33  C   UNL A   1      42.023  20.965  27.788  1.00  0.00     0.014 A 
ATOM     34  C   UNL A   1      43.049  23.112  26.343  1.00  0.00     0.010 A 
ATOM     35  C   UNL A   1      42.096  22.197  28.381  1.00  0.00     0.010 A 
ATOM     36  C   UNL A   1      42.661  23.260  27.684  1.00  0.00    -0.014 A 
BRANCH  36  37
ATOM     37  C   UNL A   1      42.689  24.562  28.345  1.00  0.00     0.031 A 
ATOM     38  C   UNL A   1      41.477  25.387  28.079  1.00  0.00     0.074 A 
ATOM     39  C   UNL A   1      43.600  24.861  29.302  1.00  0.00     0.049 A 
ATOM     40  N   UNL A   1      41.409  26.508  27.441  1.00  0.00    -0.248 NA
ATOM     41  C   UNL A   1      40.157  24.822  28.416  1.00  0.00     0.031 C 
ATOM     42  C   UNL A   1      44.634  23.962  29.846  1.00  0.00     0.029 A 
ATOM     43  N   UNL A   1      43.707  25.952  30.115  1.00  0.00    -0.354 N 
ATOM     44  C   UNL A   1      40.080  26.917  27.555  1.00  0.00     0.074 A 
ATOM     45  C   UNL A   1      39.329  25.754  27.937  1.00  0.00     0.031 C 
ATOM     46  C   UNL A   1      45.050  24.421  31.047  1.00  0.00     0.029 A 
ATOM     47  C   UNL A   1      44.465  25.729  31.266  1.00  0.00     0.049 A 
ATOM     48  H   UNL A   1      43.287  26.818  29.908  1.00  0.00     0.167 HD
ATOM     49  C   UNL A   1      39.769  28.239  27.652  1.00  0.00     0.034 A 
ATOM     50  C   UNL A   1      44.584  26.549  32.338  1.00  0.00     0.034 A 
ATOM     51  C   UNL A   1      40.912  29.054  27.343  1.00  0.00     0.049 A 
ATOM     52  C   UNL A   1      44.218  27.903  31.884  1.00  0.00     0.074 A 
ATOM     53  C   UNL A   1      41.605  29.433  26.217  1.00  0.00     0.029 A 
ATOM     54  N   UNL A   1      41.724  29.267  28.426  1.00  0.00    -0.354 N 
ATOM     55  N   UNL A   1      44.921  28.578  31.020  1.00  0.00    -0.248 NA
ATOM     56  C   UNL A   1      42.874  28.407  32.141  1.00  0.00     0.031 C 
ATOM     57  C   UNL A   1      42.931  29.724  26.652  1.00  0.00     0.029 A 
ATOM     58  C   UNL A   1      42.998  29.567  28.036  1.00  0.00     0.049 A 
ATOM     59  H   UNL A   1      41.427  29.212  29.363  1.00  0.00     0.167 HD
ATOM     60  C   UNL A   1      43.968  29.269  30.300  1.00  0.00     0.074 A 
ATOM     61  C   UNL A   1      42.781  29.292  31.146  1.00  0.00     0.031 C 
ATOM     62  C   UNL A   1      44.107  29.448  28.957  1.00  0.00     0.034 A 
BRANCH  49  63
ATOM     63  C   UNL A   1      38.629  28.825  28.465  1.00  0.00     0.023 A 
ATOM     64  C   UNL A   1      37.677  29.609  27.774  1.00  0.00     0.012 A 
ATOM     65  C   UNL A   1      38.596  28.888  29.877  1.00  0.00     0.148 A 
ATOM     66  C   UNL A   1      36.759  30.425  28.449  1.00  0.00     0.002 A 
ATOM     67  C   UNL A   1      37.630  29.634  30.546  1.00  0.00     0.091 A 
ATOM     68  F   UNL A   1      39.583  28.343  30.592  1.00  0.00    -0.205 F 
ATOM     69  C   UNL A   1      36.727  30.427  29.837  1.00  0.00     0.022 A 
BRANCH  67  70
ATOM     70  S   UNL A   1      37.511  29.634  32.341  1.00  0.00     0.127 S 
ATOM     71  O   UNL A   1      38.724  30.352  32.718  1.00  0.00    -0.237 OA
ATOM     72  O   UNL A   1      36.263  30.367  32.553  1.00  0.00    -0.237 OA
ATOM     73  O   UNL A   1      37.452  28.230  32.728  1.00  0.00    -0.744 OA
ENDBRANCH  67  70
ENDBRANCH  49  63
BRANCH  50  74
ATOM     74  C   UNL A   1      44.823  26.280  33.774  1.00  0.00     0.023 A 
ATOM     75  C   UNL A   1      46.105  26.517  34.316  1.00  0.00     0.012 A 
ATOM     76  C   UNL A   1      43.738  26.140  34.665  1.00  0.00     0.148 A 
ATOM     77  C   UNL A   1      46.290  26.688  35.692  1.00  0.00     0.002 A 
ATOM     78  C   UNL A   1      43.925  26.324  36.032  1.00  0.00     0.091 A 
ATOM     79  F   UNL A   1      42.518  25.922  34.158  1.00  0.00    -0.205 F 
ATOM     80  C   UNL A   1      45.196  26.614  36.548  1.00  0.00     0.022 A 
BRANCH  78  81
ATOM     81  S   UNL A   1      42.557  26.309  37.199  1.00  0.00     0.127 S 
ATOM     82  O   UNL A   1      43.254  26.405  38.482  1.00  0.00    -0.237 OA
ATOM     83  O   UNL A   1      41.820  27.509  36.811  1.00  0.00    -0.237 OA
ATOM     84  O   UNL A   1      41.864  25.045  36.984  1.00  0.00    -0.744 OA
ENDBRANCH  78  81
ENDBRANCH  50  74
BRANCH  62  85
ATOM     85  C   UNL A   1      45.486  29.345  28.376  1.00  0.00     0.023 A 
ATOM     86  C   UNL A   1      46.461  30.353  28.506  1.00  0.00     0.012 A 
ATOM     87  C   UNL A   1      45.838  28.123  27.783  1.00  0.00     0.148 A 
ATOM     88  C   UNL A   1      47.764  30.141  28.046  1.00  0.00     0.002 A 
ATOM     89  C   UNL A   1      47.143  27.896  27.378  1.00  0.00     0.091 A 
ATOM     90  F   UNL A   1      44.885  27.188  27.653  1.00  0.00    -0.205 F 
ATOM     91  C   UNL A   1      48.110  28.906  27.497  1.00  0.00     0.022 A 
BRANCH  89  92
ATOM     92  S   UNL A   1      47.665  26.283  26.797  1.00  0.00     0.127 S 
ATOM     93  O   UNL A   1      49.102  26.474  26.616  1.00  0.00    -0.237 OA
ATOM     94  O   UNL A   1      47.298  25.415  27.917  1.00  0.00    -0.237 OA
ATOM     95  O   UNL A   1      46.906  26.031  25.578  1.00  0.00    -0.744 OA
ENDBRANCH  89  92
ENDBRANCH  62  85
ENDBRANCH  36  37
ENDBRANCH  28  31
ENDBRANCH  26  27
ENDBRANCH   1  26
TORSDOF 16
ENDMDL
MODEL 2
REMARK VINA RESULT:     -12.0      1.567      3.261
REMARK SMILES O=C(Cn1c(=O)n(Cc2cccnc2)c(=O)c2sccc21)NCCCNC(=O)c1ccc(-c2c3nc(c(-c4cccc(S(=O)(=O)[O-])c4F)c4ccc([nH]4)c(-c4cccc(S(=O)(=O)[O-])c4F)c4nc(c(-c5cccc(S(=O)(=O)[O-])c5F)c5ccc2[nH]5)C=C4)C=C3)cc1
REMARK SMILES IDX 24 1 23 2 22 3 1 4 2 5 3 7 4 8 5 9 21 10 6 11 7 12 17 13
REMARK SMILES IDX 20 14 15 15 18 16 19 17 16 18 8 19 9 20 10 21 14 22 11 23
REMARK SMILES IDX 13 24 12 25 25 26 26 27 27 28 28 30 29 31 30 32 91 33 31 34
REMARK SMILES IDX 90 35 32 36 33 37 34 38 84 39 35 40 89 41 83 42 85 43 36 44
REMARK SMILES IDX 88 45 82 46 81 47 37 49 69 50 49 51 68 52 50 53 53 54 67 55
REMARK SMILES IDX 86 56 51 57 52 58 66 60 87 61 54 62 38 63 39 64 47 65 40 66
REMARK SMILES IDX 42 67 48 68 41 69 43 70 44 71 45 72 46 73 70 74 71 75 79 76
REMARK SMILES IDX 72 77 74 78 80 79 73 80 75 81 76 82 77 83 78 84 55 85 56 86
REMARK SMILES IDX 64 87 57 88 59 89 65 90 58 91 60 92 61 93 62 94 63 95
REMARK H PARENT 22 6 26 29 85 48 53 59
REMARK Flexibility Score: inf
ROOT
ATOM      1  C   UNL A   1      37.101  20.525  25.098  1.00  0.00     0.042 C 
ENDROOT
BRANCH   1   2
ATOM      2  C   UNL A   1      36.290  21.469  25.989  1.00  0.00     0.117 C 
BRANCH   2   3
ATOM      3  N   UNL A   1      34.890  21.553  25.611  1.00  0.00    -0.354 N 
ATOM      4  O   UNL A   1      34.083  22.136  27.684  1.00  0.00    -0.273 OA
ATOM      5  C   UNL A   1      33.887  21.905  26.493  1.00  0.00     0.240 C 
ATOM      6  H   UNL A   1      34.644  21.349  24.680  1.00  0.00     0.163 HD
BRANCH   5   7
ATOM      7  C   UNL A   1      32.496  22.018  25.858  1.00  0.00     0.227 C 
BRANCH   7   8
ATOM      8  N   UNL A   1      32.306  23.372  25.326  1.00  0.00    -0.283 N 
ATOM      9  C   UNL A   1      31.748  24.342  26.175  1.00  0.00     0.332 A 
ATOM     10  C   UNL A   1      32.579  23.685  23.993  1.00  0.00     0.070 A 
ATOM     11  O   UNL A   1      31.294  24.018  27.278  1.00  0.00    -0.247 OA
ATOM     12  N   UNL A   1      31.625  25.642  25.677  1.00  0.00    -0.254 N 
ATOM     13  C   UNL A   1      32.247  24.919  23.509  1.00  0.00     0.116 A 
ATOM     14  C   UNL A   1      33.138  22.862  22.971  1.00  0.00     0.039 A 
ATOM     15  C   UNL A   1      31.631  25.940  24.310  1.00  0.00     0.274 A 
ATOM     16  S   UNL A   1      32.610  25.122  21.865  1.00  0.00    -0.136 S 
ATOM     17  C   UNL A   1      33.228  23.527  21.765  1.00  0.00     0.068 A 
ATOM     18  O   UNL A   1      31.109  26.944  23.842  1.00  0.00    -0.268 OA
BRANCH  12  19
ATOM     19  C   UNL A   1      31.187  26.700  26.587  1.00  0.00     0.168 C 
BRANCH  19  20
ATOM     20  C   UNL A   1      32.196  27.814  26.761  1.00  0.00    -0.010 A 
ATOM     21  C   UNL A   1      31.797  29.124  27.054  1.00  0.00     0.009 A 
ATOM     22  C   UNL A   1      33.566  27.599  26.607  1.00  0.00     0.116 A 
ATOM     23  C   UNL A   1      32.754  30.130  27.180  1.00  0.00     0.020 A 
ATOM     24  N   UNL A   1      34.519  28.554  26.732  1.00  0.00    -0.264 NA
ATOM     25  C   UNL A   1      34.088  29.799  27.021  1.00  0.00     0.111 A 
ENDBRANCH  19  20
ENDBRANCH  12  19
ENDBRANCH   7   8
ENDBRANCH   5   7
ENDBRANCH   2   3
ENDBRANCH   1   2
BRANCH   1  26
ATOM     26  C   UNL A   1      38.597  20.796  25.149  1.00  0.00     0.118 C 
BRANCH  26  27
ATOM     27  N   UNL A   1      39.401  19.601  25.422  1.00  0.00    -0.352 N 
ATOM     28  C   UNL A   1      40.706  19.546  25.877  1.00  0.00     0.251 C 
ATOM     29  H   UNL A   1      38.960  18.736  25.262  1.00  0.00     0.163 HD
ATOM     30  O   UNL A   1      41.369  18.521  25.763  1.00  0.00    -0.269 OA
BRANCH  28  31
ATOM     31  C   UNL A   1      41.288  20.745  26.510  1.00  0.00     0.039 A 
ATOM     32  C   UNL A   1      42.013  21.685  25.771  1.00  0.00     0.014 A 
ATOM     33  C   UNL A   1      41.060  20.932  27.871  1.00  0.00     0.014 A 
ATOM     34  C   UNL A   1      42.431  22.857  26.400  1.00  0.00     0.010 A 
ATOM     35  C   UNL A   1      41.327  22.147  28.443  1.00  0.00     0.010 A 
ATOM     36  C   UNL A   1      42.062  23.091  27.734  1.00  0.00    -0.014 A 
BRANCH  36  37
ATOM     37  C   UNL A   1      42.295  24.385  28.371  1.00  0.00     0.031 A 
ATOM     38  C   UNL A   1      41.208  25.372  28.121  1.00  0.00     0.074 A 
ATOM     39  C   UNL A   1      43.264  24.561  29.301  1.00  0.00     0.049 A 
ATOM     40  N   UNL A   1      41.286  26.482  27.466  1.00  0.00    -0.248 NA
ATOM     41  C   UNL A   1      39.829  25.009  28.499  1.00  0.00     0.031 C 
ATOM     42  C   UNL A   1      44.171  23.530  29.835  1.00  0.00     0.029 A 
ATOM     43  N   UNL A   1      43.548  25.636  30.092  1.00  0.00    -0.354 N 
ATOM     44  C   UNL A   1      40.033  27.081  27.605  1.00  0.00     0.074 A 
ATOM     45  C   UNL A   1      39.132  26.045  28.024  1.00  0.00     0.031 C 
ATOM     46  C   UNL A   1      44.681  23.940  31.017  1.00  0.00     0.029 A 
ATOM     47  C   UNL A   1      44.297  25.321  31.228  1.00  0.00     0.049 A 
ATOM     48  H   UNL A   1      43.253  26.551  29.880  1.00  0.00     0.167 HD
ATOM     49  C   UNL A   1      39.918  28.436  27.686  1.00  0.00     0.034 A 
ATOM     50  C   UNL A   1      44.561  26.129  32.283  1.00  0.00     0.034 A 
ATOM     51  C   UNL A   1      41.158  29.072  27.337  1.00  0.00     0.049 A 
ATOM     52  C   UNL A   1      44.382  27.516  31.815  1.00  0.00     0.074 A 
ATOM     53  C   UNL A   1      41.869  29.332  26.188  1.00  0.00     0.029 A 
ATOM     54  N   UNL A   1      42.021  29.180  28.396  1.00  0.00    -0.354 N 
ATOM     55  N   UNL A   1      45.152  28.070  30.923  1.00  0.00    -0.248 NA
ATOM     56  C   UNL A   1      43.133  28.213  32.096  1.00  0.00     0.031 C 
ATOM     57  C   UNL A   1      43.234  29.434  26.586  1.00  0.00     0.029 A 
ATOM     58  C   UNL A   1      43.314  29.287  27.969  1.00  0.00     0.049 A 
ATOM     59  H   UNL A   1      41.744  29.181  29.340  1.00  0.00     0.167 HD
ATOM     60  C   UNL A   1      44.290  28.883  30.215  1.00  0.00     0.074 A 
ATOM     61  C   UNL A   1      43.141  29.089  31.089  1.00  0.00     0.031 C 
ATOM     62  C   UNL A   1      44.418  29.021  28.866  1.00  0.00     0.034 A 
BRANCH  49  63
ATOM     63  C   UNL A   1      38.897  29.191  28.517  1.00  0.00     0.023 A 
ATOM     64  C   UNL A   1      38.080  30.128  27.843  1.00  0.00     0.012 A 
ATOM     65  C   UNL A   1      38.886  29.242  29.930  1.00  0.00     0.148 A 
ATOM     66  C   UNL A   1      37.314  31.075  28.536  1.00  0.00     0.002 A 
ATOM     67  C   UNL A   1      38.061  30.129  30.616  1.00  0.00     0.091 A 
ATOM     68  F   UNL A   1      39.777  28.535  30.629  1.00  0.00    -0.205 F 
ATOM     69  C   UNL A   1      37.294  31.067  29.924  1.00  0.00     0.022 A 
BRANCH  67  70
ATOM     70  S   UNL A   1      37.958  30.128  32.411  1.00  0.00     0.127 S 
ATOM     71  O   UNL A   1      37.418  31.458  32.677  1.00  0.00    -0.237 OA
ATOM     72  O   UNL A   1      37.032  29.022  32.653  1.00  0.00    -0.237 OA
ATOM     73  O   UNL A   1      39.316  29.883  32.881  1.00  0.00    -0.744 OA
ENDBRANCH  67  70
ENDBRANCH  49  63
BRANCH  50  74
ATOM     74  C   UNL A   1      44.797  25.848  33.718  1.00  0.00     0.023 A 
ATOM     75  C   UNL A   1      46.117  25.877  34.218  1.00  0.00     0.012 A 
ATOM     76  C   UNL A   1      43.732  25.905  34.640  1.00  0.00     0.148 A 
ATOM     77  C   UNL A   1      46.370  26.036  35.584  1.00  0.00     0.002 A 
ATOM     78  C   UNL A   1      43.989  26.077  35.998  1.00  0.00     0.091 A 
ATOM     79  F   UNL A   1      42.477  25.886  34.172  1.00  0.00    -0.205 F 
ATOM     80  C   UNL A   1      45.306  26.160  36.472  1.00  0.00     0.022 A 
BRANCH  78  81
ATOM     81  S   UNL A   1      42.674  26.310  37.203  1.00  0.00     0.127 S 
ATOM     82  O   UNL A   1      41.896  25.083  37.041  1.00  0.00    -0.237 OA
ATOM     83  O   UNL A   1      43.426  26.400  38.452  1.00  0.00    -0.237 OA
ATOM     84  O   UNL A   1      41.975  27.523  36.799  1.00  0.00    -0.744 OA
ENDBRANCH  78  81
ENDBRANCH  50  74
BRANCH  62  85
ATOM     85  C   UNL A   1      45.752  28.713  28.254  1.00  0.00     0.023 A 
ATOM     86  C   UNL A   1      46.863  29.575  28.335  1.00  0.00     0.012 A 
ATOM     87  C   UNL A   1      45.911  27.441  27.682  1.00  0.00     0.148 A 
ATOM     88  C   UNL A   1      48.109  29.171  27.847  1.00  0.00     0.002 A 
ATOM     89  C   UNL A   1      47.160  27.023  27.250  1.00  0.00     0.091 A 
ATOM     90  F   UNL A   1      44.833  26.648  27.598  1.00  0.00    -0.205 F 
ATOM     91  C   UNL A   1      48.262  27.889  27.320  1.00  0.00     0.022 A 
BRANCH  89  92
ATOM     92  S   UNL A   1      47.433  25.341  26.696  1.00  0.00     0.127 S 
ATOM     93  O   UNL A   1      48.870  25.336  26.432  1.00  0.00    -0.237 OA
ATOM     94  O   UNL A   1      47.020  24.559  27.862  1.00  0.00    -0.237 OA
ATOM     95  O   UNL A   1      46.578  25.160  25.529  1.00  0.00    -0.744 OA
ENDBRANCH  89  92
ENDBRANCH  62  85
ENDBRANCH  36  37
ENDBRANCH  28  31
ENDBRANCH  26  27
ENDBRANCH   1  26
TORSDOF 16
ENDMDL
MODEL 3
REMARK VINA RESULT:     -11.9      1.298      2.877
REMARK SMILES O=C(Cn1c(=O)n(Cc2cccnc2)c(=O)c2sccc21)NCCCNC(=O)c1ccc(-c2c3nc(c(-c4cccc(S(=O)(=O)[O-])c4F)c4ccc([nH]4)c(-c4cccc(S(=O)(=O)[O-])c4F)c4nc(c(-c5cccc(S(=O)(=O)[O-])c5F)c5ccc2[nH]5)C=C4)C=C3)cc1
REMARK SMILES IDX 24 1 23 2 22 3 1 4 2 5 3 7 4 8 5 9 21 10 6 11 7 12 17 13
REMARK SMILES IDX 20 14 15 15 18 16 19 17 16 18 8 19 9 20 10 21 14 22 11 23
REMARK SMILES IDX 13 24 12 25 25 26 26 27 27 28 28 30 29 31 30 32 91 33 31 34
REMARK SMILES IDX 90 35 32 36 33 37 34 38 84 39 35 40 89 41 83 42 85 43 36 44
REMARK SMILES IDX 88 45 82 46 81 47 37 49 69 50 49 51 68 52 50 53 53 54 67 55
REMARK SMILES IDX 86 56 51 57 52 58 66 60 87 61 54 62 38 63 39 64 47 65 40 66
REMARK SMILES IDX 42 67 48 68 41 69 43 70 44 71 45 72 46 73 70 74 71 75 79 76
REMARK SMILES IDX 72 77 74 78 80 79 73 80 75 81 76 82 77 83 78 84 55 85 56 86
REMARK SMILES IDX 64 87 57 88 59 89 65 90 58 91 60 92 61 93 62 94 63 95
REMARK H PARENT 22 6 26 29 85 48 53 59
REMARK Flexibility Score: inf
ROOT
ATOM      1  C   UNL A   1      38.867  20.568  25.236  1.00  0.00     0.042 C 
ENDROOT
BRANCH   1   2
ATOM      2  C   UNL A   1      38.695  22.055  25.551  1.00  0.00     0.117 C 
BRANCH   2   3
ATOM      3  N   UNL A   1      37.615  22.679  24.806  1.00  0.00    -0.354 N 
ATOM      4  O   UNL A   1      36.666  23.790  26.582  1.00  0.00    -0.273 OA
ATOM      5  C   UNL A   1      36.687  23.524  25.382  1.00  0.00     0.240 C 
ATOM      6  H   UNL A   1      37.542  22.489  23.843  1.00  0.00     0.163 HD
BRANCH   5   7
ATOM      7  C   UNL A   1      35.691  24.140  24.392  1.00  0.00     0.227 C 
BRANCH   7   8
ATOM      8  N   UNL A   1      34.331  24.041  24.934  1.00  0.00    -0.283 N 
ATOM      9  C   UNL A   1      33.768  25.189  25.515  1.00  0.00     0.332 A 
ATOM     10  C   UNL A   1      33.636  22.831  24.963  1.00  0.00     0.070 A 
ATOM     11  O   UNL A   1      34.459  26.198  25.697  1.00  0.00    -0.247 OA
ATOM     12  N   UNL A   1      32.451  25.100  25.975  1.00  0.00    -0.254 N 
ATOM     13  C   UNL A   1      32.435  22.760  25.610  1.00  0.00     0.116 A 
ATOM     14  C   UNL A   1      34.017  21.560  24.441  1.00  0.00     0.039 A 
ATOM     15  C   UNL A   1      31.824  23.883  26.265  1.00  0.00     0.274 A 
ATOM     16  S   UNL A   1      31.742  21.212  25.586  1.00  0.00    -0.136 S 
ATOM     17  C   UNL A   1      33.066  20.591  24.695  1.00  0.00     0.068 A 
ATOM     18  O   UNL A   1      30.888  23.784  27.048  1.00  0.00    -0.268 OA
BRANCH  12  19
ATOM     19  C   UNL A   1      31.793  26.318  26.446  1.00  0.00     0.168 C 
BRANCH  19  20
ATOM     20  C   UNL A   1      31.146  27.130  25.345  1.00  0.00    -0.010 A 
ATOM     21  C   UNL A   1      31.483  28.471  25.129  1.00  0.00     0.009 A 
ATOM     22  C   UNL A   1      30.161  26.592  24.515  1.00  0.00     0.116 A 
ATOM     23  C   UNL A   1      30.844  29.195  24.122  1.00  0.00     0.020 A 
ATOM     24  N   UNL A   1      29.531  27.266  23.523  1.00  0.00    -0.264 NA
ATOM     25  C   UNL A   1      29.893  28.554  23.349  1.00  0.00     0.111 A 
ENDBRANCH  19  20
ENDBRANCH  12  19
ENDBRANCH   7   8
ENDBRANCH   5   7
ENDBRANCH   2   3
ENDBRANCH   1   2
BRANCH   1  26
ATOM     26  C   UNL A   1      39.518  19.790  26.371  1.00  0.00     0.118 C 
BRANCH  26  27
ATOM     27  N   UNL A   1      40.710  19.042  25.960  1.00  0.00    -0.352 N 
ATOM     28  C   UNL A   1      41.995  19.525  25.792  1.00  0.00     0.251 C 
ATOM     29  H   UNL A   1      40.580  18.082  25.782  1.00  0.00     0.163 HD
ATOM     30  O   UNL A   1      42.825  18.893  25.148  1.00  0.00    -0.269 OA
BRANCH  28  31
ATOM     31  C   UNL A   1      42.353  20.817  26.408  1.00  0.00     0.039 A 
ATOM     32  C   UNL A   1      42.757  21.910  25.636  1.00  0.00     0.014 A 
ATOM     33  C   UNL A   1      42.241  20.926  27.792  1.00  0.00     0.014 A 
ATOM     34  C   UNL A   1      42.964  23.138  26.264  1.00  0.00     0.010 A 
ATOM     35  C   UNL A   1      42.284  22.161  28.381  1.00  0.00     0.010 A 
ATOM     36  C   UNL A   1      42.700  23.260  27.637  1.00  0.00    -0.014 A 
BRANCH  36  37
ATOM     37  C   UNL A   1      42.700  24.563  28.298  1.00  0.00     0.031 A 
ATOM     38  C   UNL A   1      41.457  25.348  28.057  1.00  0.00     0.074 A 
ATOM     39  C   UNL A   1      43.620  24.890  29.237  1.00  0.00     0.049 A 
ATOM     40  N   UNL A   1      41.342  26.467  27.421  1.00  0.00    -0.248 NA
ATOM     41  C   UNL A   1      40.162  24.742  28.419  1.00  0.00     0.031 C 
ATOM     42  C   UNL A   1      44.692  24.025  29.760  1.00  0.00     0.029 A 
ATOM     43  N   UNL A   1      43.708  25.985  30.048  1.00  0.00    -0.354 N 
ATOM     44  C   UNL A   1      40.003  26.834  27.561  1.00  0.00     0.074 A 
ATOM     45  C   UNL A   1      39.296  25.648  27.957  1.00  0.00     0.031 C 
ATOM     46  C   UNL A   1      45.117  24.497  30.953  1.00  0.00     0.029 A 
ATOM     47  C   UNL A   1      44.495  25.785  31.184  1.00  0.00     0.049 A 
ATOM     48  H   UNL A   1      43.257  26.837  29.850  1.00  0.00     0.167 HD
ATOM     49  C   UNL A   1      39.651  28.146  27.665  1.00  0.00     0.034 A 
ATOM     50  C   UNL A   1      44.610  26.608  32.254  1.00  0.00     0.034 A 
ATOM     51  C   UNL A   1      40.762  28.996  27.335  1.00  0.00     0.049 A 
ATOM     52  C   UNL A   1      44.191  27.951  31.808  1.00  0.00     0.074 A 
ATOM     53  C   UNL A   1      41.421  29.397  26.195  1.00  0.00     0.029 A 
ATOM     54  N   UNL A   1      41.589  29.235  28.401  1.00  0.00    -0.354 N 
ATOM     55  N   UNL A   1      44.856  28.647  30.931  1.00  0.00    -0.248 NA
ATOM     56  C   UNL A   1      42.838  28.412  32.092  1.00  0.00     0.031 C 
ATOM     57  C   UNL A   1      42.746  29.730  26.604  1.00  0.00     0.029 A 
ATOM     58  C   UNL A   1      42.844  29.575  27.986  1.00  0.00     0.049 A 
ATOM     59  H   UNL A   1      41.312  29.170  29.343  1.00  0.00     0.167 HD
ATOM     60  C   UNL A   1      43.867  29.308  30.231  1.00  0.00     0.074 A 
ATOM     61  C   UNL A   1      42.697  29.294  31.100  1.00  0.00     0.031 C 
ATOM     62  C   UNL A   1      43.974  29.491  28.885  1.00  0.00     0.034 A 
BRANCH  49  63
ATOM     63  C   UNL A   1      38.510  28.695  28.501  1.00  0.00     0.023 A 
ATOM     64  C   UNL A   1      37.484  29.390  27.819  1.00  0.00     0.012 A 
ATOM     65  C   UNL A   1      38.529  28.816  29.909  1.00  0.00     0.148 A 
ATOM     66  C   UNL A   1      36.545  30.176  28.498  1.00  0.00     0.002 A 
ATOM     67  C   UNL A   1      37.545  29.530  30.587  1.00  0.00     0.091 A 
ATOM     68  F   UNL A   1      39.576  28.364  30.603  1.00  0.00    -0.205 F 
ATOM     69  C   UNL A   1      36.566  30.235  29.886  1.00  0.00     0.022 A 
BRANCH  67  70
ATOM     70  S   UNL A   1      37.496  29.599  32.384  1.00  0.00     0.127 S 
ATOM     71  O   UNL A   1      38.728  30.322  32.686  1.00  0.00    -0.237 OA
ATOM     72  O   UNL A   1      36.263  30.351  32.617  1.00  0.00    -0.237 OA
ATOM     73  O   UNL A   1      37.444  28.212  32.827  1.00  0.00    -0.744 OA
ENDBRANCH  67  70
ENDBRANCH  49  63
BRANCH  50  74
ATOM     74  C   UNL A   1      44.885  26.347  33.685  1.00  0.00     0.023 A 
ATOM     75  C   UNL A   1      46.172  26.619  34.200  1.00  0.00     0.012 A 
ATOM     76  C   UNL A   1      43.823  26.179  34.598  1.00  0.00     0.148 A 
ATOM     77  C   UNL A   1      46.380  26.795  35.572  1.00  0.00     0.002 A 
ATOM     78  C   UNL A   1      44.033  26.369  35.961  1.00  0.00     0.091 A 
ATOM     79  F   UNL A   1      42.598  25.928  34.116  1.00  0.00    -0.205 F 
ATOM     80  C   UNL A   1      45.306  26.693  36.451  1.00  0.00     0.022 A 
BRANCH  78  81
ATOM     81  S   UNL A   1      42.690  26.319  37.156  1.00  0.00     0.127 S 
ATOM     82  O   UNL A   1      41.899  27.487  36.770  1.00  0.00    -0.237 OA
ATOM     83  O   UNL A   1      42.069  25.032  36.856  1.00  0.00    -0.237 OA
ATOM     84  O   UNL A   1      43.320  26.425  38.466  1.00  0.00    -0.744 OA
ENDBRANCH  78  81
ENDBRANCH  50  74
BRANCH  62  85
ATOM     85  C   UNL A   1      45.344  29.432  28.277  1.00  0.00     0.023 A 
ATOM     86  C   UNL A   1      46.298  30.460  28.410  1.00  0.00     0.012 A 
ATOM     87  C   UNL A   1      45.713  28.230  27.653  1.00  0.00     0.148 A 
ATOM     88  C   UNL A   1      47.597  30.287  27.921  1.00  0.00     0.002 A 
ATOM     89  C   UNL A   1      47.015  28.042  27.219  1.00  0.00     0.091 A 
ATOM     90  F   UNL A   1      44.779  27.276  27.521  1.00  0.00    -0.205 F 
ATOM     91  C   UNL A   1      47.961  29.072  27.341  1.00  0.00     0.022 A 
BRANCH  89  92
ATOM     92  S   UNL A   1      47.563  26.453  26.597  1.00  0.00     0.127 S 
ATOM     93  O   UNL A   1      46.749  26.300  25.393  1.00  0.00    -0.237 OA
ATOM     94  O   UNL A   1      48.986  26.689  26.350  1.00  0.00    -0.237 OA
ATOM     95  O   UNL A   1      47.297  25.493  27.662  1.00  0.00    -0.744 OA
ENDBRANCH  89  92
ENDBRANCH  62  85
ENDBRANCH  36  37
ENDBRANCH  28  31
ENDBRANCH  26  27
ENDBRANCH   1  26
TORSDOF 16
ENDMDL
