MODEL 1
REMARK VINA RESULT:     -13.8      0.000      0.000
REMARK SMILES Cc1cccc(-n2ncc(C(=O)Nc3cccc(C(=O)NCCCNC(=O)c4ccc(-c5c6nc(c(-c7cccc(S(=O)(=O)[O-])c7F)c7ccc([nH]7)c(-c7cccc(S(=O)(=O)[O-])c7F)c7nc(c(-c8cccc(S(=O)(=O)[O-])c8F)c8ccc5[nH]8)C=C7)C=C6)cc4)c3C)c2C)c1
REMARK SMILES IDX 23 1 22 2 21 3 19 4 20 5 18 7 14 8 15 9 91 10 16 11 92 12
REMARK SMILES IDX 17 13 13 14 11 15 12 16 10 18 7 19 8 20 93 21 9 22 94 23
REMARK SMILES IDX 6 24 1 25 2 26 3 27 95 28 4 29 5 30 24 31 25 32 26 33 27 35
REMARK SMILES IDX 28 36 29 37 90 38 30 39 89 40 31 41 32 42 33 43 83 44 34 45
REMARK SMILES IDX 88 46 82 47 84 48 35 49 87 50 81 51 80 52 36 54 68 55 48 56
REMARK SMILES IDX 67 57 49 58 52 59 66 60 85 61 50 62 51 63 65 65 86 66 53 67
REMARK SMILES IDX 37 68 38 69 46 70 39 71 41 72 47 73 40 74 42 75 43 76 44 77
REMARK SMILES IDX 45 78 69 79 70 80 78 81 71 82 73 83 79 84 72 85 74 86 75 87
REMARK SMILES IDX 76 88 77 89 54 90 55 91 63 92 56 93 58 94 64 95 57 96 59 97
REMARK SMILES IDX 60 98 61 99 62 100
REMARK H PARENT 21 6 13 17 25 34 84 53 52 64
REMARK Flexibility Score: inf
ROOT
ATOM      1  C   UNL A   1      32.438  31.029  27.195  1.00  0.00     0.042 C 
ENDROOT
BRANCH   1   2
ATOM      2  C   UNL A   1      31.876  30.644  25.829  1.00  0.00     0.118 C 
BRANCH   2   3
ATOM      3  N   UNL A   1      32.756  29.721  25.131  1.00  0.00    -0.352 N 
ATOM      4  C   UNL A   1      32.599  28.475  24.569  1.00  0.00     0.251 C 
ATOM      5  O   UNL A   1      33.594  28.052  23.982  1.00  0.00    -0.269 OA
ATOM      6  H   UNL A   1      33.674  30.066  25.042  1.00  0.00     0.163 HD
BRANCH   4   7
ATOM      7  C   UNL A   1      31.323  27.658  24.595  1.00  0.00     0.044 A 
ATOM      8  C   UNL A   1      29.894  25.960  25.605  1.00  0.00     0.045 A 
ATOM      9  C   UNL A   1      29.056  25.963  24.486  1.00  0.00     0.026 A 
ATOM     10  C   UNL A   1      30.957  26.888  25.737  1.00  0.00    -0.015 A 
ATOM     11  C   UNL A   1      29.325  26.811  23.435  1.00  0.00     0.003 A 
ATOM     12  C   UNL A   1      31.734  26.923  27.033  1.00  0.00     0.047 C 
ATOM     13  C   UNL A   1      30.462  27.613  23.485  1.00  0.00     0.014 A 
BRANCH   8  14
ATOM     14  N   UNL A   1      29.698  24.965  26.575  1.00  0.00    -0.322 N 
ATOM     15  C   UNL A   1      30.184  23.673  26.579  1.00  0.00     0.259 C 
ATOM     16  O   UNL A   1      29.655  22.860  27.338  1.00  0.00    -0.269 OA
ATOM     17  H   UNL A   1      29.146  25.220  27.349  1.00  0.00     0.170 HD
BRANCH  15  18
ATOM     18  C   UNL A   1      31.369  23.329  25.785  1.00  0.00     0.081 A 
ATOM     19  N   UNL A   1      33.439  22.731  25.189  1.00  0.00    -0.237 N 
ATOM     20  N   UNL A   1      32.840  23.113  24.038  1.00  0.00    -0.175 NA
ATOM     21  C   UNL A   1      32.618  22.967  26.286  1.00  0.00     0.054 A 
ATOM     22  C   UNL A   1      31.601  23.437  24.395  1.00  0.00     0.149 A 
ATOM     23  C   UNL A   1      33.077  22.975  27.703  1.00  0.00     0.068 C 
BRANCH  19  24
ATOM     24  C   UNL A   1      34.769  22.231  25.142  1.00  0.00     0.065 A 
ATOM     25  C   UNL A   1      38.281  23.592  25.711  1.00  0.00     0.044 C 
ATOM     26  C   UNL A   1      37.151  22.657  25.394  1.00  0.00    -0.049 A 
ATOM     27  C   UNL A   1      37.400  21.294  25.191  1.00  0.00     0.003 A 
ATOM     28  C   UNL A   1      35.833  23.125  25.336  1.00  0.00     0.031 A 
ATOM     29  C   UNL A   1      36.347  20.413  24.933  1.00  0.00     0.002 A 
ATOM     30  C   UNL A   1      35.031  20.877  24.913  1.00  0.00     0.028 A 
ENDBRANCH  19  24
ENDBRANCH  15  18
ENDBRANCH   8  14
ENDBRANCH   4   7
ENDBRANCH   2   3
ENDBRANCH   1   2
BRANCH   1  31
ATOM     31  C   UNL A   1      33.877  30.608  27.424  1.00  0.00     0.118 C 
BRANCH  31  32
ATOM     32  N   UNL A   1      34.687  31.681  27.984  1.00  0.00    -0.352 N 
ATOM     33  C   UNL A   1      35.925  31.611  28.596  1.00  0.00     0.251 C 
ATOM     34  H   UNL A   1      34.299  32.583  27.918  1.00  0.00     0.163 HD
ATOM     35  O   UNL A   1      36.406  32.622  29.100  1.00  0.00    -0.269 OA
BRANCH  33  36
ATOM     36  C   UNL A   1      36.698  30.353  28.501  1.00  0.00     0.039 A 
ATOM     37  C   UNL A   1      36.899  29.636  29.688  1.00  0.00     0.014 A 
ATOM     38  C   UNL A   1      37.437  30.057  27.360  1.00  0.00     0.014 A 
ATOM     39  C   UNL A   1      38.021  28.824  29.810  1.00  0.00     0.010 A 
ATOM     40  C   UNL A   1      38.597  29.327  27.505  1.00  0.00     0.010 A 
ATOM     41  C   UNL A   1      38.927  28.787  28.755  1.00  0.00    -0.014 A 
BRANCH  41  42
ATOM     42  C   UNL A   1      40.306  28.344  28.882  1.00  0.00     0.031 A 
ATOM     43  C   UNL A   1      40.657  26.921  28.737  1.00  0.00     0.074 A 
ATOM     44  C   UNL A   1      41.272  29.290  28.898  1.00  0.00     0.049 A 
ATOM     45  N   UNL A   1      41.839  26.452  28.953  1.00  0.00    -0.248 NA
ATOM     46  C   UNL A   1      39.677  25.894  28.399  1.00  0.00     0.031 C 
ATOM     47  C   UNL A   1      42.673  29.134  28.520  1.00  0.00     0.029 A 
ATOM     48  N   UNL A   1      41.222  30.550  29.509  1.00  0.00    -0.354 N 
ATOM     49  C   UNL A   1      41.853  25.166  28.467  1.00  0.00     0.074 A 
ATOM     50  C   UNL A   1      40.466  24.820  28.290  1.00  0.00     0.031 C 
ATOM     51  C   UNL A   1      43.392  30.085  29.133  1.00  0.00     0.029 A 
ATOM     52  C   UNL A   1      42.500  30.755  30.062  1.00  0.00     0.049 A 
ATOM     53  H   UNL A   1      40.453  31.163  29.544  1.00  0.00     0.167 HD
ATOM     54  C   UNL A   1      43.049  24.622  28.113  1.00  0.00     0.034 A 
ATOM     55  C   UNL A   1      42.735  30.925  31.395  1.00  0.00     0.034 A 
ATOM     56  C   UNL A   1      44.165  25.397  28.674  1.00  0.00     0.049 A 
ATOM     57  C   UNL A   1      43.728  29.931  31.973  1.00  0.00     0.074 A 
ATOM     58  C   UNL A   1      45.103  26.264  28.141  1.00  0.00     0.029 A 
ATOM     59  N   UNL A   1      44.273  25.509  30.057  1.00  0.00    -0.354 N 
ATOM     60  N   UNL A   1      44.219  28.912  31.323  1.00  0.00    -0.248 NA
ATOM     61  C   UNL A   1      44.220  29.992  33.347  1.00  0.00     0.031 C 
ATOM     62  C   UNL A   1      45.699  26.980  29.220  1.00  0.00     0.029 A 
ATOM     63  C   UNL A   1      45.154  26.517  30.407  1.00  0.00     0.049 A 
ATOM     64  H   UNL A   1      43.786  24.945  30.701  1.00  0.00     0.167 HD
ATOM     65  C   UNL A   1      44.933  28.111  32.178  1.00  0.00     0.074 A 
ATOM     66  C   UNL A   1      44.984  28.886  33.406  1.00  0.00     0.031 C 
ATOM     67  C   UNL A   1      45.350  26.855  31.817  1.00  0.00     0.034 A 
BRANCH  54  68
ATOM     68  C   UNL A   1      43.247  23.504  27.099  1.00  0.00     0.023 A 
ATOM     69  C   UNL A   1      44.012  23.807  25.948  1.00  0.00     0.012 A 
ATOM     70  C   UNL A   1      42.639  22.222  27.112  1.00  0.00     0.148 A 
ATOM     71  C   UNL A   1      44.147  22.914  24.876  1.00  0.00     0.002 A 
ATOM     72  C   UNL A   1      42.824  21.307  26.070  1.00  0.00     0.091 A 
ATOM     73  F   UNL A   1      41.793  21.885  28.084  1.00  0.00    -0.205 F 
ATOM     74  C   UNL A   1      43.563  21.658  24.941  1.00  0.00     0.022 A 
BRANCH  72  75
ATOM     75  S   UNL A   1      42.124  19.644  26.112  1.00  0.00     0.127 S 
ATOM     76  O   UNL A   1      42.740  19.022  24.941  1.00  0.00    -0.237 OA
ATOM     77  O   UNL A   1      42.604  19.134  27.396  1.00  0.00    -0.237 OA
ATOM     78  O   UNL A   1      40.676  19.806  26.037  1.00  0.00    -0.744 OA
ENDBRANCH  72  75
ENDBRANCH  54  68
BRANCH  55  79
ATOM     79  C   UNL A   1      41.598  31.542  32.136  1.00  0.00     0.023 A 
ATOM     80  C   UNL A   1      41.288  32.888  31.829  1.00  0.00     0.012 A 
ATOM     81  C   UNL A   1      40.634  30.756  32.792  1.00  0.00     0.148 A 
ATOM     82  C   UNL A   1      40.013  33.404  32.061  1.00  0.00     0.002 A 
ATOM     83  C   UNL A   1      39.359  31.278  33.016  1.00  0.00     0.091 A 
ATOM     84  F   UNL A   1      40.943  29.493  33.108  1.00  0.00    -0.205 F 
ATOM     85  C   UNL A   1      39.039  32.588  32.624  1.00  0.00     0.022 A 
BRANCH  83  86
ATOM     86  S   UNL A   1      38.018  30.265  33.661  1.00  0.00     0.127 S 
ATOM     87  O   UNL A   1      38.153  30.482  35.097  1.00  0.00    -0.237 OA
ATOM     88  O   UNL A   1      36.842  30.886  33.050  1.00  0.00    -0.237 OA
ATOM     89  O   UNL A   1      38.299  28.921  33.179  1.00  0.00    -0.744 OA
ENDBRANCH  83  86
ENDBRANCH  55  79
BRANCH  67  90
ATOM     90  C   UNL A   1      45.931  25.801  32.754  1.00  0.00     0.023 A 
ATOM     91  C   UNL A   1      47.315  25.620  32.937  1.00  0.00     0.012 A 
ATOM     92  C   UNL A   1      45.085  25.037  33.606  1.00  0.00     0.148 A 
ATOM     93  C   UNL A   1      47.838  24.705  33.861  1.00  0.00     0.002 A 
ATOM     94  C   UNL A   1      45.609  24.210  34.599  1.00  0.00     0.091 A 
ATOM     95  F   UNL A   1      43.754  25.090  33.451  1.00  0.00    -0.205 F 
ATOM     96  C   UNL A   1      46.986  24.017  34.710  1.00  0.00     0.022 A 
BRANCH  94  97
ATOM     97  S   UNL A   1      44.538  23.501  35.860  1.00  0.00     0.127 S 
ATOM     98  O   UNL A   1      44.144  24.678  36.627  1.00  0.00    -0.237 OA
ATOM     99  O   UNL A   1      43.459  22.906  35.066  1.00  0.00    -0.237 OA
ATOM    100  O   UNL A   1      45.374  22.525  36.546  1.00  0.00    -0.744 OA
ENDBRANCH  94  97
ENDBRANCH  67  90
ENDBRANCH  41  42
ENDBRANCH  33  36
ENDBRANCH  31  32
ENDBRANCH   1  31
TORSDOF 16
ENDMDL
MODEL 2
REMARK VINA RESULT:     -12.7      2.737      3.753
REMARK SMILES Cc1cccc(-n2ncc(C(=O)Nc3cccc(C(=O)NCCCNC(=O)c4ccc(-c5c6nc(c(-c7cccc(S(=O)(=O)[O-])c7F)c7ccc([nH]7)c(-c7cccc(S(=O)(=O)[O-])c7F)c7nc(c(-c8cccc(S(=O)(=O)[O-])c8F)c8ccc5[nH]8)C=C7)C=C6)cc4)c3C)c2C)c1
REMARK SMILES IDX 23 1 22 2 21 3 19 4 20 5 18 7 14 8 15 9 91 10 16 11 92 12
REMARK SMILES IDX 17 13 13 14 11 15 12 16 10 18 7 19 8 20 93 21 9 22 94 23
REMARK SMILES IDX 6 24 1 25 2 26 3 27 95 28 4 29 5 30 24 31 25 32 26 33 27 35
REMARK SMILES IDX 28 36 29 37 90 38 30 39 89 40 31 41 32 42 33 43 83 44 34 45
REMARK SMILES IDX 88 46 82 47 84 48 35 49 87 50 81 51 80 52 36 54 68 55 48 56
REMARK SMILES IDX 67 57 49 58 52 59 66 60 85 61 50 62 51 63 65 65 86 66 53 67
REMARK SMILES IDX 37 68 38 69 46 70 39 71 41 72 47 73 40 74 42 75 43 76 44 77
REMARK SMILES IDX 45 78 69 79 70 80 78 81 71 82 73 83 79 84 72 85 74 86 75 87
REMARK SMILES IDX 76 88 77 89 54 90 55 91 63 92 56 93 58 94 64 95 57 96 59 97
REMARK SMILES IDX 60 98 61 99 62 100
REMARK H PARENT 21 6 13 17 25 34 84 53 52 64
REMARK Flexibility Score: inf
ROOT
ATOM      1  C   UNL A   1      34.247  29.390  27.467  1.00  0.00     0.042 C 
ENDROOT
BRANCH   1   2
ATOM      2  C   UNL A   1      34.542  28.674  26.153  1.00  0.00     0.118 C 
BRANCH   2   3
ATOM      3  N   UNL A   1      33.586  29.039  25.120  1.00  0.00    -0.352 N 
ATOM      4  C   UNL A   1      32.499  28.419  24.548  1.00  0.00     0.251 C 
ATOM      5  O   UNL A   1      31.883  29.115  23.741  1.00  0.00    -0.269 OA
ATOM      6  H   UNL A   1      33.756  29.934  24.745  1.00  0.00     0.163 HD
BRANCH   4   7
ATOM      7  C   UNL A   1      32.021  27.018  24.870  1.00  0.00     0.044 A 
ATOM      8  C   UNL A   1      31.608  24.702  24.230  1.00  0.00     0.045 A 
ATOM      9  C   UNL A   1      30.888  24.478  25.408  1.00  0.00     0.026 A 
ATOM     10  C   UNL A   1      32.291  25.922  24.000  1.00  0.00    -0.015 A 
ATOM     11  C   UNL A   1      30.744  25.497  26.322  1.00  0.00     0.003 A 
ATOM     12  C   UNL A   1      33.165  26.046  22.773  1.00  0.00     0.047 C 
ATOM     13  C   UNL A   1      31.274  26.751  26.030  1.00  0.00     0.014 A 
BRANCH   8  14
ATOM     14  N   UNL A   1      31.587  23.705  23.243  1.00  0.00    -0.322 N 
ATOM     15  C   UNL A   1      32.571  22.787  22.940  1.00  0.00     0.259 C 
ATOM     16  O   UNL A   1      32.508  22.210  21.854  1.00  0.00    -0.269 OA
ATOM     17  H   UNL A   1      30.768  23.655  22.699  1.00  0.00     0.170 HD
BRANCH  15  18
ATOM     18  C   UNL A   1      33.585  22.436  23.942  1.00  0.00     0.081 A 
ATOM     19  N   UNL A   1      35.528  22.215  25.026  1.00  0.00    -0.237 N 
ATOM     20  N   UNL A   1      34.655  21.443  25.712  1.00  0.00    -0.175 NA
ATOM     21  C   UNL A   1      34.945  22.734  23.875  1.00  0.00     0.054 A 
ATOM     22  C   UNL A   1      33.496  21.603  25.080  1.00  0.00     0.149 A 
ATOM     23  C   UNL A   1      35.698  23.341  22.742  1.00  0.00     0.068 C 
BRANCH  19  24
ATOM     24  C   UNL A   1      36.861  22.340  25.502  1.00  0.00     0.065 A 
ATOM     25  C   UNL A   1      38.860  24.842  27.566  1.00  0.00     0.044 C 
ATOM     26  C   UNL A   1      38.501  23.637  26.748  1.00  0.00    -0.049 A 
ATOM     27  C   UNL A   1      39.426  22.600  26.577  1.00  0.00     0.003 A 
ATOM     28  C   UNL A   1      37.228  23.514  26.179  1.00  0.00     0.031 A 
ATOM     29  C   UNL A   1      39.084  21.458  25.849  1.00  0.00     0.002 A 
ATOM     30  C   UNL A   1      37.802  21.323  25.314  1.00  0.00     0.028 A 
ENDBRANCH  19  24
ENDBRANCH  15  18
ENDBRANCH   8  14
ENDBRANCH   4   7
ENDBRANCH   2   3
ENDBRANCH   1   2
BRANCH   1  31
ATOM     31  C   UNL A   1      35.109  30.611  27.725  1.00  0.00     0.118 C 
BRANCH  31  32
ATOM     32  N   UNL A   1      34.323  31.831  27.849  1.00  0.00    -0.352 N 
ATOM     33  C   UNL A   1      34.511  32.908  28.694  1.00  0.00     0.251 C 
ATOM     34  H   UNL A   1      33.550  31.898  27.244  1.00  0.00     0.163 HD
ATOM     35  O   UNL A   1      33.674  33.806  28.722  1.00  0.00    -0.269 OA
BRANCH  33  36
ATOM     36  C   UNL A   1      35.785  33.018  29.439  1.00  0.00     0.039 A 
ATOM     37  C   UNL A   1      36.908  33.451  28.723  1.00  0.00     0.014 A 
ATOM     38  C   UNL A   1      35.926  32.439  30.697  1.00  0.00     0.014 A 
ATOM     39  C   UNL A   1      38.175  33.053  29.137  1.00  0.00     0.010 A 
ATOM     40  C   UNL A   1      37.167  31.966  31.061  1.00  0.00     0.010 A 
ATOM     41  C   UNL A   1      38.272  32.201  30.233  1.00  0.00    -0.014 A 
BRANCH  41  42
ATOM     42  C   UNL A   1      39.438  31.382  30.525  1.00  0.00     0.031 A 
ATOM     43  C   UNL A   1      39.549  30.014  29.990  1.00  0.00     0.074 A 
ATOM     44  C   UNL A   1      40.506  31.985  31.093  1.00  0.00     0.049 A 
ATOM     45  N   UNL A   1      40.497  29.199  30.307  1.00  0.00    -0.248 NA
ATOM     46  C   UNL A   1      38.553  29.428  29.098  1.00  0.00     0.031 C 
ATOM     47  C   UNL A   1      41.901  31.563  31.029  1.00  0.00     0.029 A 
ATOM     48  N   UNL A   1      40.499  32.992  32.067  1.00  0.00    -0.354 N 
ATOM     49  C   UNL A   1      40.428  28.144  29.428  1.00  0.00     0.074 A 
ATOM     50  C   UNL A   1      39.127  28.253  28.819  1.00  0.00     0.031 C 
ATOM     51  C   UNL A   1      42.553  32.074  32.082  1.00  0.00     0.029 A 
ATOM     52  C   UNL A   1      41.554  32.679  32.944  1.00  0.00     0.049 A 
ATOM     53  H   UNL A   1      39.882  33.758  32.126  1.00  0.00     0.167 HD
ATOM     54  C   UNL A   1      41.553  27.413  29.205  1.00  0.00     0.034 A 
ATOM     55  C   UNL A   1      41.387  32.405  34.270  1.00  0.00     0.034 A 
ATOM     56  C   UNL A   1      42.560  27.668  30.246  1.00  0.00     0.049 A 
ATOM     57  C   UNL A   1      41.950  31.059  34.691  1.00  0.00     0.074 A 
ATOM     58  C   UNL A   1      43.760  28.358  30.281  1.00  0.00     0.029 A 
ATOM     59  N   UNL A   1      42.248  27.361  31.567  1.00  0.00    -0.354 N 
ATOM     60  N   UNL A   1      42.425  30.164  33.869  1.00  0.00    -0.248 NA
ATOM     61  C   UNL A   1      41.990  30.602  36.078  1.00  0.00     0.031 C 
ATOM     62  C   UNL A   1      44.108  28.558  31.648  1.00  0.00     0.029 A 
ATOM     63  C   UNL A   1      43.144  27.953  32.440  1.00  0.00     0.049 A 
ATOM     64  H   UNL A   1      41.490  26.797  31.844  1.00  0.00     0.167 HD
ATOM     65  C   UNL A   1      42.676  28.995  34.542  1.00  0.00     0.074 A 
ATOM     66  C   UNL A   1      42.481  29.357  35.936  1.00  0.00     0.031 C 
ATOM     67  C   UNL A   1      42.948  27.823  33.883  1.00  0.00     0.034 A 
BRANCH  54  68
ATOM     68  C   UNL A   1      41.850  26.607  27.947  1.00  0.00     0.023 A 
ATOM     69  C   UNL A   1      41.446  27.169  26.714  1.00  0.00     0.012 A 
ATOM     70  C   UNL A   1      42.373  25.291  27.881  1.00  0.00     0.148 A 
ATOM     71  C   UNL A   1      41.531  26.468  25.503  1.00  0.00     0.002 A 
ATOM     72  C   UNL A   1      42.516  24.614  26.665  1.00  0.00     0.091 A 
ATOM     73  F   UNL A   1      42.662  24.621  28.996  1.00  0.00    -0.205 F 
ATOM     74  C   UNL A   1      42.078  25.193  25.475  1.00  0.00     0.022 A 
BRANCH  72  75
ATOM     75  S   UNL A   1      43.255  22.971  26.558  1.00  0.00     0.127 S 
ATOM     76  O   UNL A   1      44.660  23.247  26.854  1.00  0.00    -0.237 OA
ATOM     77  O   UNL A   1      42.545  22.238  27.606  1.00  0.00    -0.237 OA
ATOM     78  O   UNL A   1      42.991  22.489  25.207  1.00  0.00    -0.744 OA
ENDBRANCH  72  75
ENDBRANCH  54  68
BRANCH  55  79
ATOM     79  C   UNL A   1      40.208  33.081  34.884  1.00  0.00     0.023 A 
ATOM     80  C   UNL A   1      38.952  32.450  34.721  1.00  0.00     0.012 A 
ATOM     81  C   UNL A   1      40.357  34.046  35.895  1.00  0.00     0.148 A 
ATOM     82  C   UNL A   1      37.907  32.687  35.614  1.00  0.00     0.002 A 
ATOM     83  C   UNL A   1      39.309  34.273  36.788  1.00  0.00     0.091 A 
ATOM     84  F   UNL A   1      41.539  34.661  36.025  1.00  0.00    -0.205 F 
ATOM     85  C   UNL A   1      38.097  33.574  36.667  1.00  0.00     0.022 A 
BRANCH  83  86
ATOM     86  S   UNL A   1      39.499  35.339  38.226  1.00  0.00     0.127 S 
ATOM     87  O   UNL A   1      39.435  36.664  37.618  1.00  0.00    -0.237 OA
ATOM     88  O   UNL A   1      38.338  34.974  39.037  1.00  0.00    -0.237 OA
ATOM     89  O   UNL A   1      40.776  34.956  38.809  1.00  0.00    -0.744 OA
ENDBRANCH  83  86
ENDBRANCH  55  79
BRANCH  67  90
ATOM     90  C   UNL A   1      43.004  26.434  34.513  1.00  0.00     0.023 A 
ATOM     91  C   UNL A   1      41.968  25.917  35.314  1.00  0.00     0.012 A 
ATOM     92  C   UNL A   1      44.057  25.532  34.196  1.00  0.00     0.148 A 
ATOM     93  C   UNL A   1      41.992  24.610  35.820  1.00  0.00     0.002 A 
ATOM     94  C   UNL A   1      44.022  24.200  34.610  1.00  0.00     0.091 A 
ATOM     95  F   UNL A   1      45.121  25.961  33.501  1.00  0.00    -0.205 F 
ATOM     96  C   UNL A   1      43.007  23.742  35.448  1.00  0.00     0.022 A 
BRANCH  94  97
ATOM     97  S   UNL A   1      45.191  23.004  33.945  1.00  0.00     0.127 S 
ATOM     98  O   UNL A   1      46.471  23.537  34.403  1.00  0.00    -0.237 OA
ATOM     99  O   UNL A   1      44.784  21.758  34.600  1.00  0.00    -0.237 OA
ATOM    100  O   UNL A   1      44.956  23.021  32.508  1.00  0.00    -0.744 OA
ENDBRANCH  94  97
ENDBRANCH  67  90
ENDBRANCH  41  42
ENDBRANCH  33  36
ENDBRANCH  31  32
ENDBRANCH   1  31
TORSDOF 16
ENDMDL
MODEL 3
REMARK VINA RESULT:     -12.4      4.008      9.579
REMARK SMILES Cc1cccc(-n2ncc(C(=O)Nc3cccc(C(=O)NCCCNC(=O)c4ccc(-c5c6nc(c(-c7cccc(S(=O)(=O)[O-])c7F)c7ccc([nH]7)c(-c7cccc(S(=O)(=O)[O-])c7F)c7nc(c(-c8cccc(S(=O)(=O)[O-])c8F)c8ccc5[nH]8)C=C7)C=C6)cc4)c3C)c2C)c1
REMARK SMILES IDX 23 1 22 2 21 3 19 4 20 5 18 7 14 8 15 9 91 10 16 11 92 12
REMARK SMILES IDX 17 13 13 14 11 15 12 16 10 18 7 19 8 20 93 21 9 22 94 23
REMARK SMILES IDX 6 24 1 25 2 26 3 27 95 28 4 29 5 30 24 31 25 32 26 33 27 35
REMARK SMILES IDX 28 36 29 37 90 38 30 39 89 40 31 41 32 42 33 43 83 44 34 45
REMARK SMILES IDX 88 46 82 47 84 48 35 49 87 50 81 51 80 52 36 54 68 55 48 56
REMARK SMILES IDX 67 57 49 58 52 59 66 60 85 61 50 62 51 63 65 65 86 66 53 67
REMARK SMILES IDX 37 68 38 69 46 70 39 71 41 72 47 73 40 74 42 75 43 76 44 77
REMARK SMILES IDX 45 78 69 79 70 80 78 81 71 82 73 83 79 84 72 85 74 86 75 87
REMARK SMILES IDX 76 88 77 89 54 90 55 91 63 92 56 93 58 94 64 95 57 96 59 97
REMARK SMILES IDX 60 98 61 99 62 100
REMARK H PARENT 21 6 13 17 25 34 84 53 52 64
REMARK Flexibility Score: inf
ROOT
ATOM      1  C   UNL A   1      39.415  23.633  26.158  1.00  0.00     0.042 C 
ENDROOT
BRANCH   1   2
ATOM      2  C   UNL A   1      37.919  23.820  25.927  1.00  0.00     0.118 C 
BRANCH   2   3
ATOM      3  N   UNL A   1      37.536  23.436  24.578  1.00  0.00    -0.352 N 
ATOM      4  C   UNL A   1      36.344  23.127  23.963  1.00  0.00     0.251 C 
ATOM      5  O   UNL A   1      36.432  22.930  22.752  1.00  0.00    -0.269 OA
ATOM      6  H   UNL A   1      38.305  23.384  23.965  1.00  0.00     0.163 HD
BRANCH   4   7
ATOM      7  C   UNL A   1      34.996  23.061  24.652  1.00  0.00     0.044 A 
ATOM      8  C   UNL A   1      32.574  23.349  24.639  1.00  0.00     0.045 A 
ATOM      9  C   UNL A   1      32.521  23.178  26.026  1.00  0.00     0.026 A 
ATOM     10  C   UNL A   1      33.780  23.167  23.916  1.00  0.00    -0.015 A 
ATOM     11  C   UNL A   1      33.680  22.933  26.727  1.00  0.00     0.003 A 
ATOM     12  C   UNL A   1      33.737  23.228  22.407  1.00  0.00     0.047 C 
ATOM     13  C   UNL A   1      34.894  22.914  26.046  1.00  0.00     0.014 A 
BRANCH   8  14
ATOM     14  N   UNL A   1      31.410  23.772  23.980  1.00  0.00    -0.322 N 
ATOM     15  C   UNL A   1      30.881  25.045  23.921  1.00  0.00     0.259 C 
ATOM     16  O   UNL A   1      29.706  25.166  23.574  1.00  0.00    -0.269 OA
ATOM     17  H   UNL A   1      30.909  23.074  23.501  1.00  0.00     0.170 HD
BRANCH  15  18
ATOM     18  C   UNL A   1      31.740  26.212  24.155  1.00  0.00     0.081 A 
ATOM     19  N   UNL A   1      32.749  27.962  25.113  1.00  0.00    -0.237 N 
ATOM     20  N   UNL A   1      33.110  28.019  23.811  1.00  0.00    -0.175 NA
ATOM     21  C   UNL A   1      31.819  26.952  25.333  1.00  0.00     0.054 A 
ATOM     22  C   UNL A   1      32.532  26.959  23.255  1.00  0.00     0.149 A 
ATOM     23  C   UNL A   1      30.977  26.827  26.556  1.00  0.00     0.068 C 
BRANCH  19  24
ATOM     24  C   UNL A   1      33.282  28.918  26.020  1.00  0.00     0.065 A 
ATOM     25  C   UNL A   1      36.585  29.512  27.821  1.00  0.00     0.044 C 
ATOM     26  C   UNL A   1      35.168  29.677  27.356  1.00  0.00    -0.049 A 
ATOM     27  C   UNL A   1      34.440  30.820  27.705  1.00  0.00     0.003 A 
ATOM     28  C   UNL A   1      34.569  28.712  26.538  1.00  0.00     0.031 A 
ATOM     29  C   UNL A   1      33.134  30.997  27.243  1.00  0.00     0.002 A 
ATOM     30  C   UNL A   1      32.554  30.051  26.397  1.00  0.00     0.028 A 
ENDBRANCH  19  24
ENDBRANCH  15  18
ENDBRANCH   8  14
ENDBRANCH   4   7
ENDBRANCH   2   3
ENDBRANCH   1   2
BRANCH   1  31
ATOM     31  C   UNL A   1      39.763  22.701  27.303  1.00  0.00     0.118 C 
BRANCH  31  32
ATOM     32  N   UNL A   1      40.446  21.497  26.852  1.00  0.00    -0.352 N 
ATOM     33  C   UNL A   1      41.800  21.273  26.681  1.00  0.00     0.251 C 
ATOM     34  H   UNL A   1      39.862  20.734  26.639  1.00  0.00     0.163 HD
ATOM     35  O   UNL A   1      42.179  20.214  26.189  1.00  0.00    -0.269 OA
BRANCH  33  36
ATOM     36  C   UNL A   1      42.761  22.257  27.227  1.00  0.00     0.039 A 
ATOM     37  C   UNL A   1      42.823  22.384  28.620  1.00  0.00     0.014 A 
ATOM     38  C   UNL A   1      43.348  23.211  26.401  1.00  0.00     0.014 A 
ATOM     39  C   UNL A   1      43.222  23.595  29.176  1.00  0.00     0.010 A 
ATOM     40  C   UNL A   1      43.656  24.440  26.941  1.00  0.00     0.010 A 
ATOM     41  C   UNL A   1      43.508  24.652  28.318  1.00  0.00    -0.014 A 
BRANCH  41  42
ATOM     42  C   UNL A   1      43.524  26.048  28.724  1.00  0.00     0.031 A 
ATOM     43  C   UNL A   1      42.301  26.866  28.659  1.00  0.00     0.074 A 
ATOM     44  C   UNL A   1      44.618  26.501  29.378  1.00  0.00     0.049 A 
ATOM     45  N   UNL A   1      42.277  28.134  28.893  1.00  0.00    -0.248 NA
ATOM     46  C   UNL A   1      41.007  26.325  28.256  1.00  0.00     0.031 C 
ATOM     47  C   UNL A   1      44.697  27.632  30.297  1.00  0.00     0.029 A 
ATOM     48  N   UNL A   1      45.956  26.161  29.139  1.00  0.00    -0.354 N 
ATOM     49  C   UNL A   1      40.955  28.495  29.003  1.00  0.00     0.074 A 
ATOM     50  C   UNL A   1      40.221  27.390  28.443  1.00  0.00     0.031 C 
ATOM     51  C   UNL A   1      45.962  28.072  30.328  1.00  0.00     0.029 A 
ATOM     52  C   UNL A   1      46.684  27.356  29.292  1.00  0.00     0.049 A 
ATOM     53  H   UNL A   1      46.312  25.272  28.911  1.00  0.00     0.167 HD
ATOM     54  C   UNL A   1      40.647  29.614  29.713  1.00  0.00     0.034 A 
ATOM     55  C   UNL A   1      47.414  27.937  28.296  1.00  0.00     0.034 A 
ATOM     56  C   UNL A   1      41.841  30.446  29.925  1.00  0.00     0.049 A 
ATOM     57  C   UNL A   1      47.017  29.374  28.005  1.00  0.00     0.074 A 
ATOM     58  C   UNL A   1      42.644  30.723  31.018  1.00  0.00     0.029 A 
ATOM     59  N   UNL A   1      42.505  30.958  28.814  1.00  0.00    -0.354 N 
ATOM     60  N   UNL A   1      45.992  29.981  28.536  1.00  0.00    -0.248 NA
ATOM     61  C   UNL A   1      47.733  30.231  27.064  1.00  0.00     0.031 C 
ATOM     62  C   UNL A   1      43.851  31.308  30.536  1.00  0.00     0.029 A 
ATOM     63  C   UNL A   1      43.761  31.426  29.158  1.00  0.00     0.049 A 
ATOM     64  H   UNL A   1      42.131  30.983  27.904  1.00  0.00     0.167 HD
ATOM     65  C   UNL A   1      45.801  31.197  27.929  1.00  0.00     0.074 A 
ATOM     66  C   UNL A   1      46.977  31.344  27.087  1.00  0.00     0.031 C 
ATOM     67  C   UNL A   1      44.659  31.932  28.120  1.00  0.00     0.034 A 
BRANCH  54  68
ATOM     68  C   UNL A   1      39.316  29.888  30.400  1.00  0.00     0.023 A 
ATOM     69  C   UNL A   1      38.637  28.777  30.951  1.00  0.00     0.012 A 
ATOM     70  C   UNL A   1      38.613  31.119  30.437  1.00  0.00     0.148 A 
ATOM     71  C   UNL A   1      37.342  28.872  31.480  1.00  0.00     0.002 A 
ATOM     72  C   UNL A   1      37.346  31.227  31.020  1.00  0.00     0.091 A 
ATOM     73  F   UNL A   1      39.104  32.197  29.829  1.00  0.00    -0.205 F 
ATOM     74  C   UNL A   1      36.699  30.100  31.526  1.00  0.00     0.022 A 
BRANCH  72  75
ATOM     75  S   UNL A   1      36.475  32.803  31.146  1.00  0.00     0.127 S 
ATOM     76  O   UNL A   1      36.124  33.071  29.752  1.00  0.00    -0.237 OA
ATOM     77  O   UNL A   1      35.340  32.467  32.006  1.00  0.00    -0.237 OA
ATOM     78  O   UNL A   1      37.416  33.746  31.740  1.00  0.00    -0.744 OA
ENDBRANCH  72  75
ENDBRANCH  54  68
BRANCH  55  79
ATOM     79  C   UNL A   1      47.951  26.969  27.297  1.00  0.00     0.023 A 
ATOM     80  C   UNL A   1      47.123  26.663  26.191  1.00  0.00     0.012 A 
ATOM     81  C   UNL A   1      49.326  26.682  27.216  1.00  0.00     0.148 A 
ATOM     82  C   UNL A   1      47.665  26.194  24.995  1.00  0.00     0.002 A 
ATOM     83  C   UNL A   1      49.861  26.219  26.013  1.00  0.00     0.091 A 
ATOM     84  F   UNL A   1      50.099  26.946  28.276  1.00  0.00    -0.205 F 
ATOM     85  C   UNL A   1      49.038  26.004  24.895  1.00  0.00     0.022 A 
BRANCH  83  86
ATOM     86  S   UNL A   1      51.634  26.028  25.773  1.00  0.00     0.127 S 
ATOM     87  O   UNL A   1      51.879  24.743  26.420  1.00  0.00    -0.237 OA
ATOM     88  O   UNL A   1      51.749  26.018  24.315  1.00  0.00    -0.237 OA
ATOM     89  O   UNL A   1      52.226  27.195  26.409  1.00  0.00    -0.744 OA
ENDBRANCH  83  86
ENDBRANCH  55  79
BRANCH  67  90
ATOM     90  C   UNL A   1      44.242  33.163  27.321  1.00  0.00     0.023 A 
ATOM     91  C   UNL A   1      44.160  33.169  25.915  1.00  0.00     0.012 A 
ATOM     92  C   UNL A   1      43.772  34.334  27.978  1.00  0.00     0.148 A 
ATOM     93  C   UNL A   1      43.698  34.279  25.195  1.00  0.00     0.002 A 
ATOM     94  C   UNL A   1      43.210  35.392  27.263  1.00  0.00     0.091 A 
ATOM     95  F   UNL A   1      43.881  34.445  29.310  1.00  0.00    -0.205 F 
ATOM     96  C   UNL A   1      43.199  35.382  25.869  1.00  0.00     0.022 A 
BRANCH  94  97
ATOM     97  S   UNL A   1      42.344  36.717  28.120  1.00  0.00     0.127 S 
ATOM     98  O   UNL A   1      43.396  37.281  28.960  1.00  0.00    -0.237 OA
ATOM     99  O   UNL A   1      41.917  37.585  27.020  1.00  0.00    -0.237 OA
ATOM    100  O   UNL A   1      41.246  36.052  28.809  1.00  0.00    -0.744 OA
ENDBRANCH  94  97
ENDBRANCH  67  90
ENDBRANCH  41  42
ENDBRANCH  33  36
ENDBRANCH  31  32
ENDBRANCH   1  31
TORSDOF 16
ENDMDL
