MODEL 1
REMARK VINA RESULT:     -13.6      0.000      0.000
REMARK SMILES NS(=O)(=O)c1ccc(-c2cc(Cl)cc3c2O[C@H](C(F)(F)F)C(C(=O)NCCCNC(=O)c2ccc(-c4c5nc(c(-c6cccc(S(=O)(=O)[O-])c6F)c6ccc([nH]6)c(-c6cccc(S(=O)(=O)[O-])c6F)c6nc(c(-c7cccc(S(=O)(=O)[O-])c7F)c7ccc4[nH]7)C=C6)C=C5)cc2)=C3)cc1
REMARK SMILES IDX 27 1 26 2 25 3 23 4 24 5 22 7 9 8 10 9 15 10 11 11 14 12
REMARK SMILES IDX 16 13 12 14 13 15 95 16 17 17 8 18 5 19 6 20 97 21 7 22
REMARK SMILES IDX 96 23 2 24 3 25 4 26 1 27 18 30 19 31 20 32 21 33 28 34
REMARK SMILES IDX 29 35 30 36 31 38 32 39 33 40 94 41 34 42 93 43 35 44 36 45
REMARK SMILES IDX 37 46 87 47 38 48 92 49 86 50 88 51 39 52 91 53 85 54 84 55
REMARK SMILES IDX 40 57 72 58 52 59 71 60 53 61 56 62 70 63 89 64 54 65 55 66
REMARK SMILES IDX 69 68 90 69 57 70 41 71 42 72 50 73 43 74 45 75 51 76 44 77
REMARK SMILES IDX 46 78 47 79 48 80 49 81 73 82 74 83 82 84 75 85 77 86 83 87
REMARK SMILES IDX 76 88 78 89 79 90 80 91 81 92 58 93 59 94 67 95 60 96 62 97
REMARK SMILES IDX 68 98 61 99 63 100 64 101 65 102 66 103
REMARK H PARENT 25 6 1 28 1 29 29 37 88 56 56 67
REMARK Flexibility Score: inf
ROOT
ATOM      1  C   UNL A   1      31.939  29.884  25.368  1.00  0.00     0.042 C 
ENDROOT
BRANCH   1   2
ATOM      2  C   UNL A   1      33.111  29.177  24.685  1.00  0.00     0.118 C 
BRANCH   2   3
ATOM      3  N   UNL A   1      33.547  28.048  25.480  1.00  0.00    -0.352 N 
ATOM      4  C   UNL A   1      32.889  26.881  25.675  1.00  0.00     0.251 C 
ATOM      5  O   UNL A   1      32.912  26.353  26.782  1.00  0.00    -0.270 OA
ATOM      6  H   UNL A   1      34.418  28.140  25.930  1.00  0.00     0.163 HD
BRANCH   4   7
ATOM      7  C   UNL A   1      32.325  26.211  24.468  1.00  0.00     0.067 C 
ATOM      8  C   UNL A   1      33.451  22.359  25.155  1.00  0.00     0.026 A 
ATOM      9  C   UNL A   1      34.779  22.425  25.652  1.00  0.00     0.033 A 
ATOM     10  C   UNL A   1      32.944  23.543  24.590  1.00  0.00     0.135 A 
ATOM     11  C   UNL A   1      35.619  23.508  25.404  1.00  0.00     0.042 A 
ATOM     12  C   UNL A   1      33.846  24.573  24.231  1.00  0.00     0.019 A 
ATOM     13  O   UNL A   1      31.587  23.792  24.414  1.00  0.00    -0.475 OA
ATOM     14  Cl  UNL A   1      37.215  23.515  26.038  1.00  0.00    -0.084 Cl
ATOM     15  C   UNL A   1      35.183  24.552  24.614  1.00  0.00     0.032 A 
ATOM     16  C   UNL A   1      33.283  25.795  23.616  1.00  0.00     0.025 C 
ATOM     17  C   UNL A   1      31.203  25.212  24.718  1.00  0.00     0.314 C 
BRANCH   8  18
ATOM     18  C   UNL A   1      32.906  20.977  25.029  1.00  0.00    -0.015 A 
ATOM     19  C   UNL A   1      33.065  18.168  24.699  1.00  0.00     0.082 A 
ATOM     20  C   UNL A   1      33.005  18.713  25.981  1.00  0.00     0.022 A 
ATOM     21  C   UNL A   1      32.945  18.996  23.582  1.00  0.00     0.022 A 
ATOM     22  C   UNL A   1      32.896  20.103  26.141  1.00  0.00     0.010 A 
ATOM     23  C   UNL A   1      32.848  20.388  23.749  1.00  0.00     0.010 A 
BRANCH  19  24
ATOM     24  S   UNL A   1      33.467  16.455  24.489  1.00  0.00     0.238 S 
ATOM     25  O   UNL A   1      33.862  16.209  23.124  1.00  0.00    -0.207 OA
ATOM     26  O   UNL A   1      32.466  15.647  25.155  1.00  0.00    -0.207 OA
BRANCH  24  27
ATOM     27  N   UNL A   1      34.867  16.290  25.399  1.00  0.00    -0.225 NA
ATOM     28  H   UNL A   1      34.639  16.365  26.390  1.00  0.00     0.137 HD
ATOM     29  H   UNL A   1      35.526  17.027  25.145  1.00  0.00     0.137 HD
ENDBRANCH  24  27
ENDBRANCH  19  24
ENDBRANCH   8  18
BRANCH  17  30
ATOM     30  C   UNL A   1      29.977  25.669  23.890  1.00  0.00     0.429 C 
ATOM     31  F   UNL A   1      29.517  24.701  23.067  1.00  0.00    -0.167 F 
ATOM     32  F   UNL A   1      28.953  26.049  24.690  1.00  0.00    -0.167 F 
ATOM     33  F   UNL A   1      30.254  26.740  23.098  1.00  0.00    -0.167 F 
ENDBRANCH  17  30
ENDBRANCH   4   7
ENDBRANCH   2   3
ENDBRANCH   1   2
BRANCH   1  34
ATOM     34  C   UNL A   1      32.230  30.381  26.783  1.00  0.00     0.118 C 
BRANCH  34  35
ATOM     35  N   UNL A   1      32.289  31.832  26.882  1.00  0.00    -0.352 N 
ATOM     36  C   UNL A   1      33.241  32.618  27.486  1.00  0.00     0.251 C 
ATOM     37  H   UNL A   1      31.545  32.316  26.458  1.00  0.00     0.163 HD
ATOM     38  O   UNL A   1      33.054  33.824  27.609  1.00  0.00    -0.269 OA
BRANCH  36  39
ATOM     39  C   UNL A   1      34.476  31.995  28.011  1.00  0.00     0.039 A 
ATOM     40  C   UNL A   1      35.606  32.791  28.204  1.00  0.00     0.014 A 
ATOM     41  C   UNL A   1      34.503  30.638  28.346  1.00  0.00     0.014 A 
ATOM     42  C   UNL A   1      36.742  32.240  28.800  1.00  0.00     0.010 A 
ATOM     43  C   UNL A   1      35.601  30.118  29.023  1.00  0.00     0.010 A 
ATOM     44  C   UNL A   1      36.735  30.910  29.255  1.00  0.00    -0.014 A 
BRANCH  44  45
ATOM     45  C   UNL A   1      37.898  30.335  29.981  1.00  0.00     0.031 A 
ATOM     46  C   UNL A   1      38.207  30.776  31.388  1.00  0.00     0.074 A 
ATOM     47  C   UNL A   1      38.726  29.479  29.346  1.00  0.00     0.049 A 
ATOM     48  N   UNL A   1      39.208  30.433  32.157  1.00  0.00    -0.248 NA
ATOM     49  C   UNL A   1      37.290  31.752  32.002  1.00  0.00     0.031 C 
ATOM     50  C   UNL A   1      38.583  29.036  27.957  1.00  0.00     0.029 A 
ATOM     51  N   UNL A   1      39.867  28.849  29.777  1.00  0.00    -0.354 N 
ATOM     52  C   UNL A   1      39.063  31.175  33.324  1.00  0.00     0.074 A 
ATOM     53  C   UNL A   1      37.899  32.015  33.148  1.00  0.00     0.031 C 
ATOM     54  C   UNL A   1      39.590  28.201  27.655  1.00  0.00     0.029 A 
ATOM     55  C   UNL A   1      40.472  28.079  28.810  1.00  0.00     0.049 A 
ATOM     56  H   UNL A   1      40.220  28.940  30.692  1.00  0.00     0.167 HD
ATOM     57  C   UNL A   1      39.812  31.141  34.451  1.00  0.00     0.034 A 
ATOM     58  C   UNL A   1      41.615  27.366  28.843  1.00  0.00     0.034 A 
ATOM     59  C   UNL A   1      40.945  30.277  34.637  1.00  0.00     0.049 A 
ATOM     60  C   UNL A   1      42.412  27.325  30.120  1.00  0.00     0.074 A 
ATOM     61  C   UNL A   1      41.714  30.103  35.774  1.00  0.00     0.029 A 
ATOM     62  N   UNL A   1      41.481  29.451  33.662  1.00  0.00    -0.354 N 
ATOM     63  N   UNL A   1      42.168  27.912  31.266  1.00  0.00    -0.248 NA
ATOM     64  C   UNL A   1      43.624  26.492  30.121  1.00  0.00     0.031 C 
ATOM     65  C   UNL A   1      42.740  29.202  35.474  1.00  0.00     0.029 A 
ATOM     66  C   UNL A   1      42.581  28.778  34.164  1.00  0.00     0.049 A 
ATOM     67  H   UNL A   1      41.132  29.358  32.746  1.00  0.00     0.167 HD
ATOM     68  C   UNL A   1      43.169  27.491  32.133  1.00  0.00     0.074 A 
ATOM     69  C   UNL A   1      44.011  26.579  31.386  1.00  0.00     0.031 C 
ATOM     70  C   UNL A   1      43.380  27.835  33.426  1.00  0.00     0.034 A 
BRANCH  57  71
ATOM     71  C   UNL A   1      39.406  32.037  35.594  1.00  0.00     0.023 A 
ATOM     72  C   UNL A   1      39.808  33.389  35.599  1.00  0.00     0.012 A 
ATOM     73  C   UNL A   1      38.569  31.561  36.621  1.00  0.00     0.148 A 
ATOM     74  C   UNL A   1      39.412  34.243  36.628  1.00  0.00     0.002 A 
ATOM     75  C   UNL A   1      38.138  32.431  37.615  1.00  0.00     0.091 A 
ATOM     76  F   UNL A   1      38.212  30.269  36.608  1.00  0.00    -0.205 F 
ATOM     77  C   UNL A   1      38.569  33.768  37.628  1.00  0.00     0.022 A 
BRANCH  75  78
ATOM     78  S   UNL A   1      36.982  31.941  38.900  1.00  0.00     0.127 S 
ATOM     79  O   UNL A   1      37.664  32.414  40.105  1.00  0.00    -0.237 OA
ATOM     80  O   UNL A   1      35.784  32.699  38.539  1.00  0.00    -0.237 OA
ATOM     81  O   UNL A   1      36.846  30.496  38.791  1.00  0.00    -0.744 OA
ENDBRANCH  75  78
ENDBRANCH  57  71
BRANCH  58  82
ATOM     82  C   UNL A   1      42.059  26.597  27.645  1.00  0.00     0.023 A 
ATOM     83  C   UNL A   1      42.768  27.253  26.619  1.00  0.00     0.012 A 
ATOM     84  C   UNL A   1      41.786  25.222  27.518  1.00  0.00     0.148 A 
ATOM     85  C   UNL A   1      43.157  26.565  25.469  1.00  0.00     0.002 A 
ATOM     86  C   UNL A   1      42.229  24.528  26.397  1.00  0.00     0.091 A 
ATOM     87  F   UNL A   1      41.103  24.616  28.499  1.00  0.00    -0.205 F 
ATOM     88  C   UNL A   1      42.895  25.202  25.362  1.00  0.00     0.022 A 
BRANCH  86  89
ATOM     89  S   UNL A   1      42.053  22.748  26.235  1.00  0.00     0.127 S 
ATOM     90  O   UNL A   1      42.726  22.496  24.963  1.00  0.00    -0.237 OA
ATOM     91  O   UNL A   1      42.767  22.267  27.418  1.00  0.00    -0.237 OA
ATOM     92  O   UNL A   1      40.620  22.492  26.255  1.00  0.00    -0.744 OA
ENDBRANCH  86  89
ENDBRANCH  58  82
BRANCH  70  93
ATOM     93  C   UNL A   1      44.535  27.187  34.146  1.00  0.00     0.023 A 
ATOM     94  C   UNL A   1      45.802  27.803  34.151  1.00  0.00     0.012 A 
ATOM     95  C   UNL A   1      44.340  25.999  34.879  1.00  0.00     0.148 A 
ATOM     96  C   UNL A   1      46.866  27.227  34.843  1.00  0.00     0.002 A 
ATOM     97  C   UNL A   1      45.390  25.461  35.611  1.00  0.00     0.091 A 
ATOM     98  F   UNL A   1      43.131  25.420  34.847  1.00  0.00    -0.205 F 
ATOM     99  C   UNL A   1      46.658  26.064  35.582  1.00  0.00     0.022 A 
BRANCH  97 100
ATOM    100  S   UNL A   1      45.190  24.026  36.672  1.00  0.00     0.127 S 
ATOM    101  O   UNL A   1      46.572  23.740  37.052  1.00  0.00    -0.237 OA
ATOM    102  O   UNL A   1      44.356  24.554  37.752  1.00  0.00    -0.237 OA
ATOM    103  O   UNL A   1      44.546  23.006  35.855  1.00  0.00    -0.744 OA
ENDBRANCH  97 100
ENDBRANCH  70  93
ENDBRANCH  44  45
ENDBRANCH  36  39
ENDBRANCH  34  35
ENDBRANCH   1  34
TORSDOF 17
ENDMDL
MODEL 2
REMARK VINA RESULT:     -13.0      5.509      8.798
REMARK SMILES NS(=O)(=O)c1ccc(-c2cc(Cl)cc3c2O[C@H](C(F)(F)F)C(C(=O)NCCCNC(=O)c2ccc(-c4c5nc(c(-c6cccc(S(=O)(=O)[O-])c6F)c6ccc([nH]6)c(-c6cccc(S(=O)(=O)[O-])c6F)c6nc(c(-c7cccc(S(=O)(=O)[O-])c7F)c7ccc4[nH]7)C=C6)C=C5)cc2)=C3)cc1
REMARK SMILES IDX 27 1 26 2 25 3 23 4 24 5 22 7 9 8 10 9 15 10 11 11 14 12
REMARK SMILES IDX 16 13 12 14 13 15 95 16 17 17 8 18 5 19 6 20 97 21 7 22
REMARK SMILES IDX 96 23 2 24 3 25 4 26 1 27 18 30 19 31 20 32 21 33 28 34
REMARK SMILES IDX 29 35 30 36 31 38 32 39 33 40 94 41 34 42 93 43 35 44 36 45
REMARK SMILES IDX 37 46 87 47 38 48 92 49 86 50 88 51 39 52 91 53 85 54 84 55
REMARK SMILES IDX 40 57 72 58 52 59 71 60 53 61 56 62 70 63 89 64 54 65 55 66
REMARK SMILES IDX 69 68 90 69 57 70 41 71 42 72 50 73 43 74 45 75 51 76 44 77
REMARK SMILES IDX 46 78 47 79 48 80 49 81 73 82 74 83 82 84 75 85 77 86 83 87
REMARK SMILES IDX 76 88 78 89 79 90 80 91 81 92 58 93 59 94 67 95 60 96 62 97
REMARK SMILES IDX 68 98 61 99 63 100 64 101 65 102 66 103
REMARK H PARENT 25 6 1 28 1 29 29 37 88 56 56 67
REMARK Flexibility Score: inf
ROOT
ATOM      1  C   UNL A   1      35.906  20.627  25.435  1.00  0.00     0.042 C 
ENDROOT
BRANCH   1   2
ATOM      2  C   UNL A   1      35.087  21.434  26.444  1.00  0.00     0.118 C 
BRANCH   2   3
ATOM      3  N   UNL A   1      35.214  22.851  26.172  1.00  0.00    -0.352 N 
ATOM      4  C   UNL A   1      34.635  23.546  25.164  1.00  0.00     0.251 C 
ATOM      5  O   UNL A   1      35.270  24.430  24.599  1.00  0.00    -0.270 OA
ATOM      6  H   UNL A   1      35.783  23.365  26.788  1.00  0.00     0.163 HD
BRANCH   4   7
ATOM      7  C   UNL A   1      33.181  23.312  24.926  1.00  0.00     0.067 C 
ATOM      8  C   UNL A   1      31.949  27.093  24.053  1.00  0.00     0.026 A 
ATOM      9  C   UNL A   1      32.621  27.943  24.971  1.00  0.00     0.033 A 
ATOM     10  C   UNL A   1      32.005  25.715  24.333  1.00  0.00     0.135 A 
ATOM     11  C   UNL A   1      33.113  27.486  26.191  1.00  0.00     0.042 A 
ATOM     12  C   UNL A   1      32.387  25.293  25.628  1.00  0.00     0.019 A 
ATOM     13  O   UNL A   1      31.761  24.728  23.385  1.00  0.00    -0.475 OA
ATOM     14  Cl  UNL A   1      33.914  28.575  27.252  1.00  0.00    -0.084 Cl
ATOM     15  C   UNL A   1      32.919  26.173  26.565  1.00  0.00     0.032 A 
ATOM     16  C   UNL A   1      32.411  23.839  25.898  1.00  0.00     0.025 C 
ATOM     17  C   UNL A   1      32.688  23.552  23.505  1.00  0.00     0.314 C 
BRANCH   8  18
ATOM     18  C   UNL A   1      31.037  27.801  23.110  1.00  0.00    -0.015 A 
ATOM     19  C   UNL A   1      29.311  29.886  22.276  1.00  0.00     0.082 A 
ATOM     20  C   UNL A   1      30.663  29.927  21.935  1.00  0.00     0.022 A 
ATOM     21  C   UNL A   1      28.791  28.773  22.939  1.00  0.00     0.022 A 
ATOM     22  C   UNL A   1      31.509  28.877  22.323  1.00  0.00     0.010 A 
ATOM     23  C   UNL A   1      29.647  27.731  23.334  1.00  0.00     0.010 A 
BRANCH  19  24
ATOM     24  S   UNL A   1      28.296  31.318  22.025  1.00  0.00     0.238 S 
ATOM     25  O   UNL A   1      27.515  31.159  20.824  1.00  0.00    -0.207 OA
ATOM     26  O   UNL A   1      29.085  32.508  22.275  1.00  0.00    -0.207 OA
BRANCH  24  27
ATOM     27  N   UNL A   1      27.202  31.221  23.292  1.00  0.00    -0.225 NA
ATOM     28  H   UNL A   1      27.200  30.274  23.669  1.00  0.00     0.137 HD
ATOM     29  H   UNL A   1      26.268  31.454  22.953  1.00  0.00     0.137 HD
ENDBRANCH  24  27
ENDBRANCH  19  24
ENDBRANCH   8  18
BRANCH  17  30
ATOM     30  C   UNL A   1      32.027  22.242  23.013  1.00  0.00     0.429 C 
ATOM     31  F   UNL A   1      30.687  22.357  22.875  1.00  0.00    -0.167 F 
ATOM     32  F   UNL A   1      32.530  21.851  21.819  1.00  0.00    -0.167 F 
ATOM     33  F   UNL A   1      32.232  21.202  23.867  1.00  0.00    -0.167 F 
ENDBRANCH  17  30
ENDBRANCH   4   7
ENDBRANCH   2   3
ENDBRANCH   1   2
BRANCH   1  34
ATOM     34  C   UNL A   1      37.347  21.098  25.259  1.00  0.00     0.118 C 
BRANCH  34  35
ATOM     35  N   UNL A   1      38.328  20.049  25.498  1.00  0.00    -0.352 N 
ATOM     36  C   UNL A   1      39.616  20.161  25.964  1.00  0.00     0.251 C 
ATOM     37  H   UNL A   1      38.027  19.134  25.297  1.00  0.00     0.163 HD
ATOM     38  O   UNL A   1      40.358  19.183  25.959  1.00  0.00    -0.269 OA
BRANCH  36  39
ATOM     39  C   UNL A   1      40.107  21.470  26.443  1.00  0.00     0.039 A 
ATOM     40  C   UNL A   1      41.131  21.504  27.392  1.00  0.00     0.014 A 
ATOM     41  C   UNL A   1      39.585  22.660  25.926  1.00  0.00     0.014 A 
ATOM     42  C   UNL A   1      41.678  22.731  27.771  1.00  0.00     0.010 A 
ATOM     43  C   UNL A   1      40.195  23.872  26.236  1.00  0.00     0.010 A 
ATOM     44  C   UNL A   1      41.245  23.923  27.165  1.00  0.00    -0.014 A 
BRANCH  44  45
ATOM     45  C   UNL A   1      41.884  25.228  27.482  1.00  0.00     0.031 A 
ATOM     46  C   UNL A   1      41.128  26.272  28.262  1.00  0.00     0.074 A 
ATOM     47  C   UNL A   1      43.111  25.507  26.996  1.00  0.00     0.049 A 
ATOM     48  N   UNL A   1      41.496  27.486  28.582  1.00  0.00    -0.248 NA
ATOM     49  C   UNL A   1      39.773  25.918  28.718  1.00  0.00     0.031 C 
ATOM     50  C   UNL A   1      43.914  24.612  26.158  1.00  0.00     0.029 A 
ATOM     51  N   UNL A   1      43.889  26.632  27.114  1.00  0.00    -0.354 N 
ATOM     52  C   UNL A   1      40.409  28.051  29.240  1.00  0.00     0.074 A 
ATOM     53  C   UNL A   1      39.354  27.061  29.240  1.00  0.00     0.031 C 
ATOM     54  C   UNL A   1      45.070  25.219  25.847  1.00  0.00     0.029 A 
ATOM     55  C   UNL A   1      45.078  26.558  26.426  1.00  0.00     0.049 A 
ATOM     56  H   UNL A   1      43.620  27.420  27.641  1.00  0.00     0.167 HD
ATOM     57  C   UNL A   1      40.306  29.272  29.816  1.00  0.00     0.034 A 
ATOM     58  C   UNL A   1      46.059  27.468  26.267  1.00  0.00     0.034 A 
ATOM     59  C   UNL A   1      41.368  30.238  29.848  1.00  0.00     0.049 A 
ATOM     60  C   UNL A   1      45.928  28.807  26.943  1.00  0.00     0.074 A 
ATOM     61  C   UNL A   1      41.393  31.467  30.484  1.00  0.00     0.029 A 
ATOM     62  N   UNL A   1      42.589  30.095  29.207  1.00  0.00    -0.354 N 
ATOM     63  N   UNL A   1      44.955  29.262  27.695  1.00  0.00    -0.248 NA
ATOM     64  C   UNL A   1      47.048  29.746  26.781  1.00  0.00     0.031 C 
ATOM     65  C   UNL A   1      42.614  32.083  30.195  1.00  0.00     0.029 A 
ATOM     66  C   UNL A   1      43.369  31.219  29.418  1.00  0.00     0.049 A 
ATOM     67  H   UNL A   1      42.861  29.310  28.679  1.00  0.00     0.167 HD
ATOM     68  C   UNL A   1      45.361  30.519  28.126  1.00  0.00     0.074 A 
ATOM     69  C   UNL A   1      46.679  30.746  27.571  1.00  0.00     0.031 C 
ATOM     70  C   UNL A   1      44.699  31.411  28.902  1.00  0.00     0.034 A 
BRANCH  57  71
ATOM     71  C   UNL A   1      39.008  29.620  30.500  1.00  0.00     0.023 A 
ATOM     72  C   UNL A   1      38.752  29.144  31.802  1.00  0.00     0.012 A 
ATOM     73  C   UNL A   1      38.077  30.478  29.883  1.00  0.00     0.148 A 
ATOM     74  C   UNL A   1      37.574  29.485  32.465  1.00  0.00     0.002 A 
ATOM     75  C   UNL A   1      36.929  30.855  30.570  1.00  0.00     0.091 A 
ATOM     76  F   UNL A   1      38.329  30.907  28.638  1.00  0.00    -0.205 F 
ATOM     77  C   UNL A   1      36.669  30.349  31.855  1.00  0.00     0.022 A 
BRANCH  75  78
ATOM     78  S   UNL A   1      35.742  32.029  29.908  1.00  0.00     0.127 S 
ATOM     79  O   UNL A   1      34.811  32.169  31.028  1.00  0.00    -0.237 OA
ATOM     80  O   UNL A   1      36.579  33.202  29.659  1.00  0.00    -0.237 OA
ATOM     81  O   UNL A   1      35.186  31.411  28.713  1.00  0.00    -0.744 OA
ENDBRANCH  75  78
ENDBRANCH  57  71
BRANCH  58  82
ATOM     82  C   UNL A   1      47.273  27.136  25.466  1.00  0.00     0.023 A 
ATOM     83  C   UNL A   1      48.296  26.358  26.043  1.00  0.00     0.012 A 
ATOM     84  C   UNL A   1      47.417  27.583  24.140  1.00  0.00     0.148 A 
ATOM     85  C   UNL A   1      49.460  26.070  25.329  1.00  0.00     0.002 A 
ATOM     86  C   UNL A   1      48.552  27.242  23.413  1.00  0.00     0.091 A 
ATOM     87  F   UNL A   1      46.438  28.330  23.610  1.00  0.00    -0.205 F 
ATOM     88  C   UNL A   1      49.584  26.504  24.012  1.00  0.00     0.022 A 
BRANCH  86  89
ATOM     89  S   UNL A   1      48.738  27.645  21.672  1.00  0.00     0.127 S 
ATOM     90  O   UNL A   1      49.523  28.875  21.733  1.00  0.00    -0.237 OA
ATOM     91  O   UNL A   1      49.460  26.476  21.169  1.00  0.00    -0.237 OA
ATOM     92  O   UNL A   1      47.384  27.783  21.154  1.00  0.00    -0.744 OA
ENDBRANCH  86  89
ENDBRANCH  58  82
BRANCH  70  93
ATOM     93  C   UNL A   1      45.402  32.698  29.250  1.00  0.00     0.023 A 
ATOM     94  C   UNL A   1      46.219  32.771  30.395  1.00  0.00     0.012 A 
ATOM     95  C   UNL A   1      45.308  33.813  28.393  1.00  0.00     0.148 A 
ATOM     96  C   UNL A   1      46.901  33.949  30.704  1.00  0.00     0.002 A 
ATOM     97  C   UNL A   1      46.033  34.963  28.677  1.00  0.00     0.091 A 
ATOM     98  F   UNL A   1      44.512  33.727  27.318  1.00  0.00    -0.205 F 
ATOM     99  C   UNL A   1      46.818  35.038  29.839  1.00  0.00     0.022 A 
BRANCH  97 100
ATOM    100  S   UNL A   1      46.068  36.378  27.572  1.00  0.00     0.127 S 
ATOM    101  O   UNL A   1      44.772  36.999  27.839  1.00  0.00    -0.237 OA
ATOM    102  O   UNL A   1      47.221  37.130  28.070  1.00  0.00    -0.237 OA
ATOM    103  O   UNL A   1      46.234  35.837  26.229  1.00  0.00    -0.744 OA
ENDBRANCH  97 100
ENDBRANCH  70  93
ENDBRANCH  44  45
ENDBRANCH  36  39
ENDBRANCH  34  35
ENDBRANCH   1  34
TORSDOF 17
ENDMDL
MODEL 3
REMARK VINA RESULT:     -13.0      0.668      7.232
REMARK SMILES NS(=O)(=O)c1ccc(-c2cc(Cl)cc3c2O[C@H](C(F)(F)F)C(C(=O)NCCCNC(=O)c2ccc(-c4c5nc(c(-c6cccc(S(=O)(=O)[O-])c6F)c6ccc([nH]6)c(-c6cccc(S(=O)(=O)[O-])c6F)c6nc(c(-c7cccc(S(=O)(=O)[O-])c7F)c7ccc4[nH]7)C=C6)C=C5)cc2)=C3)cc1
REMARK SMILES IDX 27 1 26 2 25 3 23 4 24 5 22 7 9 8 10 9 15 10 11 11 14 12
REMARK SMILES IDX 16 13 12 14 13 15 95 16 17 17 8 18 5 19 6 20 97 21 7 22
REMARK SMILES IDX 96 23 2 24 3 25 4 26 1 27 18 30 19 31 20 32 21 33 28 34
REMARK SMILES IDX 29 35 30 36 31 38 32 39 33 40 94 41 34 42 93 43 35 44 36 45
REMARK SMILES IDX 37 46 87 47 38 48 92 49 86 50 88 51 39 52 91 53 85 54 84 55
REMARK SMILES IDX 40 57 72 58 52 59 71 60 53 61 56 62 70 63 89 64 54 65 55 66
REMARK SMILES IDX 69 68 90 69 57 70 41 71 42 72 50 73 43 74 45 75 51 76 44 77
REMARK SMILES IDX 46 78 47 79 48 80 49 81 73 82 74 83 82 84 75 85 77 86 83 87
REMARK SMILES IDX 76 88 78 89 79 90 80 91 81 92 58 93 59 94 67 95 60 96 62 97
REMARK SMILES IDX 68 98 61 99 63 100 64 101 65 102 66 103
REMARK H PARENT 25 6 1 28 1 29 29 37 88 56 56 67
REMARK Flexibility Score: inf
ROOT
ATOM      1  C   UNL A   1      31.717  30.120  25.566  1.00  0.00     0.042 C 
ENDROOT
BRANCH   1   2
ATOM      2  C   UNL A   1      32.554  29.283  24.596  1.00  0.00     0.118 C 
BRANCH   2   3
ATOM      3  N   UNL A   1      33.238  28.225  25.310  1.00  0.00    -0.352 N 
ATOM      4  C   UNL A   1      32.807  26.956  25.503  1.00  0.00     0.251 C 
ATOM      5  O   UNL A   1      33.008  26.408  26.581  1.00  0.00    -0.270 OA
ATOM      6  H   UNL A   1      34.113  28.454  25.698  1.00  0.00     0.163 HD
BRANCH   4   7
ATOM      7  C   UNL A   1      32.273  26.233  24.312  1.00  0.00     0.067 C 
ATOM      8  C   UNL A   1      33.449  22.428  25.157  1.00  0.00     0.026 A 
ATOM      9  C   UNL A   1      34.769  22.534  25.671  1.00  0.00     0.033 A 
ATOM     10  C   UNL A   1      32.932  23.582  24.542  1.00  0.00     0.135 A 
ATOM     11  C   UNL A   1      35.594  23.621  25.396  1.00  0.00     0.042 A 
ATOM     12  C   UNL A   1      33.823  24.613  24.159  1.00  0.00     0.019 A 
ATOM     13  O   UNL A   1      31.575  23.802  24.336  1.00  0.00    -0.475 OA
ATOM     14  Cl  UNL A   1      37.180  23.677  26.053  1.00  0.00    -0.084 Cl
ATOM     15  C   UNL A   1      35.154  24.628  24.562  1.00  0.00     0.032 A 
ATOM     16  C   UNL A   1      33.251  25.802  23.491  1.00  0.00     0.025 C 
ATOM     17  C   UNL A   1      31.163  25.225  24.583  1.00  0.00     0.314 C 
BRANCH   8  18
ATOM     18  C   UNL A   1      32.929  21.033  25.074  1.00  0.00    -0.015 A 
ATOM     19  C   UNL A   1      33.128  18.227  24.742  1.00  0.00     0.082 A 
ATOM     20  C   UNL A   1      33.145  18.777  26.024  1.00  0.00     0.022 A 
ATOM     21  C   UNL A   1      32.912  19.047  23.634  1.00  0.00     0.022 A 
ATOM     22  C   UNL A   1      33.016  20.164  26.186  1.00  0.00     0.010 A 
ATOM     23  C   UNL A   1      32.794  20.437  23.803  1.00  0.00     0.010 A 
BRANCH  19  24
ATOM     24  S   UNL A   1      33.554  16.522  24.510  1.00  0.00     0.238 S 
ATOM     25  O   UNL A   1      34.607  16.152  25.423  1.00  0.00    -0.207 OA
ATOM     26  O   UNL A   1      33.636  16.243  23.091  1.00  0.00    -0.207 OA
BRANCH  24  27
ATOM     27  N   UNL A   1      32.183  15.723  25.054  1.00  0.00    -0.225 NA
ATOM     28  H   UNL A   1      31.858  15.078  24.336  1.00  0.00     0.137 HD
ATOM     29  H   UNL A   1      31.451  16.404  25.258  1.00  0.00     0.137 HD
ENDBRANCH  24  27
ENDBRANCH  19  24
ENDBRANCH   8  18
BRANCH  17  30
ATOM     30  C   UNL A   1      29.943  25.632  23.720  1.00  0.00     0.429 C 
ATOM     31  F   UNL A   1      30.207  26.681  22.909  1.00  0.00    -0.167 F 
ATOM     32  F   UNL A   1      29.522  24.607  22.943  1.00  0.00    -0.167 F 
ATOM     33  F   UNL A   1      28.871  25.998  24.475  1.00  0.00    -0.167 F 
ENDBRANCH  17  30
ENDBRANCH   4   7
ENDBRANCH   2   3
ENDBRANCH   1   2
BRANCH   1  34
ATOM     34  C   UNL A   1      32.472  30.614  26.798  1.00  0.00     0.118 C 
BRANCH  34  35
ATOM     35  N   UNL A   1      32.443  32.062  26.946  1.00  0.00    -0.352 N 
ATOM     36  C   UNL A   1      33.347  32.884  27.575  1.00  0.00     0.251 C 
ATOM     37  H   UNL A   1      31.668  32.514  26.541  1.00  0.00     0.163 HD
ATOM     38  O   UNL A   1      33.087  34.072  27.739  1.00  0.00    -0.269 OA
BRANCH  36  39
ATOM     39  C   UNL A   1      34.619  32.321  28.076  1.00  0.00     0.039 A 
ATOM     40  C   UNL A   1      35.768  33.115  28.050  1.00  0.00     0.014 A 
ATOM     41  C   UNL A   1      34.668  31.027  28.603  1.00  0.00     0.014 A 
ATOM     42  C   UNL A   1      36.949  32.634  28.620  1.00  0.00     0.010 A 
ATOM     43  C   UNL A   1      35.818  30.590  29.252  1.00  0.00     0.010 A 
ATOM     44  C   UNL A   1      36.974  31.386  29.264  1.00  0.00    -0.014 A 
BRANCH  44  45
ATOM     45  C   UNL A   1      38.194  30.900  29.962  1.00  0.00     0.031 A 
ATOM     46  C   UNL A   1      39.101  29.899  29.296  1.00  0.00     0.074 A 
ATOM     47  C   UNL A   1      38.441  31.296  31.228  1.00  0.00     0.049 A 
ATOM     48  N   UNL A   1      40.173  29.318  29.769  1.00  0.00    -0.248 NA
ATOM     49  C   UNL A   1      38.743  29.473  27.932  1.00  0.00     0.031 C 
ATOM     50  C   UNL A   1      37.596  32.198  32.014  1.00  0.00     0.029 A 
ATOM     51  N   UNL A   1      39.461  30.969  32.088  1.00  0.00    -0.354 N 
ATOM     52  C   UNL A   1      40.594  28.434  28.782  1.00  0.00     0.074 A 
ATOM     53  C   UNL A   1      39.640  28.527  27.698  1.00  0.00     0.031 C 
ATOM     54  C   UNL A   1      38.136  32.359  33.233  1.00  0.00     0.029 A 
ATOM     55  C   UNL A   1      39.341  31.543  33.332  1.00  0.00     0.049 A 
ATOM     56  H   UNL A   1      40.208  30.378  31.837  1.00  0.00     0.167 HD
ATOM     57  C   UNL A   1      41.689  27.637  28.764  1.00  0.00     0.034 A 
ATOM     58  C   UNL A   1      40.106  31.417  34.435  1.00  0.00     0.034 A 
ATOM     59  C   UNL A   1      42.654  27.576  29.826  1.00  0.00     0.049 A 
ATOM     60  C   UNL A   1      41.333  30.546  34.376  1.00  0.00     0.074 A 
ATOM     61  C   UNL A   1      43.843  26.869  29.865  1.00  0.00     0.029 A 
ATOM     62  N   UNL A   1      42.540  28.234  31.040  1.00  0.00    -0.354 N 
ATOM     63  N   UNL A   1      41.798  29.841  33.374  1.00  0.00    -0.248 NA
ATOM     64  C   UNL A   1      42.162  30.483  35.589  1.00  0.00     0.031 C 
ATOM     65  C   UNL A   1      44.428  27.068  31.119  1.00  0.00     0.029 A 
ATOM     66  C   UNL A   1      43.628  27.937  31.843  1.00  0.00     0.049 A 
ATOM     67  H   UNL A   1      41.795  28.825  31.295  1.00  0.00     0.167 HD
ATOM     68  C   UNL A   1      42.990  29.284  33.820  1.00  0.00     0.074 A 
ATOM     69  C   UNL A   1      43.188  29.751  35.177  1.00  0.00     0.031 C 
ATOM     70  C   UNL A   1      43.839  28.450  33.172  1.00  0.00     0.034 A 
BRANCH  57  71
ATOM     71  C   UNL A   1      41.926  26.794  27.537  1.00  0.00     0.023 A 
ATOM     72  C   UNL A   1      42.460  27.385  26.374  1.00  0.00     0.012 A 
ATOM     73  C   UNL A   1      41.691  25.405  27.562  1.00  0.00     0.148 A 
ATOM     74  C   UNL A   1      42.721  26.614  25.242  1.00  0.00     0.002 A 
ATOM     75  C   UNL A   1      42.001  24.636  26.447  1.00  0.00     0.091 A 
ATOM     76  F   UNL A   1      41.167  24.865  28.671  1.00  0.00    -0.205 F 
ATOM     77  C   UNL A   1      42.503  25.240  25.282  1.00  0.00     0.022 A 
BRANCH  75  78
ATOM     78  S   UNL A   1      41.839  22.847  26.425  1.00  0.00     0.127 S 
ATOM     79  O   UNL A   1      40.385  22.684  26.416  1.00  0.00    -0.237 OA
ATOM     80  O   UNL A   1      42.501  22.496  25.170  1.00  0.00    -0.237 OA
ATOM     81  O   UNL A   1      42.509  22.366  27.625  1.00  0.00    -0.744 OA
ENDBRANCH  75  78
ENDBRANCH  57  71
BRANCH  58  82
ATOM     82  C   UNL A   1      39.762  32.164  35.680  1.00  0.00     0.023 A 
ATOM     83  C   UNL A   1      40.422  33.374  35.970  1.00  0.00     0.012 A 
ATOM     84  C   UNL A   1      38.786  31.684  36.573  1.00  0.00     0.148 A 
ATOM     85  C   UNL A   1      40.148  34.069  37.149  1.00  0.00     0.002 A 
ATOM     86  C   UNL A   1      38.475  32.412  37.716  1.00  0.00     0.091 A 
ATOM     87  F   UNL A   1      38.175  30.526  36.285  1.00  0.00    -0.205 F 
ATOM     88  C   UNL A   1      39.170  33.593  38.017  1.00  0.00     0.022 A 
BRANCH  86  89
ATOM     89  S   UNL A   1      37.139  31.944  38.821  1.00  0.00     0.127 S 
ATOM     90  O   UNL A   1      37.021  30.512  38.558  1.00  0.00    -0.237 OA
ATOM     91  O   UNL A   1      37.697  32.288  40.130  1.00  0.00    -0.237 OA
ATOM     92  O   UNL A   1      35.997  32.756  38.424  1.00  0.00    -0.744 OA
ENDBRANCH  86  89
ENDBRANCH  58  82
BRANCH  70  93
ATOM     93  C   UNL A   1      45.094  28.026  33.892  1.00  0.00     0.023 A 
ATOM     94  C   UNL A   1      46.262  28.806  33.796  1.00  0.00     0.012 A 
ATOM     95  C   UNL A   1      45.086  26.888  34.723  1.00  0.00     0.148 A 
ATOM     96  C   UNL A   1      47.417  28.439  34.487  1.00  0.00     0.002 A 
ATOM     97  C   UNL A   1      46.222  26.560  35.452  1.00  0.00     0.091 A 
ATOM     98  F   UNL A   1      43.969  26.151  34.787  1.00  0.00    -0.205 F 
ATOM     99  C   UNL A   1      47.393  27.325  35.323  1.00  0.00     0.022 A 
BRANCH  97 100
ATOM    100  S   UNL A   1      46.254  25.205  36.629  1.00  0.00     0.127 S 
ATOM    101  O   UNL A   1      47.527  25.432  37.311  1.00  0.00    -0.237 OA
ATOM    102  O   UNL A   1      45.069  25.476  37.444  1.00  0.00    -0.237 OA
ATOM    103  O   UNL A   1      46.179  23.983  35.841  1.00  0.00    -0.744 OA
ENDBRANCH  97 100
ENDBRANCH  70  93
ENDBRANCH  44  45
ENDBRANCH  36  39
ENDBRANCH  34  35
ENDBRANCH   1  34
TORSDOF 17
ENDMDL
