MODEL 1
REMARK VINA RESULT:     -12.9      0.000      0.000
REMARK SMILES Cc1ccc(C[C@@H](Cc2cc(F)cc(Br)c2)C(=O)NCCCNC(=O)c2ccc(-c3c4nc(c(-c5cccc(S(=O)(=O)[O-])c5F)c5ccc([nH]5)c(-c5cccc(S(=O)(=O)[O-])c5F)c5nc(c(-c6cccc(S(=O)(=O)[O-])c6F)c6ccc3[nH]6)C=C5)C=C4)cc2)cc1
REMARK SMILES IDX 21 1 20 2 19 3 17 4 18 5 7 7 6 8 5 9 1 10 2 11 3 12 90 13
REMARK SMILES IDX 4 14 89 15 8 16 9 17 10 18 16 19 11 20 14 21 12 22 13 23
REMARK SMILES IDX 15 24 22 25 23 26 24 27 25 29 26 30 27 31 88 32 28 33 87 34
REMARK SMILES IDX 29 35 30 36 31 37 81 38 32 39 86 40 80 41 82 42 33 43 85 44
REMARK SMILES IDX 79 45 78 46 34 48 66 49 46 50 65 51 47 52 50 53 64 54 83 55
REMARK SMILES IDX 48 56 49 57 63 59 84 60 51 61 35 62 36 63 44 64 37 65 39 66
REMARK SMILES IDX 45 67 38 68 40 69 41 70 42 71 43 72 67 73 68 74 76 75 69 76
REMARK SMILES IDX 71 77 77 78 70 79 72 80 73 81 74 82 75 83 52 84 53 85 61 86
REMARK SMILES IDX 54 87 56 88 62 89 55 90 57 91 58 92 59 93 60 94
REMARK H PARENT 19 6 23 28 82 47 50 58
REMARK Flexibility Score: inf
ROOT
ATOM      1  C   UNL A   1      37.594  21.105  25.079  1.00  0.00     0.042 C 
ENDROOT
BRANCH   1   2
ATOM      2  C   UNL A   1      36.094  21.211  24.867  1.00  0.00     0.117 C 
BRANCH   2   3
ATOM      3  N   UNL A   1      35.354  21.043  26.112  1.00  0.00    -0.356 N 
ATOM      4  C   UNL A   1      34.275  21.728  26.591  1.00  0.00     0.223 C 
ATOM      5  O   UNL A   1      33.789  21.387  27.672  1.00  0.00    -0.275 OA
ATOM      6  H   UNL A   1      35.684  20.325  26.699  1.00  0.00     0.163 HD
BRANCH   4   7
ATOM      7  C   UNL A   1      33.678  22.905  25.826  1.00  0.00     0.087 C 
BRANCH   7   8
ATOM      8  C   UNL A   1      32.158  22.872  26.119  1.00  0.00     0.049 C 
BRANCH   8   9
ATOM      9  C   UNL A   1      31.224  23.876  25.496  1.00  0.00    -0.047 A 
ATOM     10  C   UNL A   1      28.960  27.020  23.589  1.00  0.00     0.044 C 
ATOM     11  C   UNL A   1      29.750  25.938  24.263  1.00  0.00    -0.051 A 
ATOM     12  C   UNL A   1      30.257  24.881  23.505  1.00  0.00     0.004 A 
ATOM     13  C   UNL A   1      29.982  25.959  25.642  1.00  0.00     0.004 A 
ATOM     14  C   UNL A   1      31.002  23.871  24.113  1.00  0.00     0.004 A 
ATOM     15  C   UNL A   1      30.709  24.934  26.255  1.00  0.00     0.004 A 
ENDBRANCH   8   9
ENDBRANCH   7   8
BRANCH   7  16
ATOM     16  C   UNL A   1      34.420  24.264  25.992  1.00  0.00     0.049 C 
BRANCH  16  17
ATOM     17  C   UNL A   1      34.078  25.475  25.135  1.00  0.00    -0.043 A 
ATOM     18  C   UNL A   1      34.083  25.336  23.735  1.00  0.00     0.043 A 
ATOM     19  C   UNL A   1      33.714  26.721  25.666  1.00  0.00     0.019 A 
ATOM     20  C   UNL A   1      33.634  26.371  22.916  1.00  0.00     0.124 A 
ATOM     21  C   UNL A   1      33.222  27.733  24.832  1.00  0.00     0.021 A 
ATOM     22  F   UNL A   1      33.622  26.196  21.588  1.00  0.00    -0.207 F 
ATOM     23  C   UNL A   1      33.173  27.563  23.454  1.00  0.00     0.055 A 
ATOM     24  Br  UNL A   1      32.559  29.333  25.593  1.00  0.00    -0.051 Br
ENDBRANCH  16  17
ENDBRANCH   7  16
ENDBRANCH   4   7
ENDBRANCH   2   3
ENDBRANCH   1   2
BRANCH   1  25
ATOM     25  C   UNL A   1      38.178  22.403  25.581  1.00  0.00     0.118 C 
BRANCH  25  26
ATOM     26  N   UNL A   1      39.537  22.274  26.069  1.00  0.00    -0.352 N 
ATOM     27  C   UNL A   1      40.443  23.276  26.363  1.00  0.00     0.251 C 
ATOM     28  H   UNL A   1      39.857  21.354  26.210  1.00  0.00     0.163 HD
ATOM     29  O   UNL A   1      41.637  22.991  26.430  1.00  0.00    -0.269 OA
BRANCH  27  30
ATOM     30  C   UNL A   1      39.941  24.617  26.754  1.00  0.00     0.039 A 
ATOM     31  C   UNL A   1      40.562  25.722  26.161  1.00  0.00     0.014 A 
ATOM     32  C   UNL A   1      39.144  24.789  27.882  1.00  0.00     0.014 A 
ATOM     33  C   UNL A   1      40.617  26.930  26.848  1.00  0.00     0.010 A 
ATOM     34  C   UNL A   1      39.299  25.934  28.624  1.00  0.00     0.010 A 
ATOM     35  C   UNL A   1      40.084  26.979  28.130  1.00  0.00    -0.014 A 
BRANCH  35  36
ATOM     36  C   UNL A   1      40.262  28.073  29.063  1.00  0.00     0.031 A 
ATOM     37  C   UNL A   1      39.334  29.213  29.006  1.00  0.00     0.074 A 
ATOM     38  C   UNL A   1      41.114  27.907  30.097  1.00  0.00     0.049 A 
ATOM     39  N   UNL A   1      39.572  30.362  29.535  1.00  0.00    -0.248 NA
ATOM     40  C   UNL A   1      38.052  29.138  28.316  1.00  0.00     0.031 C 
ATOM     41  C   UNL A   1      41.129  28.649  31.350  1.00  0.00     0.029 A 
ATOM     42  N   UNL A   1      42.279  27.135  30.137  1.00  0.00    -0.354 N 
ATOM     43  C   UNL A   1      38.396  31.080  29.492  1.00  0.00     0.074 A 
ATOM     44  C   UNL A   1      37.502  30.303  28.667  1.00  0.00     0.031 C 
ATOM     45  C   UNL A   1      42.342  28.523  31.909  1.00  0.00     0.029 A 
ATOM     46  C   UNL A   1      43.188  27.843  30.943  1.00  0.00     0.049 A 
ATOM     47  H   UNL A   1      42.433  26.270  29.692  1.00  0.00     0.167 HD
ATOM     48  C   UNL A   1      38.258  32.171  30.295  1.00  0.00     0.034 A 
ATOM     49  C   UNL A   1      44.396  28.297  30.499  1.00  0.00     0.034 A 
ATOM     50  C   UNL A   1      39.478  32.393  31.080  1.00  0.00     0.049 A 
ATOM     51  C   UNL A   1      44.534  29.805  30.604  1.00  0.00     0.074 A 
ATOM     52  C   UNL A   1      39.843  32.005  32.360  1.00  0.00     0.029 A 
ATOM     53  N   UNL A   1      40.641  32.815  30.449  1.00  0.00    -0.354 N 
ATOM     54  N   UNL A   1      43.554  30.616  30.892  1.00  0.00    -0.248 NA
ATOM     55  C   UNL A   1      45.786  30.519  30.371  1.00  0.00     0.031 C 
ATOM     56  C   UNL A   1      41.252  32.135  32.472  1.00  0.00     0.029 A 
ATOM     57  C   UNL A   1      41.741  32.624  31.272  1.00  0.00     0.049 A 
ATOM     58  H   UNL A   1      40.679  33.195  29.541  1.00  0.00     0.167 HD
ATOM     59  C   UNL A   1      43.967  31.918  30.762  1.00  0.00     0.074 A 
ATOM     60  C   UNL A   1      45.395  31.798  30.517  1.00  0.00     0.031 C 
ATOM     61  C   UNL A   1      43.085  32.968  30.811  1.00  0.00     0.034 A 
BRANCH  48  62
ATOM     62  C   UNL A   1      36.928  32.823  30.628  1.00  0.00     0.023 A 
ATOM     63  C   UNL A   1      36.404  32.592  31.920  1.00  0.00     0.012 A 
ATOM     64  C   UNL A   1      36.124  33.598  29.762  1.00  0.00     0.148 A 
ATOM     65  C   UNL A   1      35.121  32.999  32.298  1.00  0.00     0.002 A 
ATOM     66  C   UNL A   1      34.813  33.943  30.111  1.00  0.00     0.091 A 
ATOM     67  F   UNL A   1      36.643  34.080  28.628  1.00  0.00    -0.205 F 
ATOM     68  C   UNL A   1      34.308  33.641  31.379  1.00  0.00     0.022 A 
BRANCH  66  69
ATOM     69  S   UNL A   1      33.665  34.691  28.940  1.00  0.00     0.127 S 
ATOM     70  O   UNL A   1      33.484  33.621  27.955  1.00  0.00    -0.237 OA
ATOM     71  O   UNL A   1      32.491  34.953  29.769  1.00  0.00    -0.237 OA
ATOM     72  O   UNL A   1      34.343  35.868  28.411  1.00  0.00    -0.744 OA
ENDBRANCH  66  69
ENDBRANCH  48  62
BRANCH  49  73
ATOM     73  C   UNL A   1      45.013  27.438  29.447  1.00  0.00     0.023 A 
ATOM     74  C   UNL A   1      45.235  26.081  29.785  1.00  0.00     0.012 A 
ATOM     75  C   UNL A   1      44.989  27.806  28.090  1.00  0.00     0.148 A 
ATOM     76  C   UNL A   1      45.293  25.096  28.799  1.00  0.00     0.002 A 
ATOM     77  C   UNL A   1      45.043  26.814  27.112  1.00  0.00     0.091 A 
ATOM     78  F   UNL A   1      44.821  29.097  27.781  1.00  0.00    -0.205 F 
ATOM     79  C   UNL A   1      45.159  25.460  27.464  1.00  0.00     0.022 A 
BRANCH  77  80
ATOM     80  S   UNL A   1      44.817  27.188  25.366  1.00  0.00     0.127 S 
ATOM     81  O   UNL A   1      43.493  27.803  25.369  1.00  0.00    -0.237 OA
ATOM     82  O   UNL A   1      45.921  28.109  25.101  1.00  0.00    -0.237 OA
ATOM     83  O   UNL A   1      44.931  25.906  24.688  1.00  0.00    -0.744 OA
ENDBRANCH  77  80
ENDBRANCH  49  73
BRANCH  61  84
ATOM     84  C   UNL A   1      43.385  34.413  30.431  1.00  0.00     0.023 A 
ATOM     85  C   UNL A   1      43.791  35.377  31.373  1.00  0.00     0.012 A 
ATOM     86  C   UNL A   1      43.404  34.825  29.069  1.00  0.00     0.148 A 
ATOM     87  C   UNL A   1      44.137  36.684  31.006  1.00  0.00     0.002 A 
ATOM     88  C   UNL A   1      43.867  36.087  28.699  1.00  0.00     0.091 A 
ATOM     89  F   UNL A   1      42.949  34.005  28.111  1.00  0.00    -0.205 F 
ATOM     90  C   UNL A   1      44.202  37.032  29.666  1.00  0.00     0.022 A 
BRANCH  88  91
ATOM     91  S   UNL A   1      44.205  36.480  26.975  1.00  0.00     0.127 S 
ATOM     92  O   UNL A   1      44.719  37.844  27.068  1.00  0.00    -0.237 OA
ATOM     93  O   UNL A   1      45.208  35.476  26.614  1.00  0.00    -0.237 OA
ATOM     94  O   UNL A   1      42.928  36.314  26.295  1.00  0.00    -0.744 OA
ENDBRANCH  88  91
ENDBRANCH  61  84
ENDBRANCH  35  36
ENDBRANCH  27  30
ENDBRANCH  25  26
ENDBRANCH   1  25
TORSDOF 17
ENDMDL
MODEL 2
REMARK VINA RESULT:     -12.8      4.130      9.342
REMARK SMILES Cc1ccc(C[C@@H](Cc2cc(F)cc(Br)c2)C(=O)NCCCNC(=O)c2ccc(-c3c4nc(c(-c5cccc(S(=O)(=O)[O-])c5F)c5ccc([nH]5)c(-c5cccc(S(=O)(=O)[O-])c5F)c5nc(c(-c6cccc(S(=O)(=O)[O-])c6F)c6ccc3[nH]6)C=C5)C=C4)cc2)cc1
REMARK SMILES IDX 21 1 20 2 19 3 17 4 18 5 7 7 6 8 5 9 1 10 2 11 3 12 90 13
REMARK SMILES IDX 4 14 89 15 8 16 9 17 10 18 16 19 11 20 14 21 12 22 13 23
REMARK SMILES IDX 15 24 22 25 23 26 24 27 25 29 26 30 27 31 88 32 28 33 87 34
REMARK SMILES IDX 29 35 30 36 31 37 81 38 32 39 86 40 80 41 82 42 33 43 85 44
REMARK SMILES IDX 79 45 78 46 34 48 66 49 46 50 65 51 47 52 50 53 64 54 83 55
REMARK SMILES IDX 48 56 49 57 63 59 84 60 51 61 35 62 36 63 44 64 37 65 39 66
REMARK SMILES IDX 45 67 38 68 40 69 41 70 42 71 43 72 67 73 68 74 76 75 69 76
REMARK SMILES IDX 71 77 77 78 70 79 72 80 73 81 74 82 75 83 52 84 53 85 61 86
REMARK SMILES IDX 54 87 56 88 62 89 55 90 57 91 58 92 59 93 60 94
REMARK H PARENT 19 6 23 28 82 47 50 58
REMARK Flexibility Score: inf
ROOT
ATOM      1  C   UNL A   1      32.199  30.811  26.852  1.00  0.00     0.042 C 
ENDROOT
BRANCH   1   2
ATOM      2  C   UNL A   1      31.740  29.769  25.847  1.00  0.00     0.117 C 
BRANCH   2   3
ATOM      3  N   UNL A   1      32.494  29.845  24.600  1.00  0.00    -0.356 N 
ATOM      4  C   UNL A   1      32.932  28.848  23.778  1.00  0.00     0.223 C 
ATOM      5  O   UNL A   1      33.532  29.153  22.745  1.00  0.00    -0.275 OA
ATOM      6  H   UNL A   1      32.722  30.755  24.307  1.00  0.00     0.163 HD
BRANCH   4   7
ATOM      7  C   UNL A   1      32.705  27.379  24.120  1.00  0.00     0.087 C 
BRANCH   7   8
ATOM      8  C   UNL A   1      32.529  26.651  22.764  1.00  0.00     0.049 C 
BRANCH   8   9
ATOM      9  C   UNL A   1      32.406  25.152  22.697  1.00  0.00    -0.047 A 
ATOM     10  C   UNL A   1      32.182  20.850  22.993  1.00  0.00     0.044 C 
ATOM     11  C   UNL A   1      32.275  22.342  22.891  1.00  0.00    -0.051 A 
ATOM     12  C   UNL A   1      31.170  23.127  23.227  1.00  0.00     0.004 A 
ATOM     13  C   UNL A   1      33.447  22.969  22.456  1.00  0.00     0.004 A 
ATOM     14  C   UNL A   1      31.242  24.517  23.148  1.00  0.00     0.004 A 
ATOM     15  C   UNL A   1      33.511  24.362  22.355  1.00  0.00     0.004 A 
ENDBRANCH   8   9
ENDBRANCH   7   8
BRANCH   7  16
ATOM     16  C   UNL A   1      33.698  26.765  25.150  1.00  0.00     0.049 C 
BRANCH  16  17
ATOM     17  C   UNL A   1      33.476  25.387  25.757  1.00  0.00    -0.043 A 
ATOM     18  C   UNL A   1      32.222  25.092  26.324  1.00  0.00     0.043 A 
ATOM     19  C   UNL A   1      34.442  24.370  25.745  1.00  0.00     0.019 A 
ATOM     20  C   UNL A   1      31.923  23.801  26.757  1.00  0.00     0.124 A 
ATOM     21  C   UNL A   1      34.109  23.068  26.142  1.00  0.00     0.021 A 
ATOM     22  F   UNL A   1      30.709  23.546  27.263  1.00  0.00    -0.207 F 
ATOM     23  C   UNL A   1      32.847  22.774  26.643  1.00  0.00     0.055 A 
ATOM     24  Br  UNL A   1      35.374  21.676  25.937  1.00  0.00    -0.051 Br
ENDBRANCH  16  17
ENDBRANCH   7  16
ENDBRANCH   4   7
ENDBRANCH   2   3
ENDBRANCH   1   2
BRANCH   1  25
ATOM     25  C   UNL A   1      33.370  30.320  27.668  1.00  0.00     0.118 C 
BRANCH  25  26
ATOM     26  N   UNL A   1      34.166  31.390  28.237  1.00  0.00    -0.352 N 
ATOM     27  C   UNL A   1      35.314  31.293  29.000  1.00  0.00     0.251 C 
ATOM     28  H   UNL A   1      33.848  32.304  28.056  1.00  0.00     0.163 HD
ATOM     29  O   UNL A   1      35.656  32.261  29.678  1.00  0.00    -0.269 OA
BRANCH  27  30
ATOM     30  C   UNL A   1      36.186  30.102  28.851  1.00  0.00     0.039 A 
ATOM     31  C   UNL A   1      36.557  29.440  30.028  1.00  0.00     0.014 A 
ATOM     32  C   UNL A   1      36.871  29.851  27.667  1.00  0.00     0.014 A 
ATOM     33  C   UNL A   1      37.769  28.758  30.080  1.00  0.00     0.010 A 
ATOM     34  C   UNL A   1      38.123  29.291  27.740  1.00  0.00     0.010 A 
ATOM     35  C   UNL A   1      38.591  28.800  28.961  1.00  0.00    -0.014 A 
BRANCH  35  36
ATOM     36  C   UNL A   1      39.968  28.350  28.925  1.00  0.00     0.031 A 
ATOM     37  C   UNL A   1      40.242  26.919  28.721  1.00  0.00     0.074 A 
ATOM     38  C   UNL A   1      40.947  29.275  28.842  1.00  0.00     0.049 A 
ATOM     39  N   UNL A   1      41.368  26.356  28.990  1.00  0.00    -0.248 NA
ATOM     40  C   UNL A   1      39.235  26.001  28.202  1.00  0.00     0.031 C 
ATOM     41  C   UNL A   1      42.309  29.072  28.368  1.00  0.00     0.029 A 
ATOM     42  N   UNL A   1      40.950  30.574  29.360  1.00  0.00    -0.354 N 
ATOM     43  C   UNL A   1      41.329  25.090  28.446  1.00  0.00     0.074 A 
ATOM     44  C   UNL A   1      39.962  24.894  28.027  1.00  0.00     0.031 C 
ATOM     45  C   UNL A   1      43.081  30.062  28.843  1.00  0.00     0.029 A 
ATOM     46  C   UNL A   1      42.269  30.825  29.776  1.00  0.00     0.049 A 
ATOM     47  H   UNL A   1      40.184  31.190  29.420  1.00  0.00     0.167 HD
ATOM     48  C   UNL A   1      42.496  24.412  28.264  1.00  0.00     0.034 A 
ATOM     49  C   UNL A   1      42.614  31.111  31.065  1.00  0.00     0.034 A 
ATOM     50  C   UNL A   1      43.636  25.209  28.735  1.00  0.00     0.049 A 
ATOM     51  C   UNL A   1      43.587  30.106  31.652  1.00  0.00     0.074 A 
ATOM     52  C   UNL A   1      44.505  26.067  28.078  1.00  0.00     0.029 A 
ATOM     53  N   UNL A   1      43.805  25.440  30.094  1.00  0.00    -0.354 N 
ATOM     54  N   UNL A   1      43.918  28.980  31.082  1.00  0.00    -0.248 NA
ATOM     55  C   UNL A   1      44.251  30.282  32.940  1.00  0.00     0.031 C 
ATOM     56  C   UNL A   1      45.153  26.866  29.055  1.00  0.00     0.029 A 
ATOM     57  C   UNL A   1      44.699  26.480  30.306  1.00  0.00     0.049 A 
ATOM     58  H   UNL A   1      43.351  24.937  30.808  1.00  0.00     0.167 HD
ATOM     59  C   UNL A   1      44.696  28.233  31.930  1.00  0.00     0.074 A 
ATOM     60  C   UNL A   1      44.942  29.133  33.044  1.00  0.00     0.031 C 
ATOM     61  C   UNL A   1      45.015  26.926  31.661  1.00  0.00     0.034 A 
BRANCH  48  62
ATOM     62  C   UNL A   1      42.649  23.202  27.361  1.00  0.00     0.023 A 
ATOM     63  C   UNL A   1      41.941  22.034  27.723  1.00  0.00     0.012 A 
ATOM     64  C   UNL A   1      43.471  23.099  26.216  1.00  0.00     0.148 A 
ATOM     65  C   UNL A   1      42.120  20.810  27.070  1.00  0.00     0.002 A 
ATOM     66  C   UNL A   1      43.707  21.860  25.607  1.00  0.00     0.091 A 
ATOM     67  F   UNL A   1      43.968  24.206  25.653  1.00  0.00    -0.205 F 
ATOM     68  C   UNL A   1      43.035  20.713  26.036  1.00  0.00     0.022 A 
BRANCH  66  69
ATOM     69  S   UNL A   1      44.951  21.636  24.321  1.00  0.00     0.127 S 
ATOM     70  O   UNL A   1      44.503  22.574  23.288  1.00  0.00    -0.237 OA
ATOM     71  O   UNL A   1      46.184  22.029  25.001  1.00  0.00    -0.237 OA
ATOM     72  O   UNL A   1      44.865  20.237  23.922  1.00  0.00    -0.744 OA
ENDBRANCH  66  69
ENDBRANCH  48  62
BRANCH  49  73
ATOM     73  C   UNL A   1      41.557  31.842  31.822  1.00  0.00     0.023 A 
ATOM     74  C   UNL A   1      41.233  33.142  31.364  1.00  0.00     0.012 A 
ATOM     75  C   UNL A   1      40.644  31.167  32.650  1.00  0.00     0.148 A 
ATOM     76  C   UNL A   1      39.977  33.699  31.610  1.00  0.00     0.002 A 
ATOM     77  C   UNL A   1      39.389  31.727  32.887  1.00  0.00     0.091 A 
ATOM     78  F   UNL A   1      40.976  29.956  33.113  1.00  0.00    -0.205 F 
ATOM     79  C   UNL A   1      39.043  32.973  32.339  1.00  0.00     0.022 A 
BRANCH  77  80
ATOM     80  S   UNL A   1      38.100  30.834  33.768  1.00  0.00     0.127 S 
ATOM     81  O   UNL A   1      36.896  31.345  33.120  1.00  0.00    -0.237 OA
ATOM     82  O   UNL A   1      38.420  29.442  33.456  1.00  0.00    -0.237 OA
ATOM     83  O   UNL A   1      38.281  31.191  35.166  1.00  0.00    -0.744 OA
ENDBRANCH  77  80
ENDBRANCH  49  73
BRANCH  61  84
ATOM     84  C   UNL A   1      45.647  25.937  32.633  1.00  0.00     0.023 A 
ATOM     85  C   UNL A   1      47.036  25.715  32.695  1.00  0.00     0.012 A 
ATOM     86  C   UNL A   1      44.867  25.286  33.629  1.00  0.00     0.148 A 
ATOM     87  C   UNL A   1      47.616  24.860  33.640  1.00  0.00     0.002 A 
ATOM     88  C   UNL A   1      45.462  24.535  34.642  1.00  0.00     0.091 A 
ATOM     89  F   UNL A   1      43.529  25.366  33.595  1.00  0.00    -0.205 F 
ATOM     90  C   UNL A   1      46.833  24.291  34.632  1.00  0.00     0.022 A 
BRANCH  88  91
ATOM     91  S   UNL A   1      44.514  24.001  36.076  1.00  0.00     0.127 S 
ATOM     92  O   UNL A   1      45.540  23.364  36.900  1.00  0.00    -0.237 OA
ATOM     93  O   UNL A   1      44.007  25.267  36.609  1.00  0.00    -0.237 OA
ATOM     94  O   UNL A   1      43.481  23.126  35.539  1.00  0.00    -0.744 OA
ENDBRANCH  88  91
ENDBRANCH  61  84
ENDBRANCH  35  36
ENDBRANCH  27  30
ENDBRANCH  25  26
ENDBRANCH   1  25
TORSDOF 17
ENDMDL
MODEL 3
REMARK VINA RESULT:     -12.6      1.620      2.028
REMARK SMILES Cc1ccc(C[C@@H](Cc2cc(F)cc(Br)c2)C(=O)NCCCNC(=O)c2ccc(-c3c4nc(c(-c5cccc(S(=O)(=O)[O-])c5F)c5ccc([nH]5)c(-c5cccc(S(=O)(=O)[O-])c5F)c5nc(c(-c6cccc(S(=O)(=O)[O-])c6F)c6ccc3[nH]6)C=C5)C=C4)cc2)cc1
REMARK SMILES IDX 21 1 20 2 19 3 17 4 18 5 7 7 6 8 5 9 1 10 2 11 3 12 90 13
REMARK SMILES IDX 4 14 89 15 8 16 9 17 10 18 16 19 11 20 14 21 12 22 13 23
REMARK SMILES IDX 15 24 22 25 23 26 24 27 25 29 26 30 27 31 88 32 28 33 87 34
REMARK SMILES IDX 29 35 30 36 31 37 81 38 32 39 86 40 80 41 82 42 33 43 85 44
REMARK SMILES IDX 79 45 78 46 34 48 66 49 46 50 65 51 47 52 50 53 64 54 83 55
REMARK SMILES IDX 48 56 49 57 63 59 84 60 51 61 35 62 36 63 44 64 37 65 39 66
REMARK SMILES IDX 45 67 38 68 40 69 41 70 42 71 43 72 67 73 68 74 76 75 69 76
REMARK SMILES IDX 71 77 77 78 70 79 72 80 73 81 74 82 75 83 52 84 53 85 61 86
REMARK SMILES IDX 54 87 56 88 62 89 55 90 57 91 58 92 59 93 60 94
REMARK H PARENT 19 6 23 28 82 47 50 58
REMARK Flexibility Score: inf
ROOT
ATOM      1  C   UNL A   1      37.926  21.254  25.247  1.00  0.00     0.042 C 
ENDROOT
BRANCH   1   2
ATOM      2  C   UNL A   1      36.536  21.307  24.637  1.00  0.00     0.117 C 
BRANCH   2   3
ATOM      3  N   UNL A   1      35.539  20.685  25.499  1.00  0.00    -0.356 N 
ATOM      4  C   UNL A   1      34.271  21.086  25.806  1.00  0.00     0.223 C 
ATOM      5  O   UNL A   1      33.587  20.375  26.545  1.00  0.00    -0.275 OA
ATOM      6  H   UNL A   1      35.823  19.846  25.928  1.00  0.00     0.163 HD
BRANCH   4   7
ATOM      7  C   UNL A   1      33.699  22.393  25.266  1.00  0.00     0.087 C 
BRANCH   7   8
ATOM      8  C   UNL A   1      32.189  22.368  25.609  1.00  0.00     0.049 C 
BRANCH   8   9
ATOM      9  C   UNL A   1      31.271  23.473  25.159  1.00  0.00    -0.047 A 
ATOM     10  C   UNL A   1      29.057  26.906  23.761  1.00  0.00     0.044 C 
ATOM     11  C   UNL A   1      29.830  25.723  24.258  1.00  0.00    -0.051 A 
ATOM     12  C   UNL A   1      30.258  24.749  23.354  1.00  0.00     0.004 A 
ATOM     13  C   UNL A   1      30.125  25.566  25.616  1.00  0.00     0.004 A 
ATOM     14  C   UNL A   1      30.987  23.646  23.798  1.00  0.00     0.004 A 
ATOM     15  C   UNL A   1      30.835  24.448  26.064  1.00  0.00     0.004 A 
ENDBRANCH   8   9
ENDBRANCH   7   8
BRANCH   7  16
ATOM     16  C   UNL A   1      34.503  23.678  25.621  1.00  0.00     0.049 C 
BRANCH  16  17
ATOM     17  C   UNL A   1      34.176  25.028  24.996  1.00  0.00    -0.043 A 
ATOM     18  C   UNL A   1      34.066  25.116  23.596  1.00  0.00     0.043 A 
ATOM     19  C   UNL A   1      33.932  26.189  25.744  1.00  0.00     0.019 A 
ATOM     20  C   UNL A   1      33.625  26.291  22.990  1.00  0.00     0.124 A 
ATOM     21  C   UNL A   1      33.446  27.346  25.123  1.00  0.00     0.021 A 
ATOM     22  F   UNL A   1      33.502  26.333  21.657  1.00  0.00    -0.207 F 
ATOM     23  C   UNL A   1      33.283  27.403  23.744  1.00  0.00     0.055 A 
ATOM     24  Br  UNL A   1      32.946  28.835  26.178  1.00  0.00    -0.051 Br
ENDBRANCH  16  17
ENDBRANCH   7  16
ENDBRANCH   4   7
ENDBRANCH   2   3
ENDBRANCH   1   2
BRANCH   1  25
ATOM     25  C   UNL A   1      38.193  22.449  26.130  1.00  0.00     0.118 C 
BRANCH  25  26
ATOM     26  N   UNL A   1      39.499  22.423  26.758  1.00  0.00    -0.352 N 
ATOM     27  C   UNL A   1      40.359  23.478  26.994  1.00  0.00     0.251 C 
ATOM     28  H   UNL A   1      39.814  21.539  27.056  1.00  0.00     0.163 HD
ATOM     29  O   UNL A   1      41.545  23.236  27.213  1.00  0.00    -0.269 OA
BRANCH  27  30
ATOM     30  C   UNL A   1      39.805  24.847  27.145  1.00  0.00     0.039 A 
ATOM     31  C   UNL A   1      40.429  25.865  26.413  1.00  0.00     0.014 A 
ATOM     32  C   UNL A   1      38.948  25.168  28.192  1.00  0.00     0.014 A 
ATOM     33  C   UNL A   1      40.420  27.167  26.902  1.00  0.00     0.010 A 
ATOM     34  C   UNL A   1      39.038  26.420  28.750  1.00  0.00     0.010 A 
ATOM     35  C   UNL A   1      39.821  27.399  28.134  1.00  0.00    -0.014 A 
BRANCH  35  36
ATOM     36  C   UNL A   1      39.925  28.631  28.889  1.00  0.00     0.031 A 
ATOM     37  C   UNL A   1      38.918  29.682  28.676  1.00  0.00     0.074 A 
ATOM     38  C   UNL A   1      40.791  28.683  29.924  1.00  0.00     0.049 A 
ATOM     39  N   UNL A   1      39.075  30.911  29.023  1.00  0.00    -0.248 NA
ATOM     40  C   UNL A   1      37.641  29.414  28.024  1.00  0.00     0.031 C 
ATOM     41  C   UNL A   1      40.758  29.605  31.051  1.00  0.00     0.029 A 
ATOM     42  N   UNL A   1      42.008  28.009  30.062  1.00  0.00    -0.354 N 
ATOM     43  C   UNL A   1      37.851  31.531  28.891  1.00  0.00     0.074 A 
ATOM     44  C   UNL A   1      37.011  30.578  28.205  1.00  0.00     0.031 C 
ATOM     45  C   UNL A   1      41.980  29.649  31.605  1.00  0.00     0.029 A 
ATOM     46  C   UNL A   1      42.868  28.892  30.739  1.00  0.00     0.049 A 
ATOM     47  H   UNL A   1      42.221  27.100  29.750  1.00  0.00     0.167 HD
ATOM     48  C   UNL A   1      37.638  32.718  29.522  1.00  0.00     0.034 A 
ATOM     49  C   UNL A   1      44.038  29.357  30.214  1.00  0.00     0.034 A 
ATOM     50  C   UNL A   1      38.843  33.141  30.247  1.00  0.00     0.049 A 
ATOM     51  C   UNL A   1      44.068  30.869  30.089  1.00  0.00     0.074 A 
ATOM     52  C   UNL A   1      39.241  32.977  31.565  1.00  0.00     0.029 A 
ATOM     53  N   UNL A   1      39.970  33.543  29.542  1.00  0.00    -0.354 N 
ATOM     54  N   UNL A   1      43.035  31.645  30.267  1.00  0.00    -0.248 NA
ATOM     55  C   UNL A   1      45.265  31.626  29.733  1.00  0.00     0.031 C 
ATOM     56  C   UNL A   1      40.637  33.220  31.635  1.00  0.00     0.029 A 
ATOM     57  C   UNL A   1      41.085  33.556  30.368  1.00  0.00     0.049 A 
ATOM     58  H   UNL A   1      39.978  33.783  28.587  1.00  0.00     0.167 HD
ATOM     59  C   UNL A   1      43.353  32.938  29.937  1.00  0.00     0.074 A 
ATOM     60  C   UNL A   1      44.785  32.882  29.691  1.00  0.00     0.031 C 
ATOM     61  C   UNL A   1      42.399  33.919  29.841  1.00  0.00     0.034 A 
BRANCH  48  62
ATOM     62  C   UNL A   1      36.267  33.318  29.774  1.00  0.00     0.023 A 
ATOM     63  C   UNL A   1      35.612  33.912  28.672  1.00  0.00     0.012 A 
ATOM     64  C   UNL A   1      35.592  33.397  31.013  1.00  0.00     0.148 A 
ATOM     65  C   UNL A   1      34.423  34.637  28.802  1.00  0.00     0.002 A 
ATOM     66  C   UNL A   1      34.442  34.182  31.160  1.00  0.00     0.091 A 
ATOM     67  F   UNL A   1      36.004  32.649  32.043  1.00  0.00    -0.205 F 
ATOM     68  C   UNL A   1      33.858  34.807  30.055  1.00  0.00     0.022 A 
BRANCH  66  69
ATOM     69  S   UNL A   1      33.706  34.529  32.768  1.00  0.00     0.127 S 
ATOM     70  O   UNL A   1      34.708  35.401  33.388  1.00  0.00    -0.237 OA
ATOM     71  O   UNL A   1      32.460  35.201  32.408  1.00  0.00    -0.237 OA
ATOM     72  O   UNL A   1      33.562  33.237  33.429  1.00  0.00    -0.744 OA
ENDBRANCH  66  69
ENDBRANCH  48  62
BRANCH  49  73
ATOM     73  C   UNL A   1      44.710  28.395  29.294  1.00  0.00     0.023 A 
ATOM     74  C   UNL A   1      45.183  27.191  29.870  1.00  0.00     0.012 A 
ATOM     75  C   UNL A   1      44.522  28.455  27.902  1.00  0.00     0.148 A 
ATOM     76  C   UNL A   1      45.333  26.037  29.100  1.00  0.00     0.002 A 
ATOM     77  C   UNL A   1      44.669  27.296  27.141  1.00  0.00     0.091 A 
ATOM     78  F   UNL A   1      44.116  29.609  27.361  1.00  0.00    -0.205 F 
ATOM     79  C   UNL A   1      45.038  26.082  27.742  1.00  0.00     0.022 A 
BRANCH  77  80
ATOM     80  S   UNL A   1      44.252  27.248  25.391  1.00  0.00     0.127 S 
ATOM     81  O   UNL A   1      45.505  27.682  24.781  1.00  0.00    -0.237 OA
ATOM     82  O   UNL A   1      43.927  25.837  25.189  1.00  0.00    -0.237 OA
ATOM     83  O   UNL A   1      43.119  28.149  25.249  1.00  0.00    -0.744 OA
ENDBRANCH  77  80
ENDBRANCH  49  73
BRANCH  61  84
ATOM     84  C   UNL A   1      42.594  35.307  29.244  1.00  0.00     0.023 A 
ATOM     85  C   UNL A   1      41.885  35.753  28.112  1.00  0.00     0.012 A 
ATOM     86  C   UNL A   1      43.409  36.278  29.891  1.00  0.00     0.148 A 
ATOM     87  C   UNL A   1      42.014  37.055  27.613  1.00  0.00     0.002 A 
ATOM     88  C   UNL A   1      43.438  37.604  29.463  1.00  0.00     0.091 A 
ATOM     89  F   UNL A   1      44.189  35.921  30.921  1.00  0.00    -0.205 F 
ATOM     90  C   UNL A   1      42.769  37.990  28.303  1.00  0.00     0.022 A 
BRANCH  88  91
ATOM     91  S   UNL A   1      44.195  38.886  30.474  1.00  0.00     0.127 S 
ATOM     92  O   UNL A   1      45.620  38.648  30.254  1.00  0.00    -0.237 OA
ATOM     93  O   UNL A   1      43.683  40.114  29.861  1.00  0.00    -0.237 OA
ATOM     94  O   UNL A   1      43.698  38.643  31.821  1.00  0.00    -0.744 OA
ENDBRANCH  88  91
ENDBRANCH  61  84
ENDBRANCH  35  36
ENDBRANCH  27  30
ENDBRANCH  25  26
ENDBRANCH   1  25
TORSDOF 17
ENDMDL
