MODEL 1
REMARK VINA RESULT:     -12.5      0.000      0.000
REMARK SMILES CCc1nc(C(=O)N2CC[NH+]([C@H](C)C(=O)NCCCNC(=O)c3ccc(-c4c5nc(c(-c6cccc(S(=O)(=O)[O-])c6F)c6ccc([nH]6)c(-c6cccc(S(=O)(=O)[O-])c6F)c6nc(c(-c7cccc(S(=O)(=O)[O-])c7F)c7ccc4[nH]7)C=C6)C=C5)cc3)CC2)n[nH]1
REMARK SMILES IDX 18 1 17 2 16 3 14 4 15 5 12 7 13 8 11 9 6 10 7 11 8 12 9 13
REMARK SMILES IDX 87 14 10 15 86 16 5 18 3 19 4 20 89 21 88 22 2 24 1 25 19 26
REMARK SMILES IDX 20 27 21 28 22 30 23 31 24 32 85 33 25 34 84 35 26 36 27 37
REMARK SMILES IDX 28 38 78 39 29 40 83 41 77 42 79 43 30 44 82 45 76 46 75 47
REMARK SMILES IDX 31 49 63 50 43 51 62 52 44 53 47 54 61 55 80 56 45 57 46 58
REMARK SMILES IDX 60 60 81 61 48 62 32 63 33 64 41 65 34 66 36 67 42 68 35 69
REMARK SMILES IDX 37 70 38 71 39 72 40 73 64 74 65 75 73 76 66 77 68 78 74 79
REMARK SMILES IDX 67 80 69 81 70 82 71 83 72 84 49 85 50 86 58 87 51 88 53 89
REMARK SMILES IDX 59 90 52 91 54 92 55 93 56 94 57 95
REMARK H PARENT 16 6 11 17 89 23 20 29 79 48 47 59
REMARK Flexibility Score: inf
ROOT
ATOM      1  C   UNL A   1      35.086  22.285  27.034  1.00  0.00     0.042 C 
ENDROOT
BRANCH   1   2
ATOM      2  C   UNL A   1      33.752  21.572  26.964  1.00  0.00     0.118 C 
BRANCH   2   3
ATOM      3  N   UNL A   1      32.624  22.375  27.404  1.00  0.00    -0.351 N 
ATOM      4  C   UNL A   1      31.798  23.196  26.688  1.00  0.00     0.278 C 
ATOM      5  O   UNL A   1      30.764  23.574  27.252  1.00  0.00    -0.268 OA
ATOM      6  H   UNL A   1      32.423  22.319  28.366  1.00  0.00     0.163 HD
BRANCH   4   7
ATOM      7  C   UNL A   1      32.142  23.671  25.256  1.00  0.00     0.271 C 
ATOM      8  C   UNL A   1      30.975  23.399  24.290  1.00  0.00     0.086 C 
BRANCH   7   9
ATOM      9  N   UNL A   1      32.911  24.952  25.194  1.00  0.00    -0.322 N 
ATOM     10  C   UNL A   1      32.575  28.947  24.783  1.00  0.00     0.293 C 
ATOM     11  O   UNL A   1      32.589  29.745  25.724  1.00  0.00    -0.265 OA
ATOM     12  N   UNL A   1      33.364  27.791  24.842  1.00  0.00    -0.325 N 
ATOM     13  C   UNL A   1      33.594  27.191  26.148  1.00  0.00     0.181 C 
ATOM     14  C   UNL A   1      33.675  26.884  23.743  1.00  0.00     0.181 C 
ATOM     15  C   UNL A   1      32.691  25.942  26.263  1.00  0.00     0.284 C 
ATOM     16  C   UNL A   1      32.852  25.584  23.855  1.00  0.00     0.284 C 
ATOM     17  H   UNL A   1      33.859  24.627  25.378  1.00  0.00     0.348 HD
BRANCH  10  18
ATOM     18  C   UNL A   1      31.652  29.139  23.628  1.00  0.00     0.239 A 
ATOM     19  C   UNL A   1      29.897  29.666  22.527  1.00  0.00     0.124 A 
ATOM     20  N   UNL A   1      30.277  29.300  23.734  1.00  0.00    -0.208 NA
ATOM     21  N   UNL A   1      30.991  29.687  21.716  1.00  0.00    -0.263 N 
ATOM     22  N   UNL A   1      32.101  29.327  22.370  1.00  0.00    -0.148 NA
ATOM     23  H   UNL A   1      30.969  29.937  20.764  1.00  0.00     0.192 HD
BRANCH  19  24
ATOM     24  C   UNL A   1      28.539  30.028  22.039  1.00  0.00     0.073 C 
ATOM     25  C   UNL A   1      27.435  29.609  22.996  1.00  0.00     0.012 C 
ENDBRANCH  19  24
ENDBRANCH  10  18
ENDBRANCH   7   9
ENDBRANCH   4   7
ENDBRANCH   2   3
ENDBRANCH   1   2
BRANCH   1  26
ATOM     26  C   UNL A   1      35.822  22.328  25.706  1.00  0.00     0.118 C 
BRANCH  26  27
ATOM     27  N   UNL A   1      36.806  21.259  25.553  1.00  0.00    -0.352 N 
ATOM     28  C   UNL A   1      38.174  21.253  25.716  1.00  0.00     0.251 C 
ATOM     29  H   UNL A   1      36.425  20.392  25.286  1.00  0.00     0.163 HD
ATOM     30  O   UNL A   1      38.818  20.270  25.378  1.00  0.00    -0.269 OA
BRANCH  28  31
ATOM     31  C   UNL A   1      38.865  22.438  26.274  1.00  0.00     0.039 A 
ATOM     32  C   UNL A   1      39.996  22.259  27.076  1.00  0.00     0.014 A 
ATOM     33  C   UNL A   1      38.404  23.724  26.005  1.00  0.00     0.014 A 
ATOM     34  C   UNL A   1      40.710  23.374  27.523  1.00  0.00     0.010 A 
ATOM     35  C   UNL A   1      39.188  24.822  26.329  1.00  0.00     0.010 A 
ATOM     36  C   UNL A   1      40.342  24.665  27.110  1.00  0.00    -0.014 A 
BRANCH  36  37
ATOM     37  C   UNL A   1      41.124  25.872  27.485  1.00  0.00     0.031 A 
ATOM     38  C   UNL A   1      40.471  26.971  28.287  1.00  0.00     0.074 A 
ATOM     39  C   UNL A   1      42.376  26.034  27.011  1.00  0.00     0.049 A 
ATOM     40  N   UNL A   1      40.943  28.145  28.615  1.00  0.00    -0.248 NA
ATOM     41  C   UNL A   1      39.088  26.737  28.742  1.00  0.00     0.031 C 
ATOM     42  C   UNL A   1      43.086  25.090  26.145  1.00  0.00     0.029 A 
ATOM     43  N   UNL A   1      43.266  27.068  27.167  1.00  0.00    -0.354 N 
ATOM     44  C   UNL A   1      39.905  28.803  29.264  1.00  0.00     0.074 A 
ATOM     45  C   UNL A   1      38.761  27.920  29.239  1.00  0.00     0.031 C 
ATOM     46  C   UNL A   1      44.304  25.578  25.861  1.00  0.00     0.029 A 
ATOM     47  C   UNL A   1      44.451  26.885  26.493  1.00  0.00     0.049 A 
ATOM     48  H   UNL A   1      43.074  27.866  27.712  1.00  0.00     0.167 HD
ATOM     49  C   UNL A   1      39.909  30.018  29.864  1.00  0.00     0.034 A 
ATOM     50  C   UNL A   1      45.533  27.681  26.394  1.00  0.00     0.034 A 
ATOM     51  C   UNL A   1      41.069  30.860  29.951  1.00  0.00     0.049 A 
ATOM     52  C   UNL A   1      45.539  28.993  27.133  1.00  0.00     0.074 A 
ATOM     53  C   UNL A   1      41.212  32.060  30.623  1.00  0.00     0.029 A 
ATOM     54  N   UNL A   1      42.289  30.587  29.352  1.00  0.00    -0.354 N 
ATOM     55  N   UNL A   1      44.599  29.528  27.873  1.00  0.00    -0.248 NA
ATOM     56  C   UNL A   1      46.771  29.793  27.056  1.00  0.00     0.031 C 
ATOM     57  C   UNL A   1      42.517  32.521  30.416  1.00  0.00     0.029 A 
ATOM     58  C   UNL A   1      43.192  31.596  29.636  1.00  0.00     0.049 A 
ATOM     59  H   UNL A   1      42.485  29.792  28.805  1.00  0.00     0.167 HD
ATOM     60  C   UNL A   1      45.136  30.705  28.382  1.00  0.00     0.074 A 
ATOM     61  C   UNL A   1      46.493  30.793  27.882  1.00  0.00     0.031 C 
ATOM     62  C   UNL A   1      44.557  31.636  29.178  1.00  0.00     0.034 A 
BRANCH  49  63
ATOM     63  C   UNL A   1      38.639  30.473  30.534  1.00  0.00     0.023 A 
ATOM     64  C   UNL A   1      38.459  30.241  31.915  1.00  0.00     0.012 A 
ATOM     65  C   UNL A   1      37.647  31.170  29.818  1.00  0.00     0.148 A 
ATOM     66  C   UNL A   1      37.298  30.658  32.561  1.00  0.00     0.002 A 
ATOM     67  C   UNL A   1      36.514  31.627  30.481  1.00  0.00     0.091 A 
ATOM     68  F   UNL A   1      37.824  31.363  28.503  1.00  0.00    -0.205 F 
ATOM     69  C   UNL A   1      36.331  31.360  31.848  1.00  0.00     0.022 A 
BRANCH  67  70
ATOM     70  S   UNL A   1      35.247  32.612  29.672  1.00  0.00     0.127 S 
ATOM     71  O   UNL A   1      36.020  33.762  29.206  1.00  0.00    -0.237 OA
ATOM     72  O   UNL A   1      34.792  31.713  28.611  1.00  0.00    -0.237 OA
ATOM     73  O   UNL A   1      34.250  32.901  30.692  1.00  0.00    -0.744 OA
ENDBRANCH  67  70
ENDBRANCH  49  63
BRANCH  50  74
ATOM     74  C   UNL A   1      46.733  27.224  25.633  1.00  0.00     0.023 A 
ATOM     75  C   UNL A   1      47.605  26.289  26.225  1.00  0.00     0.012 A 
ATOM     76  C   UNL A   1      47.001  27.681  24.329  1.00  0.00     0.148 A 
ATOM     77  C   UNL A   1      48.743  25.847  25.548  1.00  0.00     0.002 A 
ATOM     78  C   UNL A   1      48.104  27.195  23.638  1.00  0.00     0.091 A 
ATOM     79  F   UNL A   1      46.165  28.578  23.785  1.00  0.00    -0.205 F 
ATOM     80  C   UNL A   1      48.988  26.293  24.252  1.00  0.00     0.022 A 
BRANCH  78  81
ATOM     81  S   UNL A   1      48.424  27.608  21.919  1.00  0.00     0.127 S 
ATOM     82  O   UNL A   1      47.154  28.199  21.510  1.00  0.00    -0.237 OA
ATOM     83  O   UNL A   1      49.535  28.554  22.033  1.00  0.00    -0.237 OA
ATOM     84  O   UNL A   1      48.777  26.351  21.273  1.00  0.00    -0.744 OA
ENDBRANCH  78  81
ENDBRANCH  50  74
BRANCH  62  85
ATOM     85  C   UNL A   1      45.394  32.815  29.598  1.00  0.00     0.023 A 
ATOM     86  C   UNL A   1      46.161  32.747  30.777  1.00  0.00     0.012 A 
ATOM     87  C   UNL A   1      45.480  33.959  28.780  1.00  0.00     0.148 A 
ATOM     88  C   UNL A   1      46.974  33.815  31.154  1.00  0.00     0.002 A 
ATOM     89  C   UNL A   1      46.331  34.998  29.137  1.00  0.00     0.091 A 
ATOM     90  F   UNL A   1      44.728  34.011  27.670  1.00  0.00    -0.205 F 
ATOM     91  C   UNL A   1      47.068  34.933  30.329  1.00  0.00     0.022 A 
BRANCH  89  92
ATOM     92  S   UNL A   1      46.590  36.430  28.084  1.00  0.00     0.127 S 
ATOM     93  O   UNL A   1      47.271  37.348  28.995  1.00  0.00    -0.237 OA
ATOM     94  O   UNL A   1      47.436  35.885  27.021  1.00  0.00    -0.237 OA
ATOM     95  O   UNL A   1      45.266  36.850  27.645  1.00  0.00    -0.744 OA
ENDBRANCH  89  92
ENDBRANCH  62  85
ENDBRANCH  36  37
ENDBRANCH  28  31
ENDBRANCH  26  27
ENDBRANCH   1  26
TORSDOF 16
ENDMDL
MODEL 2
REMARK VINA RESULT:     -12.4      1.638      7.804
REMARK SMILES CCc1nc(C(=O)N2CC[NH+]([C@H](C)C(=O)NCCCNC(=O)c3ccc(-c4c5nc(c(-c6cccc(S(=O)(=O)[O-])c6F)c6ccc([nH]6)c(-c6cccc(S(=O)(=O)[O-])c6F)c6nc(c(-c7cccc(S(=O)(=O)[O-])c7F)c7ccc4[nH]7)C=C6)C=C5)cc3)CC2)n[nH]1
REMARK SMILES IDX 18 1 17 2 16 3 14 4 15 5 12 7 13 8 11 9 6 10 7 11 8 12 9 13
REMARK SMILES IDX 87 14 10 15 86 16 5 18 3 19 4 20 89 21 88 22 2 24 1 25 19 26
REMARK SMILES IDX 20 27 21 28 22 30 23 31 24 32 85 33 25 34 84 35 26 36 27 37
REMARK SMILES IDX 28 38 78 39 29 40 83 41 77 42 79 43 30 44 82 45 76 46 75 47
REMARK SMILES IDX 31 49 63 50 43 51 62 52 44 53 47 54 61 55 80 56 45 57 46 58
REMARK SMILES IDX 60 60 81 61 48 62 32 63 33 64 41 65 34 66 36 67 42 68 35 69
REMARK SMILES IDX 37 70 38 71 39 72 40 73 64 74 65 75 73 76 66 77 68 78 74 79
REMARK SMILES IDX 67 80 69 81 70 82 71 83 72 84 49 85 50 86 58 87 51 88 53 89
REMARK SMILES IDX 59 90 52 91 54 92 55 93 56 94 57 95
REMARK H PARENT 16 6 11 17 89 23 20 29 79 48 47 59
REMARK Flexibility Score: inf
ROOT
ATOM      1  C   UNL A   1      36.518  20.802  24.946  1.00  0.00     0.042 C 
ENDROOT
BRANCH   1   2
ATOM      2  C   UNL A   1      35.342  21.248  25.788  1.00  0.00     0.118 C 
BRANCH   2   3
ATOM      3  N   UNL A   1      34.208  20.340  25.757  1.00  0.00    -0.351 N 
ATOM      4  C   UNL A   1      32.882  20.598  25.549  1.00  0.00     0.278 C 
ATOM      5  O   UNL A   1      32.153  19.624  25.327  1.00  0.00    -0.268 OA
ATOM      6  H   UNL A   1      34.429  19.393  25.908  1.00  0.00     0.163 HD
BRANCH   4   7
ATOM      7  C   UNL A   1      32.296  22.029  25.621  1.00  0.00     0.271 C 
ATOM      8  C   UNL A   1      32.840  22.786  26.846  1.00  0.00     0.086 C 
BRANCH   7   9
ATOM      9  N   UNL A   1      32.153  22.709  24.297  1.00  0.00    -0.322 N 
ATOM     10  C   UNL A   1      32.678  26.192  22.340  1.00  0.00     0.293 C 
ATOM     11  O   UNL A   1      33.654  26.449  21.629  1.00  0.00    -0.265 OA
ATOM     12  N   UNL A   1      32.178  24.885  22.385  1.00  0.00    -0.325 N 
ATOM     13  C   UNL A   1      33.125  23.789  22.229  1.00  0.00     0.181 C 
ATOM     14  C   UNL A   1      30.904  24.451  22.946  1.00  0.00     0.181 C 
ATOM     15  C   UNL A   1      33.378  23.177  23.625  1.00  0.00     0.284 C 
ATOM     16  C   UNL A   1      31.111  23.762  24.310  1.00  0.00     0.284 C 
ATOM     17  H   UNL A   1      31.851  21.936  23.705  1.00  0.00     0.348 HD
BRANCH  10  18
ATOM     18  C   UNL A   1      32.085  27.228  23.232  1.00  0.00     0.239 A 
ATOM     19  C   UNL A   1      31.799  28.480  24.941  1.00  0.00     0.124 A 
ATOM     20  N   UNL A   1      32.308  27.315  24.600  1.00  0.00    -0.208 NA
ATOM     21  N   UNL A   1      31.256  29.058  23.833  1.00  0.00    -0.263 N 
ATOM     22  N   UNL A   1      31.389  28.280  22.753  1.00  0.00    -0.148 NA
ATOM     23  H   UNL A   1      30.820  29.940  23.827  1.00  0.00     0.192 HD
BRANCH  19  24
ATOM     24  C   UNL A   1      31.782  29.146  26.272  1.00  0.00     0.073 C 
ATOM     25  C   UNL A   1      32.021  28.178  27.419  1.00  0.00     0.012 C 
ENDBRANCH  19  24
ENDBRANCH  10  18
ENDBRANCH   7   9
ENDBRANCH   4   7
ENDBRANCH   2   3
ENDBRANCH   1   2
BRANCH   1  26
ATOM     26  C   UNL A   1      37.818  21.503  25.299  1.00  0.00     0.118 C 
BRANCH  26  27
ATOM     27  N   UNL A   1      38.837  20.601  25.832  1.00  0.00    -0.352 N 
ATOM     28  C   UNL A   1      40.018  20.855  26.496  1.00  0.00     0.251 C 
ATOM     29  H   UNL A   1      38.647  19.646  25.691  1.00  0.00     0.163 HD
ATOM     30  O   UNL A   1      40.797  19.939  26.713  1.00  0.00    -0.269 OA
BRANCH  28  31
ATOM     31  C   UNL A   1      40.353  22.233  26.923  1.00  0.00     0.039 A 
ATOM     32  C   UNL A   1      41.226  22.425  27.998  1.00  0.00     0.014 A 
ATOM     33  C   UNL A   1      39.814  23.335  26.264  1.00  0.00     0.014 A 
ATOM     34  C   UNL A   1      41.625  23.720  28.342  1.00  0.00     0.010 A 
ATOM     35  C   UNL A   1      40.316  24.603  26.514  1.00  0.00     0.010 A 
ATOM     36  C   UNL A   1      41.214  24.818  27.569  1.00  0.00    -0.014 A 
BRANCH  36  37
ATOM     37  C   UNL A   1      41.684  26.201  27.841  1.00  0.00     0.031 A 
ATOM     38  C   UNL A   1      43.093  26.600  27.480  1.00  0.00     0.074 A 
ATOM     39  C   UNL A   1      40.889  27.060  28.512  1.00  0.00     0.049 A 
ATOM     40  N   UNL A   1      43.727  27.715  27.737  1.00  0.00    -0.248 NA
ATOM     41  C   UNL A   1      43.915  25.597  26.778  1.00  0.00     0.031 C 
ATOM     42  C   UNL A   1      39.540  26.764  29.001  1.00  0.00     0.029 A 
ATOM     43  N   UNL A   1      41.112  28.350  28.924  1.00  0.00    -0.354 N 
ATOM     44  C   UNL A   1      45.026  27.527  27.278  1.00  0.00     0.074 A 
ATOM     45  C   UNL A   1      45.106  26.176  26.773  1.00  0.00     0.031 C 
ATOM     46  C   UNL A   1      39.051  27.844  29.632  1.00  0.00     0.029 A 
ATOM     47  C   UNL A   1      40.060  28.897  29.623  1.00  0.00     0.049 A 
ATOM     48  H   UNL A   1      41.946  28.839  28.736  1.00  0.00     0.167 HD
ATOM     49  C   UNL A   1      46.051  28.411  27.240  1.00  0.00     0.034 A 
ATOM     50  C   UNL A   1      39.927  30.110  30.195  1.00  0.00     0.034 A 
ATOM     51  C   UNL A   1      45.945  29.776  27.675  1.00  0.00     0.049 A 
ATOM     52  C   UNL A   1      41.055  31.098  30.073  1.00  0.00     0.074 A 
ATOM     53  C   UNL A   1      46.889  30.783  27.586  1.00  0.00     0.029 A 
ATOM     54  N   UNL A   1      44.823  30.327  28.274  1.00  0.00    -0.354 N 
ATOM     55  N   UNL A   1      42.223  30.952  29.494  1.00  0.00    -0.248 NA
ATOM     56  C   UNL A   1      40.834  32.434  30.647  1.00  0.00     0.031 C 
ATOM     57  C   UNL A   1      46.342  31.942  28.147  1.00  0.00     0.029 A 
ATOM     58  C   UNL A   1      45.050  31.661  28.562  1.00  0.00     0.049 A 
ATOM     59  H   UNL A   1      43.988  29.842  28.465  1.00  0.00     0.167 HD
ATOM     60  C   UNL A   1      42.858  32.183  29.599  1.00  0.00     0.074 A 
ATOM     61  C   UNL A   1      41.937  33.071  30.277  1.00  0.00     0.031 C 
ATOM     62  C   UNL A   1      44.097  32.545  29.185  1.00  0.00     0.034 A 
BRANCH  49  63
ATOM     63  C   UNL A   1      47.355  27.946  26.645  1.00  0.00     0.023 A 
ATOM     64  C   UNL A   1      48.414  27.566  27.497  1.00  0.00     0.012 A 
ATOM     65  C   UNL A   1      47.520  27.835  25.250  1.00  0.00     0.148 A 
ATOM     66  C   UNL A   1      49.626  27.125  26.973  1.00  0.00     0.002 A 
ATOM     67  C   UNL A   1      48.715  27.346  24.736  1.00  0.00     0.091 A 
ATOM     68  F   UNL A   1      46.512  28.220  24.454  1.00  0.00    -0.205 F 
ATOM     69  C   UNL A   1      49.774  27.004  25.594  1.00  0.00     0.022 A 
BRANCH  67  70
ATOM     70  S   UNL A   1      48.977  27.075  22.980  1.00  0.00     0.127 S 
ATOM     71  O   UNL A   1      50.434  26.987  22.908  1.00  0.00    -0.237 OA
ATOM     72  O   UNL A   1      48.278  25.809  22.757  1.00  0.00    -0.237 OA
ATOM     73  O   UNL A   1      48.386  28.222  22.304  1.00  0.00    -0.744 OA
ENDBRANCH  67  70
ENDBRANCH  49  63
BRANCH  50  74
ATOM     74  C   UNL A   1      38.646  30.487  30.861  1.00  0.00     0.023 A 
ATOM     75  C   UNL A   1      38.462  30.175  32.223  1.00  0.00     0.012 A 
ATOM     76  C   UNL A   1      37.626  31.169  30.171  1.00  0.00     0.148 A 
ATOM     77  C   UNL A   1      37.273  30.502  32.875  1.00  0.00     0.002 A 
ATOM     78  C   UNL A   1      36.467  31.542  30.840  1.00  0.00     0.091 A 
ATOM     79  F   UNL A   1      37.814  31.450  28.873  1.00  0.00    -0.205 F 
ATOM     80  C   UNL A   1      36.279  31.193  32.187  1.00  0.00     0.022 A 
BRANCH  78  81
ATOM     81  S   UNL A   1      35.193  32.551  30.074  1.00  0.00     0.127 S 
ATOM     82  O   UNL A   1      35.947  33.734  29.671  1.00  0.00    -0.237 OA
ATOM     83  O   UNL A   1      34.749  31.698  28.971  1.00  0.00    -0.237 OA
ATOM     84  O   UNL A   1      34.186  32.761  31.105  1.00  0.00    -0.744 OA
ENDBRANCH  78  81
ENDBRANCH  50  74
BRANCH  62  85
ATOM     85  C   UNL A   1      44.522  33.971  29.413  1.00  0.00     0.023 A 
ATOM     86  C   UNL A   1      45.063  34.351  30.656  1.00  0.00     0.012 A 
ATOM     87  C   UNL A   1      44.455  34.913  28.368  1.00  0.00     0.148 A 
ATOM     88  C   UNL A   1      45.500  35.659  30.867  1.00  0.00     0.002 A 
ATOM     89  C   UNL A   1      44.939  36.200  28.570  1.00  0.00     0.091 A 
ATOM     90  F   UNL A   1      43.919  34.535  27.198  1.00  0.00    -0.205 F 
ATOM     91  C   UNL A   1      45.450  36.578  29.821  1.00  0.00     0.022 A 
BRANCH  89  92
ATOM     92  S   UNL A   1      45.005  37.418  27.251  1.00  0.00     0.127 S 
ATOM     93  O   UNL A   1      43.595  37.530  26.880  1.00  0.00    -0.237 OA
ATOM     94  O   UNL A   1      45.549  38.591  27.938  1.00  0.00    -0.237 OA
ATOM     95  O   UNL A   1      45.879  36.857  26.230  1.00  0.00    -0.744 OA
ENDBRANCH  89  92
ENDBRANCH  62  85
ENDBRANCH  36  37
ENDBRANCH  28  31
ENDBRANCH  26  27
ENDBRANCH   1  26
TORSDOF 16
ENDMDL
MODEL 3
REMARK VINA RESULT:     -12.4      1.560      7.727
REMARK SMILES CCc1nc(C(=O)N2CC[NH+]([C@H](C)C(=O)NCCCNC(=O)c3ccc(-c4c5nc(c(-c6cccc(S(=O)(=O)[O-])c6F)c6ccc([nH]6)c(-c6cccc(S(=O)(=O)[O-])c6F)c6nc(c(-c7cccc(S(=O)(=O)[O-])c7F)c7ccc4[nH]7)C=C6)C=C5)cc3)CC2)n[nH]1
REMARK SMILES IDX 18 1 17 2 16 3 14 4 15 5 12 7 13 8 11 9 6 10 7 11 8 12 9 13
REMARK SMILES IDX 87 14 10 15 86 16 5 18 3 19 4 20 89 21 88 22 2 24 1 25 19 26
REMARK SMILES IDX 20 27 21 28 22 30 23 31 24 32 85 33 25 34 84 35 26 36 27 37
REMARK SMILES IDX 28 38 78 39 29 40 83 41 77 42 79 43 30 44 82 45 76 46 75 47
REMARK SMILES IDX 31 49 63 50 43 51 62 52 44 53 47 54 61 55 80 56 45 57 46 58
REMARK SMILES IDX 60 60 81 61 48 62 32 63 33 64 41 65 34 66 36 67 42 68 35 69
REMARK SMILES IDX 37 70 38 71 39 72 40 73 64 74 65 75 73 76 66 77 68 78 74 79
REMARK SMILES IDX 67 80 69 81 70 82 71 83 72 84 49 85 50 86 58 87 51 88 53 89
REMARK SMILES IDX 59 90 52 91 54 92 55 93 56 94 57 95
REMARK H PARENT 16 6 11 17 89 23 20 29 79 48 47 59
REMARK Flexibility Score: inf
ROOT
ATOM      1  C   UNL A   1      36.360  21.441  25.722  1.00  0.00     0.042 C 
ENDROOT
BRANCH   1   2
ATOM      2  C   UNL A   1      35.634  20.420  24.871  1.00  0.00     0.118 C 
BRANCH   2   3
ATOM      3  N   UNL A   1      34.256  20.186  25.268  1.00  0.00    -0.351 N 
ATOM      4  C   UNL A   1      33.093  20.649  24.718  1.00  0.00     0.278 C 
ATOM      5  O   UNL A   1      32.046  20.108  25.092  1.00  0.00    -0.268 OA
ATOM      6  H   UNL A   1      34.142  19.604  26.053  1.00  0.00     0.163 HD
BRANCH   4   7
ATOM      7  C   UNL A   1      33.065  21.818  23.704  1.00  0.00     0.271 C 
ATOM      8  C   UNL A   1      31.912  21.649  22.699  1.00  0.00     0.086 C 
BRANCH   7   9
ATOM      9  N   UNL A   1      33.386  23.156  24.290  1.00  0.00    -0.322 N 
ATOM     10  C   UNL A   1      31.786  26.489  25.893  1.00  0.00     0.293 C 
ATOM     11  O   UNL A   1      31.706  26.706  27.106  1.00  0.00    -0.265 OA
ATOM     12  N   UNL A   1      32.889  25.791  25.386  1.00  0.00    -0.325 N 
ATOM     13  C   UNL A   1      33.496  24.772  26.230  1.00  0.00     0.181 C 
ATOM     14  C   UNL A   1      33.283  25.670  23.987  1.00  0.00     0.181 C 
ATOM     15  C   UNL A   1      33.048  23.390  25.705  1.00  0.00     0.284 C 
ATOM     16  C   UNL A   1      32.925  24.275  23.435  1.00  0.00     0.284 C 
ATOM     17  H   UNL A   1      34.405  23.132  24.302  1.00  0.00     0.348 HD
BRANCH  10  18
ATOM     18  C   UNL A   1      30.678  26.866  24.972  1.00  0.00     0.239 A 
ATOM     19  C   UNL A   1      29.589  27.930  23.470  1.00  0.00     0.124 A 
ATOM     20  N   UNL A   1      30.548  28.103  24.355  1.00  0.00    -0.208 NA
ATOM     21  N   UNL A   1      29.130  26.650  23.574  1.00  0.00    -0.263 N 
ATOM     22  N   UNL A   1      29.770  25.970  24.531  1.00  0.00    -0.148 NA
ATOM     23  H   UNL A   1      28.415  26.273  23.013  1.00  0.00     0.192 HD
BRANCH  19  24
ATOM     24  C   UNL A   1      29.040  28.891  22.477  1.00  0.00     0.073 C 
ATOM     25  C   UNL A   1      27.645  29.377  22.834  1.00  0.00     0.012 C 
ENDBRANCH  19  24
ENDBRANCH  10  18
ENDBRANCH   7   9
ENDBRANCH   4   7
ENDBRANCH   2   3
ENDBRANCH   1   2
BRANCH   1  26
ATOM     26  C   UNL A   1      37.771  21.736  25.244  1.00  0.00     0.118 C 
BRANCH  26  27
ATOM     27  N   UNL A   1      38.772  20.823  25.790  1.00  0.00    -0.352 N 
ATOM     28  C   UNL A   1      39.939  21.063  26.483  1.00  0.00     0.251 C 
ATOM     29  H   UNL A   1      38.579  19.870  25.636  1.00  0.00     0.163 HD
ATOM     30  O   UNL A   1      40.707  20.139  26.708  1.00  0.00    -0.269 OA
BRANCH  28  31
ATOM     31  C   UNL A   1      40.274  22.434  26.930  1.00  0.00     0.039 A 
ATOM     32  C   UNL A   1      41.181  22.611  27.979  1.00  0.00     0.014 A 
ATOM     33  C   UNL A   1      39.700  23.544  26.317  1.00  0.00     0.014 A 
ATOM     34  C   UNL A   1      41.577  23.902  28.340  1.00  0.00     0.010 A 
ATOM     35  C   UNL A   1      40.196  24.812  26.579  1.00  0.00     0.010 A 
ATOM     36  C   UNL A   1      41.127  25.013  27.608  1.00  0.00    -0.014 A 
BRANCH  36  37
ATOM     37  C   UNL A   1      41.592  26.395  27.896  1.00  0.00     0.031 A 
ATOM     38  C   UNL A   1      43.006  26.798  27.560  1.00  0.00     0.074 A 
ATOM     39  C   UNL A   1      40.785  27.248  28.560  1.00  0.00     0.049 A 
ATOM     40  N   UNL A   1      43.634  27.912  27.834  1.00  0.00    -0.248 NA
ATOM     41  C   UNL A   1      43.840  25.801  26.864  1.00  0.00     0.031 C 
ATOM     42  C   UNL A   1      39.430  26.948  29.027  1.00  0.00     0.029 A 
ATOM     43  N   UNL A   1      41.000  28.536  28.984  1.00  0.00    -0.354 N 
ATOM     44  C   UNL A   1      44.940  27.729  27.393  1.00  0.00     0.074 A 
ATOM     45  C   UNL A   1      45.030  26.381  26.882  1.00  0.00     0.031 C 
ATOM     46  C   UNL A   1      38.929  28.022  29.657  1.00  0.00     0.029 A 
ATOM     47  C   UNL A   1      39.937  29.077  29.671  1.00  0.00     0.049 A 
ATOM     48  H   UNL A   1      41.836  29.027  28.813  1.00  0.00     0.167 HD
ATOM     49  C   UNL A   1      45.965  28.614  27.378  1.00  0.00     0.034 A 
ATOM     50  C   UNL A   1      39.793  30.286  30.248  1.00  0.00     0.034 A 
ATOM     51  C   UNL A   1      45.850  29.976  27.819  1.00  0.00     0.049 A 
ATOM     52  C   UNL A   1      40.922  31.277  30.150  1.00  0.00     0.074 A 
ATOM     53  C   UNL A   1      46.793  30.985  27.752  1.00  0.00     0.029 A 
ATOM     54  N   UNL A   1      44.718  30.522  28.405  1.00  0.00    -0.354 N 
ATOM     55  N   UNL A   1      42.098  31.135  29.589  1.00  0.00    -0.248 NA
ATOM     56  C   UNL A   1      40.689  32.608  30.729  1.00  0.00     0.031 C 
ATOM     57  C   UNL A   1      46.236  32.139  28.312  1.00  0.00     0.029 A 
ATOM     58  C   UNL A   1      44.938  31.854  28.706  1.00  0.00     0.049 A 
ATOM     59  H   UNL A   1      43.881  30.035  28.580  1.00  0.00     0.167 HD
ATOM     60  C   UNL A   1      42.730  32.367  29.711  1.00  0.00     0.074 A 
ATOM     61  C   UNL A   1      41.798  33.249  30.381  1.00  0.00     0.031 C 
ATOM     62  C   UNL A   1      43.975  32.732  29.319  1.00  0.00     0.034 A 
BRANCH  49  63
ATOM     63  C   UNL A   1      47.278  28.155  26.799  1.00  0.00     0.023 A 
ATOM     64  C   UNL A   1      48.349  27.842  27.664  1.00  0.00     0.012 A 
ATOM     65  C   UNL A   1      47.442  27.983  25.411  1.00  0.00     0.148 A 
ATOM     66  C   UNL A   1      49.571  27.407  27.156  1.00  0.00     0.002 A 
ATOM     67  C   UNL A   1      48.648  27.501  24.916  1.00  0.00     0.091 A 
ATOM     68  F   UNL A   1      46.422  28.305  24.602  1.00  0.00    -0.205 F 
ATOM     69  C   UNL A   1      49.717  27.226  25.785  1.00  0.00     0.022 A 
BRANCH  67  70
ATOM     70  S   UNL A   1      48.912  27.155  23.173  1.00  0.00     0.127 S 
ATOM     71  O   UNL A   1      48.218  25.878  23.016  1.00  0.00    -0.237 OA
ATOM     72  O   UNL A   1      48.250  28.292  22.531  1.00  0.00    -0.237 OA
ATOM     73  O   UNL A   1      50.355  27.109  22.986  1.00  0.00    -0.744 OA
ENDBRANCH  67  70
ENDBRANCH  49  63
BRANCH  50  74
ATOM     74  C   UNL A   1      38.501  30.656  30.896  1.00  0.00     0.023 A 
ATOM     75  C   UNL A   1      38.288  30.316  32.247  1.00  0.00     0.012 A 
ATOM     76  C   UNL A   1      37.500  31.362  30.202  1.00  0.00     0.148 A 
ATOM     77  C   UNL A   1      37.088  30.636  32.882  1.00  0.00     0.002 A 
ATOM     78  C   UNL A   1      36.330  31.728  30.856  1.00  0.00     0.091 A 
ATOM     79  F   UNL A   1      37.716  31.670  28.915  1.00  0.00    -0.205 F 
ATOM     80  C   UNL A   1      36.112  31.350  32.191  1.00  0.00     0.022 A 
BRANCH  78  81
ATOM     81  S   UNL A   1      35.078  32.763  30.087  1.00  0.00     0.127 S 
ATOM     82  O   UNL A   1      34.500  31.855  29.102  1.00  0.00    -0.237 OA
ATOM     83  O   UNL A   1      34.207  33.080  31.219  1.00  0.00    -0.237 OA
ATOM     84  O   UNL A   1      35.796  33.911  29.549  1.00  0.00    -0.744 OA
ENDBRANCH  78  81
ENDBRANCH  50  74
BRANCH  62  85
ATOM     85  C   UNL A   1      44.394  34.158  29.563  1.00  0.00     0.023 A 
ATOM     86  C   UNL A   1      44.999  34.512  30.785  1.00  0.00     0.012 A 
ATOM     87  C   UNL A   1      44.258  35.127  28.550  1.00  0.00     0.148 A 
ATOM     88  C   UNL A   1      45.431  35.819  31.007  1.00  0.00     0.002 A 
ATOM     89  C   UNL A   1      44.736  36.415  28.761  1.00  0.00     0.091 A 
ATOM     90  F   UNL A   1      43.663  34.774  27.401  1.00  0.00    -0.205 F 
ATOM     91  C   UNL A   1      45.311  36.765  29.992  1.00  0.00     0.022 A 
BRANCH  89  92
ATOM     92  S   UNL A   1      44.714  37.669  27.474  1.00  0.00     0.127 S 
ATOM     93  O   UNL A   1      45.723  37.160  26.547  1.00  0.00    -0.237 OA
ATOM     94  O   UNL A   1      43.338  37.586  26.984  1.00  0.00    -0.237 OA
ATOM     95  O   UNL A   1      45.045  38.925  28.134  1.00  0.00    -0.744 OA
ENDBRANCH  89  92
ENDBRANCH  62  85
ENDBRANCH  36  37
ENDBRANCH  28  31
ENDBRANCH  26  27
ENDBRANCH   1  26
TORSDOF 16
ENDMDL
