MODEL 1
REMARK VINA RESULT:     -13.6      0.000      0.000
REMARK SMILES CCc1cc(N2CCC[C@H](C(=O)NCCCNC(=O)c3ccc(-c4c5nc(c(-c6cccc(S(=O)(=O)[O-])c6F)c6ccc([nH]6)c(-c6cccc(S(=O)(=O)[O-])c6F)c6nc(c(-c7cccc(S(=O)(=O)[O-])c7F)c7ccc4[nH]7)C=C6)C=C5)cc3)C2)nc(-c2ccc(Cl)cc2)n1
REMARK SMILES IDX 15 1 14 2 13 3 11 4 12 5 10 7 6 8 7 9 83 10 8 11 9 12 5 13
REMARK SMILES IDX 3 14 4 15 93 16 85 17 84 18 2 19 1 20 86 21 87 22 92 23
REMARK SMILES IDX 88 24 91 25 89 26 90 27 16 28 17 29 18 30 19 32 20 33 21 34
REMARK SMILES IDX 82 35 22 36 81 37 23 38 24 39 25 40 75 41 26 42 80 43 74 44
REMARK SMILES IDX 76 45 27 46 79 47 73 48 72 49 28 51 60 52 40 53 59 54 41 55
REMARK SMILES IDX 44 56 58 57 77 58 42 59 43 60 57 62 78 63 45 64 29 65 30 66
REMARK SMILES IDX 38 67 31 68 33 69 39 70 32 71 34 72 35 73 36 74 37 75 61 76
REMARK SMILES IDX 62 77 70 78 63 79 65 80 71 81 64 82 66 83 67 84 68 85 69 86
REMARK SMILES IDX 46 87 47 88 55 89 48 90 50 91 56 92 49 93 51 94 52 95 53 96
REMARK SMILES IDX 54 97
REMARK H PARENT 13 6 17 31 76 50 44 61
REMARK Flexibility Score: inf
ROOT
ATOM      1  C   UNL A   1      31.562  28.866  27.222  1.00  0.00     0.042 C 
ENDROOT
BRANCH   1   2
ATOM      2  C   UNL A   1      31.870  27.464  26.732  1.00  0.00     0.117 C 
BRANCH   2   3
ATOM      3  N   UNL A   1      33.058  27.353  25.921  1.00  0.00    -0.356 N 
ATOM      4  C   UNL A   1      33.182  26.933  24.638  1.00  0.00     0.224 C 
ATOM      5  O   UNL A   1      34.155  27.362  24.006  1.00  0.00    -0.275 OA
ATOM      6  H   UNL A   1      33.897  27.621  26.362  1.00  0.00     0.163 HD
BRANCH   4   7
ATOM      7  C   UNL A   1      32.213  25.966  23.954  1.00  0.00     0.098 C 
ATOM      8  N   UNL A   1      33.224  23.755  23.631  1.00  0.00    -0.356 N 
ATOM      9  C   UNL A   1      32.978  23.664  22.201  1.00  0.00     0.118 C 
ATOM     10  C   UNL A   1      32.312  24.530  24.451  1.00  0.00     0.131 C 
ATOM     11  C   UNL A   1      32.792  25.053  21.579  1.00  0.00     0.022 C 
ATOM     12  C   UNL A   1      32.084  26.106  22.435  1.00  0.00     0.017 C 
BRANCH   8  13
ATOM     13  C   UNL A   1      34.056  22.846  24.256  1.00  0.00     0.132 A 
ATOM     14  C   UNL A   1      36.184  22.194  25.064  1.00  0.00     0.046 A 
ATOM     15  C   UNL A   1      35.357  23.189  24.576  1.00  0.00     0.070 A 
ATOM     16  N   UNL A   1      35.748  20.931  25.229  1.00  0.00    -0.233 NA
ATOM     17  C   UNL A   1      34.474  20.677  24.887  1.00  0.00     0.161 A 
ATOM     18  N   UNL A   1      33.606  21.589  24.411  1.00  0.00    -0.211 NA
BRANCH  14  19
ATOM     19  C   UNL A   1      37.646  22.395  25.362  1.00  0.00     0.053 C 
ATOM     20  C   UNL A   1      38.028  23.658  26.116  1.00  0.00     0.011 C 
ENDBRANCH  14  19
BRANCH  17  21
ATOM     21  C   UNL A   1      34.048  19.276  24.934  1.00  0.00     0.019 A 
ATOM     22  C   UNL A   1      34.847  18.258  24.386  1.00  0.00     0.013 A 
ATOM     23  C   UNL A   1      32.828  18.905  25.533  1.00  0.00     0.013 A 
ATOM     24  C   UNL A   1      34.471  16.913  24.483  1.00  0.00     0.021 A 
ATOM     25  C   UNL A   1      32.446  17.562  25.628  1.00  0.00     0.021 A 
ATOM     26  C   UNL A   1      33.278  16.571  25.114  1.00  0.00     0.041 A 
ATOM     27  Cl  UNL A   1      32.834  14.917  25.274  1.00  0.00    -0.084 Cl
ENDBRANCH  17  21
ENDBRANCH   8  13
ENDBRANCH   4   7
ENDBRANCH   2   3
ENDBRANCH   1   2
BRANCH   1  28
ATOM     28  C   UNL A   1      32.339  29.909  26.438  1.00  0.00     0.118 C 
BRANCH  28  29
ATOM     29  N   UNL A   1      32.339  31.243  27.020  1.00  0.00    -0.352 N 
ATOM     30  C   UNL A   1      33.366  31.958  27.603  1.00  0.00     0.251 C 
ATOM     31  H   UNL A   1      31.472  31.707  26.994  1.00  0.00     0.163 HD
ATOM     32  O   UNL A   1      33.120  33.047  28.103  1.00  0.00    -0.269 OA
BRANCH  30  33
ATOM     33  C   UNL A   1      34.733  31.389  27.739  1.00  0.00     0.039 A 
ATOM     34  C   UNL A   1      35.790  32.297  27.871  1.00  0.00     0.014 A 
ATOM     35  C   UNL A   1      34.992  30.026  27.867  1.00  0.00     0.014 A 
ATOM     36  C   UNL A   1      37.035  31.854  28.308  1.00  0.00     0.010 A 
ATOM     37  C   UNL A   1      36.180  29.602  28.444  1.00  0.00     0.010 A 
ATOM     38  C   UNL A   1      37.200  30.519  28.703  1.00  0.00    -0.014 A 
BRANCH  38  39
ATOM     39  C   UNL A   1      38.386  30.116  29.490  1.00  0.00     0.031 A 
ATOM     40  C   UNL A   1      38.574  30.588  30.900  1.00  0.00     0.074 A 
ATOM     41  C   UNL A   1      39.334  29.378  28.876  1.00  0.00     0.049 A 
ATOM     42  N   UNL A   1      39.519  30.276  31.746  1.00  0.00    -0.248 NA
ATOM     43  C   UNL A   1      37.601  31.563  31.423  1.00  0.00     0.031 C 
ATOM     44  C   UNL A   1      39.319  28.992  27.459  1.00  0.00     0.029 A 
ATOM     45  N   UNL A   1      40.490  28.818  29.351  1.00  0.00    -0.354 N 
ATOM     46  C   UNL A   1      39.271  31.029  32.886  1.00  0.00     0.074 A 
ATOM     47  C   UNL A   1      38.121  31.857  32.605  1.00  0.00     0.031 C 
ATOM     48  C   UNL A   1      40.380  28.215  27.197  1.00  0.00     0.029 A 
ATOM     49  C   UNL A   1      41.168  28.070  28.414  1.00  0.00     0.049 A 
ATOM     50  H   UNL A   1      40.807  28.939  30.275  1.00  0.00     0.167 HD
ATOM     51  C   UNL A   1      39.920  30.999  34.073  1.00  0.00     0.034 A 
ATOM     52  C   UNL A   1      42.288  27.332  28.533  1.00  0.00     0.034 A 
ATOM     53  C   UNL A   1      41.038  30.136  34.340  1.00  0.00     0.049 A 
ATOM     54  C   UNL A   1      42.931  27.241  29.888  1.00  0.00     0.074 A 
ATOM     55  C   UNL A   1      41.716  29.947  35.530  1.00  0.00     0.029 A 
ATOM     56  N   UNL A   1      41.644  29.319  33.397  1.00  0.00    -0.354 N 
ATOM     57  N   UNL A   1      42.568  27.812  31.012  1.00  0.00    -0.248 NA
ATOM     58  C   UNL A   1      44.110  26.374  30.004  1.00  0.00     0.031 C 
ATOM     59  C   UNL A   1      42.747  29.030  35.299  1.00  0.00     0.029 A 
ATOM     60  C   UNL A   1      42.696  28.629  33.972  1.00  0.00     0.049 A 
ATOM     61  H   UNL A   1      41.366  29.242  32.456  1.00  0.00     0.167 HD
ATOM     62  C   UNL A   1      43.460  27.360  31.975  1.00  0.00     0.074 A 
ATOM     63  C   UNL A   1      44.356  26.435  31.306  1.00  0.00     0.031 C 
ATOM     64  C   UNL A   1      43.549  27.691  33.287  1.00  0.00     0.034 A 
BRANCH  51  65
ATOM     65  C   UNL A   1      39.393  31.880  35.175  1.00  0.00     0.023 A 
ATOM     66  C   UNL A   1      38.416  31.376  36.060  1.00  0.00     0.012 A 
ATOM     67  C   UNL A   1      39.877  33.189  35.357  1.00  0.00     0.148 A 
ATOM     68  C   UNL A   1      37.899  32.172  37.081  1.00  0.00     0.002 A 
ATOM     69  C   UNL A   1      39.390  33.962  36.406  1.00  0.00     0.091 A 
ATOM     70  F   UNL A   1      40.787  33.661  34.494  1.00  0.00    -0.205 F 
ATOM     71  C   UNL A   1      38.393  33.461  37.259  1.00  0.00     0.022 A 
BRANCH  69  72
ATOM     72  S   UNL A   1      40.011  35.608  36.769  1.00  0.00     0.127 S 
ATOM     73  O   UNL A   1      41.453  35.372  36.832  1.00  0.00    -0.237 OA
ATOM     74  O   UNL A   1      39.569  36.368  35.598  1.00  0.00    -0.237 OA
ATOM     75  O   UNL A   1      39.388  36.006  38.023  1.00  0.00    -0.744 OA
ENDBRANCH  69  72
ENDBRANCH  51  65
BRANCH  52  76
ATOM     76  C   UNL A   1      42.799  26.554  27.369  1.00  0.00     0.023 A 
ATOM     77  C   UNL A   1      43.674  27.171  26.453  1.00  0.00     0.012 A 
ATOM     78  C   UNL A   1      42.463  25.198  27.185  1.00  0.00     0.148 A 
ATOM     79  C   UNL A   1      44.178  26.464  25.359  1.00  0.00     0.002 A 
ATOM     80  C   UNL A   1      43.012  24.485  26.125  1.00  0.00     0.091 A 
ATOM     81  F   UNL A   1      41.623  24.629  28.060  1.00  0.00    -0.205 F 
ATOM     82  C   UNL A   1      43.855  25.120  25.200  1.00  0.00     0.022 A 
BRANCH  80  83
ATOM     83  S   UNL A   1      42.759  22.717  25.924  1.00  0.00     0.127 S 
ATOM     84  O   UNL A   1      41.304  22.615  25.977  1.00  0.00    -0.237 OA
ATOM     85  O   UNL A   1      43.348  22.471  24.607  1.00  0.00    -0.237 OA
ATOM     86  O   UNL A   1      43.479  22.092  27.026  1.00  0.00    -0.744 OA
ENDBRANCH  80  83
ENDBRANCH  52  76
BRANCH  64  87
ATOM     87  C   UNL A   1      44.650  27.045  34.081  1.00  0.00     0.023 A 
ATOM     88  C   UNL A   1      45.937  27.619  34.080  1.00  0.00     0.012 A 
ATOM     89  C   UNL A   1      44.397  25.907  34.871  1.00  0.00     0.148 A 
ATOM     90  C   UNL A   1      46.967  27.046  34.823  1.00  0.00     0.002 A 
ATOM     91  C   UNL A   1      45.416  25.373  35.649  1.00  0.00     0.091 A 
ATOM     92  F   UNL A   1      43.170  25.365  34.841  1.00  0.00    -0.205 F 
ATOM     93  C   UNL A   1      46.704  25.931  35.616  1.00  0.00     0.022 A 
BRANCH  91  94
ATOM     94  S   UNL A   1      45.139  24.002  36.775  1.00  0.00     0.127 S 
ATOM     95  O   UNL A   1      46.462  23.837  37.374  1.00  0.00    -0.237 OA
ATOM     96  O   UNL A   1      44.122  24.541  37.679  1.00  0.00    -0.237 OA
ATOM     97  O   UNL A   1      44.681  22.894  35.948  1.00  0.00    -0.744 OA
ENDBRANCH  91  94
ENDBRANCH  64  87
ENDBRANCH  38  39
ENDBRANCH  30  33
ENDBRANCH  28  29
ENDBRANCH   1  28
TORSDOF 16
ENDMDL
MODEL 2
REMARK VINA RESULT:     -12.7      1.266      2.137
REMARK SMILES CCc1cc(N2CCC[C@H](C(=O)NCCCNC(=O)c3ccc(-c4c5nc(c(-c6cccc(S(=O)(=O)[O-])c6F)c6ccc([nH]6)c(-c6cccc(S(=O)(=O)[O-])c6F)c6nc(c(-c7cccc(S(=O)(=O)[O-])c7F)c7ccc4[nH]7)C=C6)C=C5)cc3)C2)nc(-c2ccc(Cl)cc2)n1
REMARK SMILES IDX 15 1 14 2 13 3 11 4 12 5 10 7 6 8 7 9 83 10 8 11 9 12 5 13
REMARK SMILES IDX 3 14 4 15 93 16 85 17 84 18 2 19 1 20 86 21 87 22 92 23
REMARK SMILES IDX 88 24 91 25 89 26 90 27 16 28 17 29 18 30 19 32 20 33 21 34
REMARK SMILES IDX 82 35 22 36 81 37 23 38 24 39 25 40 75 41 26 42 80 43 74 44
REMARK SMILES IDX 76 45 27 46 79 47 73 48 72 49 28 51 60 52 40 53 59 54 41 55
REMARK SMILES IDX 44 56 58 57 77 58 42 59 43 60 57 62 78 63 45 64 29 65 30 66
REMARK SMILES IDX 38 67 31 68 33 69 39 70 32 71 34 72 35 73 36 74 37 75 61 76
REMARK SMILES IDX 62 77 70 78 63 79 65 80 71 81 64 82 66 83 67 84 68 85 69 86
REMARK SMILES IDX 46 87 47 88 55 89 48 90 50 91 56 92 49 93 51 94 52 95 53 96
REMARK SMILES IDX 54 97
REMARK H PARENT 13 6 17 31 76 50 44 61
REMARK Flexibility Score: inf
ROOT
ATOM      1  C   UNL A   1      31.364  29.948  25.276  1.00  0.00     0.042 C 
ENDROOT
BRANCH   1   2
ATOM      2  C   UNL A   1      31.258  28.494  24.855  1.00  0.00     0.117 C 
BRANCH   2   3
ATOM      3  N   UNL A   1      31.033  28.286  23.446  1.00  0.00    -0.356 N 
ATOM      4  C   UNL A   1      31.642  27.417  22.601  1.00  0.00     0.224 C 
ATOM      5  O   UNL A   1      30.996  27.067  21.606  1.00  0.00    -0.275 OA
ATOM      6  H   UNL A   1      30.340  28.856  23.039  1.00  0.00     0.163 HD
BRANCH   4   7
ATOM      7  C   UNL A   1      33.058  26.874  22.803  1.00  0.00     0.098 C 
ATOM      8  N   UNL A   1      33.081  24.970  24.349  1.00  0.00    -0.356 N 
ATOM      9  C   UNL A   1      34.078  25.506  25.262  1.00  0.00     0.118 C 
ATOM     10  C   UNL A   1      33.128  25.360  22.953  1.00  0.00     0.131 C 
ATOM     11  C   UNL A   1      34.157  27.033  25.165  1.00  0.00     0.022 C 
ATOM     12  C   UNL A   1      33.943  27.651  23.780  1.00  0.00     0.017 C 
BRANCH   8  13
ATOM     13  C   UNL A   1      32.350  23.849  24.693  1.00  0.00     0.132 A 
ATOM     14  C   UNL A   1      30.692  22.768  25.991  1.00  0.00     0.046 A 
ATOM     15  C   UNL A   1      31.288  23.944  25.573  1.00  0.00     0.070 A 
ATOM     16  N   UNL A   1      31.119  21.567  25.560  1.00  0.00    -0.233 NA
ATOM     17  C   UNL A   1      32.160  21.559  24.713  1.00  0.00     0.161 A 
ATOM     18  N   UNL A   1      32.792  22.656  24.256  1.00  0.00    -0.211 NA
BRANCH  14  19
ATOM     19  C   UNL A   1      29.593  22.710  27.020  1.00  0.00     0.053 C 
ATOM     20  C   UNL A   1      28.831  23.998  27.288  1.00  0.00     0.011 C 
ENDBRANCH  14  19
BRANCH  17  21
ATOM     21  C   UNL A   1      32.711  20.247  24.359  1.00  0.00     0.019 A 
ATOM     22  C   UNL A   1      32.071  19.424  23.418  1.00  0.00     0.013 A 
ATOM     23  C   UNL A   1      33.900  19.775  24.947  1.00  0.00     0.013 A 
ATOM     24  C   UNL A   1      32.627  18.198  23.034  1.00  0.00     0.021 A 
ATOM     25  C   UNL A   1      34.457  18.548  24.570  1.00  0.00     0.021 A 
ATOM     26  C   UNL A   1      33.824  17.772  23.603  1.00  0.00     0.041 A 
ATOM     27  Cl  UNL A   1      34.532  16.286  23.101  1.00  0.00    -0.084 Cl
ENDBRANCH  17  21
ENDBRANCH   8  13
ENDBRANCH   4   7
ENDBRANCH   2   3
ENDBRANCH   1   2
BRANCH   1  28
ATOM     28  C   UNL A   1      32.345  30.121  26.423  1.00  0.00     0.118 C 
BRANCH  28  29
ATOM     29  N   UNL A   1      32.368  31.449  27.018  1.00  0.00    -0.352 N 
ATOM     30  C   UNL A   1      33.404  32.137  27.615  1.00  0.00     0.251 C 
ATOM     31  H   UNL A   1      31.511  31.932  26.989  1.00  0.00     0.163 HD
ATOM     32  O   UNL A   1      33.177  33.226  28.123  1.00  0.00    -0.269 OA
BRANCH  30  33
ATOM     33  C   UNL A   1      34.759  31.538  27.757  1.00  0.00     0.039 A 
ATOM     34  C   UNL A   1      35.838  32.422  27.859  1.00  0.00     0.014 A 
ATOM     35  C   UNL A   1      34.984  30.173  27.917  1.00  0.00     0.014 A 
ATOM     36  C   UNL A   1      37.075  31.959  28.299  1.00  0.00     0.010 A 
ATOM     37  C   UNL A   1      36.165  29.733  28.497  1.00  0.00     0.010 A 
ATOM     38  C   UNL A   1      37.210  30.631  28.727  1.00  0.00    -0.014 A 
BRANCH  38  39
ATOM     39  C   UNL A   1      38.391  30.219  29.516  1.00  0.00     0.031 A 
ATOM     40  C   UNL A   1      38.578  30.688  30.928  1.00  0.00     0.074 A 
ATOM     41  C   UNL A   1      39.335  29.475  28.903  1.00  0.00     0.049 A 
ATOM     42  N   UNL A   1      39.519  30.368  31.775  1.00  0.00    -0.248 NA
ATOM     43  C   UNL A   1      37.612  31.669  31.449  1.00  0.00     0.031 C 
ATOM     44  C   UNL A   1      39.321  29.091  27.486  1.00  0.00     0.029 A 
ATOM     45  N   UNL A   1      40.486  28.906  29.381  1.00  0.00    -0.354 N 
ATOM     46  C   UNL A   1      39.274  31.122  32.915  1.00  0.00     0.074 A 
ATOM     47  C   UNL A   1      38.130  31.958  32.633  1.00  0.00     0.031 C 
ATOM     48  C   UNL A   1      40.377  28.307  27.226  1.00  0.00     0.029 A 
ATOM     49  C   UNL A   1      41.161  28.155  28.445  1.00  0.00     0.049 A 
ATOM     50  H   UNL A   1      40.802  29.024  30.306  1.00  0.00     0.167 HD
ATOM     51  C   UNL A   1      39.920  31.086  34.104  1.00  0.00     0.034 A 
ATOM     52  C   UNL A   1      42.275  27.408  28.566  1.00  0.00     0.034 A 
ATOM     53  C   UNL A   1      41.031  30.215  34.373  1.00  0.00     0.049 A 
ATOM     54  C   UNL A   1      42.914  27.311  29.922  1.00  0.00     0.074 A 
ATOM     55  C   UNL A   1      41.705  30.019  35.564  1.00  0.00     0.029 A 
ATOM     56  N   UNL A   1      41.634  29.394  33.430  1.00  0.00    -0.354 N 
ATOM     57  N   UNL A   1      42.553  27.883  31.046  1.00  0.00    -0.248 NA
ATOM     58  C   UNL A   1      44.086  26.435  30.040  1.00  0.00     0.031 C 
ATOM     59  C   UNL A   1      42.730  29.095  35.334  1.00  0.00     0.029 A 
ATOM     60  C   UNL A   1      42.679  28.696  34.007  1.00  0.00     0.049 A 
ATOM     61  H   UNL A   1      41.358  29.320  32.488  1.00  0.00     0.167 HD
ATOM     62  C   UNL A   1      43.439  27.423  32.011  1.00  0.00     0.074 A 
ATOM     63  C   UNL A   1      44.330  26.494  31.342  1.00  0.00     0.031 C 
ATOM     64  C   UNL A   1      43.527  27.753  33.323  1.00  0.00     0.034 A 
BRANCH  51  65
ATOM     65  C   UNL A   1      39.396  31.969  35.205  1.00  0.00     0.023 A 
ATOM     66  C   UNL A   1      38.398  31.479  36.074  1.00  0.00     0.012 A 
ATOM     67  C   UNL A   1      39.904  33.267  35.404  1.00  0.00     0.148 A 
ATOM     68  C   UNL A   1      37.884  32.278  37.094  1.00  0.00     0.002 A 
ATOM     69  C   UNL A   1      39.420  34.042  36.452  1.00  0.00     0.091 A 
ATOM     70  F   UNL A   1      40.835  33.726  34.556  1.00  0.00    -0.205 F 
ATOM     71  C   UNL A   1      38.401  33.555  37.288  1.00  0.00     0.022 A 
BRANCH  69  72
ATOM     72  S   UNL A   1      40.069  35.673  36.835  1.00  0.00     0.127 S 
ATOM     73  O   UNL A   1      39.629  36.445  35.674  1.00  0.00    -0.237 OA
ATOM     74  O   UNL A   1      39.373  35.995  38.082  1.00  0.00    -0.237 OA
ATOM     75  O   UNL A   1      41.510  35.511  36.967  1.00  0.00    -0.744 OA
ENDBRANCH  69  72
ENDBRANCH  51  65
BRANCH  52  76
ATOM     76  C   UNL A   1      42.784  26.627  27.401  1.00  0.00     0.023 A 
ATOM     77  C   UNL A   1      43.700  27.225  26.514  1.00  0.00     0.012 A 
ATOM     78  C   UNL A   1      42.403  25.288  27.192  1.00  0.00     0.148 A 
ATOM     79  C   UNL A   1      44.202  26.515  25.421  1.00  0.00     0.002 A 
ATOM     80  C   UNL A   1      42.949  24.569  26.133  1.00  0.00     0.091 A 
ATOM     81  F   UNL A   1      41.524  24.737  28.040  1.00  0.00    -0.205 F 
ATOM     82  C   UNL A   1      43.835  25.185  25.236  1.00  0.00     0.022 A 
BRANCH  80  83
ATOM     83  S   UNL A   1      42.637  22.814  25.902  1.00  0.00     0.127 S 
ATOM     84  O   UNL A   1      43.148  22.594  24.552  1.00  0.00    -0.237 OA
ATOM     85  O   UNL A   1      43.441  22.218  26.970  1.00  0.00    -0.237 OA
ATOM     86  O   UNL A   1      41.200  22.647  26.073  1.00  0.00    -0.744 OA
ENDBRANCH  80  83
ENDBRANCH  52  76
BRANCH  64  87
ATOM     87  C   UNL A   1      44.621  27.098  34.119  1.00  0.00     0.023 A 
ATOM     88  C   UNL A   1      45.906  27.677  34.144  1.00  0.00     0.012 A 
ATOM     89  C   UNL A   1      44.364  25.946  34.886  1.00  0.00     0.148 A 
ATOM     90  C   UNL A   1      46.929  27.097  34.889  1.00  0.00     0.002 A 
ATOM     91  C   UNL A   1      45.376  25.403  35.668  1.00  0.00     0.091 A 
ATOM     92  F   UNL A   1      43.141  25.399  34.832  1.00  0.00    -0.205 F 
ATOM     93  C   UNL A   1      46.662  25.967  35.659  1.00  0.00     0.022 A 
BRANCH  91  94
ATOM     94  S   UNL A   1      45.092  24.011  36.766  1.00  0.00     0.127 S 
ATOM     95  O   UNL A   1      44.196  24.595  37.761  1.00  0.00    -0.237 OA
ATOM     96  O   UNL A   1      44.464  23.034  35.875  1.00  0.00    -0.237 OA
ATOM     97  O   UNL A   1      46.406  23.617  37.258  1.00  0.00    -0.744 OA
ENDBRANCH  91  94
ENDBRANCH  64  87
ENDBRANCH  38  39
ENDBRANCH  30  33
ENDBRANCH  28  29
ENDBRANCH   1  28
TORSDOF 16
ENDMDL
MODEL 3
REMARK VINA RESULT:     -12.3      1.902      2.500
REMARK SMILES CCc1cc(N2CCC[C@H](C(=O)NCCCNC(=O)c3ccc(-c4c5nc(c(-c6cccc(S(=O)(=O)[O-])c6F)c6ccc([nH]6)c(-c6cccc(S(=O)(=O)[O-])c6F)c6nc(c(-c7cccc(S(=O)(=O)[O-])c7F)c7ccc4[nH]7)C=C6)C=C5)cc3)C2)nc(-c2ccc(Cl)cc2)n1
REMARK SMILES IDX 15 1 14 2 13 3 11 4 12 5 10 7 6 8 7 9 83 10 8 11 9 12 5 13
REMARK SMILES IDX 3 14 4 15 93 16 85 17 84 18 2 19 1 20 86 21 87 22 92 23
REMARK SMILES IDX 88 24 91 25 89 26 90 27 16 28 17 29 18 30 19 32 20 33 21 34
REMARK SMILES IDX 82 35 22 36 81 37 23 38 24 39 25 40 75 41 26 42 80 43 74 44
REMARK SMILES IDX 76 45 27 46 79 47 73 48 72 49 28 51 60 52 40 53 59 54 41 55
REMARK SMILES IDX 44 56 58 57 77 58 42 59 43 60 57 62 78 63 45 64 29 65 30 66
REMARK SMILES IDX 38 67 31 68 33 69 39 70 32 71 34 72 35 73 36 74 37 75 61 76
REMARK SMILES IDX 62 77 70 78 63 79 65 80 71 81 64 82 66 83 67 84 68 85 69 86
REMARK SMILES IDX 46 87 47 88 55 89 48 90 50 91 56 92 49 93 51 94 52 95 53 96
REMARK SMILES IDX 54 97
REMARK H PARENT 13 6 17 31 76 50 44 61
REMARK Flexibility Score: inf
ROOT
ATOM      1  C   UNL A   1      31.922  29.809  26.693  1.00  0.00     0.042 C 
ENDROOT
BRANCH   1   2
ATOM      2  C   UNL A   1      31.793  28.554  25.850  1.00  0.00     0.117 C 
BRANCH   2   3
ATOM      3  N   UNL A   1      33.042  28.019  25.366  1.00  0.00    -0.356 N 
ATOM      4  C   UNL A   1      33.267  27.182  24.323  1.00  0.00     0.224 C 
ATOM      5  O   UNL A   1      34.385  27.239  23.798  1.00  0.00    -0.275 OA
ATOM      6  H   UNL A   1      33.844  28.302  25.863  1.00  0.00     0.163 HD
BRANCH   4   7
ATOM      7  C   UNL A   1      32.239  26.183  23.786  1.00  0.00     0.098 C 
ATOM      8  N   UNL A   1      33.167  23.918  23.655  1.00  0.00    -0.356 N 
ATOM      9  C   UNL A   1      32.853  23.687  22.254  1.00  0.00     0.118 C 
ATOM     10  C   UNL A   1      32.318  24.804  24.427  1.00  0.00     0.131 C 
ATOM     11  C   UNL A   1      32.680  25.009  21.498  1.00  0.00     0.022 C 
ATOM     12  C   UNL A   1      32.045  26.170  22.268  1.00  0.00     0.017 C 
BRANCH   8  13
ATOM     13  C   UNL A   1      34.000  23.050  24.335  1.00  0.00     0.132 A 
ATOM     14  C   UNL A   1      36.109  22.487  25.252  1.00  0.00     0.046 A 
ATOM     15  C   UNL A   1      35.273  23.444  24.707  1.00  0.00     0.070 A 
ATOM     16  N   UNL A   1      35.708  21.214  25.423  1.00  0.00    -0.233 NA
ATOM     17  C   UNL A   1      34.461  20.909  25.030  1.00  0.00     0.161 A 
ATOM     18  N   UNL A   1      33.586  21.781  24.496  1.00  0.00    -0.211 NA
BRANCH  14  19
ATOM     19  C   UNL A   1      37.549  22.743  25.611  1.00  0.00     0.053 C 
ATOM     20  C   UNL A   1      37.910  24.156  26.041  1.00  0.00     0.011 C 
ENDBRANCH  14  19
BRANCH  17  21
ATOM     21  C   UNL A   1      34.080  19.495  25.087  1.00  0.00     0.019 A 
ATOM     22  C   UNL A   1      32.965  19.075  25.833  1.00  0.00     0.013 A 
ATOM     23  C   UNL A   1      34.814  18.515  24.392  1.00  0.00     0.013 A 
ATOM     24  C   UNL A   1      32.564  17.734  25.839  1.00  0.00     0.021 A 
ATOM     25  C   UNL A   1      34.418  17.172  24.399  1.00  0.00     0.021 A 
ATOM     26  C   UNL A   1      33.285  16.792  25.113  1.00  0.00     0.041 A 
ATOM     27  Cl  UNL A   1      32.769  15.151  25.083  1.00  0.00    -0.084 Cl
ENDBRANCH  17  21
ENDBRANCH   8  13
ENDBRANCH   4   7
ENDBRANCH   2   3
ENDBRANCH   1   2
BRANCH   1  28
ATOM     28  C   UNL A   1      33.373  30.236  26.831  1.00  0.00     0.118 C 
BRANCH  28  29
ATOM     29  N   UNL A   1      33.611  31.311  27.782  1.00  0.00    -0.352 N 
ATOM     30  C   UNL A   1      34.670  31.520  28.641  1.00  0.00     0.251 C 
ATOM     31  H   UNL A   1      32.906  31.997  27.817  1.00  0.00     0.163 HD
ATOM     32  O   UNL A   1      34.626  32.463  29.419  1.00  0.00    -0.269 OA
BRANCH  30  33
ATOM     33  C   UNL A   1      35.807  30.564  28.725  1.00  0.00     0.039 A 
ATOM     34  C   UNL A   1      36.867  30.757  27.832  1.00  0.00     0.014 A 
ATOM     35  C   UNL A   1      35.920  29.586  29.710  1.00  0.00     0.014 A 
ATOM     36  C   UNL A   1      38.082  30.112  28.048  1.00  0.00     0.010 A 
ATOM     37  C   UNL A   1      37.167  29.060  30.018  1.00  0.00     0.010 A 
ATOM     38  C   UNL A   1      38.268  29.348  29.209  1.00  0.00    -0.014 A 
BRANCH  38  39
ATOM     39  C   UNL A   1      39.630  28.955  29.632  1.00  0.00     0.031 A 
ATOM     40  C   UNL A   1      40.333  29.679  30.740  1.00  0.00     0.074 A 
ATOM     41  C   UNL A   1      40.252  27.979  28.939  1.00  0.00     0.049 A 
ATOM     42  N   UNL A   1      41.497  29.421  31.274  1.00  0.00    -0.248 NA
ATOM     43  C   UNL A   1      39.669  30.869  31.299  1.00  0.00     0.031 C 
ATOM     44  C   UNL A   1      39.713  27.312  27.748  1.00  0.00     0.029 A 
ATOM     45  N   UNL A   1      41.467  27.373  29.127  1.00  0.00    -0.354 N 
ATOM     46  C   UNL A   1      41.714  30.423  32.211  1.00  0.00     0.074 A 
ATOM     47  C   UNL A   1      40.590  31.328  32.133  1.00  0.00     0.031 C 
ATOM     48  C   UNL A   1      40.565  26.356  27.348  1.00  0.00     0.029 A 
ATOM     49  C   UNL A   1      41.723  26.358  28.232  1.00  0.00     0.049 A 
ATOM     50  H   UNL A   1      42.098  27.639  29.835  1.00  0.00     0.167 HD
ATOM     51  C   UNL A   1      42.739  30.550  33.085  1.00  0.00     0.034 A 
ATOM     52  C   UNL A   1      42.766  25.511  28.151  1.00  0.00     0.034 A 
ATOM     53  C   UNL A   1      43.825  29.613  33.171  1.00  0.00     0.049 A 
ATOM     54  C   UNL A   1      43.841  25.614  29.195  1.00  0.00     0.074 A 
ATOM     55  C   UNL A   1      44.869  29.583  34.077  1.00  0.00     0.029 A 
ATOM     56  N   UNL A   1      44.008  28.540  32.310  1.00  0.00    -0.354 N 
ATOM     57  N   UNL A   1      43.935  26.453  30.200  1.00  0.00    -0.248 NA
ATOM     58  C   UNL A   1      44.930  24.634  29.124  1.00  0.00     0.031 C 
ATOM     59  C   UNL A   1      45.695  28.502  33.749  1.00  0.00     0.029 A 
ATOM     60  C   UNL A   1      45.153  27.844  32.656  1.00  0.00     0.049 A 
ATOM     61  H   UNL A   1      43.410  28.308  31.563  1.00  0.00     0.167 HD
ATOM     62  C   UNL A   1      45.082  26.091  30.893  1.00  0.00     0.074 A 
ATOM     63  C   UNL A   1      45.626  24.930  30.213  1.00  0.00     0.031 C 
ATOM     64  C   UNL A   1      45.649  26.673  31.978  1.00  0.00     0.034 A 
BRANCH  51  65
ATOM     65  C   UNL A   1      42.690  31.706  34.048  1.00  0.00     0.023 A 
ATOM     66  C   UNL A   1      43.245  32.948  33.673  1.00  0.00     0.012 A 
ATOM     67  C   UNL A   1      42.077  31.580  35.309  1.00  0.00     0.148 A 
ATOM     68  C   UNL A   1      43.228  34.032  34.549  1.00  0.00     0.002 A 
ATOM     69  C   UNL A   1      42.022  32.679  36.161  1.00  0.00     0.091 A 
ATOM     70  F   UNL A   1      41.576  30.388  35.661  1.00  0.00    -0.205 F 
ATOM     71  C   UNL A   1      42.609  33.900  35.788  1.00  0.00     0.022 A 
BRANCH  69  72
ATOM     72  S   UNL A   1      41.184  32.637  37.749  1.00  0.00     0.127 S 
ATOM     73  O   UNL A   1      39.858  32.147  37.369  1.00  0.00    -0.237 OA
ATOM     74  O   UNL A   1      41.996  31.678  38.499  1.00  0.00    -0.237 OA
ATOM     75  O   UNL A   1      41.223  33.998  38.261  1.00  0.00    -0.744 OA
ENDBRANCH  69  72
ENDBRANCH  51  65
BRANCH  52  76
ATOM     76  C   UNL A   1      42.783  24.442  27.111  1.00  0.00     0.023 A 
ATOM     77  C   UNL A   1      43.466  24.667  25.898  1.00  0.00     0.012 A 
ATOM     78  C   UNL A   1      42.171  23.193  27.329  1.00  0.00     0.148 A 
ATOM     79  C   UNL A   1      43.509  23.681  24.911  1.00  0.00     0.002 A 
ATOM     80  C   UNL A   1      42.265  22.196  26.364  1.00  0.00     0.091 A 
ATOM     81  F   UNL A   1      41.519  22.999  28.484  1.00  0.00    -0.205 F 
ATOM     82  C   UNL A   1      42.917  22.443  25.147  1.00  0.00     0.022 A 
BRANCH  80  83
ATOM     83  S   UNL A   1      41.651  20.530  26.642  1.00  0.00     0.127 S 
ATOM     84  O   UNL A   1      40.208  20.745  26.679  1.00  0.00    -0.237 OA
ATOM     85  O   UNL A   1      42.139  19.823  25.457  1.00  0.00    -0.237 OA
ATOM     86  O   UNL A   1      42.260  20.093  27.891  1.00  0.00    -0.744 OA
ENDBRANCH  80  83
ENDBRANCH  52  76
BRANCH  64  87
ATOM     87  C   UNL A   1      46.920  26.058  32.496  1.00  0.00     0.023 A 
ATOM     88  C   UNL A   1      48.161  26.500  31.996  1.00  0.00     0.012 A 
ATOM     89  C   UNL A   1      46.889  25.088  33.516  1.00  0.00     0.148 A 
ATOM     90  C   UNL A   1      49.351  25.957  32.474  1.00  0.00     0.002 A 
ATOM     91  C   UNL A   1      48.081  24.588  34.024  1.00  0.00     0.091 A 
ATOM     92  F   UNL A   1      45.696  24.666  33.963  1.00  0.00    -0.205 F 
ATOM     93  C   UNL A   1      49.312  25.010  33.496  1.00  0.00     0.022 A 
BRANCH  91  94
ATOM     94  S   UNL A   1      48.124  23.443  35.406  1.00  0.00     0.127 S 
ATOM     95  O   UNL A   1      49.417  23.756  36.011  1.00  0.00    -0.237 OA
ATOM     96  O   UNL A   1      46.963  23.860  36.194  1.00  0.00    -0.237 OA
ATOM     97  O   UNL A   1      48.008  22.112  34.825  1.00  0.00    -0.744 OA
ENDBRANCH  91  94
ENDBRANCH  64  87
ENDBRANCH  38  39
ENDBRANCH  30  33
ENDBRANCH  28  29
ENDBRANCH   1  28
TORSDOF 16
ENDMDL
