MODEL 1
REMARK VINA RESULT:     -11.9      0.000      0.000
REMARK SMILES O=C(C[C@H]1C(=O)NCC[N@@H+]1Cc1ccc(Cl)c(F)c1)NCCCNC(=O)c1ccc(-c2c3nc(c(-c4cccc(S(=O)(=O)[O-])c4F)c4ccc([nH]4)c(-c4cccc(S(=O)(=O)[O-])c4F)c4nc(c(-c5cccc(S(=O)(=O)[O-])c5F)c5ccc2[nH]5)C=C4)C=C3)cc1
REMARK SMILES IDX 22 1 21 2 20 3 1 4 2 5 3 7 4 8 5 9 10 10 6 11 7 12 9 13 8 15
REMARK SMILES IDX 11 17 12 18 13 19 19 20 14 21 17 22 15 23 18 24 16 25 23 26
REMARK SMILES IDX 24 27 25 28 26 30 27 31 28 32 89 33 29 34 88 35 30 36 31 37
REMARK SMILES IDX 32 38 82 39 33 40 87 41 81 42 83 43 34 44 86 45 80 46 79 47
REMARK SMILES IDX 35 49 67 50 47 51 66 52 48 53 51 54 65 55 84 56 49 57 50 58
REMARK SMILES IDX 64 60 85 61 52 62 36 63 37 64 45 65 38 66 40 67 46 68 39 69
REMARK SMILES IDX 41 70 42 71 43 72 44 73 68 74 69 75 77 76 70 77 72 78 78 79
REMARK SMILES IDX 71 80 73 81 74 82 75 83 76 84 53 85 54 86 62 87 55 88 57 89
REMARK SMILES IDX 63 90 56 91 58 92 59 93 60 94 61 95
REMARK H PARENT 20 6 10 14 7 16 24 29 83 48 51 59
REMARK Flexibility Score: inf
ROOT
ATOM      1  C   UNL A   1      32.005  28.075  27.455  1.00  0.00     0.042 C 
ENDROOT
BRANCH   1   2
ATOM      2  C   UNL A   1      31.577  27.012  26.457  1.00  0.00     0.117 C 
BRANCH   2   3
ATOM      3  N   UNL A   1      32.570  25.972  26.297  1.00  0.00    -0.356 N 
ATOM      4  O   UNL A   1      31.313  24.285  27.214  1.00  0.00    -0.275 OA
ATOM      5  C   UNL A   1      32.331  24.664  26.642  1.00  0.00     0.226 C 
ATOM      6  H   UNL A   1      33.451  26.210  25.928  1.00  0.00     0.163 HD
BRANCH   5   7
ATOM      7  C   UNL A   1      33.441  23.700  26.283  1.00  0.00     0.175 C 
BRANCH   7   8
ATOM      8  C   UNL A   1      33.267  22.924  24.958  1.00  0.00     0.283 C 
ATOM      9  C   UNL A   1      33.826  23.820  23.841  1.00  0.00     0.279 C 
ATOM     10  N   UNL A   1      33.860  21.566  24.931  1.00  0.00    -0.319 N 
ATOM     11  O   UNL A   1      33.155  24.710  23.319  1.00  0.00    -0.268 OA
ATOM     12  N   UNL A   1      35.142  23.673  23.502  1.00  0.00    -0.345 N 
ATOM     13  C   UNL A   1      35.327  21.591  24.914  1.00  0.00     0.284 C 
ATOM     14  H   UNL A   1      33.622  21.153  25.832  1.00  0.00     0.349 HD
ATOM     15  C   UNL A   1      35.980  22.573  23.926  1.00  0.00     0.177 C 
ATOM     16  H   UNL A   1      35.548  24.364  22.930  1.00  0.00     0.163 HD
BRANCH  10  17
ATOM     17  C   UNL A   1      33.217  20.608  24.024  1.00  0.00     0.299 C 
BRANCH  17  18
ATOM     18  C   UNL A   1      33.256  19.157  24.437  1.00  0.00     0.009 A 
ATOM     19  C   UNL A   1      32.628  18.727  25.616  1.00  0.00     0.011 A 
ATOM     20  C   UNL A   1      33.867  18.204  23.611  1.00  0.00     0.050 A 
ATOM     21  C   UNL A   1      32.539  17.365  25.919  1.00  0.00     0.024 A 
ATOM     22  C   UNL A   1      33.755  16.849  23.905  1.00  0.00     0.142 A 
ATOM     23  C   UNL A   1      33.081  16.424  25.046  1.00  0.00     0.076 A 
ATOM     24  F   UNL A   1      34.274  15.962  23.041  1.00  0.00    -0.205 F 
ATOM     25  Cl  UNL A   1      32.888  14.746  25.376  1.00  0.00    -0.081 Cl
ENDBRANCH  17  18
ENDBRANCH  10  17
ENDBRANCH   7   8
ENDBRANCH   5   7
ENDBRANCH   2   3
ENDBRANCH   1   2
BRANCH   1  26
ATOM     26  C   UNL A   1      33.395  28.651  27.205  1.00  0.00     0.118 C 
BRANCH  26  27
ATOM     27  N   UNL A   1      33.449  30.102  27.327  1.00  0.00    -0.352 N 
ATOM     28  C   UNL A   1      34.421  30.907  27.865  1.00  0.00     0.251 C 
ATOM     29  H   UNL A   1      32.666  30.579  26.968  1.00  0.00     0.163 HD
ATOM     30  O   UNL A   1      34.197  32.113  27.983  1.00  0.00    -0.269 OA
BRANCH  28  31
ATOM     31  C   UNL A   1      35.714  30.349  28.320  1.00  0.00     0.039 A 
ATOM     32  C   UNL A   1      36.823  30.455  27.476  1.00  0.00     0.014 A 
ATOM     33  C   UNL A   1      35.840  29.698  29.551  1.00  0.00     0.014 A 
ATOM     34  C   UNL A   1      38.062  29.953  27.884  1.00  0.00     0.010 A 
ATOM     35  C   UNL A   1      37.093  29.275  29.992  1.00  0.00     0.010 A 
ATOM     36  C   UNL A   1      38.216  29.379  29.157  1.00  0.00    -0.014 A 
BRANCH  36  37
ATOM     37  C   UNL A   1      39.539  28.878  29.615  1.00  0.00     0.031 A 
ATOM     38  C   UNL A   1      40.273  29.566  30.738  1.00  0.00     0.074 A 
ATOM     39  C   UNL A   1      40.110  27.832  28.987  1.00  0.00     0.049 A 
ATOM     40  N   UNL A   1      41.428  29.266  31.274  1.00  0.00    -0.248 NA
ATOM     41  C   UNL A   1      39.640  30.762  31.319  1.00  0.00     0.031 C 
ATOM     42  C   UNL A   1      39.548  27.128  27.831  1.00  0.00     0.029 A 
ATOM     43  N   UNL A   1      41.299  27.184  29.219  1.00  0.00    -0.354 N 
ATOM     44  C   UNL A   1      41.675  30.247  32.226  1.00  0.00     0.074 A 
ATOM     45  C   UNL A   1      40.569  31.177  32.168  1.00  0.00     0.031 C 
ATOM     46  C   UNL A   1      40.382  26.141  27.468  1.00  0.00     0.029 A 
ATOM     47  C   UNL A   1      41.549  26.154  28.343  1.00  0.00     0.049 A 
ATOM     48  H   UNL A   1      41.915  27.435  29.946  1.00  0.00     0.167 HD
ATOM     49  C   UNL A   1      42.709  30.352  33.096  1.00  0.00     0.034 A 
ATOM     50  C   UNL A   1      42.599  25.313  28.255  1.00  0.00     0.034 A 
ATOM     51  C   UNL A   1      43.791  29.407  33.180  1.00  0.00     0.049 A 
ATOM     52  C   UNL A   1      43.709  25.419  29.266  1.00  0.00     0.074 A 
ATOM     53  C   UNL A   1      44.843  29.381  34.078  1.00  0.00     0.029 A 
ATOM     54  N   UNL A   1      43.965  28.326  32.331  1.00  0.00    -0.354 N 
ATOM     55  N   UNL A   1      43.843  26.262  30.262  1.00  0.00    -0.248 NA
ATOM     56  C   UNL A   1      44.790  24.428  29.168  1.00  0.00     0.031 C 
ATOM     57  C   UNL A   1      45.669  28.299  33.754  1.00  0.00     0.029 A 
ATOM     58  C   UNL A   1      45.109  27.628  32.679  1.00  0.00     0.049 A 
ATOM     59  H   UNL A   1      43.364  28.089  31.588  1.00  0.00     0.167 HD
ATOM     60  C   UNL A   1      44.998  25.875  30.934  1.00  0.00     0.074 A 
ATOM     61  C   UNL A   1      45.511  24.710  30.244  1.00  0.00     0.031 C 
ATOM     62  C   UNL A   1      45.585  26.440  32.018  1.00  0.00     0.034 A 
BRANCH  49  63
ATOM     63  C   UNL A   1      42.695  31.508  34.065  1.00  0.00     0.023 A 
ATOM     64  C   UNL A   1      43.303  32.728  33.703  1.00  0.00     0.012 A 
ATOM     65  C   UNL A   1      42.038  31.407  35.307  1.00  0.00     0.148 A 
ATOM     66  C   UNL A   1      43.292  33.817  34.576  1.00  0.00     0.002 A 
ATOM     67  C   UNL A   1      41.989  32.512  36.150  1.00  0.00     0.091 A 
ATOM     68  F   UNL A   1      41.483  30.235  35.644  1.00  0.00    -0.205 F 
ATOM     69  C   UNL A   1      42.626  33.711  35.793  1.00  0.00     0.022 A 
BRANCH  67  70
ATOM     70  S   UNL A   1      41.085  32.507  37.703  1.00  0.00     0.127 S 
ATOM     71  O   UNL A   1      41.952  31.684  38.545  1.00  0.00    -0.237 OA
ATOM     72  O   UNL A   1      41.068  33.927  38.053  1.00  0.00    -0.237 OA
ATOM     73  O   UNL A   1      39.779  31.937  37.408  1.00  0.00    -0.744 OA
ENDBRANCH  67  70
ENDBRANCH  49  63
BRANCH  50  74
ATOM     74  C   UNL A   1      42.615  24.246  27.215  1.00  0.00     0.023 A 
ATOM     75  C   UNL A   1      43.299  24.467  26.003  1.00  0.00     0.012 A 
ATOM     76  C   UNL A   1      41.971  23.012  27.424  1.00  0.00     0.148 A 
ATOM     77  C   UNL A   1      43.308  23.496  25.003  1.00  0.00     0.002 A 
ATOM     78  C   UNL A   1      42.032  22.025  26.446  1.00  0.00     0.091 A 
ATOM     79  F   UNL A   1      41.319  22.823  28.580  1.00  0.00    -0.205 F 
ATOM     80  C   UNL A   1      42.683  22.272  25.227  1.00  0.00     0.022 A 
BRANCH  78  81
ATOM     81  S   UNL A   1      41.370  20.376  26.700  1.00  0.00     0.127 S 
ATOM     82  O   UNL A   1      41.756  19.705  25.461  1.00  0.00    -0.237 OA
ATOM     83  O   UNL A   1      42.100  19.938  27.891  1.00  0.00    -0.237 OA
ATOM     84  O   UNL A   1      39.940  20.553  26.904  1.00  0.00    -0.744 OA
ENDBRANCH  78  81
ENDBRANCH  50  74
BRANCH  62  85
ATOM     85  C   UNL A   1      46.822  25.774  32.565  1.00  0.00     0.023 A 
ATOM     86  C   UNL A   1      46.723  24.858  33.631  1.00  0.00     0.012 A 
ATOM     87  C   UNL A   1      48.083  26.028  31.988  1.00  0.00     0.148 A 
ATOM     88  C   UNL A   1      47.864  24.245  34.148  1.00  0.00     0.002 A 
ATOM     89  C   UNL A   1      49.208  25.370  32.472  1.00  0.00     0.091 A 
ATOM     90  F   UNL A   1      48.163  26.916  30.987  1.00  0.00    -0.205 F 
ATOM     91  C   UNL A   1      49.104  24.493  33.561  1.00  0.00     0.022 A 
BRANCH  89  92
ATOM     92  S   UNL A   1      50.824  25.553  31.710  1.00  0.00     0.127 S 
ATOM     93  O   UNL A   1      51.659  24.728  32.581  1.00  0.00    -0.237 OA
ATOM     94  O   UNL A   1      50.604  24.999  30.373  1.00  0.00    -0.237 OA
ATOM     95  O   UNL A   1      51.115  26.981  31.729  1.00  0.00    -0.744 OA
ENDBRANCH  89  92
ENDBRANCH  62  85
ENDBRANCH  36  37
ENDBRANCH  28  31
ENDBRANCH  26  27
ENDBRANCH   1  26
TORSDOF 16
ENDMDL
MODEL 2
REMARK VINA RESULT:     -11.9      1.971      2.275
REMARK SMILES O=C(C[C@H]1C(=O)NCC[N@@H+]1Cc1ccc(Cl)c(F)c1)NCCCNC(=O)c1ccc(-c2c3nc(c(-c4cccc(S(=O)(=O)[O-])c4F)c4ccc([nH]4)c(-c4cccc(S(=O)(=O)[O-])c4F)c4nc(c(-c5cccc(S(=O)(=O)[O-])c5F)c5ccc2[nH]5)C=C4)C=C3)cc1
REMARK SMILES IDX 22 1 21 2 20 3 1 4 2 5 3 7 4 8 5 9 10 10 6 11 7 12 9 13 8 15
REMARK SMILES IDX 11 17 12 18 13 19 19 20 14 21 17 22 15 23 18 24 16 25 23 26
REMARK SMILES IDX 24 27 25 28 26 30 27 31 28 32 89 33 29 34 88 35 30 36 31 37
REMARK SMILES IDX 32 38 82 39 33 40 87 41 81 42 83 43 34 44 86 45 80 46 79 47
REMARK SMILES IDX 35 49 67 50 47 51 66 52 48 53 51 54 65 55 84 56 49 57 50 58
REMARK SMILES IDX 64 60 85 61 52 62 36 63 37 64 45 65 38 66 40 67 46 68 39 69
REMARK SMILES IDX 41 70 42 71 43 72 44 73 68 74 69 75 77 76 70 77 72 78 78 79
REMARK SMILES IDX 71 80 73 81 74 82 75 83 76 84 53 85 54 86 62 87 55 88 57 89
REMARK SMILES IDX 63 90 56 91 58 92 59 93 60 94 61 95
REMARK H PARENT 20 6 10 14 7 16 24 29 83 48 51 59
REMARK Flexibility Score: inf
ROOT
ATOM      1  C   UNL A   1      32.619  28.189  27.073  1.00  0.00     0.042 C 
ENDROOT
BRANCH   1   2
ATOM      2  C   UNL A   1      32.244  26.905  26.351  1.00  0.00     0.117 C 
BRANCH   2   3
ATOM      3  N   UNL A   1      33.403  26.146  25.936  1.00  0.00    -0.356 N 
ATOM      4  O   UNL A   1      32.512  24.076  26.369  1.00  0.00    -0.275 OA
ATOM      5  C   UNL A   1      33.421  24.772  25.926  1.00  0.00     0.226 C 
ATOM      6  H   UNL A   1      34.210  26.631  25.650  1.00  0.00     0.163 HD
BRANCH   5   7
ATOM      7  C   UNL A   1      34.673  24.158  25.339  1.00  0.00     0.175 C 
BRANCH   7   8
ATOM      8  C   UNL A   1      34.463  22.952  24.396  1.00  0.00     0.283 C 
ATOM      9  C   UNL A   1      35.785  22.739  23.642  1.00  0.00     0.279 C 
ATOM     10  N   UNL A   1      33.988  21.708  25.048  1.00  0.00    -0.319 N 
ATOM     11  O   UNL A   1      36.073  23.381  22.632  1.00  0.00    -0.268 OA
ATOM     12  N   UNL A   1      36.699  21.879  24.184  1.00  0.00    -0.345 N 
ATOM     13  C   UNL A   1      35.018  21.082  25.887  1.00  0.00     0.284 C 
ATOM     14  H   UNL A   1      33.270  22.008  25.706  1.00  0.00     0.349 HD
ATOM     15  C   UNL A   1      36.420  20.961  25.266  1.00  0.00     0.177 C 
ATOM     16  H   UNL A   1      37.611  21.886  23.812  1.00  0.00     0.163 HD
BRANCH  10  17
ATOM     17  C   UNL A   1      33.204  20.803  24.199  1.00  0.00     0.299 C 
BRANCH  17  18
ATOM     18  C   UNL A   1      33.255  19.336  24.548  1.00  0.00     0.009 A 
ATOM     19  C   UNL A   1      32.607  18.847  25.693  1.00  0.00     0.011 A 
ATOM     20  C   UNL A   1      33.898  18.428  23.696  1.00  0.00     0.050 A 
ATOM     21  C   UNL A   1      32.531  17.471  25.934  1.00  0.00     0.024 A 
ATOM     22  C   UNL A   1      33.799  17.060  23.928  1.00  0.00     0.142 A 
ATOM     23  C   UNL A   1      33.106  16.577  25.033  1.00  0.00     0.076 A 
ATOM     24  F   UNL A   1      34.350  16.220  23.039  1.00  0.00    -0.205 F 
ATOM     25  Cl  UNL A   1      32.930  14.883  25.285  1.00  0.00    -0.081 Cl
ENDBRANCH  17  18
ENDBRANCH  10  17
ENDBRANCH   7   8
ENDBRANCH   5   7
ENDBRANCH   2   3
ENDBRANCH   1   2
BRANCH   1  26
ATOM     26  C   UNL A   1      33.797  28.938  26.457  1.00  0.00     0.118 C 
BRANCH  26  27
ATOM     27  N   UNL A   1      33.821  30.355  26.796  1.00  0.00    -0.352 N 
ATOM     28  C   UNL A   1      34.703  31.061  27.575  1.00  0.00     0.251 C 
ATOM     29  H   UNL A   1      33.091  30.888  26.407  1.00  0.00     0.163 HD
ATOM     30  O   UNL A   1      34.455  32.239  27.836  1.00  0.00    -0.269 OA
BRANCH  28  31
ATOM     31  C   UNL A   1      35.926  30.427  28.115  1.00  0.00     0.039 A 
ATOM     32  C   UNL A   1      37.107  30.507  27.373  1.00  0.00     0.014 A 
ATOM     33  C   UNL A   1      35.917  29.731  29.328  1.00  0.00     0.014 A 
ATOM     34  C   UNL A   1      38.282  29.933  27.864  1.00  0.00     0.010 A 
ATOM     35  C   UNL A   1      37.108  29.235  29.857  1.00  0.00     0.010 A 
ATOM     36  C   UNL A   1      38.301  29.312  29.124  1.00  0.00    -0.014 A 
BRANCH  36  37
ATOM     37  C   UNL A   1      39.556  28.734  29.673  1.00  0.00     0.031 A 
ATOM     38  C   UNL A   1      40.196  29.321  30.905  1.00  0.00     0.074 A 
ATOM     39  C   UNL A   1      40.154  27.709  29.034  1.00  0.00     0.049 A 
ATOM     40  N   UNL A   1      41.283  28.944  31.529  1.00  0.00    -0.248 NA
ATOM     41  C   UNL A   1      39.546  30.500  31.502  1.00  0.00     0.031 C 
ATOM     42  C   UNL A   1      39.688  27.103  27.784  1.00  0.00     0.029 A 
ATOM     43  N   UNL A   1      41.294  27.005  29.336  1.00  0.00    -0.354 N 
ATOM     44  C   UNL A   1      41.464  29.852  32.565  1.00  0.00     0.074 A 
ATOM     45  C   UNL A   1      40.399  30.824  32.463  1.00  0.00     0.031 C 
ATOM     46  C   UNL A   1      40.523  26.110  27.438  1.00  0.00     0.029 A 
ATOM     47  C   UNL A   1      41.598  26.024  28.421  1.00  0.00     0.049 A 
ATOM     48  H   UNL A   1      41.842  27.185  30.135  1.00  0.00     0.167 HD
ATOM     49  C   UNL A   1      42.410  29.863  33.536  1.00  0.00     0.034 A 
ATOM     50  C   UNL A   1      42.624  25.152  28.378  1.00  0.00     0.034 A 
ATOM     51  C   UNL A   1      43.449  28.875  33.660  1.00  0.00     0.049 A 
ATOM     52  C   UNL A   1      43.632  25.152  29.496  1.00  0.00     0.074 A 
ATOM     53  C   UNL A   1      44.406  28.752  34.651  1.00  0.00     0.029 A 
ATOM     54  N   UNL A   1      43.673  27.845  32.761  1.00  0.00    -0.354 N 
ATOM     55  N   UNL A   1      43.693  25.923  30.555  1.00  0.00    -0.248 NA
ATOM     56  C   UNL A   1      44.686  24.129  29.436  1.00  0.00     0.031 C 
ATOM     57  C   UNL A   1      45.226  27.663  34.337  1.00  0.00     0.029 A 
ATOM     58  C   UNL A   1      44.755  27.084  33.170  1.00  0.00     0.049 A 
ATOM     59  H   UNL A   1      43.141  27.678  31.949  1.00  0.00     0.167 HD
ATOM     60  C   UNL A   1      44.763  25.451  31.308  1.00  0.00     0.074 A 
ATOM     61  C   UNL A   1      45.305  24.314  30.594  1.00  0.00     0.031 C 
ATOM     62  C   UNL A   1      45.257  25.923  32.479  1.00  0.00     0.034 A 
BRANCH  49  63
ATOM     63  C   UNL A   1      42.336  30.954  34.574  1.00  0.00     0.023 A 
ATOM     64  C   UNL A   1      41.647  30.721  35.783  1.00  0.00     0.012 A 
ATOM     65  C   UNL A   1      42.992  32.186  34.381  1.00  0.00     0.148 A 
ATOM     66  C   UNL A   1      41.577  31.710  36.765  1.00  0.00     0.002 A 
ATOM     67  C   UNL A   1      42.958  33.147  35.385  1.00  0.00     0.091 A 
ATOM     68  F   UNL A   1      43.625  32.399  33.219  1.00  0.00    -0.205 F 
ATOM     69  C   UNL A   1      42.241  32.917  36.570  1.00  0.00     0.022 A 
BRANCH  67  70
ATOM     70  S   UNL A   1      43.850  34.702  35.268  1.00  0.00     0.127 S 
ATOM     71  O   UNL A   1      43.811  35.169  36.653  1.00  0.00    -0.237 OA
ATOM     72  O   UNL A   1      45.170  34.266  34.810  1.00  0.00    -0.237 OA
ATOM     73  O   UNL A   1      43.114  35.519  34.314  1.00  0.00    -0.744 OA
ENDBRANCH  67  70
ENDBRANCH  49  63
BRANCH  50  74
ATOM     74  C   UNL A   1      42.710  24.154  27.274  1.00  0.00     0.023 A 
ATOM     75  C   UNL A   1      43.480  24.446  26.132  1.00  0.00     0.012 A 
ATOM     76  C   UNL A   1      42.049  22.914  27.357  1.00  0.00     0.148 A 
ATOM     77  C   UNL A   1      43.556  23.541  25.073  1.00  0.00     0.002 A 
ATOM     78  C   UNL A   1      42.175  21.992  26.325  1.00  0.00     0.091 A 
ATOM     79  F   UNL A   1      41.315  22.657  28.450  1.00  0.00    -0.205 F 
ATOM     80  C   UNL A   1      42.912  22.311  25.173  1.00  0.00     0.022 A 
BRANCH  78  81
ATOM     81  S   UNL A   1      41.490  20.336  26.423  1.00  0.00     0.127 S 
ATOM     82  O   UNL A   1      42.199  19.654  25.343  1.00  0.00    -0.237 OA
ATOM     83  O   UNL A   1      41.884  19.927  27.773  1.00  0.00    -0.237 OA
ATOM     84  O   UNL A   1      40.055  20.491  26.239  1.00  0.00    -0.744 OA
ENDBRANCH  78  81
ENDBRANCH  50  74
BRANCH  62  85
ATOM     85  C   UNL A   1      46.413  25.178  33.097  1.00  0.00     0.023 A 
ATOM     86  C   UNL A   1      47.736  25.596  32.856  1.00  0.00     0.012 A 
ATOM     87  C   UNL A   1      46.180  24.085  33.957  1.00  0.00     0.148 A 
ATOM     88  C   UNL A   1      48.812  24.908  33.418  1.00  0.00     0.002 A 
ATOM     89  C   UNL A   1      47.254  23.439  34.557  1.00  0.00     0.091 A 
ATOM     90  F   UNL A   1      44.916  23.688  34.161  1.00  0.00    -0.205 F 
ATOM     91  C   UNL A   1      48.570  23.837  34.276  1.00  0.00     0.022 A 
BRANCH  89  92
ATOM     92  S   UNL A   1      47.028  22.117  35.752  1.00  0.00     0.127 S 
ATOM     93  O   UNL A   1      48.410  21.784  36.093  1.00  0.00    -0.237 OA
ATOM     94  O   UNL A   1      46.282  22.786  36.819  1.00  0.00    -0.237 OA
ATOM     95  O   UNL A   1      46.283  21.075  35.059  1.00  0.00    -0.744 OA
ENDBRANCH  89  92
ENDBRANCH  62  85
ENDBRANCH  36  37
ENDBRANCH  28  31
ENDBRANCH  26  27
ENDBRANCH   1  26
TORSDOF 16
ENDMDL
MODEL 3
REMARK VINA RESULT:     -11.8      2.252      2.658
REMARK SMILES O=C(C[C@H]1C(=O)NCC[N@@H+]1Cc1ccc(Cl)c(F)c1)NCCCNC(=O)c1ccc(-c2c3nc(c(-c4cccc(S(=O)(=O)[O-])c4F)c4ccc([nH]4)c(-c4cccc(S(=O)(=O)[O-])c4F)c4nc(c(-c5cccc(S(=O)(=O)[O-])c5F)c5ccc2[nH]5)C=C4)C=C3)cc1
REMARK SMILES IDX 22 1 21 2 20 3 1 4 2 5 3 7 4 8 5 9 10 10 6 11 7 12 9 13 8 15
REMARK SMILES IDX 11 17 12 18 13 19 19 20 14 21 17 22 15 23 18 24 16 25 23 26
REMARK SMILES IDX 24 27 25 28 26 30 27 31 28 32 89 33 29 34 88 35 30 36 31 37
REMARK SMILES IDX 32 38 82 39 33 40 87 41 81 42 83 43 34 44 86 45 80 46 79 47
REMARK SMILES IDX 35 49 67 50 47 51 66 52 48 53 51 54 65 55 84 56 49 57 50 58
REMARK SMILES IDX 64 60 85 61 52 62 36 63 37 64 45 65 38 66 40 67 46 68 39 69
REMARK SMILES IDX 41 70 42 71 43 72 44 73 68 74 69 75 77 76 70 77 72 78 78 79
REMARK SMILES IDX 71 80 73 81 74 82 75 83 76 84 53 85 54 86 62 87 55 88 57 89
REMARK SMILES IDX 63 90 56 91 58 92 59 93 60 94 61 95
REMARK H PARENT 20 6 10 14 7 16 24 29 83 48 51 59
REMARK Flexibility Score: inf
ROOT
ATOM      1  C   UNL A   1      32.075  28.538  26.486  1.00  0.00     0.042 C 
ENDROOT
BRANCH   1   2
ATOM      2  C   UNL A   1      31.727  27.429  25.506  1.00  0.00     0.117 C 
BRANCH   2   3
ATOM      3  N   UNL A   1      32.608  26.288  25.626  1.00  0.00    -0.356 N 
ATOM      4  O   UNL A   1      31.044  24.856  26.503  1.00  0.00    -0.275 OA
ATOM      5  C   UNL A   1      32.174  25.062  26.067  1.00  0.00     0.226 C 
ATOM      6  H   UNL A   1      33.556  26.394  25.381  1.00  0.00     0.163 HD
BRANCH   5   7
ATOM      7  C   UNL A   1      33.209  23.960  26.002  1.00  0.00     0.175 C 
BRANCH   7   8
ATOM      8  C   UNL A   1      33.148  23.042  24.762  1.00  0.00     0.283 C 
ATOM      9  C   UNL A   1      34.013  23.702  23.675  1.00  0.00     0.279 C 
ATOM     10  N   UNL A   1      33.531  21.629  24.994  1.00  0.00    -0.319 N 
ATOM     11  O   UNL A   1      33.578  24.591  22.943  1.00  0.00    -0.268 OA
ATOM     12  N   UNL A   1      35.331  23.347  23.604  1.00  0.00    -0.345 N 
ATOM     13  C   UNL A   1      34.968  21.468  25.247  1.00  0.00     0.284 C 
ATOM     14  H   UNL A   1      33.086  21.373  25.875  1.00  0.00     0.349 HD
ATOM     15  C   UNL A   1      35.914  22.217  24.294  1.00  0.00     0.177 C 
ATOM     16  H   UNL A   1      35.925  23.899  23.045  1.00  0.00     0.163 HD
BRANCH  10  17
ATOM     17  C   UNL A   1      32.915  20.645  24.095  1.00  0.00     0.299 C 
BRANCH  17  18
ATOM     18  C   UNL A   1      33.074  19.193  24.473  1.00  0.00     0.009 A 
ATOM     19  C   UNL A   1      32.563  18.706  25.686  1.00  0.00     0.011 A 
ATOM     20  C   UNL A   1      33.677  18.293  23.584  1.00  0.00     0.050 A 
ATOM     21  C   UNL A   1      32.580  17.336  25.966  1.00  0.00     0.024 A 
ATOM     22  C   UNL A   1      33.670  16.929  23.857  1.00  0.00     0.142 A 
ATOM     23  C   UNL A   1      33.111  16.445  25.035  1.00  0.00     0.076 A 
ATOM     24  F   UNL A   1      34.175  16.091  22.939  1.00  0.00    -0.205 F 
ATOM     25  Cl  UNL A   1      33.045  14.753  25.343  1.00  0.00    -0.081 Cl
ENDBRANCH  17  18
ENDBRANCH  10  17
ENDBRANCH   7   8
ENDBRANCH   5   7
ENDBRANCH   2   3
ENDBRANCH   1   2
BRANCH   1  26
ATOM     26  C   UNL A   1      33.109  29.533  25.969  1.00  0.00     0.118 C 
BRANCH  26  27
ATOM     27  N   UNL A   1      32.870  30.898  26.419  1.00  0.00    -0.352 N 
ATOM     28  C   UNL A   1      33.553  31.658  27.335  1.00  0.00     0.251 C 
ATOM     29  H   UNL A   1      32.099  31.344  26.001  1.00  0.00     0.163 HD
ATOM     30  O   UNL A   1      33.093  32.754  27.661  1.00  0.00    -0.269 OA
BRANCH  28  31
ATOM     31  C   UNL A   1      34.812  31.175  27.945  1.00  0.00     0.039 A 
ATOM     32  C   UNL A   1      35.896  32.053  28.028  1.00  0.00     0.014 A 
ATOM     33  C   UNL A   1      34.947  29.863  28.409  1.00  0.00     0.014 A 
ATOM     34  C   UNL A   1      37.093  31.633  28.614  1.00  0.00     0.010 A 
ATOM     35  C   UNL A   1      36.111  29.473  29.070  1.00  0.00     0.010 A 
ATOM     36  C   UNL A   1      37.205  30.345  29.164  1.00  0.00    -0.014 A 
BRANCH  36  37
ATOM     37  C   UNL A   1      38.461  29.902  29.825  1.00  0.00     0.031 A 
ATOM     38  C   UNL A   1      38.837  30.429  31.187  1.00  0.00     0.074 A 
ATOM     39  C   UNL A   1      39.295  29.063  29.180  1.00  0.00     0.049 A 
ATOM     40  N   UNL A   1      39.887  30.150  31.918  1.00  0.00    -0.248 NA
ATOM     41  C   UNL A   1      37.933  31.417  31.798  1.00  0.00     0.031 C 
ATOM     42  C   UNL A   1      39.094  28.545  27.825  1.00  0.00     0.029 A 
ATOM     43  N   UNL A   1      40.489  28.508  29.570  1.00  0.00    -0.354 N 
ATOM     44  C   UNL A   1      39.785  30.946  33.052  1.00  0.00     0.074 A 
ATOM     45  C   UNL A   1      38.594  31.751  32.896  1.00  0.00     0.031 C 
ATOM     46  C   UNL A   1      40.118  27.738  27.504  1.00  0.00     0.029 A 
ATOM     47  C   UNL A   1      41.062  27.700  28.616  1.00  0.00     0.049 A 
ATOM     48  H   UNL A   1      40.897  28.673  30.452  1.00  0.00     0.167 HD
ATOM     49  C   UNL A   1      40.589  30.984  34.143  1.00  0.00     0.034 A 
ATOM     50  C   UNL A   1      42.216  27.005  28.634  1.00  0.00     0.034 A 
ATOM     51  C   UNL A   1      41.754  30.157  34.315  1.00  0.00     0.049 A 
ATOM     52  C   UNL A   1      43.064  27.024  29.877  1.00  0.00     0.074 A 
ATOM     53  C   UNL A   1      42.588  30.064  35.415  1.00  0.00     0.029 A 
ATOM     54  N   UNL A   1      42.255  29.286  33.361  1.00  0.00    -0.354 N 
ATOM     55  N   UNL A   1      42.865  27.665  31.004  1.00  0.00    -0.248 NA
ATOM     56  C   UNL A   1      44.273  26.187  29.867  1.00  0.00     0.031 C 
ATOM     57  C   UNL A   1      43.610  29.156  35.115  1.00  0.00     0.029 A 
ATOM     58  C   UNL A   1      43.389  28.655  33.843  1.00  0.00     0.049 A 
ATOM     59  H   UNL A   1      41.862  29.139  32.470  1.00  0.00     0.167 HD
ATOM     60  C   UNL A   1      43.897  27.274  31.850  1.00  0.00     0.074 A 
ATOM     61  C   UNL A   1      44.705  26.325  31.112  1.00  0.00     0.031 C 
ATOM     62  C   UNL A   1      44.157  27.673  33.120  1.00  0.00     0.034 A 
BRANCH  49  63
ATOM     63  C   UNL A   1      40.208  31.921  35.262  1.00  0.00     0.023 A 
ATOM     64  C   UNL A   1      40.850  33.171  35.374  1.00  0.00     0.012 A 
ATOM     65  C   UNL A   1      39.181  31.590  36.169  1.00  0.00     0.148 A 
ATOM     66  C   UNL A   1      40.506  34.061  36.392  1.00  0.00     0.002 A 
ATOM     67  C   UNL A   1      38.810  32.502  37.150  1.00  0.00     0.091 A 
ATOM     68  F   UNL A   1      38.595  30.390  36.061  1.00  0.00    -0.205 F 
ATOM     69  C   UNL A   1      39.479  33.731  37.271  1.00  0.00     0.022 A 
BRANCH  67  70
ATOM     70  S   UNL A   1      37.445  32.209  38.280  1.00  0.00     0.127 S 
ATOM     71  O   UNL A   1      37.313  30.755  38.212  1.00  0.00    -0.237 OA
ATOM     72  O   UNL A   1      37.979  32.714  39.545  1.00  0.00    -0.237 OA
ATOM     73  O   UNL A   1      36.316  32.963  37.753  1.00  0.00    -0.744 OA
ENDBRANCH  67  70
ENDBRANCH  49  63
BRANCH  50  74
ATOM     74  C   UNL A   1      42.602  26.169  27.461  1.00  0.00     0.023 A 
ATOM     75  C   UNL A   1      43.395  26.728  26.440  1.00  0.00     0.012 A 
ATOM     76  C   UNL A   1      42.203  24.823  27.360  1.00  0.00     0.148 A 
ATOM     77  C   UNL A   1      43.748  25.976  25.320  1.00  0.00     0.002 A 
ATOM     78  C   UNL A   1      42.606  24.061  26.269  1.00  0.00     0.091 A 
ATOM     79  F   UNL A   1      41.442  24.311  28.338  1.00  0.00    -0.205 F 
ATOM     80  C   UNL A   1      43.362  24.641  25.238  1.00  0.00     0.022 A 
BRANCH  78  81
ATOM     81  S   UNL A   1      42.267  22.303  26.144  1.00  0.00     0.127 S 
ATOM     82  O   UNL A   1      42.997  21.943  24.931  1.00  0.00    -0.237 OA
ATOM     83  O   UNL A   1      42.851  21.795  27.387  1.00  0.00    -0.237 OA
ATOM     84  O   UNL A   1      40.819  22.185  26.070  1.00  0.00    -0.744 OA
ENDBRANCH  78  81
ENDBRANCH  50  74
BRANCH  62  85
ATOM     85  C   UNL A   1      45.336  27.044  33.819  1.00  0.00     0.023 A 
ATOM     86  C   UNL A   1      46.611  27.637  33.735  1.00  0.00     0.012 A 
ATOM     87  C   UNL A   1      45.166  25.883  34.600  1.00  0.00     0.148 A 
ATOM     88  C   UNL A   1      47.707  27.057  34.373  1.00  0.00     0.002 A 
ATOM     89  C   UNL A   1      46.252  25.342  35.277  1.00  0.00     0.091 A 
ATOM     90  F   UNL A   1      43.950  25.319  34.655  1.00  0.00    -0.205 F 
ATOM     91  C   UNL A   1      47.525  25.916  35.152  1.00  0.00     0.022 A 
BRANCH  89  92
ATOM     92  S   UNL A   1      46.085  23.935  36.382  1.00  0.00     0.127 S 
ATOM     93  O   UNL A   1      47.454  23.779  36.873  1.00  0.00    -0.237 OA
ATOM     94  O   UNL A   1      45.134  24.432  37.378  1.00  0.00    -0.237 OA
ATOM     95  O   UNL A   1      45.582  22.841  35.563  1.00  0.00    -0.744 OA
ENDBRANCH  89  92
ENDBRANCH  62  85
ENDBRANCH  36  37
ENDBRANCH  28  31
ENDBRANCH  26  27
ENDBRANCH   1  26
TORSDOF 16
ENDMDL
