MODEL 1
REMARK VINA RESULT:     -12.5      0.000      0.000
REMARK SMILES COc1c(C(=O)NCCCNC(=O)c2ccc(-c3c4nc(c(-c5cccc(S(=O)(=O)[O-])c5F)c5ccc([nH]5)c(-c5cccc(S(=O)(=O)[O-])c5F)c5nc(c(-c6cccc(S(=O)(=O)[O-])c6F)c6ccc3[nH]6)C=C5)C=C4)cc2)cccc1-c1cc(C)ccc1C
REMARK SMILES IDX 10 1 9 2 8 3 7 4 5 5 6 6 4 8 3 9 80 10 77 11 79 12 78 13
REMARK SMILES IDX 2 14 1 15 81 16 82 17 87 18 83 19 86 20 88 21 84 22 85 23
REMARK SMILES IDX 11 24 12 25 13 27 14 28 15 29 76 30 16 31 75 32 17 33 18 34
REMARK SMILES IDX 19 35 69 36 20 37 74 38 68 39 70 40 21 41 73 42 67 43 66 44
REMARK SMILES IDX 22 46 54 47 34 48 53 49 35 50 38 51 52 52 71 53 36 54 37 55
REMARK SMILES IDX 51 57 72 58 39 59 23 60 24 61 32 62 25 63 27 64 33 65 26 66
REMARK SMILES IDX 28 67 29 68 30 69 31 70 55 71 56 72 64 73 57 74 59 75 65 76
REMARK SMILES IDX 58 77 60 78 61 79 62 80 63 81 40 82 41 83 49 84 42 85 44 86
REMARK SMILES IDX 50 87 43 88 45 89 46 90 47 91 48 92
REMARK H PARENT 7 7 11 26 70 45 38 56
REMARK Flexibility Score: inf
ROOT
ATOM      1  C   UNL A   1      32.974  32.213  27.178  1.00  0.00     0.118 C 
ENDROOT
BRANCH   1   2
ATOM      2  C   UNL A   1      31.792  31.329  26.819  1.00  0.00     0.042 C 
BRANCH   2   3
ATOM      3  C   UNL A   1      32.165  30.087  26.033  1.00  0.00     0.118 C 
BRANCH   3   4
ATOM      4  N   UNL A   1      31.483  29.880  24.779  1.00  0.00    -0.352 N 
ATOM      5  C   UNL A   1      31.080  28.697  24.211  1.00  0.00     0.255 C 
ATOM      6  O   UNL A   1      30.360  28.764  23.210  1.00  0.00    -0.269 OA
ATOM      7  H   UNL A   1      31.279  30.694  24.265  1.00  0.00     0.163 HD
BRANCH   5   8
ATOM      8  C   UNL A   1      31.561  27.353  24.655  1.00  0.00     0.082 A 
ATOM      9  C   UNL A   1      32.756  26.697  24.277  1.00  0.00     0.139 A 
ATOM     10  C   UNL A   1      33.070  25.429  24.843  1.00  0.00     0.025 A 
ATOM     11  C   UNL A   1      30.700  26.738  25.588  1.00  0.00     0.018 A 
ATOM     12  C   UNL A   1      32.173  24.856  25.771  1.00  0.00     0.012 A 
ATOM     13  C   UNL A   1      31.000  25.501  26.143  1.00  0.00     0.002 A 
BRANCH   9  14
ATOM     14  O   UNL A   1      33.643  27.363  23.458  1.00  0.00    -0.495 OA
ATOM     15  C   UNL A   1      33.405  27.226  22.047  1.00  0.00     0.278 C 
ENDBRANCH   9  14
BRANCH  10  16
ATOM     16  C   UNL A   1      34.261  24.633  24.473  1.00  0.00    -0.011 A 
ATOM     17  C   UNL A   1      35.355  24.652  25.367  1.00  0.00     0.012 A 
ATOM     18  C   UNL A   1      34.334  23.799  23.337  1.00  0.00    -0.043 A 
ATOM     19  C   UNL A   1      36.468  23.822  25.196  1.00  0.00    -0.050 A 
ATOM     20  C   UNL A   1      35.446  22.951  23.183  1.00  0.00     0.004 A 
ATOM     21  C   UNL A   1      33.207  23.672  22.345  1.00  0.00     0.045 C 
ATOM     22  C   UNL A   1      37.580  23.856  26.203  1.00  0.00     0.044 C 
ATOM     23  C   UNL A   1      36.497  22.959  24.103  1.00  0.00     0.004 A 
ENDBRANCH  10  16
ENDBRANCH   5   8
ENDBRANCH   3   4
ENDBRANCH   2   3
ENDBRANCH   1   2
BRANCH   1  24
ATOM     24  N   UNL A   1      32.613  33.562  27.603  1.00  0.00    -0.352 N 
ATOM     25  C   UNL A   1      33.134  34.430  28.542  1.00  0.00     0.251 C 
ATOM     26  H   UNL A   1      31.838  33.930  27.120  1.00  0.00     0.163 HD
ATOM     27  O   UNL A   1      32.570  35.496  28.736  1.00  0.00    -0.269 OA
BRANCH  25  28
ATOM     28  C   UNL A   1      34.324  34.075  29.357  1.00  0.00     0.039 A 
ATOM     29  C   UNL A   1      34.145  33.335  30.535  1.00  0.00     0.014 A 
ATOM     30  C   UNL A   1      35.608  34.469  29.002  1.00  0.00     0.014 A 
ATOM     31  C   UNL A   1      35.253  32.910  31.279  1.00  0.00     0.010 A 
ATOM     32  C   UNL A   1      36.709  33.933  29.657  1.00  0.00     0.010 A 
ATOM     33  C   UNL A   1      36.552  33.151  30.810  1.00  0.00    -0.014 A 
BRANCH  33  34
ATOM     34  C   UNL A   1      37.777  32.631  31.481  1.00  0.00     0.031 A 
ATOM     35  C   UNL A   1      38.559  31.510  30.840  1.00  0.00     0.074 A 
ATOM     36  C   UNL A   1      38.093  33.040  32.728  1.00  0.00     0.049 A 
ATOM     37  N   UNL A   1      39.475  30.736  31.359  1.00  0.00    -0.248 NA
ATOM     38  C   UNL A   1      38.218  31.179  29.445  1.00  0.00     0.031 C 
ATOM     39  C   UNL A   1      37.380  34.062  33.497  1.00  0.00     0.029 A 
ATOM     40  N   UNL A   1      39.073  32.607  33.589  1.00  0.00    -0.354 N 
ATOM     41  C   UNL A   1      39.754  29.778  30.389  1.00  0.00     0.074 A 
ATOM     42  C   UNL A   1      38.891  30.052  29.262  1.00  0.00     0.031 C 
ATOM     43  C   UNL A   1      37.944  34.179  34.710  1.00  0.00     0.029 A 
ATOM     44  C   UNL A   1      39.027  33.208  34.827  1.00  0.00     0.049 A 
ATOM     45  H   UNL A   1      39.745  31.931  33.344  1.00  0.00     0.167 HD
ATOM     46  C   UNL A   1      40.667  28.778  30.418  1.00  0.00     0.034 A 
ATOM     47  C   UNL A   1      39.760  32.991  35.937  1.00  0.00     0.034 A 
ATOM     48  C   UNL A   1      41.598  28.578  31.494  1.00  0.00     0.049 A 
ATOM     49  C   UNL A   1      40.842  31.945  35.906  1.00  0.00     0.074 A 
ATOM     50  C   UNL A   1      42.637  27.669  31.576  1.00  0.00     0.029 A 
ATOM     51  N   UNL A   1      41.616  29.316  32.668  1.00  0.00    -0.354 N 
ATOM     52  N   UNL A   1      41.173  31.132  34.932  1.00  0.00    -0.248 NA
ATOM     53  C   UNL A   1      41.673  31.807  37.111  1.00  0.00     0.031 C 
ATOM     54  C   UNL A   1      43.285  27.857  32.801  1.00  0.00     0.029 A 
ATOM     55  C   UNL A   1      42.657  28.893  33.474  1.00  0.00     0.049 A 
ATOM     56  H   UNL A   1      40.982  30.033  32.894  1.00  0.00     0.167 HD
ATOM     57  C   UNL A   1      42.277  30.421  35.389  1.00  0.00     0.074 A 
ATOM     58  C   UNL A   1      42.565  30.904  36.723  1.00  0.00     0.031 C 
ATOM     59  C   UNL A   1      42.979  29.444  34.765  1.00  0.00     0.034 A 
BRANCH  46  60
ATOM     60  C   UNL A   1      40.757  27.869  29.220  1.00  0.00     0.023 A 
ATOM     61  C   UNL A   1      39.951  26.714  29.161  1.00  0.00     0.012 A 
ATOM     62  C   UNL A   1      41.597  28.180  28.131  1.00  0.00     0.148 A 
ATOM     63  C   UNL A   1      40.009  25.862  28.059  1.00  0.00     0.002 A 
ATOM     64  C   UNL A   1      41.614  27.350  27.016  1.00  0.00     0.091 A 
ATOM     65  F   UNL A   1      42.372  29.271  28.211  1.00  0.00    -0.205 F 
ATOM     66  C   UNL A   1      40.831  26.184  26.984  1.00  0.00     0.022 A 
BRANCH  64  67
ATOM     67  S   UNL A   1      42.576  27.726  25.545  1.00  0.00     0.127 S 
ATOM     68  O   UNL A   1      43.932  27.789  26.089  1.00  0.00    -0.237 OA
ATOM     69  O   UNL A   1      42.313  26.562  24.698  1.00  0.00    -0.237 OA
ATOM     70  O   UNL A   1      42.045  28.980  25.032  1.00  0.00    -0.744 OA
ENDBRANCH  64  67
ENDBRANCH  46  60
BRANCH  47  71
ATOM     71  C   UNL A   1      39.551  33.841  37.144  1.00  0.00     0.023 A 
ATOM     72  C   UNL A   1      40.010  35.173  37.128  1.00  0.00     0.012 A 
ATOM     73  C   UNL A   1      38.876  33.363  38.283  1.00  0.00     0.148 A 
ATOM     74  C   UNL A   1      39.830  36.004  38.233  1.00  0.00     0.002 A 
ATOM     75  C   UNL A   1      38.652  34.212  39.363  1.00  0.00     0.091 A 
ATOM     76  F   UNL A   1      38.455  32.090  38.286  1.00  0.00    -0.205 F 
ATOM     77  C   UNL A   1      39.142  35.528  39.347  1.00  0.00     0.022 A 
BRANCH  75  78
ATOM     78  S   UNL A   1      37.661  33.726  40.781  1.00  0.00     0.127 S 
ATOM     79  O   UNL A   1      37.459  35.004  41.458  1.00  0.00    -0.237 OA
ATOM     80  O   UNL A   1      36.467  33.171  40.143  1.00  0.00    -0.237 OA
ATOM     81  O   UNL A   1      38.462  32.744  41.499  1.00  0.00    -0.744 OA
ENDBRANCH  75  78
ENDBRANCH  47  71
BRANCH  59  82
ATOM     82  C   UNL A   1      44.172  28.866  35.476  1.00  0.00     0.023 A 
ATOM     83  C   UNL A   1      45.445  29.438  35.290  1.00  0.00     0.012 A 
ATOM     84  C   UNL A   1      44.007  27.827  36.414  1.00  0.00     0.148 A 
ATOM     85  C   UNL A   1      46.540  28.973  36.015  1.00  0.00     0.002 A 
ATOM     86  C   UNL A   1      45.094  27.398  37.164  1.00  0.00     0.091 A 
ATOM     87  F   UNL A   1      42.789  27.283  36.558  1.00  0.00    -0.205 F 
ATOM     88  C   UNL A   1      46.363  27.964  36.961  1.00  0.00     0.022 A 
BRANCH  86  89
ATOM     89  S   UNL A   1      44.937  26.176  38.471  1.00  0.00     0.127 S 
ATOM     90  O   UNL A   1      46.313  26.084  38.958  1.00  0.00    -0.237 OA
ATOM     91  O   UNL A   1      44.006  26.825  39.395  1.00  0.00    -0.237 OA
ATOM     92  O   UNL A   1      44.417  24.973  37.836  1.00  0.00    -0.744 OA
ENDBRANCH  86  89
ENDBRANCH  59  82
ENDBRANCH  33  34
ENDBRANCH  25  28
ENDBRANCH   1  24
TORSDOF 15
ENDMDL
MODEL 2
REMARK VINA RESULT:     -12.4      5.966      9.059
REMARK SMILES COc1c(C(=O)NCCCNC(=O)c2ccc(-c3c4nc(c(-c5cccc(S(=O)(=O)[O-])c5F)c5ccc([nH]5)c(-c5cccc(S(=O)(=O)[O-])c5F)c5nc(c(-c6cccc(S(=O)(=O)[O-])c6F)c6ccc3[nH]6)C=C5)C=C4)cc2)cccc1-c1cc(C)ccc1C
REMARK SMILES IDX 10 1 9 2 8 3 7 4 5 5 6 6 4 8 3 9 80 10 77 11 79 12 78 13
REMARK SMILES IDX 2 14 1 15 81 16 82 17 87 18 83 19 86 20 88 21 84 22 85 23
REMARK SMILES IDX 11 24 12 25 13 27 14 28 15 29 76 30 16 31 75 32 17 33 18 34
REMARK SMILES IDX 19 35 69 36 20 37 74 38 68 39 70 40 21 41 73 42 67 43 66 44
REMARK SMILES IDX 22 46 54 47 34 48 53 49 35 50 38 51 52 52 71 53 36 54 37 55
REMARK SMILES IDX 51 57 72 58 39 59 23 60 24 61 32 62 25 63 27 64 33 65 26 66
REMARK SMILES IDX 28 67 29 68 30 69 31 70 55 71 56 72 64 73 57 74 59 75 65 76
REMARK SMILES IDX 58 77 60 78 61 79 62 80 63 81 40 82 41 83 49 84 42 85 44 86
REMARK SMILES IDX 50 87 43 88 45 89 46 90 47 91 48 92
REMARK H PARENT 7 7 11 26 70 45 38 56
REMARK Flexibility Score: inf
ROOT
ATOM      1  C   UNL A   1      37.977  21.120  25.129  1.00  0.00     0.118 C 
ENDROOT
BRANCH   1   2
ATOM      2  C   UNL A   1      36.646  20.402  24.990  1.00  0.00     0.042 C 
BRANCH   2   3
ATOM      3  C   UNL A   1      35.437  21.299  25.173  1.00  0.00     0.118 C 
BRANCH   3   4
ATOM      4  N   UNL A   1      34.156  20.747  24.812  1.00  0.00    -0.352 N 
ATOM      5  C   UNL A   1      33.108  21.366  24.175  1.00  0.00     0.255 C 
ATOM      6  O   UNL A   1      32.166  20.656  23.812  1.00  0.00    -0.269 OA
ATOM      7  H   UNL A   1      34.014  19.803  25.052  1.00  0.00     0.163 HD
BRANCH   5   8
ATOM      8  C   UNL A   1      32.989  22.847  24.013  1.00  0.00     0.082 A 
ATOM      9  C   UNL A   1      32.878  23.820  25.035  1.00  0.00     0.139 A 
ATOM     10  C   UNL A   1      32.819  25.199  24.687  1.00  0.00     0.025 A 
ATOM     11  C   UNL A   1      33.039  23.262  22.666  1.00  0.00     0.018 A 
ATOM     12  C   UNL A   1      32.872  25.561  23.323  1.00  0.00     0.012 A 
ATOM     13  C   UNL A   1      32.981  24.605  22.320  1.00  0.00     0.002 A 
BRANCH   9  14
ATOM     14  O   UNL A   1      32.951  23.407  26.348  1.00  0.00    -0.495 OA
ATOM     15  C   UNL A   1      31.716  22.950  26.923  1.00  0.00     0.278 C 
ENDBRANCH   9  14
BRANCH  10  16
ATOM     16  C   UNL A   1      32.645  26.291  25.670  1.00  0.00    -0.011 A 
ATOM     17  C   UNL A   1      33.791  27.043  26.013  1.00  0.00     0.012 A 
ATOM     18  C   UNL A   1      31.401  26.674  26.215  1.00  0.00    -0.043 A 
ATOM     19  C   UNL A   1      33.717  28.188  26.812  1.00  0.00    -0.050 A 
ATOM     20  C   UNL A   1      31.329  27.840  27.000  1.00  0.00     0.004 A 
ATOM     21  C   UNL A   1      30.113  25.968  25.881  1.00  0.00     0.045 C 
ATOM     22  C   UNL A   1      34.963  28.970  27.105  1.00  0.00     0.044 C 
ATOM     23  C   UNL A   1      32.471  28.590  27.290  1.00  0.00     0.004 A 
ENDBRANCH  10  16
ENDBRANCH   5   8
ENDBRANCH   3   4
ENDBRANCH   2   3
ENDBRANCH   1   2
BRANCH   1  24
ATOM     24  N   UNL A   1      39.022  20.338  25.783  1.00  0.00    -0.352 N 
ATOM     25  C   UNL A   1      40.104  20.675  26.570  1.00  0.00     0.251 C 
ATOM     26  H   UNL A   1      38.937  19.369  25.631  1.00  0.00     0.163 HD
ATOM     27  O   UNL A   1      40.869  19.792  26.929  1.00  0.00    -0.269 OA
BRANCH  25  28
ATOM     28  C   UNL A   1      40.391  22.084  26.940  1.00  0.00     0.039 A 
ATOM     29  C   UNL A   1      41.365  22.347  27.914  1.00  0.00     0.014 A 
ATOM     30  C   UNL A   1      39.712  23.152  26.367  1.00  0.00     0.014 A 
ATOM     31  C   UNL A   1      41.720  23.667  28.222  1.00  0.00     0.010 A 
ATOM     32  C   UNL A   1      40.159  24.452  26.567  1.00  0.00     0.010 A 
ATOM     33  C   UNL A   1      41.164  24.733  27.502  1.00  0.00    -0.014 A 
BRANCH  33  34
ATOM     34  C   UNL A   1      41.576  26.153  27.689  1.00  0.00     0.031 A 
ATOM     35  C   UNL A   1      42.974  26.579  27.310  1.00  0.00     0.074 A 
ATOM     36  C   UNL A   1      40.768  27.014  28.343  1.00  0.00     0.049 A 
ATOM     37  N   UNL A   1      43.624  27.668  27.627  1.00  0.00    -0.248 NA
ATOM     38  C   UNL A   1      43.767  25.621  26.519  1.00  0.00     0.031 C 
ATOM     39  C   UNL A   1      39.421  26.715  28.832  1.00  0.00     0.029 A 
ATOM     40  N   UNL A   1      40.985  28.308  28.752  1.00  0.00    -0.354 N 
ATOM     41  C   UNL A   1      44.919  27.487  27.152  1.00  0.00     0.074 A 
ATOM     42  C   UNL A   1      44.970  26.174  26.550  1.00  0.00     0.031 C 
ATOM     43  C   UNL A   1      38.932  27.790  29.471  1.00  0.00     0.029 A 
ATOM     44  C   UNL A   1      39.946  28.839  29.482  1.00  0.00     0.049 A 
ATOM     45  H   UNL A   1      41.807  28.808  28.542  1.00  0.00     0.167 HD
ATOM     46  C   UNL A   1      45.965  28.347  27.185  1.00  0.00     0.034 A 
ATOM     47  C   UNL A   1      39.827  30.028  30.106  1.00  0.00     0.034 A 
ATOM     48  C   UNL A   1      45.878  29.691  27.685  1.00  0.00     0.049 A 
ATOM     49  C   UNL A   1      40.968  31.007  30.035  1.00  0.00     0.074 A 
ATOM     50  C   UNL A   1      46.843  30.681  27.663  1.00  0.00     0.029 A 
ATOM     51  N   UNL A   1      44.752  30.241  28.278  1.00  0.00    -0.354 N 
ATOM     52  N   UNL A   1      42.143  30.864  29.471  1.00  0.00    -0.248 NA
ATOM     53  C   UNL A   1      40.757  32.324  30.655  1.00  0.00     0.031 C 
ATOM     54  C   UNL A   1      46.299  31.833  28.242  1.00  0.00     0.029 A 
ATOM     55  C   UNL A   1      44.992  31.561  28.612  1.00  0.00     0.049 A 
ATOM     56  H   UNL A   1      43.907  29.762  28.437  1.00  0.00     0.167 HD
ATOM     57  C   UNL A   1      42.792  32.083  29.627  1.00  0.00     0.074 A 
ATOM     58  C   UNL A   1      41.877  32.958  30.330  1.00  0.00     0.031 C 
ATOM     59  C   UNL A   1      44.039  32.441  29.237  1.00  0.00     0.034 A 
BRANCH  46  60
ATOM     60  C   UNL A   1      47.274  27.888  26.597  1.00  0.00     0.023 A 
ATOM     61  C   UNL A   1      48.301  27.437  27.452  1.00  0.00     0.012 A 
ATOM     62  C   UNL A   1      47.474  27.853  25.202  1.00  0.00     0.148 A 
ATOM     63  C   UNL A   1      49.518  27.000  26.933  1.00  0.00     0.002 A 
ATOM     64  C   UNL A   1      48.674  27.371  24.690  1.00  0.00     0.091 A 
ATOM     65  F   UNL A   1      46.496  28.305  24.403  1.00  0.00    -0.205 F 
ATOM     66  C   UNL A   1      49.701  26.957  25.554  1.00  0.00     0.022 A 
BRANCH  64  67
ATOM     67  S   UNL A   1      48.972  27.197  22.927  1.00  0.00     0.127 S 
ATOM     68  O   UNL A   1      48.362  28.418  22.403  1.00  0.00    -0.237 OA
ATOM     69  O   UNL A   1      50.433  27.170  22.861  1.00  0.00    -0.237 OA
ATOM     70  O   UNL A   1      48.325  25.953  22.534  1.00  0.00    -0.744 OA
ENDBRANCH  64  67
ENDBRANCH  46  60
BRANCH  47  71
ATOM     71  C   UNL A   1      38.547  30.390  30.781  1.00  0.00     0.023 A 
ATOM     72  C   UNL A   1      38.344  29.989  32.116  1.00  0.00     0.012 A 
ATOM     73  C   UNL A   1      37.555  31.151  30.134  1.00  0.00     0.148 A 
ATOM     74  C   UNL A   1      37.164  30.312  32.786  1.00  0.00     0.002 A 
ATOM     75  C   UNL A   1      36.403  31.515  30.825  1.00  0.00     0.091 A 
ATOM     76  F   UNL A   1      37.761  31.515  28.861  1.00  0.00    -0.205 F 
ATOM     77  C   UNL A   1      36.198  31.083  32.144  1.00  0.00     0.022 A 
BRANCH  75  78
ATOM     78  S   UNL A   1      35.169  32.617  30.124  1.00  0.00     0.127 S 
ATOM     79  O   UNL A   1      34.594  31.790  29.067  1.00  0.00    -0.237 OA
ATOM     80  O   UNL A   1      34.288  32.856  31.268  1.00  0.00    -0.237 OA
ATOM     81  O   UNL A   1      35.903  33.796  29.682  1.00  0.00    -0.744 OA
ENDBRANCH  75  78
ENDBRANCH  47  71
BRANCH  59  82
ATOM     82  C   UNL A   1      44.482  33.856  29.494  1.00  0.00     0.023 A 
ATOM     83  C   UNL A   1      45.101  34.186  30.714  1.00  0.00     0.012 A 
ATOM     84  C   UNL A   1      44.384  34.828  28.478  1.00  0.00     0.148 A 
ATOM     85  C   UNL A   1      45.600  35.470  30.927  1.00  0.00     0.002 A 
ATOM     86  C   UNL A   1      44.923  36.092  28.681  1.00  0.00     0.091 A 
ATOM     87  F   UNL A   1      43.771  34.495  27.331  1.00  0.00    -0.205 F 
ATOM     88  C   UNL A   1      45.525  36.417  29.907  1.00  0.00     0.022 A 
BRANCH  86  89
ATOM     89  S   UNL A   1      44.958  37.340  27.389  1.00  0.00     0.127 S 
ATOM     90  O   UNL A   1      43.557  37.380  26.977  1.00  0.00    -0.237 OA
ATOM     91  O   UNL A   1      45.414  38.526  28.115  1.00  0.00    -0.237 OA
ATOM     92  O   UNL A   1      45.893  36.851  26.384  1.00  0.00    -0.744 OA
ENDBRANCH  86  89
ENDBRANCH  59  82
ENDBRANCH  33  34
ENDBRANCH  25  28
ENDBRANCH   1  24
TORSDOF 15
ENDMDL
MODEL 3
REMARK VINA RESULT:     -12.4      2.391      3.435
REMARK SMILES COc1c(C(=O)NCCCNC(=O)c2ccc(-c3c4nc(c(-c5cccc(S(=O)(=O)[O-])c5F)c5ccc([nH]5)c(-c5cccc(S(=O)(=O)[O-])c5F)c5nc(c(-c6cccc(S(=O)(=O)[O-])c6F)c6ccc3[nH]6)C=C5)C=C4)cc2)cccc1-c1cc(C)ccc1C
REMARK SMILES IDX 10 1 9 2 8 3 7 4 5 5 6 6 4 8 3 9 80 10 77 11 79 12 78 13
REMARK SMILES IDX 2 14 1 15 81 16 82 17 87 18 83 19 86 20 88 21 84 22 85 23
REMARK SMILES IDX 11 24 12 25 13 27 14 28 15 29 76 30 16 31 75 32 17 33 18 34
REMARK SMILES IDX 19 35 69 36 20 37 74 38 68 39 70 40 21 41 73 42 67 43 66 44
REMARK SMILES IDX 22 46 54 47 34 48 53 49 35 50 38 51 52 52 71 53 36 54 37 55
REMARK SMILES IDX 51 57 72 58 39 59 23 60 24 61 32 62 25 63 27 64 33 65 26 66
REMARK SMILES IDX 28 67 29 68 30 69 31 70 55 71 56 72 64 73 57 74 59 75 65 76
REMARK SMILES IDX 58 77 60 78 61 79 62 80 63 81 40 82 41 83 49 84 42 85 44 86
REMARK SMILES IDX 50 87 43 88 45 89 46 90 47 91 48 92
REMARK H PARENT 7 7 11 26 70 45 38 56
REMARK Flexibility Score: inf
ROOT
ATOM      1  C   UNL A   1      33.265  29.286  24.728  1.00  0.00     0.118 C 
ENDROOT
BRANCH   1   2
ATOM      2  C   UNL A   1      33.115  27.824  25.113  1.00  0.00     0.042 C 
BRANCH   2   3
ATOM      3  C   UNL A   1      31.827  27.508  25.849  1.00  0.00     0.118 C 
BRANCH   3   4
ATOM      4  N   UNL A   1      30.641  27.349  25.046  1.00  0.00    -0.352 N 
ATOM      5  C   UNL A   1      30.336  26.345  24.160  1.00  0.00     0.255 C 
ATOM      6  O   UNL A   1      29.189  26.317  23.706  1.00  0.00    -0.269 OA
ATOM      7  H   UNL A   1      29.959  28.052  25.147  1.00  0.00     0.163 HD
BRANCH   5   8
ATOM      8  C   UNL A   1      31.339  25.374  23.626  1.00  0.00     0.082 A 
ATOM      9  C   UNL A   1      31.738  24.142  24.198  1.00  0.00     0.139 A 
ATOM     10  C   UNL A   1      32.682  23.324  23.516  1.00  0.00     0.025 A 
ATOM     11  C   UNL A   1      31.885  25.769  22.387  1.00  0.00     0.018 A 
ATOM     12  C   UNL A   1      33.199  23.767  22.278  1.00  0.00     0.012 A 
ATOM     13  C   UNL A   1      32.806  24.976  21.716  1.00  0.00     0.002 A 
BRANCH   9  14
ATOM     14  O   UNL A   1      31.108  23.716  25.348  1.00  0.00    -0.495 OA
ATOM     15  C   UNL A   1      31.786  24.023  26.577  1.00  0.00     0.278 C 
ENDBRANCH   9  14
BRANCH  10  16
ATOM     16  C   UNL A   1      33.209  22.050  24.052  1.00  0.00    -0.011 A 
ATOM     17  C   UNL A   1      32.527  20.865  23.694  1.00  0.00     0.012 A 
ATOM     18  C   UNL A   1      34.388  21.943  24.820  1.00  0.00    -0.043 A 
ATOM     19  C   UNL A   1      33.021  19.598  24.018  1.00  0.00    -0.050 A 
ATOM     20  C   UNL A   1      34.891  20.664  25.123  1.00  0.00     0.004 A 
ATOM     21  C   UNL A   1      35.214  23.139  25.218  1.00  0.00     0.045 C 
ATOM     22  C   UNL A   1      32.274  18.375  23.573  1.00  0.00     0.044 C 
ATOM     23  C   UNL A   1      34.220  19.507  24.722  1.00  0.00     0.004 A 
ENDBRANCH  10  16
ENDBRANCH   5   8
ENDBRANCH   3   4
ENDBRANCH   2   3
ENDBRANCH   1   2
BRANCH   1  24
ATOM     24  N   UNL A   1      32.580  30.220  25.619  1.00  0.00    -0.352 N 
ATOM     25  C   UNL A   1      32.957  30.872  26.775  1.00  0.00     0.251 C 
ATOM     26  H   UNL A   1      31.661  30.427  25.336  1.00  0.00     0.163 HD
ATOM     27  O   UNL A   1      32.131  31.556  27.361  1.00  0.00    -0.269 OA
BRANCH  25  28
ATOM     28  C   UNL A   1      34.316  30.716  27.353  1.00  0.00     0.039 A 
ATOM     29  C   UNL A   1      35.085  31.862  27.601  1.00  0.00     0.014 A 
ATOM     30  C   UNL A   1      34.860  29.469  27.637  1.00  0.00     0.014 A 
ATOM     31  C   UNL A   1      36.334  31.754  28.225  1.00  0.00     0.010 A 
ATOM     32  C   UNL A   1      36.030  29.371  28.379  1.00  0.00     0.010 A 
ATOM     33  C   UNL A   1      36.791  30.509  28.680  1.00  0.00    -0.014 A 
BRANCH  33  34
ATOM     34  C   UNL A   1      38.051  30.329  29.455  1.00  0.00     0.031 A 
ATOM     35  C   UNL A   1      39.134  29.425  28.917  1.00  0.00     0.074 A 
ATOM     36  C   UNL A   1      38.159  30.834  30.702  1.00  0.00     0.049 A 
ATOM     37  N   UNL A   1      40.171  28.918  29.530  1.00  0.00    -0.248 NA
ATOM     38  C   UNL A   1      38.994  28.984  27.518  1.00  0.00     0.031 C 
ATOM     39  C   UNL A   1      37.158  31.664  31.375  1.00  0.00     0.029 A 
ATOM     40  N   UNL A   1      39.147  30.683  31.645  1.00  0.00    -0.354 N 
ATOM     41  C   UNL A   1      40.753  28.037  28.624  1.00  0.00     0.074 A 
ATOM     42  C   UNL A   1      39.938  28.059  27.430  1.00  0.00     0.031 C 
ATOM     43  C   UNL A   1      37.580  31.948  32.618  1.00  0.00     0.029 A 
ATOM     44  C   UNL A   1      38.858  31.284  32.850  1.00  0.00     0.049 A 
ATOM     45  H   UNL A   1      39.983  30.191  31.475  1.00  0.00     0.167 HD
ATOM     46  C   UNL A   1      41.880  27.300  28.758  1.00  0.00     0.034 A 
ATOM     47  C   UNL A   1      39.534  31.285  34.016  1.00  0.00     0.034 A 
ATOM     48  C   UNL A   1      42.746  27.366  29.903  1.00  0.00     0.049 A 
ATOM     49  C   UNL A   1      40.841  30.543  34.103  1.00  0.00     0.074 A 
ATOM     50  C   UNL A   1      43.969  26.749  30.094  1.00  0.00     0.029 A 
ATOM     51  N   UNL A   1      42.491  28.113  31.042  1.00  0.00    -0.354 N 
ATOM     52  N   UNL A   1      41.438  29.815  33.190  1.00  0.00    -0.248 NA
ATOM     53  C   UNL A   1      41.585  30.648  35.367  1.00  0.00     0.031 C 
ATOM     54  C   UNL A   1      44.455  27.124  31.351  1.00  0.00     0.029 A 
ATOM     55  C   UNL A   1      43.539  27.985  31.935  1.00  0.00     0.049 A 
ATOM     56  H   UNL A   1      41.682  28.654  31.193  1.00  0.00     0.167 HD
ATOM     57  C   UNL A   1      42.645  29.416  33.751  1.00  0.00     0.074 A 
ATOM     58  C   UNL A   1      42.701  29.988  35.080  1.00  0.00     0.031 C 
ATOM     59  C   UNL A   1      43.614  28.631  33.220  1.00  0.00     0.034 A 
BRANCH  46  60
ATOM     60  C   UNL A   1      42.285  26.413  27.609  1.00  0.00     0.023 A 
ATOM     61  C   UNL A   1      43.118  26.927  26.594  1.00  0.00     0.012 A 
ATOM     62  C   UNL A   1      41.886  25.062  27.555  1.00  0.00     0.148 A 
ATOM     63  C   UNL A   1      43.514  26.125  25.525  1.00  0.00     0.002 A 
ATOM     64  C   UNL A   1      42.324  24.256  26.510  1.00  0.00     0.091 A 
ATOM     65  F   UNL A   1      41.077  24.594  28.516  1.00  0.00    -0.205 F 
ATOM     66  C   UNL A   1      43.126  24.789  25.488  1.00  0.00     0.022 A 
BRANCH  64  67
ATOM     67  S   UNL A   1      41.948  22.501  26.419  1.00  0.00     0.127 S 
ATOM     68  O   UNL A   1      40.490  22.517  26.320  1.00  0.00    -0.237 OA
ATOM     69  O   UNL A   1      42.638  22.100  25.193  1.00  0.00    -0.237 OA
ATOM     70  O   UNL A   1      42.489  21.914  27.637  1.00  0.00    -0.744 OA
ENDBRANCH  64  67
ENDBRANCH  46  60
BRANCH  47  71
ATOM     71  C   UNL A   1      39.029  32.085  35.168  1.00  0.00     0.023 A 
ATOM     72  C   UNL A   1      39.084  33.491  35.098  1.00  0.00     0.012 A 
ATOM     73  C   UNL A   1      38.465  31.477  36.305  1.00  0.00     0.148 A 
ATOM     74  C   UNL A   1      38.617  34.277  36.152  1.00  0.00     0.002 A 
ATOM     75  C   UNL A   1      37.951  32.267  37.330  1.00  0.00     0.091 A 
ATOM     76  F   UNL A   1      38.429  30.138  36.360  1.00  0.00    -0.205 F 
ATOM     77  C   UNL A   1      38.041  33.666  37.262  1.00  0.00     0.022 A 
BRANCH  75  78
ATOM     78  S   UNL A   1      37.073  31.570  38.734  1.00  0.00     0.127 S 
ATOM     79  O   UNL A   1      38.028  31.778  39.819  1.00  0.00    -0.237 OA
ATOM     80  O   UNL A   1      35.878  32.413  38.796  1.00  0.00    -0.237 OA
ATOM     81  O   UNL A   1      36.804  30.183  38.378  1.00  0.00    -0.744 OA
ENDBRANCH  75  78
ENDBRANCH  47  71
BRANCH  59  82
ATOM     82  C   UNL A   1      44.855  28.389  34.035  1.00  0.00     0.023 A 
ATOM     83  C   UNL A   1      45.933  29.290  33.956  1.00  0.00     0.012 A 
ATOM     84  C   UNL A   1      44.902  27.328  34.961  1.00  0.00     0.148 A 
ATOM     85  C   UNL A   1      47.049  29.129  34.775  1.00  0.00     0.002 A 
ATOM     86  C   UNL A   1      45.997  27.199  35.805  1.00  0.00     0.091 A 
ATOM     87  F   UNL A   1      43.871  26.469  35.003  1.00  0.00    -0.205 F 
ATOM     88  C   UNL A   1      47.075  28.094  35.709  1.00  0.00     0.022 A 
BRANCH  86  89
ATOM     89  S   UNL A   1      46.070  25.957  37.102  1.00  0.00     0.127 S 
ATOM     90  O   UNL A   1      47.374  26.234  37.704  1.00  0.00    -0.237 OA
ATOM     91  O   UNL A   1      44.925  26.314  37.939  1.00  0.00    -0.237 OA
ATOM     92  O   UNL A   1      45.951  24.669  36.432  1.00  0.00    -0.744 OA
ENDBRANCH  86  89
ENDBRANCH  59  82
ENDBRANCH  33  34
ENDBRANCH  25  28
ENDBRANCH   1  24
TORSDOF 15
ENDMDL
