MODEL 1
REMARK VINA RESULT:     -11.8      0.000      0.000
REMARK SMILES C=CCc1cccc(-c2ccc([C@@H](C)C(=O)NCCCNC(=O)c3ccc(-c4c5nc(c(-c6cccc(S(=O)(=O)[O-])c6F)c6ccc([nH]6)c(-c6cccc(S(=O)(=O)[O-])c6F)c6nc(c(-c7cccc(S(=O)(=O)[O-])c7F)c7ccc4[nH]7)C=C6)C=C5)cc3)cc2)c1
REMARK SMILES IDX 18 1 17 2 15 3 16 4 13 6 14 7 12 8 9 9 10 10 88 11 11 12
REMARK SMILES IDX 87 13 8 14 4 15 5 16 89 17 6 18 7 19 3 20 2 21 1 22 19 23
REMARK SMILES IDX 20 24 21 25 22 26 23 28 24 29 25 30 86 31 26 32 85 33 27 34
REMARK SMILES IDX 28 35 29 36 79 37 30 38 84 39 78 40 80 41 31 42 83 43 77 44
REMARK SMILES IDX 76 45 32 47 64 48 44 49 63 50 45 51 48 52 62 53 81 54 46 55
REMARK SMILES IDX 47 56 61 58 82 59 49 60 33 61 34 62 42 63 35 64 37 65 43 66
REMARK SMILES IDX 36 67 38 68 39 69 40 70 41 71 65 72 66 73 74 74 67 75 69 76
REMARK SMILES IDX 75 77 68 78 70 79 71 80 72 81 73 82 50 83 51 84 59 85 52 86
REMARK SMILES IDX 54 87 60 88 53 89 55 90 56 91 57 92 58 93
REMARK H PARENT 17 5 21 27 80 46 48 57
REMARK Flexibility Score: inf
ROOT
ATOM      1  C   UNL A   1      31.731  29.101  24.781  1.00  0.00     0.117 C 
ENDROOT
BRANCH   1   2
ATOM      2  N   UNL A   1      31.237  29.602  23.514  1.00  0.00    -0.356 N 
ATOM      3  C   UNL A   1      30.420  29.049  22.575  1.00  0.00     0.227 C 
ATOM      4  O   UNL A   1      30.208  29.733  21.566  1.00  0.00    -0.274 OA
ATOM      5  H   UNL A   1      31.548  30.509  23.292  1.00  0.00     0.163 HD
BRANCH   3   6
ATOM      6  C   UNL A   1      29.753  27.673  22.719  1.00  0.00     0.105 C 
ATOM      7  C   UNL A   1      28.442  27.683  23.504  1.00  0.00     0.023 C 
BRANCH   6   8
ATOM      8  C   UNL A   1      30.725  26.557  23.067  1.00  0.00    -0.036 A 
ATOM      9  C   UNL A   1      32.404  24.323  23.697  1.00  0.00    -0.018 A 
ATOM     10  C   UNL A   1      32.639  25.135  22.576  1.00  0.00     0.009 A 
ATOM     11  C   UNL A   1      31.325  24.684  24.518  1.00  0.00     0.009 A 
ATOM     12  C   UNL A   1      31.840  26.248  22.286  1.00  0.00     0.005 A 
ATOM     13  C   UNL A   1      30.488  25.764  24.199  1.00  0.00     0.005 A 
BRANCH   9  14
ATOM     14  C   UNL A   1      33.246  23.134  23.976  1.00  0.00    -0.018 A 
ATOM     15  C   UNL A   1      35.459  22.105  24.317  1.00  0.00    -0.044 A 
ATOM     16  C   UNL A   1      34.844  20.888  24.628  1.00  0.00     0.004 A 
ATOM     17  C   UNL A   1      34.653  23.219  24.015  1.00  0.00     0.012 A 
ATOM     18  C   UNL A   1      33.459  20.773  24.588  1.00  0.00     0.001 A 
ATOM     19  C   UNL A   1      32.674  21.879  24.251  1.00  0.00     0.009 A 
BRANCH  15  20
ATOM     20  C   UNL A   1      36.964  22.223  24.351  1.00  0.00     0.062 C 
BRANCH  20  21
ATOM     21  C   UNL A   1      37.503  22.434  25.735  1.00  0.00    -0.030 C 
ATOM     22  C   UNL A   1      38.190  23.518  26.118  1.00  0.00     0.004 C 
ENDBRANCH  20  21
ENDBRANCH  15  20
ENDBRANCH   9  14
ENDBRANCH   6   8
ENDBRANCH   3   6
ENDBRANCH   1   2
BRANCH   1  23
ATOM     23  C   UNL A   1      33.185  28.645  24.703  1.00  0.00     0.042 C 
BRANCH  23  24
ATOM     24  C   UNL A   1      33.978  28.886  25.980  1.00  0.00     0.118 C 
BRANCH  24  25
ATOM     25  N   UNL A   1      33.882  30.267  26.435  1.00  0.00    -0.352 N 
ATOM     26  C   UNL A   1      34.588  30.939  27.401  1.00  0.00     0.251 C 
ATOM     27  H   UNL A   1      33.199  30.805  25.974  1.00  0.00     0.163 HD
ATOM     28  O   UNL A   1      34.189  32.045  27.763  1.00  0.00    -0.269 OA
BRANCH  26  29
ATOM     29  C   UNL A   1      35.811  30.361  28.008  1.00  0.00     0.039 A 
ATOM     30  C   UNL A   1      37.009  30.416  27.289  1.00  0.00     0.014 A 
ATOM     31  C   UNL A   1      35.778  29.708  29.242  1.00  0.00     0.014 A 
ATOM     32  C   UNL A   1      38.172  29.846  27.817  1.00  0.00     0.010 A 
ATOM     33  C   UNL A   1      36.953  29.223  29.809  1.00  0.00     0.010 A 
ATOM     34  C   UNL A   1      38.156  29.257  29.091  1.00  0.00    -0.014 A 
BRANCH  34  35
ATOM     35  C   UNL A   1      39.369  28.624  29.671  1.00  0.00     0.031 A 
ATOM     36  C   UNL A   1      39.983  29.189  30.928  1.00  0.00     0.074 A 
ATOM     37  C   UNL A   1      39.965  27.598  29.031  1.00  0.00     0.049 A 
ATOM     38  N   UNL A   1      41.077  28.830  31.547  1.00  0.00    -0.248 NA
ATOM     39  C   UNL A   1      39.294  30.333  31.551  1.00  0.00     0.031 C 
ATOM     40  C   UNL A   1      39.514  27.014  27.767  1.00  0.00     0.029 A 
ATOM     41  N   UNL A   1      41.097  26.886  29.341  1.00  0.00    -0.354 N 
ATOM     42  C   UNL A   1      41.233  29.728  32.597  1.00  0.00     0.074 A 
ATOM     43  C   UNL A   1      40.141  30.672  32.511  1.00  0.00     0.031 C 
ATOM     44  C   UNL A   1      40.357  26.032  27.411  1.00  0.00     0.029 A 
ATOM     45  C   UNL A   1      41.421  25.933  28.404  1.00  0.00     0.049 A 
ATOM     46  H   UNL A   1      41.625  27.043  30.156  1.00  0.00     0.167 HD
ATOM     47  C   UNL A   1      42.179  29.748  33.567  1.00  0.00     0.034 A 
ATOM     48  C   UNL A   1      42.461  25.077  28.353  1.00  0.00     0.034 A 
ATOM     49  C   UNL A   1      43.224  28.769  33.685  1.00  0.00     0.049 A 
ATOM     50  C   UNL A   1      43.457  25.071  29.483  1.00  0.00     0.074 A 
ATOM     51  C   UNL A   1      44.176  28.642  34.681  1.00  0.00     0.029 A 
ATOM     52  N   UNL A   1      43.452  27.745  32.779  1.00  0.00    -0.354 N 
ATOM     53  N   UNL A   1      43.497  25.830  30.551  1.00  0.00    -0.248 NA
ATOM     54  C   UNL A   1      44.525  24.062  29.424  1.00  0.00     0.031 C 
ATOM     55  C   UNL A   1      44.990  27.548  34.369  1.00  0.00     0.029 A 
ATOM     56  C   UNL A   1      44.529  26.980  33.191  1.00  0.00     0.049 A 
ATOM     57  H   UNL A   1      42.926  27.585  31.962  1.00  0.00     0.167 HD
ATOM     58  C   UNL A   1      44.566  25.365  31.310  1.00  0.00     0.074 A 
ATOM     59  C   UNL A   1      45.135  24.247  30.586  1.00  0.00     0.031 C 
ATOM     60  C   UNL A   1      45.041  25.830  32.492  1.00  0.00     0.034 A 
BRANCH  47  61
ATOM     61  C   UNL A   1      42.089  30.831  34.612  1.00  0.00     0.023 A 
ATOM     62  C   UNL A   1      41.374  30.589  35.803  1.00  0.00     0.012 A 
ATOM     63  C   UNL A   1      42.753  32.062  34.444  1.00  0.00     0.148 A 
ATOM     64  C   UNL A   1      41.286  31.568  36.793  1.00  0.00     0.002 A 
ATOM     65  C   UNL A   1      42.699  33.016  35.455  1.00  0.00     0.091 A 
ATOM     66  F   UNL A   1      43.411  32.283  33.298  1.00  0.00    -0.205 F 
ATOM     67  C   UNL A   1      41.956  32.776  36.622  1.00  0.00     0.022 A 
BRANCH  65  68
ATOM     68  S   UNL A   1      43.596  34.570  35.368  1.00  0.00     0.127 S 
ATOM     69  O   UNL A   1      44.973  34.108  35.202  1.00  0.00    -0.237 OA
ATOM     70  O   UNL A   1      43.016  35.195  34.179  1.00  0.00    -0.237 OA
ATOM     71  O   UNL A   1      43.315  35.265  36.617  1.00  0.00    -0.744 OA
ENDBRANCH  65  68
ENDBRANCH  47  61
BRANCH  48  72
ATOM     72  C   UNL A   1      42.563  24.094  27.235  1.00  0.00     0.023 A 
ATOM     73  C   UNL A   1      43.277  24.447  26.073  1.00  0.00     0.012 A 
ATOM     74  C   UNL A   1      41.991  22.810  27.326  1.00  0.00     0.148 A 
ATOM     75  C   UNL A   1      43.389  23.553  25.008  1.00  0.00     0.002 A 
ATOM     76  C   UNL A   1      42.153  21.904  26.283  1.00  0.00     0.091 A 
ATOM     77  F   UNL A   1      41.310  22.496  28.437  1.00  0.00    -0.205 F 
ATOM     78  C   UNL A   1      42.837  22.281  25.115  1.00  0.00     0.022 A 
BRANCH  76  79
ATOM     79  S   UNL A   1      41.584  20.203  26.380  1.00  0.00     0.127 S 
ATOM     80  O   UNL A   1      40.144  20.356  26.184  1.00  0.00    -0.237 OA
ATOM     81  O   UNL A   1      42.295  19.582  25.262  1.00  0.00    -0.237 OA
ATOM     82  O   UNL A   1      41.994  19.722  27.692  1.00  0.00    -0.744 OA
ENDBRANCH  76  79
ENDBRANCH  48  72
BRANCH  60  83
ATOM     83  C   UNL A   1      46.208  25.107  33.111  1.00  0.00     0.023 A 
ATOM     84  C   UNL A   1      47.521  25.561  32.877  1.00  0.00     0.012 A 
ATOM     85  C   UNL A   1      45.995  24.029  33.993  1.00  0.00     0.148 A 
ATOM     86  C   UNL A   1      48.606  24.932  33.487  1.00  0.00     0.002 A 
ATOM     87  C   UNL A   1      47.077  23.439  34.635  1.00  0.00     0.091 A 
ATOM     88  F   UNL A   1      44.739  23.600  34.187  1.00  0.00    -0.205 F 
ATOM     89  C   UNL A   1      48.384  23.882  34.374  1.00  0.00     0.022 A 
BRANCH  87  90
ATOM     90  S   UNL A   1      46.873  22.148  35.868  1.00  0.00     0.127 S 
ATOM     91  O   UNL A   1      45.940  22.774  36.802  1.00  0.00    -0.237 OA
ATOM     92  O   UNL A   1      46.305  21.053  35.081  1.00  0.00    -0.237 OA
ATOM     93  O   UNL A   1      48.205  21.883  36.393  1.00  0.00    -0.744 OA
ENDBRANCH  87  90
ENDBRANCH  60  83
ENDBRANCH  34  35
ENDBRANCH  26  29
ENDBRANCH  24  25
ENDBRANCH  23  24
ENDBRANCH   1  23
TORSDOF 17
ENDMDL
MODEL 2
REMARK VINA RESULT:     -11.5      1.256      2.018
REMARK SMILES C=CCc1cccc(-c2ccc([C@@H](C)C(=O)NCCCNC(=O)c3ccc(-c4c5nc(c(-c6cccc(S(=O)(=O)[O-])c6F)c6ccc([nH]6)c(-c6cccc(S(=O)(=O)[O-])c6F)c6nc(c(-c7cccc(S(=O)(=O)[O-])c7F)c7ccc4[nH]7)C=C6)C=C5)cc3)cc2)c1
REMARK SMILES IDX 18 1 17 2 15 3 16 4 13 6 14 7 12 8 9 9 10 10 88 11 11 12
REMARK SMILES IDX 87 13 8 14 4 15 5 16 89 17 6 18 7 19 3 20 2 21 1 22 19 23
REMARK SMILES IDX 20 24 21 25 22 26 23 28 24 29 25 30 86 31 26 32 85 33 27 34
REMARK SMILES IDX 28 35 29 36 79 37 30 38 84 39 78 40 80 41 31 42 83 43 77 44
REMARK SMILES IDX 76 45 32 47 64 48 44 49 63 50 45 51 48 52 62 53 81 54 46 55
REMARK SMILES IDX 47 56 61 58 82 59 49 60 33 61 34 62 42 63 35 64 37 65 43 66
REMARK SMILES IDX 36 67 38 68 39 69 40 70 41 71 65 72 66 73 74 74 67 75 69 76
REMARK SMILES IDX 75 77 68 78 70 79 71 80 72 81 73 82 50 83 51 84 59 85 52 86
REMARK SMILES IDX 54 87 60 88 53 89 55 90 56 91 57 92 58 93
REMARK H PARENT 17 5 21 27 80 46 48 57
REMARK Flexibility Score: inf
ROOT
ATOM      1  C   UNL A   1      31.661  29.312  24.988  1.00  0.00     0.117 C 
ENDROOT
BRANCH   1   2
ATOM      2  N   UNL A   1      31.116  29.543  23.665  1.00  0.00    -0.356 N 
ATOM      3  C   UNL A   1      30.505  28.712  22.776  1.00  0.00     0.227 C 
ATOM      4  O   UNL A   1      30.176  29.215  21.695  1.00  0.00    -0.274 OA
ATOM      5  H   UNL A   1      31.202  30.472  23.351  1.00  0.00     0.163 HD
BRANCH   3   6
ATOM      6  C   UNL A   1      30.195  27.233  23.056  1.00  0.00     0.105 C 
ATOM      7  C   UNL A   1      28.887  26.992  23.808  1.00  0.00     0.023 C 
BRANCH   6   8
ATOM      8  C   UNL A   1      31.396  26.439  23.543  1.00  0.00    -0.036 A 
ATOM      9  C   UNL A   1      33.546  24.775  24.445  1.00  0.00    -0.018 A 
ATOM     10  C   UNL A   1      33.625  25.505  23.248  1.00  0.00     0.009 A 
ATOM     11  C   UNL A   1      32.373  24.932  25.200  1.00  0.00     0.009 A 
ATOM     12  C   UNL A   1      32.589  26.346  22.824  1.00  0.00     0.005 A 
ATOM     13  C   UNL A   1      31.311  25.729  24.749  1.00  0.00     0.005 A 
BRANCH   9  14
ATOM     14  C   UNL A   1      34.643  23.871  24.869  1.00  0.00    -0.018 A 
ATOM     15  C   UNL A   1      35.606  21.611  25.069  1.00  0.00    -0.044 A 
ATOM     16  C   UNL A   1      36.790  22.161  25.569  1.00  0.00     0.004 A 
ATOM     17  C   UNL A   1      34.555  22.473  24.705  1.00  0.00     0.012 A 
ATOM     18  C   UNL A   1      36.903  23.535  25.751  1.00  0.00     0.001 A 
ATOM     19  C   UNL A   1      35.837  24.375  25.419  1.00  0.00     0.009 A 
BRANCH  15  20
ATOM     20  C   UNL A   1      35.484  20.118  24.883  1.00  0.00     0.062 C 
BRANCH  20  21
ATOM     21  C   UNL A   1      34.070  19.670  24.658  1.00  0.00    -0.030 C 
ATOM     22  C   UNL A   1      33.118  19.681  25.600  1.00  0.00     0.004 C 
ENDBRANCH  20  21
ENDBRANCH  15  20
ENDBRANCH   9  14
ENDBRANCH   6   8
ENDBRANCH   3   6
ENDBRANCH   1   2
BRANCH   1  23
ATOM     23  C   UNL A   1      33.181  29.172  24.977  1.00  0.00     0.042 C 
BRANCH  23  24
ATOM     24  C   UNL A   1      33.815  29.220  26.360  1.00  0.00     0.118 C 
BRANCH  24  25
ATOM     25  N   UNL A   1      33.756  30.552  26.947  1.00  0.00    -0.352 N 
ATOM     26  C   UNL A   1      34.545  31.142  27.903  1.00  0.00     0.251 C 
ATOM     27  H   UNL A   1      33.033  31.123  26.600  1.00  0.00     0.163 HD
ATOM     28  O   UNL A   1      34.177  32.206  28.399  1.00  0.00    -0.269 OA
BRANCH  26  29
ATOM     29  C   UNL A   1      35.820  30.526  28.342  1.00  0.00     0.039 A 
ATOM     30  C   UNL A   1      35.824  29.740  29.500  1.00  0.00     0.014 A 
ATOM     31  C   UNL A   1      37.020  30.767  27.670  1.00  0.00     0.014 A 
ATOM     32  C   UNL A   1      37.017  29.177  29.961  1.00  0.00     0.010 A 
ATOM     33  C   UNL A   1      38.189  30.131  28.076  1.00  0.00     0.010 A 
ATOM     34  C   UNL A   1      38.210  29.355  29.242  1.00  0.00    -0.014 A 
BRANCH  34  35
ATOM     35  C   UNL A   1      39.498  28.787  29.718  1.00  0.00     0.031 A 
ATOM     36  C   UNL A   1      40.257  29.472  30.826  1.00  0.00     0.074 A 
ATOM     37  C   UNL A   1      40.025  27.709  29.104  1.00  0.00     0.049 A 
ATOM     38  N   UNL A   1      41.427  29.180  31.330  1.00  0.00    -0.248 NA
ATOM     39  C   UNL A   1      39.633  30.666  31.424  1.00  0.00     0.031 C 
ATOM     40  C   UNL A   1      39.427  27.005  27.969  1.00  0.00     0.029 A 
ATOM     41  N   UNL A   1      41.200  27.036  29.331  1.00  0.00    -0.354 N 
ATOM     42  C   UNL A   1      41.700  30.175  32.263  1.00  0.00     0.074 A 
ATOM     43  C   UNL A   1      40.590  31.099  32.231  1.00  0.00     0.031 C 
ATOM     44  C   UNL A   1      40.236  25.998  27.601  1.00  0.00     0.029 A 
ATOM     45  C   UNL A   1      41.419  26.000  28.453  1.00  0.00     0.049 A 
ATOM     46  H   UNL A   1      41.825  27.273  30.053  1.00  0.00     0.167 HD
ATOM     47  C   UNL A   1      42.762  30.292  33.097  1.00  0.00     0.034 A 
ATOM     48  C   UNL A   1      42.459  25.149  28.348  1.00  0.00     0.034 A 
ATOM     49  C   UNL A   1      43.830  29.334  33.170  1.00  0.00     0.049 A 
ATOM     50  C   UNL A   1      43.592  25.256  29.336  1.00  0.00     0.074 A 
ATOM     51  C   UNL A   1      44.904  29.308  34.042  1.00  0.00     0.029 A 
ATOM     52  N   UNL A   1      43.960  28.231  32.342  1.00  0.00    -0.354 N 
ATOM     53  N   UNL A   1      43.754  26.113  30.314  1.00  0.00    -0.248 NA
ATOM     54  C   UNL A   1      44.662  24.253  29.234  1.00  0.00     0.031 C 
ATOM     55  C   UNL A   1      45.691  28.194  33.731  1.00  0.00     0.029 A 
ATOM     56  C   UNL A   1      45.094  27.515  32.680  1.00  0.00     0.049 A 
ATOM     57  H   UNL A   1      43.336  27.991  31.618  1.00  0.00     0.167 HD
ATOM     58  C   UNL A   1      44.919  25.728  30.969  1.00  0.00     0.074 A 
ATOM     59  C   UNL A   1      45.412  24.550  30.286  1.00  0.00     0.031 C 
ATOM     60  C   UNL A   1      45.534  26.307  32.032  1.00  0.00     0.034 A 
BRANCH  47  61
ATOM     61  C   UNL A   1      42.787  31.468  34.039  1.00  0.00     0.023 A 
ATOM     62  C   UNL A   1      43.342  32.691  33.610  1.00  0.00     0.012 A 
ATOM     63  C   UNL A   1      42.216  31.383  35.325  1.00  0.00     0.148 A 
ATOM     64  C   UNL A   1      43.367  33.799  34.457  1.00  0.00     0.002 A 
ATOM     65  C   UNL A   1      42.202  32.505  36.147  1.00  0.00     0.091 A 
ATOM     66  F   UNL A   1      41.710  30.208  35.724  1.00  0.00    -0.205 F 
ATOM     67  C   UNL A   1      42.788  33.708  35.720  1.00  0.00     0.022 A 
BRANCH  65  68
ATOM     68  S   UNL A   1      41.408  32.516  37.758  1.00  0.00     0.127 S 
ATOM     69  O   UNL A   1      40.062  32.051  37.427  1.00  0.00    -0.237 OA
ATOM     70  O   UNL A   1      42.217  31.553  38.507  1.00  0.00    -0.237 OA
ATOM     71  O   UNL A   1      41.496  33.887  38.240  1.00  0.00    -0.744 OA
ENDBRANCH  65  68
ENDBRANCH  47  61
BRANCH  48  72
ATOM     72  C   UNL A   1      42.436  24.066  27.323  1.00  0.00     0.023 A 
ATOM     73  C   UNL A   1      43.048  24.287  26.074  1.00  0.00     0.012 A 
ATOM     74  C   UNL A   1      41.844  22.814  27.585  1.00  0.00     0.148 A 
ATOM     75  C   UNL A   1      43.042  23.297  25.092  1.00  0.00     0.002 A 
ATOM     76  C   UNL A   1      41.889  21.812  26.622  1.00  0.00     0.091 A 
ATOM     77  F   UNL A   1      41.260  22.625  28.777  1.00  0.00    -0.205 F 
ATOM     78  C   UNL A   1      42.472  22.058  25.368  1.00  0.00     0.022 A 
BRANCH  76  79
ATOM     79  S   UNL A   1      41.290  20.146  26.928  1.00  0.00     0.127 S 
ATOM     80  O   UNL A   1      42.491  19.347  26.690  1.00  0.00    -0.237 OA
ATOM     81  O   UNL A   1      40.871  20.227  28.327  1.00  0.00    -0.237 OA
ATOM     82  O   UNL A   1      40.198  19.938  25.987  1.00  0.00    -0.744 OA
ENDBRANCH  76  79
ENDBRANCH  48  72
BRANCH  60  83
ATOM     83  C   UNL A   1      46.782  25.652  32.560  1.00  0.00     0.023 A 
ATOM     84  C   UNL A   1      48.041  26.020  32.044  1.00  0.00     0.012 A 
ATOM     85  C   UNL A   1      46.713  24.735  33.627  1.00  0.00     0.148 A 
ATOM     86  C   UNL A   1      49.208  25.460  32.562  1.00  0.00     0.002 A 
ATOM     87  C   UNL A   1      47.883  24.218  34.170  1.00  0.00     0.091 A 
ATOM     88  F   UNL A   1      45.505  24.383  34.091  1.00  0.00    -0.205 F 
ATOM     89  C   UNL A   1      49.131  24.571  33.631  1.00  0.00     0.022 A 
BRANCH  87  90
ATOM     90  S   UNL A   1      47.880  23.145  35.611  1.00  0.00     0.127 S 
ATOM     91  O   UNL A   1      49.309  22.915  35.814  1.00  0.00    -0.237 OA
ATOM     92  O   UNL A   1      47.248  23.989  36.626  1.00  0.00    -0.237 OA
ATOM     93  O   UNL A   1      47.102  21.973  35.234  1.00  0.00    -0.744 OA
ENDBRANCH  87  90
ENDBRANCH  60  83
ENDBRANCH  34  35
ENDBRANCH  26  29
ENDBRANCH  24  25
ENDBRANCH  23  24
ENDBRANCH   1  23
TORSDOF 17
ENDMDL
MODEL 3
REMARK VINA RESULT:     -11.4      2.349      2.896
REMARK SMILES C=CCc1cccc(-c2ccc([C@@H](C)C(=O)NCCCNC(=O)c3ccc(-c4c5nc(c(-c6cccc(S(=O)(=O)[O-])c6F)c6ccc([nH]6)c(-c6cccc(S(=O)(=O)[O-])c6F)c6nc(c(-c7cccc(S(=O)(=O)[O-])c7F)c7ccc4[nH]7)C=C6)C=C5)cc3)cc2)c1
REMARK SMILES IDX 18 1 17 2 15 3 16 4 13 6 14 7 12 8 9 9 10 10 88 11 11 12
REMARK SMILES IDX 87 13 8 14 4 15 5 16 89 17 6 18 7 19 3 20 2 21 1 22 19 23
REMARK SMILES IDX 20 24 21 25 22 26 23 28 24 29 25 30 86 31 26 32 85 33 27 34
REMARK SMILES IDX 28 35 29 36 79 37 30 38 84 39 78 40 80 41 31 42 83 43 77 44
REMARK SMILES IDX 76 45 32 47 64 48 44 49 63 50 45 51 48 52 62 53 81 54 46 55
REMARK SMILES IDX 47 56 61 58 82 59 49 60 33 61 34 62 42 63 35 64 37 65 43 66
REMARK SMILES IDX 36 67 38 68 39 69 40 70 41 71 65 72 66 73 74 74 67 75 69 76
REMARK SMILES IDX 75 77 68 78 70 79 71 80 72 81 73 82 50 83 51 84 59 85 52 86
REMARK SMILES IDX 54 87 60 88 53 89 55 90 56 91 57 92 58 93
REMARK H PARENT 17 5 21 27 80 46 48 57
REMARK Flexibility Score: inf
ROOT
ATOM      1  C   UNL A   1      31.006  29.738  24.684  1.00  0.00     0.117 C 
ENDROOT
BRANCH   1   2
ATOM      2  N   UNL A   1      30.664  29.937  23.289  1.00  0.00    -0.356 N 
ATOM      3  C   UNL A   1      29.890  29.216  22.433  1.00  0.00     0.227 C 
ATOM      4  O   UNL A   1      29.820  29.639  21.272  1.00  0.00    -0.274 OA
ATOM      5  H   UNL A   1      31.064  30.741  22.888  1.00  0.00     0.163 HD
BRANCH   3   6
ATOM      6  C   UNL A   1      29.105  27.957  22.834  1.00  0.00     0.105 C 
ATOM      7  C   UNL A   1      27.732  28.235  23.446  1.00  0.00     0.023 C 
BRANCH   6   8
ATOM      8  C   UNL A   1      29.949  26.914  23.548  1.00  0.00    -0.036 A 
ATOM      9  C   UNL A   1      31.376  24.827  24.895  1.00  0.00    -0.018 A 
ATOM     10  C   UNL A   1      31.731  25.256  23.606  1.00  0.00     0.009 A 
ATOM     11  C   UNL A   1      30.308  25.499  25.508  1.00  0.00     0.009 A 
ATOM     12  C   UNL A   1      31.057  26.301  22.961  1.00  0.00     0.005 A 
ATOM     13  C   UNL A   1      29.594  26.506  24.842  1.00  0.00     0.005 A 
BRANCH   9  14
ATOM     14  C   UNL A   1      32.087  23.705  25.554  1.00  0.00    -0.018 A 
ATOM     15  C   UNL A   1      33.520  21.703  25.431  1.00  0.00    -0.044 A 
ATOM     16  C   UNL A   1      33.541  21.634  26.828  1.00  0.00     0.004 A 
ATOM     17  C   UNL A   1      32.811  22.749  24.812  1.00  0.00     0.012 A 
ATOM     18  C   UNL A   1      32.829  22.556  27.586  1.00  0.00     0.001 A 
ATOM     19  C   UNL A   1      32.100  23.567  26.955  1.00  0.00     0.009 A 
BRANCH  15  20
ATOM     20  C   UNL A   1      34.286  20.694  24.611  1.00  0.00     0.062 C 
BRANCH  20  21
ATOM     21  C   UNL A   1      33.731  19.305  24.726  1.00  0.00    -0.030 C 
ATOM     22  C   UNL A   1      34.388  18.199  24.352  1.00  0.00     0.004 C 
ENDBRANCH  20  21
ENDBRANCH  15  20
ENDBRANCH   9  14
ENDBRANCH   6   8
ENDBRANCH   3   6
ENDBRANCH   1   2
BRANCH   1  23
ATOM     23  C   UNL A   1      32.438  29.246  24.870  1.00  0.00     0.042 C 
BRANCH  23  24
ATOM     24  C   UNL A   1      33.030  29.569  26.235  1.00  0.00     0.118 C 
BRANCH  24  25
ATOM     25  N   UNL A   1      32.926  30.986  26.558  1.00  0.00    -0.352 N 
ATOM     26  C   UNL A   1      33.660  31.761  27.422  1.00  0.00     0.251 C 
ATOM     27  H   UNL A   1      32.214  31.466  26.078  1.00  0.00     0.163 HD
ATOM     28  O   UNL A   1      33.256  32.890  27.692  1.00  0.00    -0.269 OA
BRANCH  26  29
ATOM     29  C   UNL A   1      34.920  31.264  28.026  1.00  0.00     0.039 A 
ATOM     30  C   UNL A   1      34.955  29.960  28.532  1.00  0.00     0.014 A 
ATOM     31  C   UNL A   1      36.041  32.085  28.163  1.00  0.00     0.014 A 
ATOM     32  C   UNL A   1      36.116  29.475  29.142  1.00  0.00     0.010 A 
ATOM     33  C   UNL A   1      37.225  31.572  28.686  1.00  0.00     0.010 A 
ATOM     34  C   UNL A   1      37.268  30.274  29.210  1.00  0.00    -0.014 A 
BRANCH  34  35
ATOM     35  C   UNL A   1      38.509  29.796  29.871  1.00  0.00     0.031 A 
ATOM     36  C   UNL A   1      38.880  30.314  31.238  1.00  0.00     0.074 A 
ATOM     37  C   UNL A   1      39.343  28.963  29.215  1.00  0.00     0.049 A 
ATOM     38  N   UNL A   1      39.952  30.078  31.949  1.00  0.00    -0.248 NA
ATOM     39  C   UNL A   1      37.936  31.248  31.876  1.00  0.00     0.031 C 
ATOM     40  C   UNL A   1      39.136  28.455  27.859  1.00  0.00     0.029 A 
ATOM     41  N   UNL A   1      40.548  28.423  29.593  1.00  0.00    -0.354 N 
ATOM     42  C   UNL A   1      39.835  30.868  33.087  1.00  0.00     0.074 A 
ATOM     43  C   UNL A   1      38.606  31.616  32.958  1.00  0.00     0.031 C 
ATOM     44  C   UNL A   1      40.175  27.675  27.519  1.00  0.00     0.029 A 
ATOM     45  C   UNL A   1      41.133  27.648  28.619  1.00  0.00     0.049 A 
ATOM     46  H   UNL A   1      40.953  28.576  30.477  1.00  0.00     0.167 HD
ATOM     47  C   UNL A   1      40.659  30.940  34.161  1.00  0.00     0.034 A 
ATOM     48  C   UNL A   1      42.310  26.992  28.614  1.00  0.00     0.034 A 
ATOM     49  C   UNL A   1      41.846  30.146  34.314  1.00  0.00     0.049 A 
ATOM     50  C   UNL A   1      43.171  27.030  29.850  1.00  0.00     0.074 A 
ATOM     51  C   UNL A   1      42.699  30.072  35.400  1.00  0.00     0.029 A 
ATOM     52  N   UNL A   1      42.346  29.282  33.352  1.00  0.00    -0.354 N 
ATOM     53  N   UNL A   1      42.964  27.661  30.980  1.00  0.00    -0.248 NA
ATOM     54  C   UNL A   1      44.404  26.230  29.827  1.00  0.00     0.031 C 
ATOM     55  C   UNL A   1      43.725  29.174  35.090  1.00  0.00     0.029 A 
ATOM     56  C   UNL A   1      43.496  28.670  33.818  1.00  0.00     0.049 A 
ATOM     57  H   UNL A   1      41.944  29.127  32.467  1.00  0.00     0.167 HD
ATOM     58  C   UNL A   1      44.016  27.303  31.816  1.00  0.00     0.074 A 
ATOM     59  C   UNL A   1      44.849  26.385  31.067  1.00  0.00     0.031 C 
ATOM     60  C   UNL A   1      44.277  27.708  33.084  1.00  0.00     0.034 A 
BRANCH  47  61
ATOM     61  C   UNL A   1      40.268  31.870  35.283  1.00  0.00     0.023 A 
ATOM     62  C   UNL A   1      40.851  33.151  35.358  1.00  0.00     0.012 A 
ATOM     63  C   UNL A   1      39.291  31.500  36.228  1.00  0.00     0.148 A 
ATOM     64  C   UNL A   1      40.499  34.036  36.377  1.00  0.00     0.002 A 
ATOM     65  C   UNL A   1      38.910  32.404  37.214  1.00  0.00     0.091 A 
ATOM     66  F   UNL A   1      38.761  30.271  36.153  1.00  0.00    -0.205 F 
ATOM     67  C   UNL A   1      39.523  33.665  37.298  1.00  0.00     0.022 A 
BRANCH  65  68
ATOM     68  S   UNL A   1      37.604  32.056  38.396  1.00  0.00     0.127 S 
ATOM     69  O   UNL A   1      37.269  30.671  38.066  1.00  0.00    -0.237 OA
ATOM     70  O   UNL A   1      38.292  32.227  39.676  1.00  0.00    -0.237 OA
ATOM     71  O   UNL A   1      36.556  33.032  38.135  1.00  0.00    -0.744 OA
ENDBRANCH  65  68
ENDBRANCH  47  61
BRANCH  48  72
ATOM     72  C   UNL A   1      42.701  26.171  27.432  1.00  0.00     0.023 A 
ATOM     73  C   UNL A   1      43.522  26.742  26.440  1.00  0.00     0.012 A 
ATOM     74  C   UNL A   1      42.297  24.828  27.299  1.00  0.00     0.148 A 
ATOM     75  C   UNL A   1      43.905  26.004  25.320  1.00  0.00     0.002 A 
ATOM     76  C   UNL A   1      42.726  24.081  26.207  1.00  0.00     0.091 A 
ATOM     77  F   UNL A   1      41.509  24.305  28.249  1.00  0.00    -0.205 F 
ATOM     78  C   UNL A   1      43.515  24.673  25.207  1.00  0.00     0.022 A 
BRANCH  76  79
ATOM     79  S   UNL A   1      42.379  22.327  26.037  1.00  0.00     0.127 S 
ATOM     80  O   UNL A   1      43.086  21.999  24.801  1.00  0.00    -0.237 OA
ATOM     81  O   UNL A   1      42.979  21.779  27.253  1.00  0.00    -0.237 OA
ATOM     82  O   UNL A   1      40.927  22.214  25.982  1.00  0.00    -0.744 OA
ENDBRANCH  76  79
ENDBRANCH  48  72
BRANCH  60  83
ATOM     83  C   UNL A   1      45.485  27.129  33.770  1.00  0.00     0.023 A 
ATOM     84  C   UNL A   1      46.719  27.807  33.710  1.00  0.00     0.012 A 
ATOM     85  C   UNL A   1      45.376  25.957  34.543  1.00  0.00     0.148 A 
ATOM     86  C   UNL A   1      47.833  27.308  34.385  1.00  0.00     0.002 A 
ATOM     87  C   UNL A   1      46.478  25.493  35.252  1.00  0.00     0.091 A 
ATOM     88  F   UNL A   1      44.198  25.316  34.570  1.00  0.00    -0.205 F 
ATOM     89  C   UNL A   1      47.710  26.161  35.165  1.00  0.00     0.022 A 
BRANCH  87  90
ATOM     90  S   UNL A   1      46.381  24.080  36.358  1.00  0.00     0.127 S 
ATOM     91  O   UNL A   1      46.113  22.989  35.424  1.00  0.00    -0.237 OA
ATOM     92  O   UNL A   1      47.717  24.059  36.954  1.00  0.00    -0.237 OA
ATOM     93  O   UNL A   1      45.309  24.381  37.297  1.00  0.00    -0.744 OA
ENDBRANCH  87  90
ENDBRANCH  60  83
ENDBRANCH  34  35
ENDBRANCH  26  29
ENDBRANCH  24  25
ENDBRANCH  23  24
ENDBRANCH   1  23
TORSDOF 17
ENDMDL
