MODEL 1
REMARK VINA RESULT:     -11.9      0.000      0.000
REMARK SMILES C[C@H]1[C@H](C(=O)NCCCNC(=O)c2ccc(-c3c4nc(c(-c5cccc(S(=O)(=O)[O-])c5F)c5ccc([nH]5)c(-c5cccc(S(=O)(=O)[O-])c5F)c5nc(c(-c6cccc(S(=O)(=O)[O-])c6F)c6ccc3[nH]6)C=C5)C=C4)cc2)CC[N@@H+]1CC(=O)N1CCCC1
REMARK SMILES IDX 8 1 7 2 6 3 4 4 5 5 3 7 1 8 2 9 78 10 76 11 77 12 79 14
REMARK SMILES IDX 80 15 81 16 82 17 83 18 86 19 84 20 85 21 9 22 10 23 11 24
REMARK SMILES IDX 12 26 13 27 14 28 75 29 15 30 74 31 16 32 17 33 18 34 68 35
REMARK SMILES IDX 19 36 73 37 67 38 69 39 20 40 72 41 66 42 65 43 21 45 53 46
REMARK SMILES IDX 33 47 52 48 34 49 37 50 51 51 70 52 35 53 36 54 50 56 71 57
REMARK SMILES IDX 38 58 22 59 23 60 31 61 24 62 26 63 32 64 25 65 27 66 28 67
REMARK SMILES IDX 29 68 30 69 54 70 55 71 63 72 56 73 58 74 64 75 57 76 59 77
REMARK SMILES IDX 60 78 61 79 62 80 39 81 40 82 48 83 41 84 43 85 49 86 42 87
REMARK SMILES IDX 44 88 45 89 46 90 47 91
REMARK H PARENT 6 6 78 13 10 25 69 44 37 55
REMARK Flexibility Score: inf
ROOT
ATOM      1  C   UNL A   1      35.119  21.862  26.732  1.00  0.00     0.042 C 
ENDROOT
BRANCH   1   2
ATOM      2  C   UNL A   1      33.590  21.504  26.624  1.00  0.00     0.117 C 
BRANCH   2   3
ATOM      3  N   UNL A   1      32.989  20.933  25.401  1.00  0.00    -0.356 N 
ATOM      4  C   UNL A   1      32.741  21.291  24.105  1.00  0.00     0.229 C 
ATOM      5  O   UNL A   1      32.547  20.300  23.368  1.00  0.00    -0.275 OA
ATOM      6  H   UNL A   1      32.671  20.017  25.570  1.00  0.00     0.163 HD
BRANCH   4   7
ATOM      7  C   UNL A   1      32.582  22.672  23.404  1.00  0.00     0.142 C 
ATOM      8  C   UNL A   1      30.503  24.312  23.434  1.00  0.00     0.076 C 
ATOM      9  C   UNL A   1      31.686  23.672  24.169  1.00  0.00     0.194 C 
ATOM     10  N   UNL A   1      32.525  24.816  24.554  1.00  0.00    -0.324 N 
ATOM     11  C   UNL A   1      33.793  23.463  22.987  1.00  0.00     0.081 C 
ATOM     12  C   UNL A   1      33.826  24.694  23.886  1.00  0.00     0.263 C 
ATOM     13  H   UNL A   1      32.103  25.687  24.231  1.00  0.00     0.348 HD
BRANCH  10  14
ATOM     14  C   UNL A   1      32.588  25.000  26.028  1.00  0.00     0.364 C 
BRANCH  14  15
ATOM     15  C   UNL A   1      31.795  26.235  26.433  1.00  0.00     0.277 C 
ATOM     16  O   UNL A   1      30.579  26.109  26.542  1.00  0.00    -0.268 OA
ATOM     17  N   UNL A   1      32.412  27.468  26.469  1.00  0.00    -0.338 N 
ATOM     18  C   UNL A   1      33.825  27.766  26.565  1.00  0.00     0.119 C 
ATOM     19  C   UNL A   1      31.673  28.691  26.280  1.00  0.00     0.119 C 
ATOM     20  C   UNL A   1      33.902  29.280  26.792  1.00  0.00     0.023 C 
ATOM     21  C   UNL A   1      32.465  29.751  26.991  1.00  0.00     0.023 C 
ENDBRANCH  14  15
ENDBRANCH  10  14
ENDBRANCH   4   7
ENDBRANCH   2   3
ENDBRANCH   1   2
BRANCH   1  22
ATOM     22  C   UNL A   1      36.041  22.035  25.509  1.00  0.00     0.118 C 
BRANCH  22  23
ATOM     23  N   UNL A   1      37.105  21.042  25.463  1.00  0.00    -0.352 N 
ATOM     24  C   UNL A   1      38.452  21.145  25.730  1.00  0.00     0.251 C 
ATOM     25  H   UNL A   1      36.811  20.142  25.195  1.00  0.00     0.163 HD
ATOM     26  O   UNL A   1      39.179  20.199  25.427  1.00  0.00    -0.269 OA
BRANCH  24  27
ATOM     27  C   UNL A   1      39.067  22.341  26.369  1.00  0.00     0.039 A 
ATOM     28  C   UNL A   1      38.617  23.607  25.971  1.00  0.00     0.014 A 
ATOM     29  C   UNL A   1      40.165  22.254  27.230  1.00  0.00     0.014 A 
ATOM     30  C   UNL A   1      39.252  24.769  26.430  1.00  0.00     0.010 A 
ATOM     31  C   UNL A   1      40.775  23.422  27.723  1.00  0.00     0.010 A 
ATOM     32  C   UNL A   1      40.346  24.695  27.309  1.00  0.00    -0.014 A 
BRANCH  32  33
ATOM     33  C   UNL A   1      41.044  25.947  27.736  1.00  0.00     0.031 A 
ATOM     34  C   UNL A   1      42.472  26.219  27.322  1.00  0.00     0.074 A 
ATOM     35  C   UNL A   1      40.395  26.862  28.484  1.00  0.00     0.049 A 
ATOM     36  N   UNL A   1      43.199  27.292  27.513  1.00  0.00    -0.248 NA
ATOM     37  C   UNL A   1      43.180  25.140  26.616  1.00  0.00     0.031 C 
ATOM     38  C   UNL A   1      39.042  26.705  29.018  1.00  0.00     0.029 A 
ATOM     39  N   UNL A   1      40.783  28.105  28.929  1.00  0.00    -0.354 N 
ATOM     40  C   UNL A   1      44.450  27.013  26.969  1.00  0.00     0.074 A 
ATOM     41  C   UNL A   1      44.395  25.652  26.480  1.00  0.00     0.031 C 
ATOM     42  C   UNL A   1      38.708  27.809  29.706  1.00  0.00     0.029 A 
ATOM     43  C   UNL A   1      39.824  28.750  29.676  1.00  0.00     0.049 A 
ATOM     44  H   UNL A   1      41.664  28.495  28.731  1.00  0.00     0.167 HD
ATOM     45  C   UNL A   1      45.535  27.819  26.853  1.00  0.00     0.034 A 
ATOM     46  C   UNL A   1      39.835  29.963  30.267  1.00  0.00     0.034 A 
ATOM     47  C   UNL A   1      45.585  29.182  27.317  1.00  0.00     0.049 A 
ATOM     48  C   UNL A   1      41.034  30.858  30.091  1.00  0.00     0.074 A 
ATOM     49  C   UNL A   1      46.611  30.100  27.183  1.00  0.00     0.029 A 
ATOM     50  N   UNL A   1      44.569  29.819  28.014  1.00  0.00    -0.354 N 
ATOM     51  N   UNL A   1      42.145  30.629  29.434  1.00  0.00    -0.248 NA
ATOM     52  C   UNL A   1      40.964  32.194  30.702  1.00  0.00     0.031 C 
ATOM     53  C   UNL A   1      46.229  31.283  27.827  1.00  0.00     0.029 A 
ATOM     54  C   UNL A   1      44.948  31.114  28.329  1.00  0.00     0.049 A 
ATOM     55  H   UNL A   1      43.706  29.411  28.251  1.00  0.00     0.167 HD
ATOM     56  C   UNL A   1      42.892  31.799  29.527  1.00  0.00     0.074 A 
ATOM     57  C   UNL A   1      42.093  32.744  30.278  1.00  0.00     0.031 C 
ATOM     58  C   UNL A   1      44.133  32.060  29.047  1.00  0.00     0.034 A 
BRANCH  45  59
ATOM     59  C   UNL A   1      46.752  27.260  26.153  1.00  0.00     0.023 A 
ATOM     60  C   UNL A   1      46.872  27.394  24.754  1.00  0.00     0.012 A 
ATOM     61  C   UNL A   1      47.795  26.650  26.877  1.00  0.00     0.148 A 
ATOM     62  C   UNL A   1      47.985  26.889  24.081  1.00  0.00     0.002 A 
ATOM     63  C   UNL A   1      48.923  26.190  26.206  1.00  0.00     0.091 A 
ATOM     64  F   UNL A   1      47.662  26.518  28.204  1.00  0.00    -0.205 F 
ATOM     65  C   UNL A   1      49.013  26.295  24.808  1.00  0.00     0.022 A 
BRANCH  63  66
ATOM     66  S   UNL A   1      50.340  25.482  27.055  1.00  0.00     0.127 S 
ATOM     67  O   UNL A   1      51.277  25.282  25.950  1.00  0.00    -0.237 OA
ATOM     68  O   UNL A   1      50.711  26.553  27.981  1.00  0.00    -0.237 OA
ATOM     69  O   UNL A   1      49.860  24.265  27.693  1.00  0.00    -0.744 OA
ENDBRANCH  63  66
ENDBRANCH  45  59
BRANCH  46  70
ATOM     70  C   UNL A   1      38.644  30.426  31.038  1.00  0.00     0.023 A 
ATOM     71  C   UNL A   1      38.583  30.226  32.430  1.00  0.00     0.012 A 
ATOM     72  C   UNL A   1      37.581  31.092  30.394  1.00  0.00     0.148 A 
ATOM     73  C   UNL A   1      37.473  30.651  33.163  1.00  0.00     0.002 A 
ATOM     74  C   UNL A   1      36.507  31.566  31.140  1.00  0.00     0.091 A 
ATOM     75  F   UNL A   1      37.648  31.258  29.066  1.00  0.00    -0.205 F 
ATOM     76  C   UNL A   1      36.443  31.331  32.521  1.00  0.00     0.022 A 
BRANCH  74  77
ATOM     77  S   UNL A   1      35.208  32.570  30.411  1.00  0.00     0.127 S 
ATOM     78  O   UNL A   1      34.268  32.697  31.530  1.00  0.00    -0.237 OA
ATOM     79  O   UNL A   1      35.932  33.802  30.081  1.00  0.00    -0.237 OA
ATOM     80  O   UNL A   1      34.728  31.831  29.264  1.00  0.00    -0.744 OA
ENDBRANCH  74  77
ENDBRANCH  46  70
BRANCH  58  81
ATOM     81  C   UNL A   1      44.702  33.435  29.295  1.00  0.00     0.023 A 
ATOM     82  C   UNL A   1      45.466  33.683  30.453  1.00  0.00     0.012 A 
ATOM     83  C   UNL A   1      44.526  34.468  28.353  1.00  0.00     0.148 A 
ATOM     84  C   UNL A   1      46.008  34.945  30.690  1.00  0.00     0.002 A 
ATOM     85  C   UNL A   1      45.114  35.709  28.569  1.00  0.00     0.091 A 
ATOM     86  F   UNL A   1      43.783  34.221  27.264  1.00  0.00    -0.205 F 
ATOM     87  C   UNL A   1      45.842  35.954  29.745  1.00  0.00     0.022 A 
BRANCH  85  88
ATOM     88  S   UNL A   1      45.036  37.036  27.361  1.00  0.00     0.127 S 
ATOM     89  O   UNL A   1      45.417  38.195  28.168  1.00  0.00    -0.237 OA
ATOM     90  O   UNL A   1      46.038  36.621  26.379  1.00  0.00    -0.237 OA
ATOM     91  O   UNL A   1      43.668  37.044  26.861  1.00  0.00    -0.744 OA
ENDBRANCH  85  88
ENDBRANCH  58  81
ENDBRANCH  32  33
ENDBRANCH  24  27
ENDBRANCH  22  23
ENDBRANCH   1  22
TORSDOF 15
ENDMDL
MODEL 2
REMARK VINA RESULT:     -11.8      4.692     10.265
REMARK SMILES C[C@H]1[C@H](C(=O)NCCCNC(=O)c2ccc(-c3c4nc(c(-c5cccc(S(=O)(=O)[O-])c5F)c5ccc([nH]5)c(-c5cccc(S(=O)(=O)[O-])c5F)c5nc(c(-c6cccc(S(=O)(=O)[O-])c6F)c6ccc3[nH]6)C=C5)C=C4)cc2)CC[N@@H+]1CC(=O)N1CCCC1
REMARK SMILES IDX 8 1 7 2 6 3 4 4 5 5 3 7 1 8 2 9 78 10 76 11 77 12 79 14
REMARK SMILES IDX 80 15 81 16 82 17 83 18 86 19 84 20 85 21 9 22 10 23 11 24
REMARK SMILES IDX 12 26 13 27 14 28 75 29 15 30 74 31 16 32 17 33 18 34 68 35
REMARK SMILES IDX 19 36 73 37 67 38 69 39 20 40 72 41 66 42 65 43 21 45 53 46
REMARK SMILES IDX 33 47 52 48 34 49 37 50 51 51 70 52 35 53 36 54 50 56 71 57
REMARK SMILES IDX 38 58 22 59 23 60 31 61 24 62 26 63 32 64 25 65 27 66 28 67
REMARK SMILES IDX 29 68 30 69 54 70 55 71 63 72 56 73 58 74 64 75 57 76 59 77
REMARK SMILES IDX 60 78 61 79 62 80 39 81 40 82 48 83 41 84 43 85 49 86 42 87
REMARK SMILES IDX 44 88 45 89 46 90 47 91
REMARK H PARENT 6 6 78 13 10 25 69 44 37 55
REMARK Flexibility Score: inf
ROOT
ATOM      1  C   UNL A   1      31.497  28.892  25.147  1.00  0.00     0.042 C 
ENDROOT
BRANCH   1   2
ATOM      2  C   UNL A   1      31.521  27.400  24.646  1.00  0.00     0.117 C 
BRANCH   2   3
ATOM      3  N   UNL A   1      31.224  26.255  25.534  1.00  0.00    -0.356 N 
ATOM      4  C   UNL A   1      31.873  25.207  26.124  1.00  0.00     0.229 C 
ATOM      5  O   UNL A   1      31.235  24.738  27.090  1.00  0.00    -0.275 OA
ATOM      6  H   UNL A   1      30.269  26.244  25.771  1.00  0.00     0.163 HD
BRANCH   4   7
ATOM      7  C   UNL A   1      33.192  24.454  25.779  1.00  0.00     0.142 C 
ATOM      8  C   UNL A   1      34.331  22.441  27.068  1.00  0.00     0.076 C 
ATOM      9  C   UNL A   1      33.193  22.962  26.183  1.00  0.00     0.194 C 
ATOM     10  N   UNL A   1      33.311  22.169  24.950  1.00  0.00    -0.324 N 
ATOM     11  C   UNL A   1      33.750  24.487  24.381  1.00  0.00     0.081 C 
ATOM     12  C   UNL A   1      33.605  23.072  23.833  1.00  0.00     0.263 C 
ATOM     13  H   UNL A   1      34.094  21.518  25.024  1.00  0.00     0.348 HD
BRANCH  10  14
ATOM     14  C   UNL A   1      32.145  21.270  24.744  1.00  0.00     0.364 C 
BRANCH  14  15
ATOM     15  C   UNL A   1      32.415  20.324  23.582  1.00  0.00     0.277 C 
ATOM     16  O   UNL A   1      32.025  20.675  22.472  1.00  0.00    -0.268 OA
ATOM     17  N   UNL A   1      32.892  19.053  23.824  1.00  0.00    -0.338 N 
ATOM     18  C   UNL A   1      33.573  18.555  25.001  1.00  0.00     0.119 C 
ATOM     19  C   UNL A   1      32.641  17.963  22.915  1.00  0.00     0.119 C 
ATOM     20  C   UNL A   1      34.062  17.153  24.619  1.00  0.00     0.023 C 
ATOM     21  C   UNL A   1      33.769  16.995  23.131  1.00  0.00     0.023 C 
ENDBRANCH  14  15
ENDBRANCH  10  14
ENDBRANCH   4   7
ENDBRANCH   2   3
ENDBRANCH   1   2
BRANCH   1  22
ATOM     22  C   UNL A   1      32.760  29.669  25.566  1.00  0.00     0.118 C 
BRANCH  22  23
ATOM     23  N   UNL A   1      32.453  30.969  26.145  1.00  0.00    -0.352 N 
ATOM     24  C   UNL A   1      33.093  31.699  27.122  1.00  0.00     0.251 C 
ATOM     25  H   UNL A   1      31.650  31.401  25.774  1.00  0.00     0.163 HD
ATOM     26  O   UNL A   1      32.520  32.690  27.576  1.00  0.00    -0.269 OA
BRANCH  24  27
ATOM     27  C   UNL A   1      34.440  31.349  27.650  1.00  0.00     0.039 A 
ATOM     28  C   UNL A   1      34.672  30.024  28.042  1.00  0.00     0.014 A 
ATOM     29  C   UNL A   1      35.422  32.312  27.906  1.00  0.00     0.014 A 
ATOM     30  C   UNL A   1      35.869  29.665  28.676  1.00  0.00     0.010 A 
ATOM     31  C   UNL A   1      36.640  31.941  28.505  1.00  0.00     0.010 A 
ATOM     32  C   UNL A   1      36.870  30.619  28.923  1.00  0.00    -0.014 A 
BRANCH  32  33
ATOM     33  C   UNL A   1      38.112  30.222  29.656  1.00  0.00     0.031 A 
ATOM     34  C   UNL A   1      38.374  30.711  31.062  1.00  0.00     0.074 A 
ATOM     35  C   UNL A   1      39.010  29.402  29.072  1.00  0.00     0.049 A 
ATOM     36  N   UNL A   1      39.342  30.389  31.883  1.00  0.00    -0.248 NA
ATOM     37  C   UNL A   1      37.435  31.702  31.610  1.00  0.00     0.031 C 
ATOM     38  C   UNL A   1      38.928  28.910  27.696  1.00  0.00     0.029 A 
ATOM     39  N   UNL A   1      40.168  28.839  29.556  1.00  0.00    -0.354 N 
ATOM     40  C   UNL A   1      39.140  31.146  33.034  1.00  0.00     0.074 A 
ATOM     41  C   UNL A   1      37.981  31.976  32.786  1.00  0.00     0.031 C 
ATOM     42  C   UNL A   1      39.979  28.111  27.450  1.00  0.00     0.029 A 
ATOM     43  C   UNL A   1      40.820  28.042  28.643  1.00  0.00     0.049 A 
ATOM     44  H   UNL A   1      40.499  28.992  30.470  1.00  0.00     0.167 HD
ATOM     45  C   UNL A   1      39.829  31.132  34.203  1.00  0.00     0.034 A 
ATOM     46  C   UNL A   1      41.961  27.330  28.749  1.00  0.00     0.034 A 
ATOM     47  C   UNL A   1      40.968  30.289  34.462  1.00  0.00     0.049 A 
ATOM     48  C   UNL A   1      42.687  27.296  30.068  1.00  0.00     0.074 A 
ATOM     49  C   UNL A   1      41.689  30.151  35.635  1.00  0.00     0.029 A 
ATOM     50  N   UNL A   1      41.560  29.450  33.530  1.00  0.00    -0.354 N 
ATOM     51  N   UNL A   1      42.385  27.898  31.193  1.00  0.00    -0.248 NA
ATOM     52  C   UNL A   1      43.889  26.451  30.146  1.00  0.00     0.031 C 
ATOM     53  C   UNL A   1      42.737  29.252  35.404  1.00  0.00     0.029 A 
ATOM     54  C   UNL A   1      42.644  28.800  34.097  1.00  0.00     0.049 A 
ATOM     55  H   UNL A   1      41.254  29.332  32.602  1.00  0.00     0.167 HD
ATOM     56  C   UNL A   1      43.338  27.483  32.117  1.00  0.00     0.074 A 
ATOM     57  C   UNL A   1      44.210  26.555  31.428  1.00  0.00     0.031 C 
ATOM     58  C   UNL A   1      43.486  27.851  33.415  1.00  0.00     0.034 A 
BRANCH  45  59
ATOM     59  C   UNL A   1      39.339  32.029  35.316  1.00  0.00     0.023 A 
ATOM     60  C   UNL A   1      38.401  31.534  36.246  1.00  0.00     0.012 A 
ATOM     61  C   UNL A   1      39.838  33.337  35.473  1.00  0.00     0.148 A 
ATOM     62  C   UNL A   1      37.933  32.339  37.285  1.00  0.00     0.002 A 
ATOM     63  C   UNL A   1      39.402  34.118  36.538  1.00  0.00     0.091 A 
ATOM     64  F   UNL A   1      40.719  33.798  34.575  1.00  0.00    -0.205 F 
ATOM     65  C   UNL A   1      38.439  33.627  37.435  1.00  0.00     0.022 A 
BRANCH  63  66
ATOM     66  S   UNL A   1      40.049  35.761  36.869  1.00  0.00     0.127 S 
ATOM     67  O   UNL A   1      41.483  35.497  36.981  1.00  0.00    -0.237 OA
ATOM     68  O   UNL A   1      39.659  36.494  35.663  1.00  0.00    -0.237 OA
ATOM     69  O   UNL A   1      39.400  36.212  38.092  1.00  0.00    -0.744 OA
ENDBRANCH  63  66
ENDBRANCH  45  59
BRANCH  46  70
ATOM     70  C   UNL A   1      42.459  26.542  27.584  1.00  0.00     0.023 A 
ATOM     71  C   UNL A   1      43.305  27.147  26.634  1.00  0.00     0.012 A 
ATOM     72  C   UNL A   1      42.116  25.184  27.430  1.00  0.00     0.148 A 
ATOM     73  C   UNL A   1      43.776  26.423  25.536  1.00  0.00     0.002 A 
ATOM     74  C   UNL A   1      42.637  24.454  26.367  1.00  0.00     0.091 A 
ATOM     75  F   UNL A   1      41.296  24.631  28.334  1.00  0.00    -0.205 F 
ATOM     76  C   UNL A   1      43.453  25.075  25.410  1.00  0.00     0.022 A 
BRANCH  74  77
ATOM     77  S   UNL A   1      42.382  22.682  26.210  1.00  0.00     0.127 S 
ATOM     78  O   UNL A   1      43.026  22.180  27.428  1.00  0.00    -0.237 OA
ATOM     79  O   UNL A   1      40.918  22.590  26.212  1.00  0.00    -0.237 OA
ATOM     80  O   UNL A   1      43.005  22.298  24.961  1.00  0.00    -0.744 OA
ENDBRANCH  74  77
ENDBRANCH  46  70
BRANCH  58  81
ATOM     81  C   UNL A   1      44.621  27.229  34.190  1.00  0.00     0.023 A 
ATOM     82  C   UNL A   1      45.887  27.848  34.202  1.00  0.00     0.012 A 
ATOM     83  C   UNL A   1      44.418  26.061  34.952  1.00  0.00     0.148 A 
ATOM     84  C   UNL A   1      46.943  27.292  34.924  1.00  0.00     0.002 A 
ATOM     85  C   UNL A   1      45.460  25.542  35.711  1.00  0.00     0.091 A 
ATOM     86  F   UNL A   1      43.213  25.475  34.916  1.00  0.00    -0.205 F 
ATOM     87  C   UNL A   1      46.727  26.147  35.687  1.00  0.00     0.022 A 
BRANCH  85  88
ATOM     88  S   UNL A   1      45.248  24.129  36.799  1.00  0.00     0.127 S 
ATOM     89  O   UNL A   1      44.181  24.593  37.686  1.00  0.00    -0.237 OA
ATOM     90  O   UNL A   1      44.848  23.076  35.866  1.00  0.00    -0.237 OA
ATOM     91  O   UNL A   1      46.541  23.914  37.435  1.00  0.00    -0.744 OA
ENDBRANCH  85  88
ENDBRANCH  58  81
ENDBRANCH  32  33
ENDBRANCH  24  27
ENDBRANCH  22  23
ENDBRANCH   1  22
TORSDOF 15
ENDMDL
MODEL 3
REMARK VINA RESULT:     -11.8      5.047      9.969
REMARK SMILES C[C@H]1[C@H](C(=O)NCCCNC(=O)c2ccc(-c3c4nc(c(-c5cccc(S(=O)(=O)[O-])c5F)c5ccc([nH]5)c(-c5cccc(S(=O)(=O)[O-])c5F)c5nc(c(-c6cccc(S(=O)(=O)[O-])c6F)c6ccc3[nH]6)C=C5)C=C4)cc2)CC[N@@H+]1CC(=O)N1CCCC1
REMARK SMILES IDX 8 1 7 2 6 3 4 4 5 5 3 7 1 8 2 9 78 10 76 11 77 12 79 14
REMARK SMILES IDX 80 15 81 16 82 17 83 18 86 19 84 20 85 21 9 22 10 23 11 24
REMARK SMILES IDX 12 26 13 27 14 28 75 29 15 30 74 31 16 32 17 33 18 34 68 35
REMARK SMILES IDX 19 36 73 37 67 38 69 39 20 40 72 41 66 42 65 43 21 45 53 46
REMARK SMILES IDX 33 47 52 48 34 49 37 50 51 51 70 52 35 53 36 54 50 56 71 57
REMARK SMILES IDX 38 58 22 59 23 60 31 61 24 62 26 63 32 64 25 65 27 66 28 67
REMARK SMILES IDX 29 68 30 69 54 70 55 71 63 72 56 73 58 74 64 75 57 76 59 77
REMARK SMILES IDX 60 78 61 79 62 80 39 81 40 82 48 83 41 84 43 85 49 86 42 87
REMARK SMILES IDX 44 88 45 89 46 90 47 91
REMARK H PARENT 6 6 78 13 10 25 69 44 37 55
REMARK Flexibility Score: inf
ROOT
ATOM      1  C   UNL A   1      32.327  28.319  26.919  1.00  0.00     0.042 C 
ENDROOT
BRANCH   1   2
ATOM      2  C   UNL A   1      31.233  27.391  26.270  1.00  0.00     0.117 C 
BRANCH   2   3
ATOM      3  N   UNL A   1      31.097  25.959  26.609  1.00  0.00    -0.356 N 
ATOM      4  C   UNL A   1      31.864  24.828  26.653  1.00  0.00     0.229 C 
ATOM      5  O   UNL A   1      31.360  23.941  27.374  1.00  0.00    -0.275 OA
ATOM      6  H   UNL A   1      30.175  25.759  26.889  1.00  0.00     0.163 HD
BRANCH   4   7
ATOM      7  C   UNL A   1      33.179  24.416  25.928  1.00  0.00     0.142 C 
ATOM      8  C   UNL A   1      33.684  22.219  24.540  1.00  0.00     0.076 C 
ATOM      9  C   UNL A   1      32.962  23.566  24.656  1.00  0.00     0.194 C 
ATOM     10  N   UNL A   1      33.469  24.340  23.513  1.00  0.00    -0.324 N 
ATOM     11  C   UNL A   1      34.198  25.456  25.542  1.00  0.00     0.081 C 
ATOM     12  C   UNL A   1      34.186  25.516  24.018  1.00  0.00     0.263 C 
ATOM     13  H   UNL A   1      34.141  23.785  22.982  1.00  0.00     0.348 HD
BRANCH  10  14
ATOM     14  C   UNL A   1      32.409  24.630  22.512  1.00  0.00     0.364 C 
BRANCH  14  15
ATOM     15  C   UNL A   1      32.530  26.068  22.026  1.00  0.00     0.277 C 
ATOM     16  O   UNL A   1      33.550  26.366  21.410  1.00  0.00    -0.268 OA
ATOM     17  N   UNL A   1      31.622  27.016  22.446  1.00  0.00    -0.338 N 
ATOM     18  C   UNL A   1      30.294  26.814  22.986  1.00  0.00     0.119 C 
ATOM     19  C   UNL A   1      31.963  28.415  22.513  1.00  0.00     0.119 C 
ATOM     20  C   UNL A   1      29.674  28.215  23.061  1.00  0.00     0.023 C 
ATOM     21  C   UNL A   1      30.661  29.151  22.371  1.00  0.00     0.023 C 
ENDBRANCH  14  15
ENDBRANCH  10  14
ENDBRANCH   4   7
ENDBRANCH   2   3
ENDBRANCH   1   2
BRANCH   1  22
ATOM     22  C   UNL A   1      33.165  29.333  26.119  1.00  0.00     0.118 C 
BRANCH  22  23
ATOM     23  N   UNL A   1      33.007  30.698  26.602  1.00  0.00    -0.352 N 
ATOM     24  C   UNL A   1      33.774  31.447  27.468  1.00  0.00     0.251 C 
ATOM     25  H   UNL A   1      32.216  31.166  26.250  1.00  0.00     0.163 HD
ATOM     26  O   UNL A   1      33.317  32.517  27.871  1.00  0.00    -0.269 OA
BRANCH  24  27
ATOM     27  C   UNL A   1      35.124  31.027  27.932  1.00  0.00     0.039 A 
ATOM     28  C   UNL A   1      35.270  29.734  28.454  1.00  0.00     0.014 A 
ATOM     29  C   UNL A   1      36.205  31.911  28.004  1.00  0.00     0.014 A 
ATOM     30  C   UNL A   1      36.480  29.331  29.036  1.00  0.00     0.010 A 
ATOM     31  C   UNL A   1      37.431  31.490  28.550  1.00  0.00     0.010 A 
ATOM     32  C   UNL A   1      37.578  30.205  29.099  1.00  0.00    -0.014 A 
BRANCH  32  33
ATOM     33  C   UNL A   1      38.837  29.770  29.779  1.00  0.00     0.031 A 
ATOM     34  C   UNL A   1      39.207  30.304  31.143  1.00  0.00     0.074 A 
ATOM     35  C   UNL A   1      39.652  28.874  29.186  1.00  0.00     0.049 A 
ATOM     36  N   UNL A   1      40.202  29.964  31.924  1.00  0.00    -0.248 NA
ATOM     37  C   UNL A   1      38.357  31.372  31.696  1.00  0.00     0.031 C 
ATOM     38  C   UNL A   1      39.463  28.326  27.842  1.00  0.00     0.029 A 
ATOM     39  N   UNL A   1      40.804  28.267  29.631  1.00  0.00    -0.354 N 
ATOM     40  C   UNL A   1      40.110  30.782  33.047  1.00  0.00     0.074 A 
ATOM     41  C   UNL A   1      38.986  31.666  32.825  1.00  0.00     0.031 C 
ATOM     42  C   UNL A   1      40.453  27.457  27.577  1.00  0.00     0.029 A 
ATOM     43  C   UNL A   1      41.356  27.393  28.722  1.00  0.00     0.049 A 
ATOM     44  H   UNL A   1      41.195  28.441  30.517  1.00  0.00     0.167 HD
ATOM     45  C   UNL A   1      40.864  30.781  34.175  1.00  0.00     0.034 A 
ATOM     46  C   UNL A   1      42.461  26.623  28.799  1.00  0.00     0.034 A 
ATOM     47  C   UNL A   1      41.968  29.886  34.410  1.00  0.00     0.049 A 
ATOM     48  C   UNL A   1      43.260  26.605  30.075  1.00  0.00     0.074 A 
ATOM     49  C   UNL A   1      42.747  29.759  35.546  1.00  0.00     0.029 A 
ATOM     50  N   UNL A   1      42.458  28.973  33.488  1.00  0.00    -0.354 N 
ATOM     51  N   UNL A   1      43.058  27.273  31.185  1.00  0.00    -0.248 NA
ATOM     52  C   UNL A   1      44.415  25.697  30.126  1.00  0.00     0.031 C 
ATOM     53  C   UNL A   1      43.729  28.791  35.300  1.00  0.00     0.029 A 
ATOM     54  C   UNL A   1      43.536  28.288  34.024  1.00  0.00     0.049 A 
ATOM     55  H   UNL A   1      42.092  28.832  32.585  1.00  0.00     0.167 HD
ATOM     56  C   UNL A   1      44.039  26.846  32.074  1.00  0.00     0.074 A 
ATOM     57  C   UNL A   1      44.817  25.839  31.382  1.00  0.00     0.031 C 
ATOM     58  C   UNL A   1      44.283  27.262  33.342  1.00  0.00     0.034 A 
BRANCH  45  59
ATOM     59  C   UNL A   1      40.490  31.753  35.269  1.00  0.00     0.023 A 
ATOM     60  C   UNL A   1      41.235  32.941  35.428  1.00  0.00     0.012 A 
ATOM     61  C   UNL A   1      39.379  31.522  36.103  1.00  0.00     0.148 A 
ATOM     62  C   UNL A   1      40.910  33.858  36.429  1.00  0.00     0.002 A 
ATOM     63  C   UNL A   1      39.033  32.462  37.068  1.00  0.00     0.091 A 
ATOM     64  F   UNL A   1      38.688  30.383  35.948  1.00  0.00    -0.205 F 
ATOM     65  C   UNL A   1      39.806  33.622  37.243  1.00  0.00     0.022 A 
BRANCH  63  66
ATOM     66  S   UNL A   1      37.582  32.293  38.115  1.00  0.00     0.127 S 
ATOM     67  O   UNL A   1      38.043  32.907  39.360  1.00  0.00    -0.237 OA
ATOM     68  O   UNL A   1      36.583  33.075  37.385  1.00  0.00    -0.237 OA
ATOM     69  O   UNL A   1      37.302  30.867  38.190  1.00  0.00    -0.744 OA
ENDBRANCH  63  66
ENDBRANCH  45  59
BRANCH  46  70
ATOM     70  C   UNL A   1      42.846  25.756  27.646  1.00  0.00     0.023 A 
ATOM     71  C   UNL A   1      43.789  26.212  26.705  1.00  0.00     0.012 A 
ATOM     72  C   UNL A   1      42.297  24.466  27.497  1.00  0.00     0.148 A 
ATOM     73  C   UNL A   1      44.156  25.414  25.620  1.00  0.00     0.002 A 
ATOM     74  C   UNL A   1      42.713  23.654  26.447  1.00  0.00     0.091 A 
ATOM     75  F   UNL A   1      41.389  24.056  28.392  1.00  0.00    -0.205 F 
ATOM     76  C   UNL A   1      43.628  24.131  25.499  1.00  0.00     0.022 A 
BRANCH  74  77
ATOM     77  S   UNL A   1      42.186  21.943  26.298  1.00  0.00     0.127 S 
ATOM     78  O   UNL A   1      40.757  22.097  26.008  1.00  0.00    -0.237 OA
ATOM     79  O   UNL A   1      42.991  21.479  25.163  1.00  0.00    -0.237 OA
ATOM     80  O   UNL A   1      42.510  21.314  27.561  1.00  0.00    -0.744 OA
ENDBRANCH  74  77
ENDBRANCH  46  70
BRANCH  58  81
ATOM     81  C   UNL A   1      45.425  26.611  34.081  1.00  0.00     0.023 A 
ATOM     82  C   UNL A   1      46.722  27.156  33.994  1.00  0.00     0.012 A 
ATOM     83  C   UNL A   1      45.203  25.492  34.908  1.00  0.00     0.148 A 
ATOM     84  C   UNL A   1      47.785  26.572  34.681  1.00  0.00     0.002 A 
ATOM     85  C   UNL A   1      46.257  24.947  35.632  1.00  0.00     0.091 A 
ATOM     86  F   UNL A   1      43.967  24.975  34.967  1.00  0.00    -0.205 F 
ATOM     87  C   UNL A   1      47.552  25.476  35.508  1.00  0.00     0.022 A 
BRANCH  85  88
ATOM     88  S   UNL A   1      46.031  23.598  36.796  1.00  0.00     0.127 S 
ATOM     89  O   UNL A   1      45.501  22.544  35.932  1.00  0.00    -0.237 OA
ATOM     90  O   UNL A   1      47.395  23.368  37.273  1.00  0.00    -0.237 OA
ATOM     91  O   UNL A   1      45.112  24.094  37.812  1.00  0.00    -0.744 OA
ENDBRANCH  85  88
ENDBRANCH  58  81
ENDBRANCH  32  33
ENDBRANCH  24  27
ENDBRANCH  22  23
ENDBRANCH   1  22
TORSDOF 15
ENDMDL
