MODEL 1
REMARK VINA RESULT:     -13.1      0.000      0.000
REMARK SMILES CC(C)[C@H](NC(=O)[C@H](Cc1ccccc1)n1c(=O)[nH]c2ccccc2c1=O)C(=O)NCCCNC(=O)c1ccc(-c2c3nc(c(-c4cccc(S(=O)(=O)[O-])c4F)c4ccc([nH]4)c(-c4cccc(S(=O)(=O)[O-])c4F)c4nc(c(-c5cccc(S(=O)(=O)[O-])c5F)c5ccc2[nH]5)C=C4)C=C3)cc1
REMARK SMILES IDX 31 1 30 2 28 3 29 4 4 6 2 7 1 8 3 9 5 10 6 11 7 13 8 14
REMARK SMILES IDX 16 15 17 16 26 17 18 18 19 19 25 20 27 21 20 22 24 24 21 25
REMARK SMILES IDX 23 26 22 27 9 28 10 29 11 30 15 31 12 32 14 33 13 34 32 35
REMARK SMILES IDX 33 36 34 37 35 38 36 40 37 41 38 42 99 43 39 44 98 45 40 46
REMARK SMILES IDX 41 47 42 48 92 49 43 50 97 51 91 52 93 53 44 54 96 55 90 56
REMARK SMILES IDX 89 57 45 59 77 60 57 61 76 62 58 63 61 64 75 65 94 66 59 67
REMARK SMILES IDX 60 68 74 70 95 71 62 72 46 73 47 74 55 75 48 76 50 77 56 78
REMARK SMILES IDX 49 79 51 80 52 81 53 82 54 83 78 84 79 85 87 86 80 87 82 88
REMARK SMILES IDX 88 89 81 90 83 91 84 92 85 93 86 94 63 95 64 96 72 97 65 98
REMARK SMILES IDX 67 99 73 100 66 101 68 102 69 103 70 104 71 105
REMARK H PARENT 30 5 5 12 19 23 34 39 93 58 61 69
REMARK Flexibility Score: inf
ROOT
ATOM      1  C   UNL A   1      31.781  28.129  27.243  1.00  0.00     0.117 C 
ENDROOT
BRANCH   1   2
ATOM      2  N   UNL A   1      31.145  26.858  26.979  1.00  0.00    -0.354 N 
ATOM      3  C   UNL A   1      30.834  26.273  25.794  1.00  0.00     0.242 C 
ATOM      4  O   UNL A   1      30.259  25.179  25.844  1.00  0.00    -0.273 OA
ATOM      5  H   UNL A   1      30.899  26.340  27.778  1.00  0.00     0.163 HD
BRANCH   3   6
ATOM      6  C   UNL A   1      31.321  26.831  24.429  1.00  0.00     0.173 C 
BRANCH   6   7
ATOM      7  C   UNL A   1      30.514  28.015  23.914  1.00  0.00     0.015 C 
ATOM      8  C   UNL A   1      31.204  28.977  22.941  1.00  0.00     0.010 C 
ATOM      9  C   UNL A   1      29.202  27.507  23.307  1.00  0.00     0.010 C 
ENDBRANCH   6   7
BRANCH   6  10
ATOM     10  N   UNL A   1      31.568  25.769  23.431  1.00  0.00    -0.342 N 
ATOM     11  C   UNL A   1      32.372  24.725  23.156  1.00  0.00     0.244 C 
ATOM     12  H   UNL A   1      30.908  25.859  22.706  1.00  0.00     0.164 HD
ATOM     13  O   UNL A   1      32.462  24.601  21.919  1.00  0.00    -0.273 OA
BRANCH  11  14
ATOM     14  C   UNL A   1      33.302  23.810  24.054  1.00  0.00     0.189 C 
BRANCH  14  15
ATOM     15  N   UNL A   1      33.045  22.396  24.522  1.00  0.00    -0.247 N 
ATOM     16  C   UNL A   1      32.980  22.080  25.865  1.00  0.00     0.329 A 
ATOM     17  C   UNL A   1      32.647  21.448  23.563  1.00  0.00     0.264 A 
ATOM     18  O   UNL A   1      33.072  22.850  26.816  1.00  0.00    -0.248 OA
ATOM     19  N   UNL A   1      32.759  20.787  26.221  1.00  0.00    -0.307 N 
ATOM     20  C   UNL A   1      32.623  20.022  23.978  1.00  0.00     0.064 A 
ATOM     21  O   UNL A   1      32.362  21.710  22.396  1.00  0.00    -0.268 OA
ATOM     22  C   UNL A   1      32.654  19.740  25.332  1.00  0.00     0.055 A 
ATOM     23  H   UNL A   1      32.665  20.585  27.179  1.00  0.00     0.171 HD
ATOM     24  C   UNL A   1      32.637  18.968  23.059  1.00  0.00     0.016 A 
ATOM     25  C   UNL A   1      32.640  18.428  25.803  1.00  0.00     0.027 A 
ATOM     26  C   UNL A   1      32.679  17.647  23.519  1.00  0.00     0.001 A 
ATOM     27  C   UNL A   1      32.667  17.377  24.890  1.00  0.00     0.002 A 
ENDBRANCH  14  15
BRANCH  14  28
ATOM     28  C   UNL A   1      34.777  24.030  23.548  1.00  0.00     0.071 C 
BRANCH  28  29
ATOM     29  C   UNL A   1      35.962  23.442  24.310  1.00  0.00    -0.045 A 
ATOM     30  C   UNL A   1      36.455  24.149  25.416  1.00  0.00     0.004 A 
ATOM     31  C   UNL A   1      36.589  22.227  23.983  1.00  0.00     0.004 A 
ATOM     32  C   UNL A   1      37.504  23.636  26.187  1.00  0.00     0.000 A 
ATOM     33  C   UNL A   1      37.620  21.703  24.763  1.00  0.00     0.000 A 
ATOM     34  C   UNL A   1      38.075  22.407  25.869  1.00  0.00     0.000 A 
ENDBRANCH  28  29
ENDBRANCH  14  28
ENDBRANCH  11  14
ENDBRANCH   6  10
ENDBRANCH   3   6
ENDBRANCH   1   2
BRANCH   1  35
ATOM     35  C   UNL A   1      33.297  28.023  27.133  1.00  0.00     0.042 C 
BRANCH  35  36
ATOM     36  C   UNL A   1      33.902  29.036  26.169  1.00  0.00     0.118 C 
BRANCH  36  37
ATOM     37  N   UNL A   1      33.833  30.396  26.685  1.00  0.00    -0.352 N 
ATOM     38  C   UNL A   1      34.610  31.014  27.632  1.00  0.00     0.251 C 
ATOM     39  H   UNL A   1      33.123  30.957  26.295  1.00  0.00     0.163 HD
ATOM     40  O   UNL A   1      34.267  32.105  28.079  1.00  0.00    -0.269 OA
BRANCH  38  41
ATOM     41  C   UNL A   1      35.844  30.363  28.115  1.00  0.00     0.039 A 
ATOM     42  C   UNL A   1      36.997  30.440  27.330  1.00  0.00     0.014 A 
ATOM     43  C   UNL A   1      35.864  29.674  29.330  1.00  0.00     0.014 A 
ATOM     44  C   UNL A   1      38.182  29.865  27.789  1.00  0.00     0.010 A 
ATOM     45  C   UNL A   1      37.066  29.185  29.827  1.00  0.00     0.010 A 
ATOM     46  C   UNL A   1      38.233  29.259  29.055  1.00  0.00    -0.014 A 
BRANCH  46  47
ATOM     47  C   UNL A   1      39.502  28.706  29.587  1.00  0.00     0.031 A 
ATOM     48  C   UNL A   1      40.218  29.395  30.718  1.00  0.00     0.074 A 
ATOM     49  C   UNL A   1      40.055  27.631  28.993  1.00  0.00     0.049 A 
ATOM     50  N   UNL A   1      41.349  29.079  31.290  1.00  0.00    -0.248 NA
ATOM     51  C   UNL A   1      39.598  30.619  31.253  1.00  0.00     0.031 C 
ATOM     52  C   UNL A   1      39.507  26.938  27.825  1.00  0.00     0.029 A 
ATOM     53  N   UNL A   1      41.214  26.952  29.269  1.00  0.00    -0.354 N 
ATOM     54  C   UNL A   1      41.600  30.083  32.216  1.00  0.00     0.074 A 
ATOM     55  C   UNL A   1      40.521  31.038  32.107  1.00  0.00     0.031 C 
ATOM     56  C   UNL A   1      40.327  25.931  27.486  1.00  0.00     0.029 A 
ATOM     57  C   UNL A   1      41.474  25.928  28.388  1.00  0.00     0.049 A 
ATOM     58  H   UNL A   1      41.804  27.175  30.025  1.00  0.00     0.167 HD
ATOM     59  C   UNL A   1      42.625  30.190  33.094  1.00  0.00     0.034 A 
ATOM     60  C   UNL A   1      42.526  25.092  28.304  1.00  0.00     0.034 A 
ATOM     61  C   UNL A   1      43.676  29.217  33.220  1.00  0.00     0.049 A 
ATOM     62  C   UNL A   1      43.621  25.192  29.328  1.00  0.00     0.074 A 
ATOM     63  C   UNL A   1      44.695  29.167  34.154  1.00  0.00     0.029 A 
ATOM     64  N   UNL A   1      43.859  28.136  32.371  1.00  0.00    -0.354 N 
ATOM     65  N   UNL A   1      43.747  26.041  30.319  1.00  0.00    -0.248 NA
ATOM     66  C   UNL A   1      44.699  24.198  29.246  1.00  0.00     0.031 C 
ATOM     67  C   UNL A   1      45.520  28.081  33.842  1.00  0.00     0.029 A 
ATOM     68  C   UNL A   1      44.989  27.427  32.743  1.00  0.00     0.049 A 
ATOM     69  H   UNL A   1      43.272  27.906  31.614  1.00  0.00     0.167 HD
ATOM     70  C   UNL A   1      44.901  25.668  30.996  1.00  0.00     0.074 A 
ATOM     71  C   UNL A   1      45.424  24.501  30.315  1.00  0.00     0.031 C 
ATOM     72  C   UNL A   1      45.481  26.247  32.077  1.00  0.00     0.034 A 
BRANCH  59  73
ATOM     73  C   UNL A   1      42.644  31.392  34.005  1.00  0.00     0.023 A 
ATOM     74  C   UNL A   1      43.276  32.582  33.590  1.00  0.00     0.012 A 
ATOM     75  C   UNL A   1      42.002  31.355  35.258  1.00  0.00     0.148 A 
ATOM     76  C   UNL A   1      43.310  33.698  34.424  1.00  0.00     0.002 A 
ATOM     77  C   UNL A   1      41.994  32.488  36.062  1.00  0.00     0.091 A 
ATOM     78  F   UNL A   1      41.424  30.209  35.648  1.00  0.00    -0.205 F 
ATOM     79  C   UNL A   1      42.661  33.655  35.655  1.00  0.00     0.022 A 
BRANCH  77  80
ATOM     80  S   UNL A   1      41.113  32.559  37.625  1.00  0.00     0.127 S 
ATOM     81  O   UNL A   1      41.169  33.987  37.930  1.00  0.00    -0.237 OA
ATOM     82  O   UNL A   1      39.786  32.068  37.251  1.00  0.00    -0.237 OA
ATOM     83  O   UNL A   1      41.844  31.693  38.539  1.00  0.00    -0.744 OA
ENDBRANCH  77  80
ENDBRANCH  59  73
BRANCH  60  84
ATOM     84  C   UNL A   1      42.557  24.059  27.231  1.00  0.00     0.023 A 
ATOM     85  C   UNL A   1      43.200  24.339  26.009  1.00  0.00     0.012 A 
ATOM     86  C   UNL A   1      42.003  22.782  27.440  1.00  0.00     0.148 A 
ATOM     87  C   UNL A   1      43.267  23.373  25.005  1.00  0.00     0.002 A 
ATOM     88  C   UNL A   1      42.123  21.806  26.459  1.00  0.00     0.091 A 
ATOM     89  F   UNL A   1      41.391  22.540  28.609  1.00  0.00    -0.205 F 
ATOM     90  C   UNL A   1      42.739  22.104  25.234  1.00  0.00     0.022 A 
BRANCH  88  91
ATOM     91  S   UNL A   1      41.594  20.109  26.714  1.00  0.00     0.127 S 
ATOM     92  O   UNL A   1      42.493  19.673  27.779  1.00  0.00    -0.237 OA
ATOM     93  O   UNL A   1      40.199  20.290  27.120  1.00  0.00    -0.237 OA
ATOM     94  O   UNL A   1      41.769  19.443  25.431  1.00  0.00    -0.744 OA
ENDBRANCH  88  91
ENDBRANCH  60  84
BRANCH  72  95
ATOM     95  C   UNL A   1      46.737  25.614  32.617  1.00  0.00     0.023 A 
ATOM     96  C   UNL A   1      47.996  26.010  32.126  1.00  0.00     0.012 A 
ATOM     97  C   UNL A   1      46.669  24.673  33.666  1.00  0.00     0.148 A 
ATOM     98  C   UNL A   1      49.167  25.455  32.643  1.00  0.00     0.002 A 
ATOM     99  C   UNL A   1      47.840  24.165  34.212  1.00  0.00     0.091 A 
ATOM    100  F   UNL A   1      45.461  24.296  34.108  1.00  0.00    -0.205 F 
ATOM    101  C   UNL A   1      49.089  24.543  33.694  1.00  0.00     0.022 A 
BRANCH  99 102
ATOM    102  S   UNL A   1      47.841  23.064  35.632  1.00  0.00     0.127 S 
ATOM    103  O   UNL A   1      47.034  23.815  36.592  1.00  0.00    -0.237 OA
ATOM    104  O   UNL A   1      47.194  21.866  35.096  1.00  0.00    -0.237 OA
ATOM    105  O   UNL A   1      49.239  22.881  35.999  1.00  0.00    -0.744 OA
ENDBRANCH  99 102
ENDBRANCH  72  95
ENDBRANCH  46  47
ENDBRANCH  38  41
ENDBRANCH  36  37
ENDBRANCH  35  36
ENDBRANCH   1  35
TORSDOF 19
ENDMDL
MODEL 2
REMARK VINA RESULT:     -12.6      1.241      1.548
REMARK SMILES CC(C)[C@H](NC(=O)[C@H](Cc1ccccc1)n1c(=O)[nH]c2ccccc2c1=O)C(=O)NCCCNC(=O)c1ccc(-c2c3nc(c(-c4cccc(S(=O)(=O)[O-])c4F)c4ccc([nH]4)c(-c4cccc(S(=O)(=O)[O-])c4F)c4nc(c(-c5cccc(S(=O)(=O)[O-])c5F)c5ccc2[nH]5)C=C4)C=C3)cc1
REMARK SMILES IDX 31 1 30 2 28 3 29 4 4 6 2 7 1 8 3 9 5 10 6 11 7 13 8 14
REMARK SMILES IDX 16 15 17 16 26 17 18 18 19 19 25 20 27 21 20 22 24 24 21 25
REMARK SMILES IDX 23 26 22 27 9 28 10 29 11 30 15 31 12 32 14 33 13 34 32 35
REMARK SMILES IDX 33 36 34 37 35 38 36 40 37 41 38 42 99 43 39 44 98 45 40 46
REMARK SMILES IDX 41 47 42 48 92 49 43 50 97 51 91 52 93 53 44 54 96 55 90 56
REMARK SMILES IDX 89 57 45 59 77 60 57 61 76 62 58 63 61 64 75 65 94 66 59 67
REMARK SMILES IDX 60 68 74 70 95 71 62 72 46 73 47 74 55 75 48 76 50 77 56 78
REMARK SMILES IDX 49 79 51 80 52 81 53 82 54 83 78 84 79 85 87 86 80 87 82 88
REMARK SMILES IDX 88 89 81 90 83 91 84 92 85 93 86 94 63 95 64 96 72 97 65 98
REMARK SMILES IDX 67 99 73 100 66 101 68 102 69 103 70 104 71 105
REMARK H PARENT 30 5 5 12 19 23 34 39 93 58 61 69
REMARK Flexibility Score: inf
ROOT
ATOM      1  C   UNL A   1      31.987  28.187  27.191  1.00  0.00     0.117 C 
ENDROOT
BRANCH   1   2
ATOM      2  N   UNL A   1      31.176  27.011  26.971  1.00  0.00    -0.354 N 
ATOM      3  C   UNL A   1      30.649  26.523  25.819  1.00  0.00     0.242 C 
ATOM      4  O   UNL A   1      29.960  25.500  25.909  1.00  0.00    -0.273 OA
ATOM      5  H   UNL A   1      30.975  26.486  27.779  1.00  0.00     0.163 HD
BRANCH   3   6
ATOM      6  C   UNL A   1      31.020  27.088  24.421  1.00  0.00     0.173 C 
BRANCH   6   7
ATOM      7  C   UNL A   1      30.032  28.112  23.879  1.00  0.00     0.015 C 
ATOM      8  C   UNL A   1      30.514  29.042  22.761  1.00  0.00     0.010 C 
ATOM      9  C   UNL A   1      28.748  27.396  23.448  1.00  0.00     0.010 C 
ENDBRANCH   6   7
BRANCH   6  10
ATOM     10  N   UNL A   1      31.408  26.033  23.462  1.00  0.00    -0.342 N 
ATOM     11  C   UNL A   1      32.274  25.019  23.278  1.00  0.00     0.244 C 
ATOM     12  H   UNL A   1      30.824  26.096  22.671  1.00  0.00     0.164 HD
ATOM     13  O   UNL A   1      32.497  24.895  22.058  1.00  0.00    -0.273 OA
BRANCH  11  14
ATOM     14  C   UNL A   1      33.139  24.142  24.274  1.00  0.00     0.189 C 
BRANCH  14  15
ATOM     15  N   UNL A   1      32.954  22.686  24.633  1.00  0.00    -0.247 N 
ATOM     16  C   UNL A   1      33.032  22.248  25.941  1.00  0.00     0.329 A 
ATOM     17  C   UNL A   1      32.475  21.817  23.636  1.00  0.00     0.264 A 
ATOM     18  O   UNL A   1      33.209  22.932  26.945  1.00  0.00    -0.248 OA
ATOM     19  N   UNL A   1      32.869  20.924  26.197  1.00  0.00    -0.307 N 
ATOM     20  C   UNL A   1      32.517  20.360  23.919  1.00  0.00     0.064 A 
ATOM     21  O   UNL A   1      32.069  22.176  22.533  1.00  0.00    -0.268 OA
ATOM     22  C   UNL A   1      32.691  19.958  25.231  1.00  0.00     0.055 A 
ATOM     23  H   UNL A   1      32.877  20.634  27.138  1.00  0.00     0.171 HD
ATOM     24  C   UNL A   1      32.454  19.394  22.910  1.00  0.00     0.016 A 
ATOM     25  C   UNL A   1      32.747  18.609  25.578  1.00  0.00     0.027 A 
ATOM     26  C   UNL A   1      32.565  18.038  23.239  1.00  0.00     0.001 A 
ATOM     27  C   UNL A   1      32.697  17.646  24.574  1.00  0.00     0.002 A 
ENDBRANCH  14  15
BRANCH  14  28
ATOM     28  C   UNL A   1      34.646  24.525  24.022  1.00  0.00     0.071 C 
BRANCH  28  29
ATOM     29  C   UNL A   1      35.776  23.647  24.554  1.00  0.00    -0.045 A 
ATOM     30  C   UNL A   1      36.107  22.487  23.839  1.00  0.00     0.004 A 
ATOM     31  C   UNL A   1      36.519  23.930  25.714  1.00  0.00     0.004 A 
ATOM     32  C   UNL A   1      37.167  21.671  24.245  1.00  0.00     0.000 A 
ATOM     33  C   UNL A   1      37.591  23.129  26.109  1.00  0.00     0.000 A 
ATOM     34  C   UNL A   1      37.918  22.000  25.371  1.00  0.00     0.000 A 
ENDBRANCH  28  29
ENDBRANCH  14  28
ENDBRANCH  11  14
ENDBRANCH   6  10
ENDBRANCH   3   6
ENDBRANCH   1   2
BRANCH   1  35
ATOM     35  C   UNL A   1      33.441  27.936  26.814  1.00  0.00     0.042 C 
BRANCH  35  36
ATOM     36  C   UNL A   1      34.049  29.058  25.984  1.00  0.00     0.118 C 
BRANCH  36  37
ATOM     37  N   UNL A   1      33.889  30.361  26.615  1.00  0.00    -0.352 N 
ATOM     38  C   UNL A   1      34.586  30.922  27.655  1.00  0.00     0.251 C 
ATOM     39  H   UNL A   1      33.172  30.923  26.240  1.00  0.00     0.163 HD
ATOM     40  O   UNL A   1      34.169  31.950  28.179  1.00  0.00    -0.269 OA
BRANCH  38  41
ATOM     41  C   UNL A   1      35.825  30.284  28.143  1.00  0.00     0.039 A 
ATOM     42  C   UNL A   1      36.979  30.367  27.359  1.00  0.00     0.014 A 
ATOM     43  C   UNL A   1      35.849  29.602  29.362  1.00  0.00     0.014 A 
ATOM     44  C   UNL A   1      38.168  29.804  27.823  1.00  0.00     0.010 A 
ATOM     45  C   UNL A   1      37.054  29.126  29.864  1.00  0.00     0.010 A 
ATOM     46  C   UNL A   1      38.222  29.206  29.093  1.00  0.00    -0.014 A 
BRANCH  46  47
ATOM     47  C   UNL A   1      39.495  28.666  29.630  1.00  0.00     0.031 A 
ATOM     48  C   UNL A   1      40.196  29.361  30.766  1.00  0.00     0.074 A 
ATOM     49  C   UNL A   1      40.063  27.600  29.036  1.00  0.00     0.049 A 
ATOM     50  N   UNL A   1      41.328  29.057  31.343  1.00  0.00    -0.248 NA
ATOM     51  C   UNL A   1      39.559  30.576  31.301  1.00  0.00     0.031 C 
ATOM     52  C   UNL A   1      39.529  26.903  27.863  1.00  0.00     0.029 A 
ATOM     53  N   UNL A   1      41.229  26.933  29.316  1.00  0.00    -0.354 N 
ATOM     54  C   UNL A   1      41.563  30.062  32.273  1.00  0.00     0.074 A 
ATOM     55  C   UNL A   1      40.473  31.004  32.161  1.00  0.00     0.031 C 
ATOM     56  C   UNL A   1      40.363  25.907  27.526  1.00  0.00     0.029 A 
ATOM     57  C   UNL A   1      41.506  25.915  28.434  1.00  0.00     0.049 A 
ATOM     58  H   UNL A   1      41.813  27.162  30.076  1.00  0.00     0.167 HD
ATOM     59  C   UNL A   1      42.582  30.179  33.156  1.00  0.00     0.034 A 
ATOM     60  C   UNL A   1      42.568  25.092  28.354  1.00  0.00     0.034 A 
ATOM     61  C   UNL A   1      43.644  29.218  33.285  1.00  0.00     0.049 A 
ATOM     62  C   UNL A   1      43.656  25.202  29.383  1.00  0.00     0.074 A 
ATOM     63  C   UNL A   1      44.659  29.178  34.225  1.00  0.00     0.029 A 
ATOM     64  N   UNL A   1      43.844  28.141  32.435  1.00  0.00    -0.354 N 
ATOM     65  N   UNL A   1      43.767  26.050  30.377  1.00  0.00    -0.248 NA
ATOM     66  C   UNL A   1      44.747  24.222  29.304  1.00  0.00     0.031 C 
ATOM     67  C   UNL A   1      45.498  28.103  33.914  1.00  0.00     0.029 A 
ATOM     68  C   UNL A   1      44.980  27.444  32.810  1.00  0.00     0.049 A 
ATOM     69  H   UNL A   1      43.264  27.907  31.674  1.00  0.00     0.167 HD
ATOM     70  C   UNL A   1      44.923  25.690  31.059  1.00  0.00     0.074 A 
ATOM     71  C   UNL A   1      45.463  24.531  30.377  1.00  0.00     0.031 C 
ATOM     72  C   UNL A   1      45.490  26.273  32.144  1.00  0.00     0.034 A 
BRANCH  59  73
ATOM     73  C   UNL A   1      42.582  31.378  34.071  1.00  0.00     0.023 A 
ATOM     74  C   UNL A   1      43.247  32.560  33.684  1.00  0.00     0.012 A 
ATOM     75  C   UNL A   1      41.890  31.348  35.297  1.00  0.00     0.148 A 
ATOM     76  C   UNL A   1      43.264  33.674  34.522  1.00  0.00     0.002 A 
ATOM     77  C   UNL A   1      41.867  32.479  36.103  1.00  0.00     0.091 A 
ATOM     78  F   UNL A   1      41.281  30.210  35.661  1.00  0.00    -0.205 F 
ATOM     79  C   UNL A   1      42.567  33.637  35.725  1.00  0.00     0.022 A 
BRANCH  77  80
ATOM     80  S   UNL A   1      40.925  32.560  37.630  1.00  0.00     0.127 S 
ATOM     81  O   UNL A   1      40.797  34.004  37.821  1.00  0.00    -0.237 OA
ATOM     82  O   UNL A   1      39.683  31.882  37.260  1.00  0.00    -0.237 OA
ATOM     83  O   UNL A   1      41.721  31.863  38.631  1.00  0.00    -0.744 OA
ENDBRANCH  77  80
ENDBRANCH  59  73
BRANCH  60  84
ATOM     84  C   UNL A   1      42.617  24.062  27.278  1.00  0.00     0.023 A 
ATOM     85  C   UNL A   1      43.286  24.343  26.071  1.00  0.00     0.012 A 
ATOM     86  C   UNL A   1      42.052  22.787  27.471  1.00  0.00     0.148 A 
ATOM     87  C   UNL A   1      43.370  23.379  25.065  1.00  0.00     0.002 A 
ATOM     88  C   UNL A   1      42.188  21.814  26.490  1.00  0.00     0.091 A 
ATOM     89  F   UNL A   1      41.415  22.545  28.626  1.00  0.00    -0.205 F 
ATOM     90  C   UNL A   1      42.832  22.113  25.279  1.00  0.00     0.022 A 
BRANCH  88  91
ATOM     91  S   UNL A   1      41.646  20.118  26.728  1.00  0.00     0.127 S 
ATOM     92  O   UNL A   1      41.986  19.514  25.442  1.00  0.00    -0.237 OA
ATOM     93  O   UNL A   1      42.484  19.693  27.850  1.00  0.00    -0.237 OA
ATOM     94  O   UNL A   1      40.224  20.196  27.029  1.00  0.00    -0.744 OA
ENDBRANCH  88  91
ENDBRANCH  60  84
BRANCH  72  95
ATOM     95  C   UNL A   1      46.751  25.653  32.689  1.00  0.00     0.023 A 
ATOM     96  C   UNL A   1      46.680  24.707  33.731  1.00  0.00     0.012 A 
ATOM     97  C   UNL A   1      48.003  25.958  32.117  1.00  0.00     0.148 A 
ATOM     98  C   UNL A   1      47.837  24.102  34.220  1.00  0.00     0.002 A 
ATOM     99  C   UNL A   1      49.144  25.312  32.572  1.00  0.00     0.091 A 
ATOM    100  F   UNL A   1      48.052  26.873  31.138  1.00  0.00    -0.205 F 
ATOM    101  C   UNL A   1      49.066  24.394  33.632  1.00  0.00     0.022 A 
BRANCH  99 102
ATOM    102  S   UNL A   1      50.754  25.548  31.810  1.00  0.00     0.127 S 
ATOM    103  O   UNL A   1      51.642  24.935  32.795  1.00  0.00    -0.237 OA
ATOM    104  O   UNL A   1      50.618  24.800  30.560  1.00  0.00    -0.237 OA
ATOM    105  O   UNL A   1      50.911  26.987  31.638  1.00  0.00    -0.744 OA
ENDBRANCH  99 102
ENDBRANCH  72  95
ENDBRANCH  46  47
ENDBRANCH  38  41
ENDBRANCH  36  37
ENDBRANCH  35  36
ENDBRANCH   1  35
TORSDOF 19
ENDMDL
MODEL 3
REMARK VINA RESULT:     -12.4      3.038      7.993
REMARK SMILES CC(C)[C@H](NC(=O)[C@H](Cc1ccccc1)n1c(=O)[nH]c2ccccc2c1=O)C(=O)NCCCNC(=O)c1ccc(-c2c3nc(c(-c4cccc(S(=O)(=O)[O-])c4F)c4ccc([nH]4)c(-c4cccc(S(=O)(=O)[O-])c4F)c4nc(c(-c5cccc(S(=O)(=O)[O-])c5F)c5ccc2[nH]5)C=C4)C=C3)cc1
REMARK SMILES IDX 31 1 30 2 28 3 29 4 4 6 2 7 1 8 3 9 5 10 6 11 7 13 8 14
REMARK SMILES IDX 16 15 17 16 26 17 18 18 19 19 25 20 27 21 20 22 24 24 21 25
REMARK SMILES IDX 23 26 22 27 9 28 10 29 11 30 15 31 12 32 14 33 13 34 32 35
REMARK SMILES IDX 33 36 34 37 35 38 36 40 37 41 38 42 99 43 39 44 98 45 40 46
REMARK SMILES IDX 41 47 42 48 92 49 43 50 97 51 91 52 93 53 44 54 96 55 90 56
REMARK SMILES IDX 89 57 45 59 77 60 57 61 76 62 58 63 61 64 75 65 94 66 59 67
REMARK SMILES IDX 60 68 74 70 95 71 62 72 46 73 47 74 55 75 48 76 50 77 56 78
REMARK SMILES IDX 49 79 51 80 52 81 53 82 54 83 78 84 79 85 87 86 80 87 82 88
REMARK SMILES IDX 88 89 81 90 83 91 84 92 85 93 86 94 63 95 64 96 72 97 65 98
REMARK SMILES IDX 67 99 73 100 66 101 68 102 69 103 70 104 71 105
REMARK H PARENT 30 5 5 12 19 23 34 39 93 58 61 69
REMARK Flexibility Score: inf
ROOT
ATOM      1  C   UNL A   1      31.350  30.413  26.186  1.00  0.00     0.117 C 
ENDROOT
BRANCH   1   2
ATOM      2  N   UNL A   1      32.671  29.918  25.871  1.00  0.00    -0.354 N 
ATOM      3  C   UNL A   1      33.047  28.731  25.329  1.00  0.00     0.242 C 
ATOM      4  O   UNL A   1      34.260  28.541  25.185  1.00  0.00    -0.273 OA
ATOM      5  H   UNL A   1      33.409  30.533  26.083  1.00  0.00     0.163 HD
BRANCH   3   6
ATOM      6  C   UNL A   1      32.028  27.717  24.740  1.00  0.00     0.173 C 
BRANCH   6   7
ATOM      7  C   UNL A   1      30.982  28.341  23.826  1.00  0.00     0.015 C 
ATOM      8  C   UNL A   1      31.459  28.910  22.485  1.00  0.00     0.010 C 
ATOM      9  C   UNL A   1      29.848  27.338  23.597  1.00  0.00     0.010 C 
ENDBRANCH   6   7
BRANCH   6  10
ATOM     10  N   UNL A   1      31.488  26.791  25.758  1.00  0.00    -0.342 N 
ATOM     11  C   UNL A   1      31.629  25.549  26.258  1.00  0.00     0.244 C 
ATOM     12  H   UNL A   1      30.764  27.247  26.245  1.00  0.00     0.164 HD
ATOM     13  O   UNL A   1      30.522  25.157  26.677  1.00  0.00    -0.273 OA
BRANCH  11  14
ATOM     14  C   UNL A   1      32.819  24.505  26.239  1.00  0.00     0.189 C 
BRANCH  14  15
ATOM     15  N   UNL A   1      32.744  23.011  26.024  1.00  0.00    -0.247 N 
ATOM     16  C   UNL A   1      33.032  22.119  27.039  1.00  0.00     0.329 A 
ATOM     17  C   UNL A   1      32.153  22.546  24.836  1.00  0.00     0.264 A 
ATOM     18  O   UNL A   1      33.330  22.384  28.199  1.00  0.00    -0.248 OA
ATOM     19  N   UNL A   1      32.957  20.788  26.778  1.00  0.00    -0.307 N 
ATOM     20  C   UNL A   1      32.290  21.101  24.522  1.00  0.00     0.064 A 
ATOM     21  O   UNL A   1      31.574  23.258  24.018  1.00  0.00    -0.268 OA
ATOM     22  C   UNL A   1      32.672  20.249  25.543  1.00  0.00     0.055 A 
ATOM     23  H   UNL A   1      33.115  20.165  27.524  1.00  0.00     0.171 HD
ATOM     24  C   UNL A   1      32.113  20.588  23.233  1.00  0.00     0.016 A 
ATOM     25  C   UNL A   1      32.829  18.880  25.329  1.00  0.00     0.027 A 
ATOM     26  C   UNL A   1      32.321  19.225  22.994  1.00  0.00     0.001 A 
ATOM     27  C   UNL A   1      32.665  18.370  24.044  1.00  0.00     0.002 A 
ENDBRANCH  14  15
BRANCH  14  28
ATOM     28  C   UNL A   1      34.001  25.179  25.446  1.00  0.00     0.071 C 
BRANCH  28  29
ATOM     29  C   UNL A   1      35.185  24.352  24.953  1.00  0.00    -0.045 A 
ATOM     30  C   UNL A   1      36.232  24.093  25.849  1.00  0.00     0.004 A 
ATOM     31  C   UNL A   1      35.294  23.821  23.655  1.00  0.00     0.004 A 
ATOM     32  C   UNL A   1      37.318  23.297  25.474  1.00  0.00     0.000 A 
ATOM     33  C   UNL A   1      36.366  23.009  23.286  1.00  0.00     0.000 A 
ATOM     34  C   UNL A   1      37.377  22.743  24.198  1.00  0.00     0.000 A 
ENDBRANCH  28  29
ENDBRANCH  14  28
ENDBRANCH  11  14
ENDBRANCH   6  10
ENDBRANCH   3   6
ENDBRANCH   1   2
BRANCH   1  35
ATOM     35  C   UNL A   1      31.369  31.913  26.452  1.00  0.00     0.042 C 
BRANCH  35  36
ATOM     36  C   UNL A   1      32.677  32.399  27.062  1.00  0.00     0.118 C 
BRANCH  36  37
ATOM     37  N   UNL A   1      32.580  33.766  27.555  1.00  0.00    -0.352 N 
ATOM     38  C   UNL A   1      33.260  34.378  28.578  1.00  0.00     0.251 C 
ATOM     39  H   UNL A   1      31.929  34.337  27.085  1.00  0.00     0.163 HD
ATOM     40  O   UNL A   1      32.893  35.479  28.976  1.00  0.00    -0.269 OA
BRANCH  38  41
ATOM     41  C   UNL A   1      34.420  33.707  29.199  1.00  0.00     0.039 A 
ATOM     42  C   UNL A   1      35.703  34.180  28.915  1.00  0.00     0.014 A 
ATOM     43  C   UNL A   1      34.245  32.613  30.050  1.00  0.00     0.014 A 
ATOM     44  C   UNL A   1      36.807  33.584  29.524  1.00  0.00     0.010 A 
ATOM     45  C   UNL A   1      35.337  32.083  30.727  1.00  0.00     0.010 A 
ATOM     46  C   UNL A   1      36.631  32.550  30.457  1.00  0.00    -0.014 A 
BRANCH  46  47
ATOM     47  C   UNL A   1      37.789  31.954  31.167  1.00  0.00     0.031 A 
ATOM     48  C   UNL A   1      38.578  30.839  30.534  1.00  0.00     0.074 A 
ATOM     49  C   UNL A   1      38.076  32.359  32.419  1.00  0.00     0.049 A 
ATOM     50  N   UNL A   1      39.596  30.176  31.014  1.00  0.00    -0.248 NA
ATOM     51  C   UNL A   1      38.144  30.388  29.201  1.00  0.00     0.031 C 
ATOM     52  C   UNL A   1      37.321  33.360  33.176  1.00  0.00     0.029 A 
ATOM     53  N   UNL A   1      39.059  31.957  33.288  1.00  0.00    -0.354 N 
ATOM     54  C   UNL A   1      39.895  29.203  30.069  1.00  0.00     0.074 A 
ATOM     55  C   UNL A   1      38.930  29.339  29.002  1.00  0.00     0.031 C 
ATOM     56  C   UNL A   1      37.869  33.497  34.393  1.00  0.00     0.029 A 
ATOM     57  C   UNL A   1      38.990  32.571  34.516  1.00  0.00     0.049 A 
ATOM     58  H   UNL A   1      39.749  31.294  33.053  1.00  0.00     0.167 HD
ATOM     59  C   UNL A   1      40.897  28.292  30.078  1.00  0.00     0.034 A 
ATOM     60  C   UNL A   1      39.734  32.395  35.624  1.00  0.00     0.034 A 
ATOM     61  C   UNL A   1      41.874  28.187  31.128  1.00  0.00     0.049 A 
ATOM     62  C   UNL A   1      40.878  31.422  35.589  1.00  0.00     0.074 A 
ATOM     63  C   UNL A   1      42.997  27.381  31.180  1.00  0.00     0.029 A 
ATOM     64  N   UNL A   1      41.831  28.891  32.322  1.00  0.00    -0.354 N 
ATOM     65  N   UNL A   1      41.263  30.638  34.610  1.00  0.00    -0.248 NA
ATOM     66  C   UNL A   1      41.714  31.334  36.793  1.00  0.00     0.031 C 
ATOM     67  C   UNL A   1      43.609  27.566  32.425  1.00  0.00     0.029 A 
ATOM     68  C   UNL A   1      42.894  28.521  33.129  1.00  0.00     0.049 A 
ATOM     69  H   UNL A   1      41.146  29.556  32.561  1.00  0.00     0.167 HD
ATOM     70  C   UNL A   1      42.400  29.985  35.069  1.00  0.00     0.074 A 
ATOM     71  C   UNL A   1      42.655  30.484  36.405  1.00  0.00     0.031 C 
ATOM     72  C   UNL A   1      43.157  29.048  34.444  1.00  0.00     0.034 A 
BRANCH  59  73
ATOM     73  C   UNL A   1      41.000  27.353  28.902  1.00  0.00     0.023 A 
ATOM     74  C   UNL A   1      40.140  26.238  28.813  1.00  0.00     0.012 A 
ATOM     75  C   UNL A   1      41.922  27.596  27.866  1.00  0.00     0.148 A 
ATOM     76  C   UNL A   1      40.229  25.356  27.737  1.00  0.00     0.002 A 
ATOM     77  C   UNL A   1      41.969  26.742  26.771  1.00  0.00     0.091 A 
ATOM     78  F   UNL A   1      42.747  28.648  27.977  1.00  0.00    -0.205 F 
ATOM     79  C   UNL A   1      41.135  25.613  26.712  1.00  0.00     0.022 A 
BRANCH  77  80
ATOM     80  S   UNL A   1      43.041  27.036  25.361  1.00  0.00     0.127 S 
ATOM     81  O   UNL A   1      44.285  27.439  26.015  1.00  0.00    -0.237 OA
ATOM     82  O   UNL A   1      43.085  25.718  24.729  1.00  0.00    -0.237 OA
ATOM     83  O   UNL A   1      42.387  28.068  24.567  1.00  0.00    -0.744 OA
ENDBRANCH  77  80
ENDBRANCH  59  73
BRANCH  60  84
ATOM     84  C   UNL A   1      39.437  33.200  36.842  1.00  0.00     0.023 A 
ATOM     85  C   UNL A   1      39.917  34.521  36.942  1.00  0.00     0.012 A 
ATOM     86  C   UNL A   1      38.633  32.680  37.874  1.00  0.00     0.148 A 
ATOM     87  C   UNL A   1      39.622  35.301  38.061  1.00  0.00     0.002 A 
ATOM     88  C   UNL A   1      38.296  33.480  38.958  1.00  0.00     0.091 A 
ATOM     89  F   UNL A   1      38.193  31.419  37.760  1.00  0.00    -0.205 F 
ATOM     90  C   UNL A   1      38.803  34.785  39.062  1.00  0.00     0.022 A 
BRANCH  88  91
ATOM     91  S   UNL A   1      37.142  32.951  40.228  1.00  0.00     0.127 S 
ATOM     92  O   UNL A   1      35.888  32.884  39.482  1.00  0.00    -0.237 OA
ATOM     93  O   UNL A   1      37.699  31.654  40.615  1.00  0.00    -0.237 OA
ATOM     94  O   UNL A   1      37.202  33.970  41.267  1.00  0.00    -0.744 OA
ENDBRANCH  88  91
ENDBRANCH  60  84
BRANCH  72  95
ATOM     95  C   UNL A   1      44.357  28.516  35.182  1.00  0.00     0.023 A 
ATOM     96  C   UNL A   1      45.636  29.053  34.932  1.00  0.00     0.012 A 
ATOM     97  C   UNL A   1      44.205  27.530  36.178  1.00  0.00     0.148 A 
ATOM     98  C   UNL A   1      46.749  28.592  35.634  1.00  0.00     0.002 A 
ATOM     99  C   UNL A   1      45.308  27.114  36.911  1.00  0.00     0.091 A 
ATOM    100  F   UNL A   1      42.983  27.019  36.390  1.00  0.00    -0.205 F 
ATOM    101  C   UNL A   1      46.583  27.633  36.631  1.00  0.00     0.022 A 
BRANCH  99 102
ATOM    102  S   UNL A   1      45.176  25.959  38.280  1.00  0.00     0.127 S 
ATOM    103  O   UNL A   1      46.562  25.876  38.735  1.00  0.00    -0.237 OA
ATOM    104  O   UNL A   1      44.276  26.663  39.194  1.00  0.00    -0.237 OA
ATOM    105  O   UNL A   1      44.628  24.731  37.720  1.00  0.00    -0.744 OA
ENDBRANCH  99 102
ENDBRANCH  72  95
ENDBRANCH  46  47
ENDBRANCH  38  41
ENDBRANCH  36  37
ENDBRANCH  35  36
ENDBRANCH   1  35
TORSDOF 19
ENDMDL
