MODEL 1
REMARK VINA RESULT:     -12.1      0.000      0.000
REMARK SMILES CCOc1ccc(C(=O)NC(=S)Nc2cccc(C(=O)NCCCNC(=O)c3ccc(-c4c5nc(c(-c6cccc(S(=O)(=O)[O-])c6F)c6ccc([nH]6)c(-c6cccc(S(=O)(=O)[O-])c6F)c6nc(c(-c7cccc(S(=O)(=O)[O-])c7F)c7ccc4[nH]7)C=C6)C=C5)cc3)c2C)cc1Br
REMARK SMILES IDX 19 1 20 2 21 3 18 5 14 6 15 7 91 8 16 9 92 10 17 11 13 12
REMARK SMILES IDX 11 14 12 15 10 16 8 17 9 18 7 20 4 21 5 22 94 23 6 24 93 25
REMARK SMILES IDX 95 26 3 27 2 28 1 29 22 30 23 31 24 32 25 33 26 34 27 36
REMARK SMILES IDX 28 37 29 38 90 39 30 40 89 41 31 42 32 43 33 44 83 45 34 46
REMARK SMILES IDX 88 47 82 48 84 49 35 50 87 51 81 52 80 53 36 55 68 56 48 57
REMARK SMILES IDX 67 58 49 59 52 60 66 61 85 62 50 63 51 64 65 66 86 67 53 68
REMARK SMILES IDX 37 69 38 70 46 71 39 72 41 73 47 74 40 75 42 76 43 77 44 78
REMARK SMILES IDX 45 79 69 80 70 81 78 82 71 83 73 84 79 85 72 86 74 87 75 88
REMARK SMILES IDX 76 89 77 90 54 91 55 92 63 93 56 94 58 95 64 96 57 97 59 98
REMARK SMILES IDX 60 99 61 100 62 101
REMARK H PARENT 21 4 13 13 10 19 25 35 84 54 52 65
REMARK Flexibility Score: inf
ROOT
ATOM      1  C   UNL A   1      36.422  23.300  25.639  1.00  0.00     0.251 C 
ATOM      2  O   UNL A   1      36.267  24.468  25.992  1.00  0.00    -0.269 OA
ATOM      3  N   UNL A   1      37.736  22.826  25.576  1.00  0.00    -0.352 N 
ATOM      4  H   UNL A   1      38.369  23.579  25.563  1.00  0.00     0.163 HD
ENDROOT
BRANCH   1   5
ATOM      5  C   UNL A   1      35.198  22.549  25.211  1.00  0.00     0.044 A 
ATOM      6  C   UNL A   1      33.019  21.437  23.158  1.00  0.00     0.044 A 
ATOM      7  C   UNL A   1      32.517  20.078  24.172  1.00  0.00     0.026 A 
ATOM      8  C   UNL A   1      34.415  22.543  23.590  1.00  0.00    -0.015 A 
ATOM      9  C   UNL A   1      33.261  19.950  25.754  1.00  0.00     0.003 A 
ATOM     10  C   UNL A   1      34.863  23.513  22.538  1.00  0.00     0.047 C 
ATOM     11  C   UNL A   1      34.606  21.338  26.348  1.00  0.00     0.014 A 
BRANCH   6  12
ATOM     12  N   UNL A   1      31.808  22.126  22.826  1.00  0.00    -0.332 N 
ATOM     13  H   UNL A   1      31.315  21.784  22.045  1.00  0.00     0.169 HD
BRANCH  12  14
ATOM     14  C   UNL A   1      31.246  23.216  23.472  1.00  0.00     0.177 C 
ATOM     15  S   UNL A   1      31.122  24.636  22.581  1.00  0.00    -0.040 S 
BRANCH  14  16
ATOM     16  N   UNL A   1      30.817  23.281  24.865  1.00  0.00    -0.299 N 
ATOM     17  C   UNL A   1      30.691  23.901  26.256  1.00  0.00     0.257 C 
ATOM     18  O   UNL A   1      30.053  23.297  27.116  1.00  0.00    -0.269 OA
ATOM     19  H   UNL A   1      30.323  22.435  24.970  1.00  0.00     0.172 HD
BRANCH  17  20
ATOM     20  C   UNL A   1      31.376  25.197  26.609  1.00  0.00     0.041 A 
ATOM     21  C   UNL A   1      32.665  28.417  25.121  1.00  0.00     0.133 A 
ATOM     22  C   UNL A   1      33.738  27.191  25.885  1.00  0.00     0.048 A 
ATOM     23  C   UNL A   1      30.923  28.040  25.040  1.00  0.00     0.060 A 
ATOM     24  C   UNL A   1      33.108  25.623  26.585  1.00  0.00     0.018 A 
ATOM     25  C   UNL A   1      30.295  26.361  25.974  1.00  0.00     0.033 A 
ATOM     26  Br  UNL A   1      30.350  28.933  23.146  1.00  0.00    -0.047 Br
BRANCH  21  27
ATOM     27  O   UNL A   1      33.015  29.735  24.880  1.00  0.00    -0.493 OA
BRANCH  27  28
ATOM     28  C   UNL A   1      33.082  30.611  26.060  1.00  0.00     0.226 C 
ATOM     29  C   UNL A   1      31.830  31.087  26.806  1.00  0.00     0.049 C 
ENDBRANCH  27  28
ENDBRANCH  21  27
ENDBRANCH  17  20
ENDBRANCH  14  16
ENDBRANCH  12  14
ENDBRANCH   6  12
ENDBRANCH   1   5
BRANCH   3  30
ATOM     30  C   UNL A   1      38.472  21.533  25.520  1.00  0.00     0.118 C 
BRANCH  30  31
ATOM     31  C   UNL A   1      39.752  21.419  26.352  1.00  0.00     0.042 C 
BRANCH  31  32
ATOM     32  C   UNL A   1      40.220  22.715  26.971  1.00  0.00     0.118 C 
BRANCH  32  33
ATOM     33  N   UNL A   1      41.153  23.425  26.124  1.00  0.00    -0.352 N 
ATOM     34  C   UNL A   1      41.746  24.656  26.344  1.00  0.00     0.251 C 
ATOM     35  H   UNL A   1      41.398  22.974  25.284  1.00  0.00     0.163 HD
ATOM     36  O   UNL A   1      42.146  25.283  25.368  1.00  0.00    -0.269 OA
BRANCH  34  37
ATOM     37  C   UNL A   1      42.056  25.100  27.740  1.00  0.00     0.039 A 
ATOM     38  C   UNL A   1      42.435  26.441  27.818  1.00  0.00     0.014 A 
ATOM     39  C   UNL A   1      42.596  24.200  28.647  1.00  0.00     0.014 A 
ATOM     40  C   UNL A   1      43.657  26.746  28.387  1.00  0.00     0.010 A 
ATOM     41  C   UNL A   1      43.860  24.449  29.094  1.00  0.00     0.010 A 
ATOM     42  C   UNL A   1      44.433  25.693  28.831  1.00  0.00    -0.014 A 
BRANCH  42  43
ATOM     43  C   UNL A   1      45.752  25.808  29.395  1.00  0.00     0.031 A 
ATOM     44  C   UNL A   1      46.783  25.267  28.492  1.00  0.00     0.074 A 
ATOM     45  C   UNL A   1      45.857  26.728  30.387  1.00  0.00     0.049 A 
ATOM     46  N   UNL A   1      48.016  25.136  28.789  1.00  0.00    -0.248 NA
ATOM     47  C   UNL A   1      46.484  24.775  27.134  1.00  0.00     0.031 C 
ATOM     48  C   UNL A   1      46.955  27.615  30.751  1.00  0.00     0.029 A 
ATOM     49  N   UNL A   1      44.909  26.984  31.387  1.00  0.00    -0.354 N 
ATOM     50  C   UNL A   1      48.690  24.980  27.590  1.00  0.00     0.074 A 
ATOM     51  C   UNL A   1      47.705  24.552  26.643  1.00  0.00     0.031 C 
ATOM     52  C   UNL A   1      46.773  28.059  32.012  1.00  0.00     0.029 A 
ATOM     53  C   UNL A   1      45.610  27.371  32.549  1.00  0.00     0.049 A 
ATOM     54  H   UNL A   1      43.932  26.906  31.297  1.00  0.00     0.167 HD
ATOM     55  C   UNL A   1      49.956  25.469  27.524  1.00  0.00     0.034 A 
ATOM     56  C   UNL A   1      45.630  26.527  33.630  1.00  0.00     0.034 A 
ATOM     57  C   UNL A   1      50.317  25.983  28.857  1.00  0.00     0.049 A 
ATOM     58  C   UNL A   1      46.984  25.846  33.750  1.00  0.00     0.074 A 
ATOM     59  C   UNL A   1      50.283  27.253  29.408  1.00  0.00     0.029 A 
ATOM     60  N   UNL A   1      50.325  25.092  29.926  1.00  0.00    -0.354 N 
ATOM     61  N   UNL A   1      47.851  25.788  32.774  1.00  0.00    -0.248 NA
ATOM     62  C   UNL A   1      47.510  25.273  34.987  1.00  0.00     0.031 C 
ATOM     63  C   UNL A   1      50.169  27.105  30.824  1.00  0.00     0.029 A 
ATOM     64  C   UNL A   1      50.142  25.753  31.130  1.00  0.00     0.049 A 
ATOM     65  H   UNL A   1      50.446  24.118  29.838  1.00  0.00     0.167 HD
ATOM     66  C   UNL A   1      49.006  25.199  33.196  1.00  0.00     0.074 A 
ATOM     67  C   UNL A   1      48.750  24.917  34.601  1.00  0.00     0.031 C 
ATOM     68  C   UNL A   1      50.080  24.989  32.373  1.00  0.00     0.034 A 
BRANCH  55  69
ATOM     69  C   UNL A   1      50.790  25.745  26.283  1.00  0.00     0.023 A 
ATOM     70  C   UNL A   1      52.086  25.179  26.292  1.00  0.00     0.012 A 
ATOM     71  C   UNL A   1      50.462  26.513  25.136  1.00  0.00     0.148 A 
ATOM     72  C   UNL A   1      53.009  25.373  25.261  1.00  0.00     0.002 A 
ATOM     73  C   UNL A   1      51.381  26.694  24.092  1.00  0.00     0.091 A 
ATOM     74  F   UNL A   1      49.265  27.092  25.031  1.00  0.00    -0.205 F 
ATOM     75  C   UNL A   1      52.657  26.130  24.159  1.00  0.00     0.022 A 
BRANCH  73  76
ATOM     76  S   UNL A   1      51.018  27.641  22.596  1.00  0.00     0.127 S 
ATOM     77  O   UNL A   1      50.909  29.005  23.116  1.00  0.00    -0.237 OA
ATOM     78  O   UNL A   1      52.208  27.399  21.780  1.00  0.00    -0.237 OA
ATOM     79  O   UNL A   1      49.780  27.100  22.051  1.00  0.00    -0.744 OA
ENDBRANCH  73  76
ENDBRANCH  55  69
BRANCH  56  80
ATOM     80  C   UNL A   1      44.280  25.891  33.823  1.00  0.00     0.023 A 
ATOM     81  C   UNL A   1      44.196  24.523  33.446  1.00  0.00     0.012 A 
ATOM     82  C   UNL A   1      43.421  26.366  34.824  1.00  0.00     0.148 A 
ATOM     83  C   UNL A   1      43.530  23.608  34.265  1.00  0.00     0.002 A 
ATOM     84  C   UNL A   1      42.720  25.451  35.607  1.00  0.00     0.091 A 
ATOM     85  F   UNL A   1      43.367  27.685  35.053  1.00  0.00    -0.205 F 
ATOM     86  C   UNL A   1      42.846  24.069  35.386  1.00  0.00     0.022 A 
BRANCH  84  87
ATOM     87  S   UNL A   1      41.715  26.023  36.979  1.00  0.00     0.127 S 
ATOM     88  O   UNL A   1      41.027  27.166  36.388  1.00  0.00    -0.237 OA
ATOM     89  O   UNL A   1      40.848  24.880  37.255  1.00  0.00    -0.237 OA
ATOM     90  O   UNL A   1      42.667  26.330  38.037  1.00  0.00    -0.744 OA
ENDBRANCH  84  87
ENDBRANCH  56  80
BRANCH  68  91
ATOM     91  C   UNL A   1      51.220  24.045  32.697  1.00  0.00     0.023 A 
ATOM     92  C   UNL A   1      52.563  24.448  32.594  1.00  0.00     0.012 A 
ATOM     93  C   UNL A   1      50.980  22.764  33.261  1.00  0.00     0.148 A 
ATOM     94  C   UNL A   1      53.616  23.584  32.898  1.00  0.00     0.002 A 
ATOM     95  C   UNL A   1      52.026  21.973  33.709  1.00  0.00     0.091 A 
ATOM     96  F   UNL A   1      49.732  22.285  33.347  1.00  0.00    -0.205 F 
ATOM     97  C   UNL A   1      53.348  22.352  33.474  1.00  0.00     0.022 A 
BRANCH  95  98
ATOM     98  S   UNL A   1      51.746  20.513  34.716  1.00  0.00     0.127 S 
ATOM     99  O   UNL A   1      50.909  19.703  33.833  1.00  0.00    -0.237 OA
ATOM    100  O   UNL A   1      53.107  20.008  34.901  1.00  0.00    -0.237 OA
ATOM    101  O   UNL A   1      51.109  20.983  35.937  1.00  0.00    -0.744 OA
ENDBRANCH  95  98
ENDBRANCH  68  91
ENDBRANCH  42  43
ENDBRANCH  34  37
ENDBRANCH  32  33
ENDBRANCH  31  32
ENDBRANCH  30  31
ENDBRANCH   3  30
TORSDOF 19
ENDMDL
MODEL 2
REMARK VINA RESULT:     -11.0      8.649     14.779
REMARK SMILES CCOc1ccc(C(=O)NC(=S)Nc2cccc(C(=O)NCCCNC(=O)c3ccc(-c4c5nc(c(-c6cccc(S(=O)(=O)[O-])c6F)c6ccc([nH]6)c(-c6cccc(S(=O)(=O)[O-])c6F)c6nc(c(-c7cccc(S(=O)(=O)[O-])c7F)c7ccc4[nH]7)C=C6)C=C5)cc3)c2C)cc1Br
REMARK SMILES IDX 19 1 20 2 21 3 18 5 14 6 15 7 91 8 16 9 92 10 17 11 13 12
REMARK SMILES IDX 11 14 12 15 10 16 8 17 9 18 7 20 4 21 5 22 94 23 6 24 93 25
REMARK SMILES IDX 95 26 3 27 2 28 1 29 22 30 23 31 24 32 25 33 26 34 27 36
REMARK SMILES IDX 28 37 29 38 90 39 30 40 89 41 31 42 32 43 33 44 83 45 34 46
REMARK SMILES IDX 88 47 82 48 84 49 35 50 87 51 81 52 80 53 36 55 68 56 48 57
REMARK SMILES IDX 67 58 49 59 52 60 66 61 85 62 50 63 51 64 65 66 86 67 53 68
REMARK SMILES IDX 37 69 38 70 46 71 39 72 41 73 47 74 40 75 42 76 43 77 44 78
REMARK SMILES IDX 45 79 69 80 70 81 78 82 71 83 73 84 79 85 72 86 74 87 75 88
REMARK SMILES IDX 76 89 77 90 54 91 55 92 63 93 56 94 58 95 64 96 57 97 59 98
REMARK SMILES IDX 60 99 61 100 62 101
REMARK H PARENT 21 4 13 13 10 19 25 35 84 54 52 65
REMARK Flexibility Score: inf
ROOT
ATOM      1  C   UNL A   1      38.905  28.038  29.109  1.00  0.00     0.251 C 
ATOM      2  O   UNL A   1      39.130  27.683  30.265  1.00  0.00    -0.269 OA
ATOM      3  N   UNL A   1      37.638  28.567  28.844  1.00  0.00    -0.352 N 
ATOM      4  H   UNL A   1      37.012  28.330  29.565  1.00  0.00     0.163 HD
ENDROOT
BRANCH   1   5
ATOM      5  C   UNL A   1      39.970  27.763  28.092  1.00  0.00     0.044 A 
ATOM      6  C   UNL A   1      41.453  26.136  25.778  1.00  0.00     0.044 A 
ATOM      7  C   UNL A   1      42.312  27.534  25.120  1.00  0.00     0.026 A 
ATOM      8  C   UNL A   1      40.208  26.269  27.117  1.00  0.00    -0.015 A 
ATOM      9  C   UNL A   1      42.105  29.060  25.957  1.00  0.00     0.003 A 
ATOM     10  C   UNL A   1      39.408  25.038  27.423  1.00  0.00     0.047 C 
ATOM     11  C   UNL A   1      40.945  29.151  27.611  1.00  0.00     0.014 A 
BRANCH   6  12
ATOM     12  N   UNL A   1      42.465  25.151  26.016  1.00  0.00    -0.332 N 
ATOM     13  H   UNL A   1      42.409  24.331  25.473  1.00  0.00     0.169 HD
BRANCH  12  14
ATOM     14  C   UNL A   1      43.517  25.213  26.918  1.00  0.00     0.177 C 
ATOM     15  S   UNL A   1      43.220  24.614  28.460  1.00  0.00    -0.040 S 
BRANCH  14  16
ATOM     16  N   UNL A   1      44.829  25.807  26.691  1.00  0.00    -0.299 N 
ATOM     17  C   UNL A   1      46.015  26.722  26.995  1.00  0.00     0.257 C 
ATOM     18  O   UNL A   1      46.986  26.700  26.240  1.00  0.00    -0.269 OA
ATOM     19  H   UNL A   1      45.119  25.361  25.862  1.00  0.00     0.172 HD
BRANCH  17  20
ATOM     20  C   UNL A   1      45.995  27.684  28.156  1.00  0.00     0.041 A 
ATOM     21  C   UNL A   1      44.424  28.282  31.534  1.00  0.00     0.133 A 
ATOM     22  C   UNL A   1      44.164  29.370  30.125  1.00  0.00     0.048 A 
ATOM     23  C   UNL A   1      45.440  26.839  31.275  1.00  0.00     0.060 A 
ATOM     24  C   UNL A   1      44.911  29.062  28.485  1.00  0.00     0.018 A 
ATOM     25  C   UNL A   1      46.350  26.659  29.479  1.00  0.00     0.033 A 
ATOM     26  Br  UNL A   1      44.484  25.371  32.558  1.00  0.00    -0.047 Br
BRANCH  21  27
ATOM     27  O   UNL A   1      44.173  28.622  32.853  1.00  0.00    -0.493 OA
BRANCH  27  28
ATOM     28  C   UNL A   1      43.097  29.601  33.074  1.00  0.00     0.226 C 
ATOM     29  C   UNL A   1      41.630  29.304  32.742  1.00  0.00     0.049 C 
ENDBRANCH  27  28
ENDBRANCH  21  27
ENDBRANCH  17  20
ENDBRANCH  14  16
ENDBRANCH  12  14
ENDBRANCH   6  12
ENDBRANCH   1   5
BRANCH   3  30
ATOM     30  C   UNL A   1      36.944  29.378  27.806  1.00  0.00     0.118 C 
BRANCH  30  31
ATOM     31  C   UNL A   1      35.502  29.803  28.096  1.00  0.00     0.042 C 
BRANCH  31  32
ATOM     32  C   UNL A   1      35.252  31.290  28.005  1.00  0.00     0.118 C 
BRANCH  32  33
ATOM     33  N   UNL A   1      35.049  31.895  29.303  1.00  0.00    -0.352 N 
ATOM     34  C   UNL A   1      35.901  31.895  30.393  1.00  0.00     0.251 C 
ATOM     35  H   UNL A   1      34.194  32.368  29.426  1.00  0.00     0.163 HD
ATOM     36  O   UNL A   1      35.411  32.063  31.505  1.00  0.00    -0.269 OA
BRANCH  34  37
ATOM     37  C   UNL A   1      37.384  31.885  30.184  1.00  0.00     0.039 A 
ATOM     38  C   UNL A   1      38.058  31.046  31.074  1.00  0.00     0.014 A 
ATOM     39  C   UNL A   1      38.025  33.028  29.729  1.00  0.00     0.014 A 
ATOM     40  C   UNL A   1      39.054  31.589  31.862  1.00  0.00     0.010 A 
ATOM     41  C   UNL A   1      38.908  33.627  30.578  1.00  0.00     0.010 A 
ATOM     42  C   UNL A   1      39.309  32.941  31.724  1.00  0.00    -0.014 A 
BRANCH  42  43
ATOM     43  C   UNL A   1      40.264  33.692  32.495  1.00  0.00     0.031 A 
ATOM     44  C   UNL A   1      39.626  34.394  33.623  1.00  0.00     0.074 A 
ATOM     45  C   UNL A   1      41.551  33.297  32.329  1.00  0.00     0.049 A 
ATOM     46  N   UNL A   1      40.215  35.221  34.394  1.00  0.00    -0.248 NA
ATOM     47  C   UNL A   1      38.199  34.237  33.964  1.00  0.00     0.031 C 
ATOM     48  C   UNL A   1      42.663  33.255  33.271  1.00  0.00     0.029 A 
ATOM     49  N   UNL A   1      42.150  32.898  31.127  1.00  0.00    -0.354 N 
ATOM     50  C   UNL A   1      39.417  35.341  35.518  1.00  0.00     0.074 A 
ATOM     51  C   UNL A   1      38.114  34.901  35.119  1.00  0.00     0.031 C 
ATOM     52  C   UNL A   1      43.825  33.175  32.588  1.00  0.00     0.029 A 
ATOM     53  C   UNL A   1      43.505  33.288  31.175  1.00  0.00     0.049 A 
ATOM     54  H   UNL A   1      41.706  32.431  30.382  1.00  0.00     0.167 HD
ATOM     55  C   UNL A   1      40.043  35.579  36.700  1.00  0.00     0.034 A 
ATOM     56  C   UNL A   1      43.940  34.296  30.352  1.00  0.00     0.034 A 
ATOM     57  C   UNL A   1      41.483  35.743  36.428  1.00  0.00     0.049 A 
ATOM     58  C   UNL A   1      44.151  35.577  31.144  1.00  0.00     0.074 A 
ATOM     59  C   UNL A   1      42.551  34.864  36.497  1.00  0.00     0.029 A 
ATOM     60  N   UNL A   1      41.880  36.779  35.588  1.00  0.00    -0.354 N 
ATOM     61  N   UNL A   1      43.645  35.782  32.331  1.00  0.00    -0.248 NA
ATOM     62  C   UNL A   1      45.019  36.672  30.720  1.00  0.00     0.031 C 
ATOM     63  C   UNL A   1      43.558  35.341  35.604  1.00  0.00     0.029 A 
ATOM     64  C   UNL A   1      43.106  36.506  35.003  1.00  0.00     0.049 A 
ATOM     65  H   UNL A   1      41.359  37.600  35.431  1.00  0.00     0.167 HD
ATOM     66  C   UNL A   1      44.074  36.975  32.833  1.00  0.00     0.074 A 
ATOM     67  C   UNL A   1      44.956  37.484  31.792  1.00  0.00     0.031 C 
ATOM     68  C   UNL A   1      43.683  37.455  34.054  1.00  0.00     0.034 A 
BRANCH  55  69
ATOM     69  C   UNL A   1      39.486  35.421  38.105  1.00  0.00     0.023 A 
ATOM     70  C   UNL A   1      39.467  36.604  38.881  1.00  0.00     0.012 A 
ATOM     71  C   UNL A   1      39.011  34.252  38.754  1.00  0.00     0.148 A 
ATOM     72  C   UNL A   1      39.040  36.636  40.211  1.00  0.00     0.002 A 
ATOM     73  C   UNL A   1      38.564  34.286  40.083  1.00  0.00     0.091 A 
ATOM     74  F   UNL A   1      38.989  33.085  38.111  1.00  0.00    -0.205 F 
ATOM     75  C   UNL A   1      38.585  35.477  40.813  1.00  0.00     0.022 A 
BRANCH  73  76
ATOM     76  S   UNL A   1      37.927  32.840  40.960  1.00  0.00     0.127 S 
ATOM     77  O   UNL A   1      37.989  33.276  42.356  1.00  0.00    -0.237 OA
ATOM     78  O   UNL A   1      36.572  32.722  40.423  1.00  0.00    -0.237 OA
ATOM     79  O   UNL A   1      38.814  31.731  40.632  1.00  0.00    -0.744 OA
ENDBRANCH  73  76
ENDBRANCH  55  69
BRANCH  56  80
ATOM     80  C   UNL A   1      43.309  34.170  28.992  1.00  0.00     0.023 A 
ATOM     81  C   UNL A   1      42.322  35.146  28.689  1.00  0.00     0.012 A 
ATOM     82  C   UNL A   1      44.036  33.599  27.937  1.00  0.00     0.148 A 
ATOM     83  C   UNL A   1      42.304  35.763  27.436  1.00  0.00     0.002 A 
ATOM     84  C   UNL A   1      43.976  34.188  26.676  1.00  0.00     0.091 A 
ATOM     85  F   UNL A   1      44.833  32.553  28.195  1.00  0.00    -0.205 F 
ATOM     86  C   UNL A   1      43.182  35.325  26.448  1.00  0.00     0.022 A 
BRANCH  84  87
ATOM     87  S   UNL A   1      44.995  33.560  25.338  1.00  0.00     0.127 S 
ATOM     88  O   UNL A   1      46.333  33.941  25.780  1.00  0.00    -0.237 OA
ATOM     89  O   UNL A   1      44.740  32.122  25.374  1.00  0.00    -0.237 OA
ATOM     90  O   UNL A   1      44.503  34.233  24.145  1.00  0.00    -0.744 OA
ENDBRANCH  84  87
ENDBRANCH  56  80
BRANCH  68  91
ATOM     91  C   UNL A   1      43.849  38.898  34.487  1.00  0.00     0.023 A 
ATOM     92  C   UNL A   1      44.500  39.237  35.686  1.00  0.00     0.012 A 
ATOM     93  C   UNL A   1      43.489  39.972  33.631  1.00  0.00     0.148 A 
ATOM     94  C   UNL A   1      44.661  40.564  36.086  1.00  0.00     0.002 A 
ATOM     95  C   UNL A   1      43.795  41.283  33.961  1.00  0.00     0.091 A 
ATOM     96  F   UNL A   1      42.821  39.737  32.494  1.00  0.00    -0.205 F 
ATOM     97  C   UNL A   1      44.326  41.589  35.214  1.00  0.00     0.022 A 
BRANCH  95  98
ATOM     98  S   UNL A   1      43.656  42.617  32.768  1.00  0.00     0.127 S 
ATOM     99  O   UNL A   1      42.209  42.700  32.587  1.00  0.00    -0.237 OA
ATOM    100  O   UNL A   1      44.246  43.738  33.500  1.00  0.00    -0.237 OA
ATOM    101  O   UNL A   1      44.418  42.194  31.601  1.00  0.00    -0.744 OA
ENDBRANCH  95  98
ENDBRANCH  68  91
ENDBRANCH  42  43
ENDBRANCH  34  37
ENDBRANCH  32  33
ENDBRANCH  31  32
ENDBRANCH  30  31
ENDBRANCH   3  30
TORSDOF 19
ENDMDL
MODEL 3
REMARK VINA RESULT:     -10.9      3.391      6.531
REMARK SMILES CCOc1ccc(C(=O)NC(=S)Nc2cccc(C(=O)NCCCNC(=O)c3ccc(-c4c5nc(c(-c6cccc(S(=O)(=O)[O-])c6F)c6ccc([nH]6)c(-c6cccc(S(=O)(=O)[O-])c6F)c6nc(c(-c7cccc(S(=O)(=O)[O-])c7F)c7ccc4[nH]7)C=C6)C=C5)cc3)c2C)cc1Br
REMARK SMILES IDX 19 1 20 2 21 3 18 5 14 6 15 7 91 8 16 9 92 10 17 11 13 12
REMARK SMILES IDX 11 14 12 15 10 16 8 17 9 18 7 20 4 21 5 22 94 23 6 24 93 25
REMARK SMILES IDX 95 26 3 27 2 28 1 29 22 30 23 31 24 32 25 33 26 34 27 36
REMARK SMILES IDX 28 37 29 38 90 39 30 40 89 41 31 42 32 43 33 44 83 45 34 46
REMARK SMILES IDX 88 47 82 48 84 49 35 50 87 51 81 52 80 53 36 55 68 56 48 57
REMARK SMILES IDX 67 58 49 59 52 60 66 61 85 62 50 63 51 64 65 66 86 67 53 68
REMARK SMILES IDX 37 69 38 70 46 71 39 72 41 73 47 74 40 75 42 76 43 77 44 78
REMARK SMILES IDX 45 79 69 80 70 81 78 82 71 83 73 84 79 85 72 86 74 87 75 88
REMARK SMILES IDX 76 89 77 90 54 91 55 92 63 93 56 94 58 95 64 96 57 97 59 98
REMARK SMILES IDX 60 99 61 100 62 101
REMARK H PARENT 21 4 13 13 10 19 25 35 84 54 52 65
REMARK Flexibility Score: inf
ROOT
ATOM      1  C   UNL A   1      43.949  21.799  25.599  1.00  0.00     0.251 C 
ATOM      2  O   UNL A   1      43.914  20.677  25.095  1.00  0.00    -0.269 OA
ATOM      3  N   UNL A   1      45.171  22.214  26.137  1.00  0.00    -0.352 N 
ATOM      4  H   UNL A   1      45.763  21.440  26.276  1.00  0.00     0.163 HD
ENDROOT
BRANCH   1   5
ATOM      5  C   UNL A   1      42.655  22.550  25.681  1.00  0.00     0.044 A 
ATOM      6  C   UNL A   1      39.570  22.992  26.378  1.00  0.00     0.044 A 
ATOM      7  C   UNL A   1      39.671  24.755  26.458  1.00  0.00     0.026 A 
ATOM      8  C   UNL A   1      41.037  21.917  26.151  1.00  0.00    -0.015 A 
ATOM      9  C   UNL A   1      41.221  25.480  26.077  1.00  0.00     0.003 A 
ATOM     10  C   UNL A   1      40.829  20.442  26.318  1.00  0.00     0.047 C 
ATOM     11  C   UNL A   1      42.779  24.304  25.550  1.00  0.00     0.014 A 
BRANCH   6  12
ATOM     12  N   UNL A   1      38.497  22.718  25.469  1.00  0.00    -0.332 N 
ATOM     13  H   UNL A   1      38.568  23.130  24.577  1.00  0.00     0.169 HD
BRANCH  12  14
ATOM     14  C   UNL A   1      37.371  21.940  25.693  1.00  0.00     0.177 C 
ATOM     15  S   UNL A   1      37.355  20.418  24.981  1.00  0.00    -0.040 S 
BRANCH  14  16
ATOM     16  N   UNL A   1      36.170  22.332  26.422  1.00  0.00    -0.299 N 
ATOM     17  C   UNL A   1      34.713  22.768  26.572  1.00  0.00     0.257 C 
ATOM     18  O   UNL A   1      34.262  22.941  27.703  1.00  0.00    -0.269 OA
ATOM     19  H   UNL A   1      36.473  22.294  27.358  1.00  0.00     0.172 HD
BRANCH  17  20
ATOM     20  C   UNL A   1      33.842  23.044  25.373  1.00  0.00     0.041 A 
ATOM     21  C   UNL A   1      31.592  25.654  23.833  1.00  0.00     0.133 A 
ATOM     22  C   UNL A   1      30.997  24.047  24.381  1.00  0.00     0.048 A 
ATOM     23  C   UNL A   1      33.321  26.014  24.085  1.00  0.00     0.060 A 
ATOM     24  C   UNL A   1      32.090  22.796  25.147  1.00  0.00     0.018 A 
ATOM     25  C   UNL A   1      34.484  24.520  24.793  1.00  0.00     0.033 A 
ATOM     26  Br  UNL A   1      33.286  28.141  24.521  1.00  0.00    -0.047 Br
BRANCH  21  27
ATOM     27  O   UNL A   1      30.915  26.494  22.965  1.00  0.00    -0.493 OA
BRANCH  27  28
ATOM     28  C   UNL A   1      29.805  27.265  23.548  1.00  0.00     0.226 C 
ATOM     29  C   UNL A   1      28.450  26.632  23.887  1.00  0.00     0.049 C 
ENDBRANCH  27  28
ENDBRANCH  21  27
ENDBRANCH  17  20
ENDBRANCH  14  16
ENDBRANCH  12  14
ENDBRANCH   6  12
ENDBRANCH   1   5
BRANCH   3  30
ATOM     30  C   UNL A   1      45.853  23.467  26.564  1.00  0.00     0.118 C 
BRANCH  30  31
ATOM     31  C   UNL A   1      46.185  24.490  25.474  1.00  0.00     0.042 C 
BRANCH  31  32
ATOM     32  C   UNL A   1      47.318  25.429  25.814  1.00  0.00     0.118 C 
BRANCH  32  33
ATOM     33  N   UNL A   1      47.536  26.425  24.788  1.00  0.00    -0.352 N 
ATOM     34  C   UNL A   1      46.821  27.586  24.553  1.00  0.00     0.251 C 
ATOM     35  H   UNL A   1      48.291  26.255  24.179  1.00  0.00     0.163 HD
ATOM     36  O   UNL A   1      46.861  28.066  23.424  1.00  0.00    -0.269 OA
BRANCH  34  37
ATOM     37  C   UNL A   1      46.188  28.320  25.695  1.00  0.00     0.039 A 
ATOM     38  C   UNL A   1      47.076  29.164  26.364  1.00  0.00     0.014 A 
ATOM     39  C   UNL A   1      45.163  27.725  26.415  1.00  0.00     0.014 A 
ATOM     40  C   UNL A   1      47.255  28.986  27.722  1.00  0.00     0.010 A 
ATOM     41  C   UNL A   1      45.409  27.434  27.724  1.00  0.00     0.010 A 
ATOM     42  C   UNL A   1      46.546  27.967  28.329  1.00  0.00    -0.014 A 
BRANCH  42  43
ATOM     43  C   UNL A   1      46.644  27.594  29.715  1.00  0.00     0.031 A 
ATOM     44  C   UNL A   1      47.709  26.600  29.942  1.00  0.00     0.074 A 
ATOM     45  C   UNL A   1      46.084  28.482  30.574  1.00  0.00     0.049 A 
ATOM     46  N   UNL A   1      47.934  26.012  31.050  1.00  0.00    -0.248 NA
ATOM     47  C   UNL A   1      48.623  26.145  28.877  1.00  0.00     0.031 C 
ATOM     48  C   UNL A   1      46.474  28.880  31.921  1.00  0.00     0.029 A 
ATOM     49  N   UNL A   1      44.891  29.190  30.376  1.00  0.00    -0.354 N 
ATOM     50  C   UNL A   1      49.210  25.486  30.959  1.00  0.00     0.074 A 
ATOM     51  C   UNL A   1      49.498  25.404  29.559  1.00  0.00     0.031 C 
ATOM     52  C   UNL A   1      45.428  29.477  32.532  1.00  0.00     0.029 A 
ATOM     53  C   UNL A   1      44.287  29.370  31.639  1.00  0.00     0.049 A 
ATOM     54  H   UNL A   1      44.537  29.505  29.512  1.00  0.00     0.167 HD
ATOM     55  C   UNL A   1      49.934  25.414  32.106  1.00  0.00     0.034 A 
ATOM     56  C   UNL A   1      43.127  28.695  31.927  1.00  0.00     0.034 A 
ATOM     57  C   UNL A   1      49.074  25.862  33.217  1.00  0.00     0.049 A 
ATOM     58  C   UNL A   1      43.405  27.540  32.877  1.00  0.00     0.074 A 
ATOM     59  C   UNL A   1      48.933  27.084  33.853  1.00  0.00     0.029 A 
ATOM     60  N   UNL A   1      47.908  25.148  33.475  1.00  0.00    -0.354 N 
ATOM     61  N   UNL A   1      44.598  27.047  33.083  1.00  0.00    -0.248 NA
ATOM     62  C   UNL A   1      42.399  26.923  33.737  1.00  0.00     0.031 C 
ATOM     63  C   UNL A   1      47.620  27.128  34.413  1.00  0.00     0.029 A 
ATOM     64  C   UNL A   1      46.972  25.937  34.124  1.00  0.00     0.049 A 
ATOM     65  H   UNL A   1      47.766  24.205  33.229  1.00  0.00     0.167 HD
ATOM     66  C   UNL A   1      44.556  26.085  34.048  1.00  0.00     0.074 A 
ATOM     67  C   UNL A   1      43.155  26.063  34.445  1.00  0.00     0.031 C 
ATOM     68  C   UNL A   1      45.660  25.384  34.451  1.00  0.00     0.034 A 
BRANCH  55  69
ATOM     69  C   UNL A   1      51.433  25.213  32.259  1.00  0.00     0.023 A 
ATOM     70  C   UNL A   1      52.227  26.339  31.940  1.00  0.00     0.012 A 
ATOM     71  C   UNL A   1      52.145  24.048  32.645  1.00  0.00     0.148 A 
ATOM     72  C   UNL A   1      53.623  26.320  31.971  1.00  0.00     0.002 A 
ATOM     73  C   UNL A   1      53.547  24.033  32.695  1.00  0.00     0.091 A 
ATOM     74  F   UNL A   1      51.490  22.931  32.964  1.00  0.00    -0.205 F 
ATOM     75  C   UNL A   1      54.286  25.167  32.350  1.00  0.00     0.022 A 
BRANCH  73  76
ATOM     76  S   UNL A   1      54.512  22.591  33.200  1.00  0.00     0.127 S 
ATOM     77  O   UNL A   1      54.053  21.569  32.257  1.00  0.00    -0.237 OA
ATOM     78  O   UNL A   1      55.885  23.043  32.980  1.00  0.00    -0.237 OA
ATOM     79  O   UNL A   1      54.169  22.327  34.591  1.00  0.00    -0.744 OA
ENDBRANCH  73  76
ENDBRANCH  55  69
BRANCH  56  80
ATOM     80  C   UNL A   1      42.219  28.678  30.727  1.00  0.00     0.023 A 
ATOM     81  C   UNL A   1      42.352  27.542  29.883  1.00  0.00     0.012 A 
ATOM     82  C   UNL A   1      40.982  29.336  30.780  1.00  0.00     0.148 A 
ATOM     83  C   UNL A   1      41.216  26.899  29.387  1.00  0.00     0.002 A 
ATOM     84  C   UNL A   1      39.860  28.713  30.238  1.00  0.00     0.091 A 
ATOM     85  F   UNL A   1      40.902  30.507  31.425  1.00  0.00    -0.205 F 
ATOM     86  C   UNL A   1      39.961  27.452  29.624  1.00  0.00     0.022 A 
BRANCH  84  87
ATOM     87  S   UNL A   1      38.241  29.469  30.406  1.00  0.00     0.127 S 
ATOM     88  O   UNL A   1      38.588  30.866  30.645  1.00  0.00    -0.237 OA
ATOM     89  O   UNL A   1      37.622  29.220  29.106  1.00  0.00    -0.237 OA
ATOM     90  O   UNL A   1      37.614  28.770  31.518  1.00  0.00    -0.744 OA
ENDBRANCH  84  87
ENDBRANCH  56  80
BRANCH  68  91
ATOM     91  C   UNL A   1      45.599  24.095  35.246  1.00  0.00     0.023 A 
ATOM     92  C   UNL A   1      45.617  22.839  34.616  1.00  0.00     0.012 A 
ATOM     93  C   UNL A   1      45.672  24.098  36.664  1.00  0.00     0.148 A 
ATOM     94  C   UNL A   1      45.567  21.650  35.344  1.00  0.00     0.002 A 
ATOM     95  C   UNL A   1      45.784  22.915  37.377  1.00  0.00     0.091 A 
ATOM     96  F   UNL A   1      45.611  25.251  37.343  1.00  0.00    -0.205 F 
ATOM     97  C   UNL A   1      45.671  21.686  36.726  1.00  0.00     0.022 A 
BRANCH  95  98
ATOM     98  S   UNL A   1      46.209  22.896  39.122  1.00  0.00     0.127 S 
ATOM     99  O   UNL A   1      46.392  21.467  39.364  1.00  0.00    -0.237 OA
ATOM    100  O   UNL A   1      47.442  23.683  39.140  1.00  0.00    -0.237 OA
ATOM    101  O   UNL A   1      45.089  23.518  39.814  1.00  0.00    -0.744 OA
ENDBRANCH  95  98
ENDBRANCH  68  91
ENDBRANCH  42  43
ENDBRANCH  34  37
ENDBRANCH  32  33
ENDBRANCH  31  32
ENDBRANCH  30  31
ENDBRANCH   3  30
TORSDOF 19
ENDMDL
