MODEL 1
REMARK VINA RESULT:     -11.7      0.000      0.000
REMARK SMILES CCOc1ccccc1[C@@H](C(=O)NCCCNC(=O)c1ccc(-c2c3nc(c(-c4cccc(S(=O)(=O)[O-])c4F)c4ccc([nH]4)c(-c4cccc(S(=O)(=O)[O-])c4F)c4nc(c(-c5cccc(S(=O)(=O)[O-])c5F)c5ccc2[nH]5)C=C4)C=C3)cc1)[NH+]1CCC(C(=O)N2CCCC2)CC1
REMARK SMILES IDX 15 1 14 2 13 3 11 4 12 5 10 7 9 8 4 9 5 10 6 11 8 12 7 13
REMARK SMILES IDX 3 14 2 15 1 16 83 17 84 18 95 19 85 21 94 22 86 23 87 24
REMARK SMILES IDX 88 25 89 26 90 27 93 28 91 29 92 30 16 31 17 32 18 33 19 35
REMARK SMILES IDX 20 36 21 37 82 38 22 39 81 40 23 41 24 42 25 43 75 44 26 45
REMARK SMILES IDX 80 46 74 47 76 48 27 49 79 50 73 51 72 52 28 54 60 55 40 56
REMARK SMILES IDX 59 57 41 58 44 59 58 60 77 61 42 62 43 63 57 65 78 66 45 67
REMARK SMILES IDX 29 68 30 69 38 70 31 71 33 72 39 73 32 74 34 75 35 76 36 77
REMARK SMILES IDX 37 78 61 79 62 80 70 81 63 82 65 83 71 84 64 85 66 86 67 87
REMARK SMILES IDX 68 88 69 89 46 90 47 91 55 92 48 93 50 94 56 95 49 96 51 97
REMARK SMILES IDX 52 98 53 99 54 100
REMARK H PARENT 13 6 83 20 17 34 76 53 44 64
REMARK Flexibility Score: inf
ROOT
ATOM      1  C   UNL A   1      32.476  28.774  26.681  1.00  0.00     0.042 C 
ENDROOT
BRANCH   1   2
ATOM      2  C   UNL A   1      32.038  29.305  25.321  1.00  0.00     0.118 C 
BRANCH   2   3
ATOM      3  N   UNL A   1      33.155  29.472  24.415  1.00  0.00    -0.351 N 
ATOM      4  C   UNL A   1      33.444  28.810  23.250  1.00  0.00     0.283 C 
ATOM      5  O   UNL A   1      34.477  29.176  22.682  1.00  0.00    -0.268 OA
ATOM      6  H   UNL A   1      33.804  30.164  24.674  1.00  0.00     0.163 HD
BRANCH   4   7
ATOM      7  C   UNL A   1      32.445  27.754  22.671  1.00  0.00     0.309 C 
BRANCH   7   8
ATOM      8  C   UNL A   1      30.982  28.178  22.664  1.00  0.00     0.061 A 
ATOM      9  C   UNL A   1      29.990  27.433  23.339  1.00  0.00     0.128 A 
ATOM     10  C   UNL A   1      28.676  27.898  23.416  1.00  0.00     0.047 A 
ATOM     11  C   UNL A   1      28.326  29.106  22.812  1.00  0.00     0.004 A 
ATOM     12  C   UNL A   1      30.589  29.360  22.011  1.00  0.00     0.014 A 
ATOM     13  C   UNL A   1      29.277  29.824  22.091  1.00  0.00     0.001 A 
BRANCH   9  14
ATOM     14  O   UNL A   1      30.205  26.117  23.653  1.00  0.00    -0.493 OA
BRANCH  14  15
ATOM     15  C   UNL A   1      29.544  25.607  24.807  1.00  0.00     0.226 C 
ATOM     16  C   UNL A   1      30.425  25.910  26.018  1.00  0.00     0.049 C 
ENDBRANCH  14  15
ENDBRANCH   9  14
ENDBRANCH   7   8
BRANCH   7  17
ATOM     17  N   UNL A   1      32.682  26.374  23.224  1.00  0.00    -0.321 N 
ATOM     18  C   UNL A   1      32.925  25.318  22.231  1.00  0.00     0.263 C 
ATOM     19  C   UNL A   1      33.746  26.354  24.236  1.00  0.00     0.263 C 
ATOM     20  H   UNL A   1      31.786  26.150  23.657  1.00  0.00     0.349 HD
ATOM     21  C   UNL A   1      32.797  23.964  22.934  1.00  0.00     0.075 C 
ATOM     22  C   UNL A   1      33.793  25.021  24.973  1.00  0.00     0.075 C 
ATOM     23  C   UNL A   1      33.864  23.828  24.011  1.00  0.00     0.090 C 
BRANCH  23  24
ATOM     24  C   UNL A   1      33.938  22.561  24.863  1.00  0.00     0.226 C 
ATOM     25  O   UNL A   1      32.904  21.898  25.022  1.00  0.00    -0.275 OA
ATOM     26  N   UNL A   1      35.156  22.006  25.162  1.00  0.00    -0.342 N 
ATOM     27  C   UNL A   1      36.374  22.604  25.664  1.00  0.00     0.119 C 
ATOM     28  C   UNL A   1      35.366  20.589  24.928  1.00  0.00     0.119 C 
ATOM     29  C   UNL A   1      37.444  21.828  24.926  1.00  0.00     0.023 C 
ATOM     30  C   UNL A   1      36.884  20.406  24.955  1.00  0.00     0.023 C 
ENDBRANCH  23  24
ENDBRANCH   7  17
ENDBRANCH   4   7
ENDBRANCH   2   3
ENDBRANCH   1   2
BRANCH   1  31
ATOM     31  C   UNL A   1      33.843  29.290  27.110  1.00  0.00     0.118 C 
BRANCH  31  32
ATOM     32  N   UNL A   1      33.773  30.638  27.659  1.00  0.00    -0.352 N 
ATOM     33  C   UNL A   1      34.601  31.271  28.544  1.00  0.00     0.251 C 
ATOM     34  H   UNL A   1      33.012  31.177  27.343  1.00  0.00     0.163 HD
ATOM     35  O   UNL A   1      34.246  32.349  29.029  1.00  0.00    -0.269 OA
BRANCH  33  36
ATOM     36  C   UNL A   1      35.898  30.679  28.927  1.00  0.00     0.039 A 
ATOM     37  C   UNL A   1      37.038  31.052  28.211  1.00  0.00     0.014 A 
ATOM     38  C   UNL A   1      35.995  29.736  29.954  1.00  0.00     0.014 A 
ATOM     39  C   UNL A   1      38.277  30.509  28.550  1.00  0.00     0.010 A 
ATOM     40  C   UNL A   1      37.243  29.262  30.347  1.00  0.00     0.010 A 
ATOM     41  C   UNL A   1      38.395  29.628  29.638  1.00  0.00    -0.014 A 
BRANCH  41  42
ATOM     42  C   UNL A   1      39.720  29.099  30.041  1.00  0.00     0.031 A 
ATOM     43  C   UNL A   1      40.507  29.749  31.147  1.00  0.00     0.074 A 
ATOM     44  C   UNL A   1      40.249  28.065  29.359  1.00  0.00     0.049 A 
ATOM     45  N   UNL A   1      41.668  29.408  31.641  1.00  0.00    -0.248 NA
ATOM     46  C   UNL A   1      39.928  30.956  31.759  1.00  0.00     0.031 C 
ATOM     47  C   UNL A   1      39.636  27.421  28.195  1.00  0.00     0.029 A 
ATOM     48  N   UNL A   1      41.430  27.389  29.529  1.00  0.00    -0.354 N 
ATOM     49  C   UNL A   1      41.975  30.371  32.595  1.00  0.00     0.074 A 
ATOM     50  C   UNL A   1      40.896  31.334  32.580  1.00  0.00     0.031 C 
ATOM     51  C   UNL A   1      40.441  26.441  27.760  1.00  0.00     0.029 A 
ATOM     52  C   UNL A   1      41.637  26.401  28.596  1.00  0.00     0.049 A 
ATOM     53  H   UNL A   1      42.069  27.592  30.250  1.00  0.00     0.167 HD
ATOM     54  C   UNL A   1      43.041  30.433  33.429  1.00  0.00     0.034 A 
ATOM     55  C   UNL A   1      42.674  25.557  28.430  1.00  0.00     0.034 A 
ATOM     56  C   UNL A   1      44.096  29.454  33.459  1.00  0.00     0.049 A 
ATOM     57  C   UNL A   1      43.809  25.596  29.413  1.00  0.00     0.074 A 
ATOM     58  C   UNL A   1      45.166  29.366  34.332  1.00  0.00     0.029 A 
ATOM     59  N   UNL A   1      44.223  28.402  32.565  1.00  0.00    -0.354 N 
ATOM     60  N   UNL A   1      43.990  26.399  30.432  1.00  0.00    -0.248 NA
ATOM     61  C   UNL A   1      44.859  24.580  29.253  1.00  0.00     0.031 C 
ATOM     62  C   UNL A   1      45.957  28.277  33.945  1.00  0.00     0.029 A 
ATOM     63  C   UNL A   1      45.361  27.666  32.854  1.00  0.00     0.049 A 
ATOM     64  H   UNL A   1      43.596  28.206  31.831  1.00  0.00     0.167 HD
ATOM     65  C   UNL A   1      45.161  25.976  31.050  1.00  0.00     0.074 A 
ATOM     66  C   UNL A   1      45.627  24.822  30.307  1.00  0.00     0.031 C 
ATOM     67  C   UNL A   1      45.801  26.502  32.125  1.00  0.00     0.034 A 
BRANCH  54  68
ATOM     68  C   UNL A   1      43.090  31.578  34.409  1.00  0.00     0.023 A 
ATOM     69  C   UNL A   1      43.764  32.768  34.060  1.00  0.00     0.012 A 
ATOM     70  C   UNL A   1      42.448  31.495  35.660  1.00  0.00     0.148 A 
ATOM     71  C   UNL A   1      43.843  33.833  34.957  1.00  0.00     0.002 A 
ATOM     72  C   UNL A   1      42.488  32.580  36.529  1.00  0.00     0.091 A 
ATOM     73  F   UNL A   1      41.830  30.351  35.988  1.00  0.00    -0.205 F 
ATOM     74  C   UNL A   1      43.197  33.743  36.186  1.00  0.00     0.022 A 
BRANCH  72  75
ATOM     75  S   UNL A   1      41.616  32.591  38.099  1.00  0.00     0.127 S 
ATOM     76  O   UNL A   1      42.348  31.572  38.851  1.00  0.00    -0.237 OA
ATOM     77  O   UNL A   1      41.834  33.963  38.564  1.00  0.00    -0.237 OA
ATOM     78  O   UNL A   1      40.231  32.271  37.790  1.00  0.00    -0.744 OA
ENDBRANCH  72  75
ENDBRANCH  54  68
BRANCH  55  79
ATOM     79  C   UNL A   1      42.639  24.568  27.318  1.00  0.00     0.023 A 
ATOM     80  C   UNL A   1      43.255  24.876  26.090  1.00  0.00     0.012 A 
ATOM     81  C   UNL A   1      42.056  23.299  27.496  1.00  0.00     0.148 A 
ATOM     82  C   UNL A   1      43.267  23.946  25.049  1.00  0.00     0.002 A 
ATOM     83  C   UNL A   1      42.125  22.356  26.478  1.00  0.00     0.091 A 
ATOM     84  F   UNL A   1      41.469  23.031  28.672  1.00  0.00    -0.205 F 
ATOM     85  C   UNL A   1      42.714  22.683  25.247  1.00  0.00     0.022 A 
BRANCH  83  86
ATOM     86  S   UNL A   1      41.570  20.662  26.698  1.00  0.00     0.127 S 
ATOM     87  O   UNL A   1      42.018  20.037  25.454  1.00  0.00    -0.237 OA
ATOM     88  O   UNL A   1      42.315  20.257  27.893  1.00  0.00    -0.237 OA
ATOM     89  O   UNL A   1      40.131  20.736  26.885  1.00  0.00    -0.744 OA
ENDBRANCH  83  86
ENDBRANCH  55  79
BRANCH  67  90
ATOM     90  C   UNL A   1      47.071  25.825  32.573  1.00  0.00     0.023 A 
ATOM     91  C   UNL A   1      48.307  26.211  32.016  1.00  0.00     0.012 A 
ATOM     92  C   UNL A   1      47.045  24.833  33.573  1.00  0.00     0.148 A 
ATOM     93  C   UNL A   1      49.490  25.589  32.414  1.00  0.00     0.002 A 
ATOM     94  C   UNL A   1      48.233  24.255  34.001  1.00  0.00     0.091 A 
ATOM     95  F   UNL A   1      45.858  24.462  34.077  1.00  0.00    -0.205 F 
ATOM     96  C   UNL A   1      49.454  24.619  33.413  1.00  0.00     0.022 A 
BRANCH  94  97
ATOM     97  S   UNL A   1      48.289  23.068  35.349  1.00  0.00     0.127 S 
ATOM     98  O   UNL A   1      49.728  22.864  35.507  1.00  0.00    -0.237 OA
ATOM     99  O   UNL A   1      47.654  23.807  36.442  1.00  0.00    -0.237 OA
ATOM    100  O   UNL A   1      47.535  21.909  34.890  1.00  0.00    -0.744 OA
ENDBRANCH  94  97
ENDBRANCH  67  90
ENDBRANCH  41  42
ENDBRANCH  33  36
ENDBRANCH  31  32
ENDBRANCH   1  31
TORSDOF 18
ENDMDL
MODEL 2
REMARK VINA RESULT:     -11.7      4.645      9.777
REMARK SMILES CCOc1ccccc1[C@@H](C(=O)NCCCNC(=O)c1ccc(-c2c3nc(c(-c4cccc(S(=O)(=O)[O-])c4F)c4ccc([nH]4)c(-c4cccc(S(=O)(=O)[O-])c4F)c4nc(c(-c5cccc(S(=O)(=O)[O-])c5F)c5ccc2[nH]5)C=C4)C=C3)cc1)[NH+]1CCC(C(=O)N2CCCC2)CC1
REMARK SMILES IDX 15 1 14 2 13 3 11 4 12 5 10 7 9 8 4 9 5 10 6 11 8 12 7 13
REMARK SMILES IDX 3 14 2 15 1 16 83 17 84 18 95 19 85 21 94 22 86 23 87 24
REMARK SMILES IDX 88 25 89 26 90 27 93 28 91 29 92 30 16 31 17 32 18 33 19 35
REMARK SMILES IDX 20 36 21 37 82 38 22 39 81 40 23 41 24 42 25 43 75 44 26 45
REMARK SMILES IDX 80 46 74 47 76 48 27 49 79 50 73 51 72 52 28 54 60 55 40 56
REMARK SMILES IDX 59 57 41 58 44 59 58 60 77 61 42 62 43 63 57 65 78 66 45 67
REMARK SMILES IDX 29 68 30 69 38 70 31 71 33 72 39 73 32 74 34 75 35 76 36 77
REMARK SMILES IDX 37 78 61 79 62 80 70 81 63 82 65 83 71 84 64 85 66 86 67 87
REMARK SMILES IDX 68 88 69 89 46 90 47 91 55 92 48 93 50 94 56 95 49 96 51 97
REMARK SMILES IDX 52 98 53 99 54 100
REMARK H PARENT 13 6 83 20 17 34 76 53 44 64
REMARK Flexibility Score: inf
ROOT
ATOM      1  C   UNL A   1      36.127  22.926  24.478  1.00  0.00     0.042 C 
ENDROOT
BRANCH   1   2
ATOM      2  C   UNL A   1      35.390  21.600  24.623  1.00  0.00     0.118 C 
BRANCH   2   3
ATOM      3  N   UNL A   1      35.004  21.336  25.993  1.00  0.00    -0.351 N 
ATOM      4  C   UNL A   1      33.770  21.407  26.584  1.00  0.00     0.283 C 
ATOM      5  O   UNL A   1      33.745  21.117  27.784  1.00  0.00    -0.268 OA
ATOM      6  H   UNL A   1      35.738  21.064  26.589  1.00  0.00     0.163 HD
BRANCH   4   7
ATOM      7  C   UNL A   1      32.500  21.731  25.729  1.00  0.00     0.309 C 
BRANCH   7   8
ATOM      8  C   UNL A   1      32.410  21.000  24.396  1.00  0.00     0.061 A 
ATOM      9  C   UNL A   1      32.477  19.591  24.316  1.00  0.00     0.128 A 
ATOM     10  C   UNL A   1      32.279  18.935  23.099  1.00  0.00     0.047 A 
ATOM     11  C   UNL A   1      32.026  19.671  21.942  1.00  0.00     0.004 A 
ATOM     12  C   UNL A   1      32.216  21.719  23.203  1.00  0.00     0.014 A 
ATOM     13  C   UNL A   1      32.018  21.062  21.990  1.00  0.00     0.001 A 
BRANCH   9  14
ATOM     14  O   UNL A   1      33.036  18.864  25.333  1.00  0.00    -0.493 OA
BRANCH  14  15
ATOM     15  C   UNL A   1      33.543  17.573  25.007  1.00  0.00     0.226 C 
ATOM     16  C   UNL A   1      34.993  17.744  24.556  1.00  0.00     0.049 C 
ENDBRANCH  14  15
ENDBRANCH   9  14
ENDBRANCH   7   8
BRANCH   7  17
ATOM     17  N   UNL A   1      32.228  23.208  25.639  1.00  0.00    -0.321 N 
ATOM     18  C   UNL A   1      30.888  23.642  26.064  1.00  0.00     0.263 C 
ATOM     19  C   UNL A   1      33.247  24.007  26.332  1.00  0.00     0.263 C 
ATOM     20  H   UNL A   1      32.272  23.384  24.635  1.00  0.00     0.349 HD
ATOM     21  C   UNL A   1      30.679  25.080  25.586  1.00  0.00     0.075 C 
ATOM     22  C   UNL A   1      33.112  25.490  26.010  1.00  0.00     0.075 C 
ATOM     23  C   UNL A   1      31.687  26.008  26.250  1.00  0.00     0.090 C 
BRANCH  23  24
ATOM     24  C   UNL A   1      31.686  27.502  25.924  1.00  0.00     0.226 C 
ATOM     25  O   UNL A   1      31.583  28.308  26.859  1.00  0.00    -0.275 OA
ATOM     26  N   UNL A   1      32.111  27.935  24.694  1.00  0.00    -0.342 N 
ATOM     27  C   UNL A   1      31.777  27.484  23.361  1.00  0.00     0.119 C 
ATOM     28  C   UNL A   1      33.097  28.998  24.619  1.00  0.00     0.119 C 
ATOM     29  C   UNL A   1      33.098  27.616  22.634  1.00  0.00     0.023 C 
ATOM     30  C   UNL A   1      33.639  28.932  23.190  1.00  0.00     0.023 C 
ENDBRANCH  23  24
ENDBRANCH   7  17
ENDBRANCH   4   7
ENDBRANCH   2   3
ENDBRANCH   1   2
BRANCH   1  31
ATOM     31  C   UNL A   1      36.939  23.293  25.713  1.00  0.00     0.118 C 
BRANCH  31  32
ATOM     32  N   UNL A   1      38.058  22.383  25.924  1.00  0.00    -0.352 N 
ATOM     33  C   UNL A   1      39.338  22.643  26.328  1.00  0.00     0.251 C 
ATOM     34  H   UNL A   1      37.861  21.434  25.750  1.00  0.00     0.163 HD
ATOM     35  O   UNL A   1      40.183  21.746  26.251  1.00  0.00    -0.269 OA
BRANCH  33  36
ATOM     36  C   UNL A   1      39.717  23.974  26.841  1.00  0.00     0.039 A 
ATOM     37  C   UNL A   1      39.612  24.214  28.214  1.00  0.00     0.014 A 
ATOM     38  C   UNL A   1      40.136  24.995  25.984  1.00  0.00     0.014 A 
ATOM     39  C   UNL A   1      39.963  25.462  28.727  1.00  0.00     0.010 A 
ATOM     40  C   UNL A   1      40.567  26.211  26.508  1.00  0.00     0.010 A 
ATOM     41  C   UNL A   1      40.468  26.464  27.882  1.00  0.00    -0.014 A 
BRANCH  41  42
ATOM     42  C   UNL A   1      40.902  27.770  28.435  1.00  0.00     0.031 A 
ATOM     43  C   UNL A   1      42.363  28.093  28.595  1.00  0.00     0.074 A 
ATOM     44  C   UNL A   1      39.970  28.646  28.857  1.00  0.00     0.049 A 
ATOM     45  N   UNL A   1      42.919  29.189  29.040  1.00  0.00    -0.248 NA
ATOM     46  C   UNL A   1      43.324  27.037  28.237  1.00  0.00     0.031 C 
ATOM     47  C   UNL A   1      38.526  28.403  28.860  1.00  0.00     0.029 A 
ATOM     48  N   UNL A   1      40.098  29.904  29.388  1.00  0.00    -0.354 N 
ATOM     49  C   UNL A   1      44.288  28.947  29.047  1.00  0.00     0.074 A 
ATOM     50  C   UNL A   1      44.475  27.583  28.602  1.00  0.00     0.031 C 
ATOM     51  C   UNL A   1      37.901  29.480  29.361  1.00  0.00     0.029 A 
ATOM     52  C   UNL A   1      38.898  30.477  29.737  1.00  0.00     0.049 A 
ATOM     53  H   UNL A   1      40.965  30.354  29.508  1.00  0.00     0.167 HD
ATOM     54  C   UNL A   1      45.299  29.790  29.365  1.00  0.00     0.034 A 
ATOM     55  C   UNL A   1      38.629  31.671  30.299  1.00  0.00     0.034 A 
ATOM     56  C   UNL A   1      45.107  31.155  29.779  1.00  0.00     0.049 A 
ATOM     57  C   UNL A   1      39.762  32.618  30.573  1.00  0.00     0.074 A 
ATOM     58  C   UNL A   1      46.064  32.125  30.025  1.00  0.00     0.029 A 
ATOM     59  N   UNL A   1      43.874  31.741  30.024  1.00  0.00    -0.354 N 
ATOM     60  N   UNL A   1      41.048  32.440  30.394  1.00  0.00    -0.248 NA
ATOM     61  C   UNL A   1      39.405  33.950  31.081  1.00  0.00     0.031 C 
ATOM     62  C   UNL A   1      45.409  33.287  30.449  1.00  0.00     0.029 A 
ATOM     63  C   UNL A   1      44.043  33.054  30.433  1.00  0.00     0.049 A 
ATOM     64  H   UNL A   1      43.005  31.289  29.923  1.00  0.00     0.167 HD
ATOM     65  C   UNL A   1      41.654  33.641  30.745  1.00  0.00     0.074 A 
ATOM     66  C   UNL A   1      40.587  34.550  31.115  1.00  0.00     0.031 C 
ATOM     67  C   UNL A   1      42.973  33.958  30.772  1.00  0.00     0.034 A 
BRANCH  54  68
ATOM     68  C   UNL A   1      46.707  29.267  29.232  1.00  0.00     0.023 A 
ATOM     69  C   UNL A   1      47.328  28.642  30.334  1.00  0.00     0.012 A 
ATOM     70  C   UNL A   1      47.408  29.364  28.013  1.00  0.00     0.148 A 
ATOM     71  C   UNL A   1      48.637  28.170  30.243  1.00  0.00     0.002 A 
ATOM     72  C   UNL A   1      48.695  28.846  27.916  1.00  0.00     0.091 A 
ATOM     73  F   UNL A   1      46.816  29.979  26.980  1.00  0.00    -0.205 F 
ATOM     74  C   UNL A   1      49.316  28.262  29.033  1.00  0.00     0.022 A 
BRANCH  72  75
ATOM     75  S   UNL A   1      49.619  28.842  26.376  1.00  0.00     0.127 S 
ATOM     76  O   UNL A   1      49.968  30.255  26.236  1.00  0.00    -0.237 OA
ATOM     77  O   UNL A   1      50.749  27.966  26.695  1.00  0.00    -0.237 OA
ATOM     78  O   UNL A   1      48.713  28.314  25.367  1.00  0.00    -0.744 OA
ENDBRANCH  72  75
ENDBRANCH  54  68
BRANCH  55  79
ATOM     79  C   UNL A   1      37.215  32.047  30.575  1.00  0.00     0.023 A 
ATOM     80  C   UNL A   1      36.681  31.857  31.863  1.00  0.00     0.012 A 
ATOM     81  C   UNL A   1      36.421  32.652  29.582  1.00  0.00     0.148 A 
ATOM     82  C   UNL A   1      35.370  32.239  32.152  1.00  0.00     0.002 A 
ATOM     83  C   UNL A   1      35.137  33.085  29.892  1.00  0.00     0.091 A 
ATOM     84  F   UNL A   1      36.949  32.816  28.361  1.00  0.00    -0.205 F 
ATOM     85  C   UNL A   1      34.603  32.864  31.170  1.00  0.00     0.022 A 
BRANCH  83  86
ATOM     86  S   UNL A   1      34.137  34.028  28.736  1.00  0.00     0.127 S 
ATOM     87  O   UNL A   1      33.755  33.002  27.767  1.00  0.00    -0.237 OA
ATOM     88  O   UNL A   1      33.048  34.497  29.597  1.00  0.00    -0.237 OA
ATOM     89  O   UNL A   1      34.999  35.083  28.232  1.00  0.00    -0.744 OA
ENDBRANCH  83  86
ENDBRANCH  55  79
BRANCH  67  90
ATOM     90  C   UNL A   1      43.338  35.356  31.206  1.00  0.00     0.023 A 
ATOM     91  C   UNL A   1      43.548  35.635  32.572  1.00  0.00     0.012 A 
ATOM     92  C   UNL A   1      43.511  36.383  30.258  1.00  0.00     0.148 A 
ATOM     93  C   UNL A   1      43.878  36.923  32.990  1.00  0.00     0.002 A 
ATOM     94  C   UNL A   1      43.892  37.651  30.678  1.00  0.00     0.091 A 
ATOM     95  F   UNL A   1      43.287  36.106  28.964  1.00  0.00    -0.205 F 
ATOM     96  C   UNL A   1      44.060  37.928  32.043  1.00  0.00     0.022 A 
BRANCH  94  97
ATOM     97  S   UNL A   1      44.241  38.978  29.518  1.00  0.00     0.127 S 
ATOM     98  O   UNL A   1      44.657  40.055  30.414  1.00  0.00    -0.237 OA
ATOM     99  O   UNL A   1      45.320  38.409  28.707  1.00  0.00    -0.237 OA
ATOM    100  O   UNL A   1      43.001  39.208  28.790  1.00  0.00    -0.744 OA
ENDBRANCH  94  97
ENDBRANCH  67  90
ENDBRANCH  41  42
ENDBRANCH  33  36
ENDBRANCH  31  32
ENDBRANCH   1  31
TORSDOF 18
ENDMDL
MODEL 3
REMARK VINA RESULT:     -11.7      5.060      8.915
REMARK SMILES CCOc1ccccc1[C@@H](C(=O)NCCCNC(=O)c1ccc(-c2c3nc(c(-c4cccc(S(=O)(=O)[O-])c4F)c4ccc([nH]4)c(-c4cccc(S(=O)(=O)[O-])c4F)c4nc(c(-c5cccc(S(=O)(=O)[O-])c5F)c5ccc2[nH]5)C=C4)C=C3)cc1)[NH+]1CCC(C(=O)N2CCCC2)CC1
REMARK SMILES IDX 15 1 14 2 13 3 11 4 12 5 10 7 9 8 4 9 5 10 6 11 8 12 7 13
REMARK SMILES IDX 3 14 2 15 1 16 83 17 84 18 95 19 85 21 94 22 86 23 87 24
REMARK SMILES IDX 88 25 89 26 90 27 93 28 91 29 92 30 16 31 17 32 18 33 19 35
REMARK SMILES IDX 20 36 21 37 82 38 22 39 81 40 23 41 24 42 25 43 75 44 26 45
REMARK SMILES IDX 80 46 74 47 76 48 27 49 79 50 73 51 72 52 28 54 60 55 40 56
REMARK SMILES IDX 59 57 41 58 44 59 58 60 77 61 42 62 43 63 57 65 78 66 45 67
REMARK SMILES IDX 29 68 30 69 38 70 31 71 33 72 39 73 32 74 34 75 35 76 36 77
REMARK SMILES IDX 37 78 61 79 62 80 70 81 63 82 65 83 71 84 64 85 66 86 67 87
REMARK SMILES IDX 68 88 69 89 46 90 47 91 55 92 48 93 50 94 56 95 49 96 51 97
REMARK SMILES IDX 52 98 53 99 54 100
REMARK H PARENT 13 6 83 20 17 34 76 53 44 64
REMARK Flexibility Score: inf
ROOT
ATOM      1  C   UNL A   1      39.335  21.398  26.200  1.00  0.00     0.042 C 
ENDROOT
BRANCH   1   2
ATOM      2  C   UNL A   1      38.029  22.165  26.032  1.00  0.00     0.118 C 
BRANCH   2   3
ATOM      3  N   UNL A   1      37.701  22.387  24.640  1.00  0.00    -0.351 N 
ATOM      4  C   UNL A   1      36.479  22.569  24.046  1.00  0.00     0.283 C 
ATOM      5  O   UNL A   1      36.511  22.743  22.824  1.00  0.00    -0.268 OA
ATOM      6  H   UNL A   1      38.471  22.410  24.028  1.00  0.00     0.163 HD
BRANCH   4   7
ATOM      7  C   UNL A   1      35.181  22.654  24.916  1.00  0.00     0.309 C 
BRANCH   7   8
ATOM      8  C   UNL A   1      34.316  21.400  24.914  1.00  0.00     0.061 A 
ATOM      9  C   UNL A   1      32.922  21.461  25.134  1.00  0.00     0.128 A 
ATOM     10  C   UNL A   1      32.130  20.316  25.017  1.00  0.00     0.047 A 
ATOM     11  C   UNL A   1      32.715  19.093  24.691  1.00  0.00     0.004 A 
ATOM     12  C   UNL A   1      34.888  20.143  24.650  1.00  0.00     0.014 A 
ATOM     13  C   UNL A   1      34.095  19.002  24.531  1.00  0.00     0.001 A 
BRANCH   9  14
ATOM     14  O   UNL A   1      32.365  22.542  25.764  1.00  0.00    -0.493 OA
BRANCH  14  15
ATOM     15  C   UNL A   1      31.006  22.843  25.461  1.00  0.00     0.226 C 
ATOM     16  C   UNL A   1      30.299  23.172  26.776  1.00  0.00     0.049 C 
ENDBRANCH  14  15
ENDBRANCH   9  14
ENDBRANCH   7   8
BRANCH   7  17
ATOM     17  N   UNL A   1      34.415  23.929  24.684  1.00  0.00    -0.321 N 
ATOM     18  C   UNL A   1      34.970  25.135  25.317  1.00  0.00     0.263 C 
ATOM     19  C   UNL A   1      34.178  24.186  23.258  1.00  0.00     0.263 C 
ATOM     20  H   UNL A   1      33.530  23.748  25.157  1.00  0.00     0.349 HD
ATOM     21  C   UNL A   1      33.903  26.231  25.270  1.00  0.00     0.075 C 
ATOM     22  C   UNL A   1      33.183  25.322  23.051  1.00  0.00     0.075 C 
ATOM     23  C   UNL A   1      33.578  26.586  23.825  1.00  0.00     0.090 C 
BRANCH  23  24
ATOM     24  C   UNL A   1      32.530  27.655  23.515  1.00  0.00     0.226 C 
ATOM     25  O   UNL A   1      32.804  28.524  22.677  1.00  0.00    -0.275 OA
ATOM     26  N   UNL A   1      31.226  27.468  23.901  1.00  0.00    -0.342 N 
ATOM     27  C   UNL A   1      30.661  27.056  25.167  1.00  0.00     0.119 C 
ATOM     28  C   UNL A   1      30.166  27.653  22.927  1.00  0.00     0.119 C 
ATOM     29  C   UNL A   1      29.495  26.191  24.735  1.00  0.00     0.023 C 
ATOM     30  C   UNL A   1      28.942  26.973  23.544  1.00  0.00     0.023 C 
ENDBRANCH  23  24
ENDBRANCH   7  17
ENDBRANCH   4   7
ENDBRANCH   2   3
ENDBRANCH   1   2
BRANCH   1  31
ATOM     31  C   UNL A   1      39.264  19.976  25.658  1.00  0.00     0.118 C 
BRANCH  31  32
ATOM     32  N   UNL A   1      40.409  19.175  26.071  1.00  0.00    -0.352 N 
ATOM     33  C   UNL A   1      41.674  19.561  26.418  1.00  0.00     0.251 C 
ATOM     34  H   UNL A   1      40.246  18.205  26.108  1.00  0.00     0.163 HD
ATOM     35  O   UNL A   1      42.550  18.701  26.545  1.00  0.00    -0.269 OA
BRANCH  33  36
ATOM     36  C   UNL A   1      42.001  20.986  26.630  1.00  0.00     0.039 A 
ATOM     37  C   UNL A   1      42.090  21.461  27.941  1.00  0.00     0.014 A 
ATOM     38  C   UNL A   1      42.183  21.861  25.556  1.00  0.00     0.014 A 
ATOM     39  C   UNL A   1      42.397  22.801  28.172  1.00  0.00     0.010 A 
ATOM     40  C   UNL A   1      42.573  23.177  25.789  1.00  0.00     0.010 A 
ATOM     41  C   UNL A   1      42.667  23.666  27.098  1.00  0.00    -0.014 A 
BRANCH  41  42
ATOM     42  C   UNL A   1      43.057  25.075  27.343  1.00  0.00     0.031 A 
ATOM     43  C   UNL A   1      42.089  26.048  27.960  1.00  0.00     0.074 A 
ATOM     44  C   UNL A   1      44.273  25.498  26.947  1.00  0.00     0.049 A 
ATOM     45  N   UNL A   1      42.269  27.307  28.262  1.00  0.00    -0.248 NA
ATOM     46  C   UNL A   1      40.733  25.552  28.246  1.00  0.00     0.031 C 
ATOM     47  C   UNL A   1      45.259  24.680  26.236  1.00  0.00     0.029 A 
ATOM     48  N   UNL A   1      44.878  26.723  27.061  1.00  0.00    -0.354 N 
ATOM     49  C   UNL A   1      41.047  27.763  28.743  1.00  0.00     0.074 A 
ATOM     50  C   UNL A   1      40.121  26.655  28.651  1.00  0.00     0.031 C 
ATOM     51  C   UNL A   1      46.347  25.423  25.985  1.00  0.00     0.029 A 
ATOM     52  C   UNL A   1      46.128  26.774  26.492  1.00  0.00     0.049 A 
ATOM     53  H   UNL A   1      44.457  27.493  27.508  1.00  0.00     0.167 HD
ATOM     54  C   UNL A   1      40.730  28.981  29.244  1.00  0.00     0.034 A 
ATOM     55  C   UNL A   1      47.002  27.794  26.388  1.00  0.00     0.034 A 
ATOM     56  C   UNL A   1      41.664  30.070  29.360  1.00  0.00     0.049 A 
ATOM     57  C   UNL A   1      46.658  29.114  27.017  1.00  0.00     0.074 A 
ATOM     58  C   UNL A   1      41.476  31.309  29.946  1.00  0.00     0.029 A 
ATOM     59  N   UNL A   1      42.960  30.055  28.866  1.00  0.00    -0.354 N 
ATOM     60  N   UNL A   1      45.561  29.471  27.639  1.00  0.00    -0.248 NA
ATOM     61  C   UNL A   1      47.691  30.158  26.973  1.00  0.00     0.031 C 
ATOM     62  C   UNL A   1      42.649  32.055  29.777  1.00  0.00     0.029 A 
ATOM     63  C   UNL A   1      43.580  31.268  29.119  1.00  0.00     0.049 A 
ATOM     64  H   UNL A   1      43.379  29.294  28.403  1.00  0.00     0.167 HD
ATOM     65  C   UNL A   1      45.777  30.770  28.081  1.00  0.00     0.074 A 
ATOM     66  C   UNL A   1      47.124  31.124  27.683  1.00  0.00     0.031 C 
ATOM     67  C   UNL A   1      44.932  31.601  28.743  1.00  0.00     0.034 A 
BRANCH  54  68
ATOM     68  C   UNL A   1      39.322  29.181  29.745  1.00  0.00     0.023 A 
ATOM     69  C   UNL A   1      38.987  28.800  31.062  1.00  0.00     0.012 A 
ATOM     70  C   UNL A   1      38.336  29.770  28.929  1.00  0.00     0.148 A 
ATOM     71  C   UNL A   1      37.687  28.955  31.541  1.00  0.00     0.002 A 
ATOM     72  C   UNL A   1      37.053  29.967  29.432  1.00  0.00     0.091 A 
ATOM     73  F   UNL A   1      38.660  30.108  27.673  1.00  0.00    -0.205 F 
ATOM     74  C   UNL A   1      36.724  29.547  30.731  1.00  0.00     0.022 A 
BRANCH  72  75
ATOM     75  S   UNL A   1      35.767  30.798  28.493  1.00  0.00     0.127 S 
ATOM     76  O   UNL A   1      35.247  29.705  27.672  1.00  0.00    -0.237 OA
ATOM     77  O   UNL A   1      34.858  31.251  29.548  1.00  0.00    -0.237 OA
ATOM     78  O   UNL A   1      36.430  31.870  27.767  1.00  0.00    -0.744 OA
ENDBRANCH  72  75
ENDBRANCH  54  68
BRANCH  55  79
ATOM     79  C   UNL A   1      48.308  27.570  25.710  1.00  0.00     0.023 A 
ATOM     80  C   UNL A   1      49.436  27.207  26.470  1.00  0.00     0.012 A 
ATOM     81  C   UNL A   1      48.419  27.651  24.308  1.00  0.00     0.148 A 
ATOM     82  C   UNL A   1      50.660  26.955  25.848  1.00  0.00     0.002 A 
ATOM     83  C   UNL A   1      49.624  27.340  23.691  1.00  0.00     0.091 A 
ATOM     84  F   UNL A   1      47.333  28.005  23.607  1.00  0.00    -0.205 F 
ATOM     85  C   UNL A   1      50.751  27.009  24.459  1.00  0.00     0.022 A 
BRANCH  83  86
ATOM     86  S   UNL A   1      49.790  27.241  21.905  1.00  0.00     0.127 S 
ATOM     87  O   UNL A   1      49.527  28.622  21.504  1.00  0.00    -0.237 OA
ATOM     88  O   UNL A   1      51.184  26.813  21.758  1.00  0.00    -0.237 OA
ATOM     89  O   UNL A   1      48.813  26.259  21.468  1.00  0.00    -0.744 OA
ENDBRANCH  83  86
ENDBRANCH  55  79
BRANCH  67  90
ATOM     90  C   UNL A   1      45.446  32.974  29.092  1.00  0.00     0.023 A 
ATOM     91  C   UNL A   1      46.109  33.185  30.318  1.00  0.00     0.012 A 
ATOM     92  C   UNL A   1      45.307  34.047  28.190  1.00  0.00     0.148 A 
ATOM     93  C   UNL A   1      46.584  34.450  30.659  1.00  0.00     0.002 A 
ATOM     94  C   UNL A   1      45.829  35.293  28.515  1.00  0.00     0.091 A 
ATOM     95  F   UNL A   1      44.655  33.835  27.037  1.00  0.00    -0.205 F 
ATOM     96  C   UNL A   1      46.454  35.501  29.754  1.00  0.00     0.022 A 
BRANCH  94  97
ATOM     97  S   UNL A   1      45.791  36.676  27.369  1.00  0.00     0.127 S 
ATOM     98  O   UNL A   1      44.356  36.919  27.242  1.00  0.00    -0.237 OA
ATOM     99  O   UNL A   1      46.522  37.711  28.103  1.00  0.00    -0.237 OA
ATOM    100  O   UNL A   1      46.460  36.210  26.161  1.00  0.00    -0.744 OA
ENDBRANCH  94  97
ENDBRANCH  67  90
ENDBRANCH  41  42
ENDBRANCH  33  36
ENDBRANCH  31  32
ENDBRANCH   1  31
TORSDOF 18
ENDMDL
