MODEL 1
REMARK VINA RESULT:     -11.6      0.000      0.000
REMARK SMILES NC(=O)COc1ccc(/C=C2\SC(=S)N(CCC(=O)NCCCNC(=O)c3ccc(-c4c5nc(c(-c6cccc(S(=O)(=O)[O-])c6F)c6ccc([nH]6)c(-c6cccc(S(=O)(=O)[O-])c6F)c6nc(c(-c7cccc(S(=O)(=O)[O-])c7F)c7ccc4[nH]7)C=C6)C=C5)cc3)C2=O)cc1
REMARK SMILES IDX 18 1 19 2 20 3 17 5 16 6 15 7 10 8 11 9 12 10 90 11 13 12
REMARK SMILES IDX 91 13 14 14 9 15 6 16 7 17 93 18 8 19 92 20 5 21 4 22 2 23
REMARK SMILES IDX 1 24 3 27 21 28 22 29 23 30 24 31 25 32 26 34 27 35 28 36
REMARK SMILES IDX 89 37 29 38 88 39 30 40 31 41 32 42 82 43 33 44 87 45 81 46
REMARK SMILES IDX 83 47 34 48 86 49 80 50 79 51 35 53 67 54 47 55 66 56 48 57
REMARK SMILES IDX 51 58 65 59 84 60 49 61 50 62 64 64 85 65 52 66 36 67 37 68
REMARK SMILES IDX 45 69 38 70 40 71 46 72 39 73 41 74 42 75 43 76 44 77 68 78
REMARK SMILES IDX 69 79 77 80 70 81 72 82 78 83 71 84 73 85 74 86 75 87 76 88
REMARK SMILES IDX 53 89 54 90 62 91 55 92 57 93 63 94 56 95 58 96 59 97 60 98
REMARK SMILES IDX 61 99
REMARK H PARENT 20 4 1 25 1 26 24 33 83 52 51 63
REMARK Flexibility Score: inf
ROOT
ATOM      1  C   UNL A   1      29.922  29.077  22.952  1.00  0.00     0.221 C 
ATOM      2  O   UNL A   1      29.370  29.491  21.930  1.00  0.00    -0.275 OA
ATOM      3  N   UNL A   1      30.371  29.996  23.852  1.00  0.00    -0.356 N 
ATOM      4  H   UNL A   1      30.134  30.927  23.632  1.00  0.00     0.163 HD
ENDROOT
BRANCH   1   5
ATOM      5  C   UNL A   1      30.034  27.589  23.210  1.00  0.00     0.122 C 
BRANCH   5   6
ATOM      6  C   UNL A   1      31.041  26.896  22.283  1.00  0.00     0.137 C 
BRANCH   6   7
ATOM      7  N   UNL A   1      32.095  26.217  23.045  1.00  0.00    -0.292 N 
ATOM      8  C   UNL A   1      33.480  22.997  23.706  1.00  0.00     0.029 C 
ATOM      9  C   UNL A   1      33.253  24.313  23.770  1.00  0.00     0.081 C 
ATOM     10  S   UNL A   1      34.345  25.577  24.140  1.00  0.00    -0.054 SA
ATOM     11  C   UNL A   1      31.950  24.870  23.317  1.00  0.00     0.266 C 
ATOM     12  C   UNL A   1      33.266  26.805  23.483  1.00  0.00     0.148 C 
ATOM     13  O   UNL A   1      30.951  24.201  23.121  1.00  0.00    -0.268 OA
ATOM     14  S   UNL A   1      33.707  28.412  23.379  1.00  0.00    -0.052 S 
BRANCH   8  15
ATOM     15  C   UNL A   1      34.714  22.299  24.043  1.00  0.00    -0.024 A 
ATOM     16  C   UNL A   1      37.206  21.330  24.886  1.00  0.00     0.120 A 
ATOM     17  C   UNL A   1      36.031  20.772  25.391  1.00  0.00     0.047 A 
ATOM     18  C   UNL A   1      37.122  22.316  23.907  1.00  0.00     0.047 A 
ATOM     19  C   UNL A   1      34.783  21.267  24.985  1.00  0.00     0.012 A 
ATOM     20  C   UNL A   1      35.885  22.781  23.472  1.00  0.00     0.012 A 
BRANCH  16  21
ATOM     21  O   UNL A   1      38.388  20.822  25.351  1.00  0.00    -0.484 OA
BRANCH  21  22
ATOM     22  C   UNL A   1      39.196  21.736  26.096  1.00  0.00     0.329 C 
BRANCH  22  23
ATOM     23  C   UNL A   1      40.583  21.256  26.544  1.00  0.00     0.255 C 
ATOM     24  N   UNL A   1      40.807  21.234  27.889  1.00  0.00    -0.367 N 
ATOM     25  H   UNL A   1      41.679  20.935  28.238  1.00  0.00     0.159 HD
ATOM     26  H   UNL A   1      40.099  21.514  28.512  1.00  0.00     0.159 HD
ATOM     27  O   UNL A   1      41.463  20.920  25.759  1.00  0.00    -0.271 OA
ENDBRANCH  22  23
ENDBRANCH  21  22
ENDBRANCH  16  21
ENDBRANCH   8  15
ENDBRANCH   6   7
ENDBRANCH   5   6
ENDBRANCH   1   5
BRANCH   3  28
ATOM     28  C   UNL A   1      31.137  29.848  25.082  1.00  0.00     0.117 C 
BRANCH  28  29
ATOM     29  C   UNL A   1      31.233  31.163  25.850  1.00  0.00     0.042 C 
BRANCH  29  30
ATOM     30  C   UNL A   1      32.407  31.305  26.815  1.00  0.00     0.118 C 
BRANCH  30  31
ATOM     31  N   UNL A   1      32.638  32.689  27.186  1.00  0.00    -0.352 N 
ATOM     32  C   UNL A   1      33.605  33.333  27.920  1.00  0.00     0.251 C 
ATOM     33  H   UNL A   1      31.951  33.300  26.834  1.00  0.00     0.163 HD
ATOM     34  O   UNL A   1      33.366  34.513  28.198  1.00  0.00    -0.269 OA
BRANCH  32  35
ATOM     35  C   UNL A   1      34.882  32.729  28.409  1.00  0.00     0.039 A 
ATOM     36  C   UNL A   1      34.767  31.554  29.174  1.00  0.00     0.014 A 
ATOM     37  C   UNL A   1      36.151  33.299  28.284  1.00  0.00     0.014 A 
ATOM     38  C   UNL A   1      35.883  30.954  29.773  1.00  0.00     0.010 A 
ATOM     39  C   UNL A   1      37.281  32.682  28.862  1.00  0.00     0.010 A 
ATOM     40  C   UNL A   1      37.155  31.512  29.625  1.00  0.00    -0.014 A 
BRANCH  40  41
ATOM     41  C   UNL A   1      38.308  30.936  30.376  1.00  0.00     0.031 A 
ATOM     42  C   UNL A   1      38.528  31.326  31.806  1.00  0.00     0.074 A 
ATOM     43  C   UNL A   1      39.139  30.040  29.809  1.00  0.00     0.049 A 
ATOM     44  N   UNL A   1      39.454  30.922  32.636  1.00  0.00    -0.248 NA
ATOM     45  C   UNL A   1      37.596  32.312  32.372  1.00  0.00     0.031 C 
ATOM     46  C   UNL A   1      39.055  29.613  28.424  1.00  0.00     0.029 A 
ATOM     47  N   UNL A   1      40.200  29.322  30.308  1.00  0.00    -0.354 N 
ATOM     48  C   UNL A   1      39.252  31.641  33.804  1.00  0.00     0.074 A 
ATOM     49  C   UNL A   1      38.101  32.492  33.584  1.00  0.00     0.031 C 
ATOM     50  C   UNL A   1      39.968  28.657  28.188  1.00  0.00     0.029 A 
ATOM     51  C   UNL A   1      40.757  28.447  29.399  1.00  0.00     0.049 A 
ATOM     52  H   UNL A   1      40.532  29.424  31.230  1.00  0.00     0.167 HD
ATOM     53  C   UNL A   1      39.967  31.605  34.952  1.00  0.00     0.034 A 
ATOM     54  C   UNL A   1      41.789  27.587  29.524  1.00  0.00     0.034 A 
ATOM     55  C   UNL A   1      41.109  30.760  35.175  1.00  0.00     0.049 A 
ATOM     56  C   UNL A   1      42.536  27.537  30.836  1.00  0.00     0.074 A 
ATOM     57  C   UNL A   1      41.911  30.680  36.300  1.00  0.00     0.029 A 
ATOM     58  N   UNL A   1      41.613  29.850  34.260  1.00  0.00    -0.354 N 
ATOM     59  N   UNL A   1      42.290  28.180  31.951  1.00  0.00    -0.248 NA
ATOM     60  C   UNL A   1      43.708  26.648  30.905  1.00  0.00     0.031 C 
ATOM     61  C   UNL A   1      42.911  29.733  36.059  1.00  0.00     0.029 A 
ATOM     62  C   UNL A   1      42.715  29.203  34.795  1.00  0.00     0.049 A 
ATOM     63  H   UNL A   1      41.244  29.686  33.362  1.00  0.00     0.167 HD
ATOM     64  C   UNL A   1      43.261  27.763  32.855  1.00  0.00     0.074 A 
ATOM     65  C   UNL A   1      44.076  26.781  32.172  1.00  0.00     0.031 C 
ATOM     66  C   UNL A   1      43.481  28.184  34.125  1.00  0.00     0.034 A 
BRANCH  53  67
ATOM     67  C   UNL A   1      39.536  32.528  36.057  1.00  0.00     0.023 A 
ATOM     68  C   UNL A   1      38.691  32.051  37.077  1.00  0.00     0.012 A 
ATOM     69  C   UNL A   1      39.995  33.859  36.098  1.00  0.00     0.148 A 
ATOM     70  C   UNL A   1      38.283  32.894  38.109  1.00  0.00     0.002 A 
ATOM     71  C   UNL A   1      39.617  34.681  37.151  1.00  0.00     0.091 A 
ATOM     72  F   UNL A   1      40.781  34.295  35.103  1.00  0.00    -0.205 F 
ATOM     73  C   UNL A   1      38.753  34.205  38.151  1.00  0.00     0.022 A 
BRANCH  71  74
ATOM     74  S   UNL A   1      40.218  36.364  37.330  1.00  0.00     0.127 S 
ATOM     75  O   UNL A   1      39.967  36.910  35.997  1.00  0.00    -0.237 OA
ATOM     76  O   UNL A   1      39.344  36.891  38.379  1.00  0.00    -0.237 OA
ATOM     77  O   UNL A   1      41.622  36.254  37.703  1.00  0.00    -0.744 OA
ENDBRANCH  71  74
ENDBRANCH  53  67
BRANCH  54  78
ATOM     78  C   UNL A   1      42.182  26.677  28.403  1.00  0.00     0.023 A 
ATOM     79  C   UNL A   1      41.381  25.553  28.113  1.00  0.00     0.012 A 
ATOM     80  C   UNL A   1      43.342  26.894  27.635  1.00  0.00     0.148 A 
ATOM     81  C   UNL A   1      41.753  24.641  27.122  1.00  0.00     0.002 A 
ATOM     82  C   UNL A   1      43.667  26.024  26.598  1.00  0.00     0.091 A 
ATOM     83  F   UNL A   1      44.119  27.946  27.932  1.00  0.00    -0.205 F 
ATOM     84  C   UNL A   1      42.889  24.882  26.356  1.00  0.00     0.022 A 
BRANCH  82  85
ATOM     85  S   UNL A   1      45.013  26.375  25.462  1.00  0.00     0.127 S 
ATOM     86  O   UNL A   1      44.994  25.202  24.594  1.00  0.00    -0.237 OA
ATOM     87  O   UNL A   1      44.567  27.619  24.828  1.00  0.00    -0.237 OA
ATOM     88  O   UNL A   1      46.190  26.535  26.307  1.00  0.00    -0.744 OA
ENDBRANCH  82  85
ENDBRANCH  54  78
BRANCH  66  89
ATOM     89  C   UNL A   1      44.638  27.578  34.876  1.00  0.00     0.023 A 
ATOM     90  C   UNL A   1      45.884  28.239  34.891  1.00  0.00     0.012 A 
ATOM     91  C   UNL A   1      44.468  26.406  35.639  1.00  0.00     0.148 A 
ATOM     92  C   UNL A   1      46.949  27.729  35.634  1.00  0.00     0.002 A 
ATOM     93  C   UNL A   1      45.519  25.930  36.414  1.00  0.00     0.091 A 
ATOM     94  F   UNL A   1      43.282  25.782  35.597  1.00  0.00    -0.205 F 
ATOM     95  C   UNL A   1      46.762  26.583  36.404  1.00  0.00     0.022 A 
BRANCH  93  96
ATOM     96  S   UNL A   1      45.344  24.519  37.514  1.00  0.00     0.127 S 
ATOM     97  O   UNL A   1      46.656  24.478  38.157  1.00  0.00    -0.237 OA
ATOM     98  O   UNL A   1      44.249  24.941  38.388  1.00  0.00    -0.237 OA
ATOM     99  O   UNL A   1      45.031  23.382  36.659  1.00  0.00    -0.744 OA
ENDBRANCH  93  96
ENDBRANCH  66  89
ENDBRANCH  40  41
ENDBRANCH  32  35
ENDBRANCH  30  31
ENDBRANCH  29  30
ENDBRANCH  28  29
ENDBRANCH   3  28
TORSDOF 19
ENDMDL
MODEL 2
REMARK VINA RESULT:     -11.5      2.343      2.904
REMARK SMILES NC(=O)COc1ccc(/C=C2\SC(=S)N(CCC(=O)NCCCNC(=O)c3ccc(-c4c5nc(c(-c6cccc(S(=O)(=O)[O-])c6F)c6ccc([nH]6)c(-c6cccc(S(=O)(=O)[O-])c6F)c6nc(c(-c7cccc(S(=O)(=O)[O-])c7F)c7ccc4[nH]7)C=C6)C=C5)cc3)C2=O)cc1
REMARK SMILES IDX 18 1 19 2 20 3 17 5 16 6 15 7 10 8 11 9 12 10 90 11 13 12
REMARK SMILES IDX 91 13 14 14 9 15 6 16 7 17 93 18 8 19 92 20 5 21 4 22 2 23
REMARK SMILES IDX 1 24 3 27 21 28 22 29 23 30 24 31 25 32 26 34 27 35 28 36
REMARK SMILES IDX 89 37 29 38 88 39 30 40 31 41 32 42 82 43 33 44 87 45 81 46
REMARK SMILES IDX 83 47 34 48 86 49 80 50 79 51 35 53 67 54 47 55 66 56 48 57
REMARK SMILES IDX 51 58 65 59 84 60 49 61 50 62 64 64 85 65 52 66 36 67 37 68
REMARK SMILES IDX 45 69 38 70 40 71 46 72 39 73 41 74 42 75 43 76 44 77 68 78
REMARK SMILES IDX 69 79 77 80 70 81 72 82 78 83 71 84 73 85 74 86 75 87 76 88
REMARK SMILES IDX 53 89 54 90 62 91 55 92 57 93 63 94 56 95 58 96 59 97 60 98
REMARK SMILES IDX 61 99
REMARK H PARENT 20 4 1 25 1 26 24 33 83 52 51 63
REMARK Flexibility Score: inf
ROOT
ATOM      1  C   UNL A   1      30.561  28.992  22.886  1.00  0.00     0.221 C 
ATOM      2  O   UNL A   1      29.970  29.465  21.912  1.00  0.00    -0.275 OA
ATOM      3  N   UNL A   1      30.717  29.783  23.984  1.00  0.00    -0.356 N 
ATOM      4  H   UNL A   1      30.260  30.653  23.924  1.00  0.00     0.163 HD
ENDROOT
BRANCH   1   5
ATOM      5  C   UNL A   1      31.040  27.556  22.865  1.00  0.00     0.122 C 
BRANCH   5   6
ATOM      6  C   UNL A   1      32.512  27.421  22.454  1.00  0.00     0.137 C 
BRANCH   6   7
ATOM      7  N   UNL A   1      32.948  26.020  22.464  1.00  0.00    -0.292 N 
ATOM      8  C   UNL A   1      33.556  23.263  24.644  1.00  0.00     0.029 C 
ATOM      9  C   UNL A   1      33.498  24.011  23.537  1.00  0.00     0.081 C 
ATOM     10  S   UNL A   1      33.265  23.516  21.916  1.00  0.00    -0.054 SA
ATOM     11  C   UNL A   1      33.454  25.494  23.638  1.00  0.00     0.266 C 
ATOM     12  C   UNL A   1      32.852  25.148  21.397  1.00  0.00     0.148 C 
ATOM     13  O   UNL A   1      33.724  26.119  24.648  1.00  0.00    -0.268 OA
ATOM     14  S   UNL A   1      32.360  25.488  19.838  1.00  0.00    -0.052 S 
BRANCH   8  15
ATOM     15  C   UNL A   1      33.539  21.808  24.726  1.00  0.00    -0.024 A 
ATOM     16  C   UNL A   1      33.447  19.020  24.451  1.00  0.00     0.120 A 
ATOM     17  C   UNL A   1      34.619  19.642  24.884  1.00  0.00     0.047 A 
ATOM     18  C   UNL A   1      32.311  19.792  24.232  1.00  0.00     0.047 A 
ATOM     19  C   UNL A   1      34.673  21.039  25.005  1.00  0.00     0.012 A 
ATOM     20  C   UNL A   1      32.349  21.174  24.391  1.00  0.00     0.012 A 
BRANCH  16  21
ATOM     21  O   UNL A   1      33.475  17.658  24.321  1.00  0.00    -0.484 OA
BRANCH  21  22
ATOM     22  C   UNL A   1      33.453  16.925  25.548  1.00  0.00     0.329 C 
BRANCH  22  23
ATOM     23  C   UNL A   1      33.046  15.448  25.486  1.00  0.00     0.255 C 
ATOM     24  N   UNL A   1      31.722  15.179  25.674  1.00  0.00    -0.367 N 
ATOM     25  H   UNL A   1      31.399  14.249  25.646  1.00  0.00     0.159 HD
ATOM     26  H   UNL A   1      31.088  15.914  25.836  1.00  0.00     0.159 HD
ATOM     27  O   UNL A   1      33.846  14.538  25.295  1.00  0.00    -0.271 OA
ENDBRANCH  22  23
ENDBRANCH  21  22
ENDBRANCH  16  21
ENDBRANCH   8  15
ENDBRANCH   6   7
ENDBRANCH   5   6
ENDBRANCH   1   5
BRANCH   3  28
ATOM     28  C   UNL A   1      31.438  29.571  25.232  1.00  0.00     0.117 C 
BRANCH  28  29
ATOM     29  C   UNL A   1      31.523  30.849  26.060  1.00  0.00     0.042 C 
BRANCH  29  30
ATOM     30  C   UNL A   1      32.822  31.078  26.829  1.00  0.00     0.118 C 
BRANCH  30  31
ATOM     31  N   UNL A   1      32.983  32.467  27.218  1.00  0.00    -0.352 N 
ATOM     32  C   UNL A   1      33.902  33.146  27.981  1.00  0.00     0.251 C 
ATOM     33  H   UNL A   1      32.278  33.051  26.857  1.00  0.00     0.163 HD
ATOM     34  O   UNL A   1      33.605  34.311  28.265  1.00  0.00    -0.269 OA
BRANCH  32  35
ATOM     35  C   UNL A   1      35.194  32.593  28.494  1.00  0.00     0.039 A 
ATOM     36  C   UNL A   1      35.120  31.378  29.198  1.00  0.00     0.014 A 
ATOM     37  C   UNL A   1      36.430  33.241  28.448  1.00  0.00     0.014 A 
ATOM     38  C   UNL A   1      36.246  30.816  29.815  1.00  0.00     0.010 A 
ATOM     39  C   UNL A   1      37.573  32.664  29.042  1.00  0.00     0.010 A 
ATOM     40  C   UNL A   1      37.487  31.453  29.745  1.00  0.00    -0.014 A 
BRANCH  40  41
ATOM     41  C   UNL A   1      38.643  30.909  30.516  1.00  0.00     0.031 A 
ATOM     42  C   UNL A   1      38.835  31.316  31.946  1.00  0.00     0.074 A 
ATOM     43  C   UNL A   1      39.501  30.027  29.967  1.00  0.00     0.049 A 
ATOM     44  N   UNL A   1      39.759  30.940  32.790  1.00  0.00    -0.248 NA
ATOM     45  C   UNL A   1      37.874  32.286  32.491  1.00  0.00     0.031 C 
ATOM     46  C   UNL A   1      39.445  29.587  28.584  1.00  0.00     0.029 A 
ATOM     47  N   UNL A   1      40.571  29.338  30.486  1.00  0.00    -0.354 N 
ATOM     48  C   UNL A   1      39.526  31.663  33.950  1.00  0.00     0.074 A 
ATOM     49  C   UNL A   1      38.360  32.487  33.707  1.00  0.00     0.031 C 
ATOM     50  C   UNL A   1      40.382  28.650  28.369  1.00  0.00     0.029 A 
ATOM     51  C   UNL A   1      41.159  28.468  29.592  1.00  0.00     0.049 A 
ATOM     52  H   UNL A   1      40.889  29.454  31.411  1.00  0.00     0.167 HD
ATOM     53  C   UNL A   1      40.227  31.653  35.107  1.00  0.00     0.034 A 
ATOM     54  C   UNL A   1      42.209  27.633  29.737  1.00  0.00     0.034 A 
ATOM     55  C   UNL A   1      41.384  30.836  35.352  1.00  0.00     0.049 A 
ATOM     56  C   UNL A   1      42.940  27.610  31.059  1.00  0.00     0.074 A 
ATOM     57  C   UNL A   1      42.173  30.783  36.488  1.00  0.00     0.029 A 
ATOM     58  N   UNL A   1      41.921  29.929  34.451  1.00  0.00    -0.354 N 
ATOM     59  N   UNL A   1      42.664  28.256  32.165  1.00  0.00    -0.248 NA
ATOM     60  C   UNL A   1      44.130  26.748  31.151  1.00  0.00     0.031 C 
ATOM     61  C   UNL A   1      43.197  29.857  36.268  1.00  0.00     0.029 A 
ATOM     62  C   UNL A   1      43.029  29.312  35.006  1.00  0.00     0.049 A 
ATOM     63  H   UNL A   1      41.566  29.750  33.550  1.00  0.00     0.167 HD
ATOM     64  C   UNL A   1      43.633  27.869  33.085  1.00  0.00     0.074 A 
ATOM     65  C   UNL A   1      44.479  26.900  32.421  1.00  0.00     0.031 C 
ATOM     66  C   UNL A   1      43.827  28.305  34.354  1.00  0.00     0.034 A 
BRANCH  53  67
ATOM     67  C   UNL A   1      39.761  32.575  36.198  1.00  0.00     0.023 A 
ATOM     68  C   UNL A   1      40.274  33.884  36.275  1.00  0.00     0.012 A 
ATOM     69  C   UNL A   1      38.792  32.151  37.128  1.00  0.00     0.148 A 
ATOM     70  C   UNL A   1      39.852  34.751  37.281  1.00  0.00     0.002 A 
ATOM     71  C   UNL A   1      38.345  33.034  38.102  1.00  0.00     0.091 A 
ATOM     72  F   UNL A   1      38.336  30.893  37.047  1.00  0.00    -0.205 F 
ATOM     73  C   UNL A   1      38.881  34.330  38.188  1.00  0.00     0.022 A 
BRANCH  71  74
ATOM     74  S   UNL A   1      37.055  32.609  39.276  1.00  0.00     0.127 S 
ATOM     75  O   UNL A   1      37.465  31.268  39.692  1.00  0.00    -0.237 OA
ATOM     76  O   UNL A   1      37.221  33.641  40.300  1.00  0.00    -0.237 OA
ATOM     77  O   UNL A   1      35.800  32.675  38.540  1.00  0.00    -0.744 OA
ENDBRANCH  71  74
ENDBRANCH  53  67
BRANCH  54  78
ATOM     78  C   UNL A   1      42.636  26.722  28.629  1.00  0.00     0.023 A 
ATOM     79  C   UNL A   1      41.948  25.508  28.429  1.00  0.00     0.012 A 
ATOM     80  C   UNL A   1      43.722  27.029  27.786  1.00  0.00     0.148 A 
ATOM     81  C   UNL A   1      42.363  24.599  27.451  1.00  0.00     0.002 A 
ATOM     82  C   UNL A   1      44.082  26.155  26.765  1.00  0.00     0.091 A 
ATOM     83  F   UNL A   1      44.394  28.170  27.998  1.00  0.00    -0.205 F 
ATOM     84  C   UNL A   1      43.422  24.927  26.611  1.00  0.00     0.022 A 
BRANCH  82  85
ATOM     85  S   UNL A   1      45.317  26.599  25.538  1.00  0.00     0.127 S 
ATOM     86  O   UNL A   1      44.747  27.810  24.955  1.00  0.00    -0.237 OA
ATOM     87  O   UNL A   1      46.509  26.812  26.361  1.00  0.00    -0.237 OA
ATOM     88  O   UNL A   1      45.409  25.441  24.657  1.00  0.00    -0.744 OA
ENDBRANCH  82  85
ENDBRANCH  54  78
BRANCH  66  89
ATOM     89  C   UNL A   1      44.987  27.731  35.125  1.00  0.00     0.023 A 
ATOM     90  C   UNL A   1      46.234  28.389  35.104  1.00  0.00     0.012 A 
ATOM     91  C   UNL A   1      44.820  26.596  35.942  1.00  0.00     0.148 A 
ATOM     92  C   UNL A   1      47.302  27.911  35.863  1.00  0.00     0.002 A 
ATOM     93  C   UNL A   1      45.874  26.153  36.731  1.00  0.00     0.091 A 
ATOM     94  F   UNL A   1      43.632  25.973  35.935  1.00  0.00    -0.205 F 
ATOM     95  C   UNL A   1      47.119  26.802  36.684  1.00  0.00     0.022 A 
BRANCH  93  96
ATOM     96  S   UNL A   1      45.703  24.793  37.894  1.00  0.00     0.127 S 
ATOM     97  O   UNL A   1      44.262  24.790  38.138  1.00  0.00    -0.237 OA
ATOM     98  O   UNL A   1      46.192  23.655  37.116  1.00  0.00    -0.237 OA
ATOM     99  O   UNL A   1      46.531  25.140  39.042  1.00  0.00    -0.744 OA
ENDBRANCH  93  96
ENDBRANCH  66  89
ENDBRANCH  40  41
ENDBRANCH  32  35
ENDBRANCH  30  31
ENDBRANCH  29  30
ENDBRANCH  28  29
ENDBRANCH   3  28
TORSDOF 19
ENDMDL
MODEL 3
REMARK VINA RESULT:     -11.4      3.155      4.351
REMARK SMILES NC(=O)COc1ccc(/C=C2\SC(=S)N(CCC(=O)NCCCNC(=O)c3ccc(-c4c5nc(c(-c6cccc(S(=O)(=O)[O-])c6F)c6ccc([nH]6)c(-c6cccc(S(=O)(=O)[O-])c6F)c6nc(c(-c7cccc(S(=O)(=O)[O-])c7F)c7ccc4[nH]7)C=C6)C=C5)cc3)C2=O)cc1
REMARK SMILES IDX 18 1 19 2 20 3 17 5 16 6 15 7 10 8 11 9 12 10 90 11 13 12
REMARK SMILES IDX 91 13 14 14 9 15 6 16 7 17 93 18 8 19 92 20 5 21 4 22 2 23
REMARK SMILES IDX 1 24 3 27 21 28 22 29 23 30 24 31 25 32 26 34 27 35 28 36
REMARK SMILES IDX 89 37 29 38 88 39 30 40 31 41 32 42 82 43 33 44 87 45 81 46
REMARK SMILES IDX 83 47 34 48 86 49 80 50 79 51 35 53 67 54 47 55 66 56 48 57
REMARK SMILES IDX 51 58 65 59 84 60 49 61 50 62 64 64 85 65 52 66 36 67 37 68
REMARK SMILES IDX 45 69 38 70 40 71 46 72 39 73 41 74 42 75 43 76 44 77 68 78
REMARK SMILES IDX 69 79 77 80 70 81 72 82 78 83 71 84 73 85 74 86 75 87 76 88
REMARK SMILES IDX 53 89 54 90 62 91 55 92 57 93 63 94 56 95 58 96 59 97 60 98
REMARK SMILES IDX 61 99
REMARK H PARENT 20 4 1 25 1 26 24 33 83 52 51 63
REMARK Flexibility Score: inf
ROOT
ATOM      1  C   UNL A   1      30.940  29.586  23.723  1.00  0.00     0.221 C 
ATOM      2  O   UNL A   1      30.200  29.755  22.751  1.00  0.00    -0.275 OA
ATOM      3  N   UNL A   1      30.832  30.456  24.767  1.00  0.00    -0.356 N 
ATOM      4  H   UNL A   1      30.099  31.107  24.676  1.00  0.00     0.163 HD
ENDROOT
BRANCH   1   5
ATOM      5  C   UNL A   1      31.890  28.408  23.765  1.00  0.00     0.122 C 
BRANCH   5   6
ATOM      6  C   UNL A   1      31.922  27.619  22.449  1.00  0.00     0.137 C 
BRANCH   6   7
ATOM      7  N   UNL A   1      31.670  26.191  22.672  1.00  0.00    -0.292 N 
ATOM      8  C   UNL A   1      33.316  23.040  22.966  1.00  0.00     0.029 C 
ATOM      9  C   UNL A   1      32.347  23.957  22.880  1.00  0.00     0.081 C 
ATOM     10  S   UNL A   1      30.783  23.938  23.574  1.00  0.00    -0.054 SA
ATOM     11  C   UNL A   1      32.621  25.279  22.256  1.00  0.00     0.266 C 
ATOM     12  C   UNL A   1      30.565  25.668  23.316  1.00  0.00     0.148 C 
ATOM     13  O   UNL A   1      33.601  25.523  21.574  1.00  0.00    -0.268 OA
ATOM     14  S   UNL A   1      29.218  26.486  23.868  1.00  0.00    -0.052 S 
BRANCH   8  15
ATOM     15  C   UNL A   1      33.235  21.731  23.601  1.00  0.00    -0.024 A 
ATOM     16  C   UNL A   1      32.880  19.421  25.150  1.00  0.00     0.120 A 
ATOM     17  C   UNL A   1      32.240  19.542  23.915  1.00  0.00     0.047 A 
ATOM     18  C   UNL A   1      33.751  20.425  25.562  1.00  0.00     0.047 A 
ATOM     19  C   UNL A   1      32.402  20.704  23.147  1.00  0.00     0.012 A 
ATOM     20  C   UNL A   1      33.946  21.561  24.783  1.00  0.00     0.012 A 
BRANCH  16  21
ATOM     21  O   UNL A   1      32.651  18.276  25.863  1.00  0.00    -0.484 OA
BRANCH  21  22
ATOM     22  C   UNL A   1      32.549  17.081  25.087  1.00  0.00     0.329 C 
BRANCH  22  23
ATOM     23  C   UNL A   1      33.843  16.497  24.507  1.00  0.00     0.255 C 
ATOM     24  N   UNL A   1      34.925  16.486  25.338  1.00  0.00    -0.367 N 
ATOM     25  H   UNL A   1      35.785  16.123  25.022  1.00  0.00     0.159 HD
ATOM     26  H   UNL A   1      34.847  16.839  26.253  1.00  0.00     0.159 HD
ATOM     27  O   UNL A   1      33.932  16.070  23.361  1.00  0.00    -0.271 OA
ENDBRANCH  22  23
ENDBRANCH  21  22
ENDBRANCH  16  21
ENDBRANCH   8  15
ENDBRANCH   6   7
ENDBRANCH   5   6
ENDBRANCH   1   5
BRANCH   3  28
ATOM     28  C   UNL A   1      31.607  30.595  25.992  1.00  0.00     0.117 C 
BRANCH  28  29
ATOM     29  C   UNL A   1      32.078  29.244  26.520  1.00  0.00     0.042 C 
BRANCH  29  30
ATOM     30  C   UNL A   1      33.353  29.247  27.360  1.00  0.00     0.118 C 
BRANCH  30  31
ATOM     31  N   UNL A   1      33.611  30.549  27.946  1.00  0.00    -0.352 N 
ATOM     32  C   UNL A   1      34.692  31.115  28.578  1.00  0.00     0.251 C 
ATOM     33  H   UNL A   1      32.844  31.161  27.876  1.00  0.00     0.163 HD
ATOM     34  O   UNL A   1      34.480  32.199  29.132  1.00  0.00    -0.269 OA
BRANCH  32  35
ATOM     35  C   UNL A   1      36.066  30.529  28.659  1.00  0.00     0.039 A 
ATOM     36  C   UNL A   1      36.288  29.591  29.683  1.00  0.00     0.014 A 
ATOM     37  C   UNL A   1      37.166  30.929  27.896  1.00  0.00     0.014 A 
ATOM     38  C   UNL A   1      37.560  29.052  29.923  1.00  0.00     0.010 A 
ATOM     39  C   UNL A   1      38.442  30.367  28.116  1.00  0.00     0.010 A 
ATOM     40  C   UNL A   1      38.653  29.434  29.142  1.00  0.00    -0.014 A 
BRANCH  40  41
ATOM     41  C   UNL A   1      40.020  28.951  29.495  1.00  0.00     0.031 A 
ATOM     42  C   UNL A   1      40.751  29.576  30.644  1.00  0.00     0.074 A 
ATOM     43  C   UNL A   1      40.600  27.936  28.827  1.00  0.00     0.049 A 
ATOM     44  N   UNL A   1      41.932  29.286  31.123  1.00  0.00    -0.248 NA
ATOM     45  C   UNL A   1      40.073  30.684  31.333  1.00  0.00     0.031 C 
ATOM     46  C   UNL A   1      40.013  27.277  27.673  1.00  0.00     0.029 A 
ATOM     47  N   UNL A   1      41.791  27.274  29.010  1.00  0.00    -0.354 N 
ATOM     48  C   UNL A   1      42.165  30.206  32.134  1.00  0.00     0.074 A 
ATOM     49  C   UNL A   1      40.993  31.052  32.214  1.00  0.00     0.031 C 
ATOM     50  C   UNL A   1      40.797  26.258  27.286  1.00  0.00     0.029 A 
ATOM     51  C   UNL A   1      41.989  26.230  28.129  1.00  0.00     0.049 A 
ATOM     52  H   UNL A   1      42.442  27.521  29.706  1.00  0.00     0.167 HD
ATOM     53  C   UNL A   1      43.261  30.341  32.916  1.00  0.00     0.034 A 
ATOM     54  C   UNL A   1      43.016  25.363  28.008  1.00  0.00     0.034 A 
ATOM     55  C   UNL A   1      44.425  29.502  32.841  1.00  0.00     0.049 A 
ATOM     56  C   UNL A   1      44.203  25.513  28.930  1.00  0.00     0.074 A 
ATOM     57  C   UNL A   1      45.594  29.587  33.578  1.00  0.00     0.029 A 
ATOM     58  N   UNL A   1      44.573  28.425  31.981  1.00  0.00    -0.354 N 
ATOM     59  N   UNL A   1      44.377  26.351  29.923  1.00  0.00    -0.248 NA
ATOM     60  C   UNL A   1      45.339  24.602  28.711  1.00  0.00     0.031 C 
ATOM     61  C   UNL A   1      46.456  28.572  33.151  1.00  0.00     0.029 A 
ATOM     62  C   UNL A   1      45.812  27.837  32.169  1.00  0.00     0.049 A 
ATOM     63  H   UNL A   1      43.897  28.123  31.332  1.00  0.00     0.167 HD
ATOM     64  C   UNL A   1      45.628  26.058  30.455  1.00  0.00     0.074 A 
ATOM     65  C   UNL A   1      46.153  24.939  29.702  1.00  0.00     0.031 C 
ATOM     66  C   UNL A   1      46.298  26.685  31.453  1.00  0.00     0.034 A 
BRANCH  53  67
ATOM     67  C   UNL A   1      43.252  31.460  33.919  1.00  0.00     0.023 A 
ATOM     68  C   UNL A   1      43.786  32.717  33.571  1.00  0.00     0.012 A 
ATOM     69  C   UNL A   1      42.686  31.273  35.195  1.00  0.00     0.148 A 
ATOM     70  C   UNL A   1      43.784  33.764  34.490  1.00  0.00     0.002 A 
ATOM     71  C   UNL A   1      42.651  32.334  36.091  1.00  0.00     0.091 A 
ATOM     72  F   UNL A   1      42.205  30.062  35.510  1.00  0.00    -0.205 F 
ATOM     73  C   UNL A   1      43.209  33.576  35.745  1.00  0.00     0.022 A 
BRANCH  71  74
ATOM     74  S   UNL A   1      41.877  32.212  37.707  1.00  0.00     0.127 S 
ATOM     75  O   UNL A   1      42.673  31.158  38.335  1.00  0.00    -0.237 OA
ATOM     76  O   UNL A   1      42.099  33.551  38.254  1.00  0.00    -0.237 OA
ATOM     77  O   UNL A   1      40.482  31.876  37.462  1.00  0.00    -0.744 OA
ENDBRANCH  71  74
ENDBRANCH  53  67
BRANCH  54  78
ATOM     78  C   UNL A   1      42.982  24.256  27.003  1.00  0.00     0.023 A 
ATOM     79  C   UNL A   1      43.701  24.395  25.797  1.00  0.00     0.012 A 
ATOM     80  C   UNL A   1      42.237  23.079  27.211  1.00  0.00     0.148 A 
ATOM     81  C   UNL A   1      43.636  23.415  24.804  1.00  0.00     0.002 A 
ATOM     82  C   UNL A   1      42.238  22.072  26.250  1.00  0.00     0.091 A 
ATOM     83  F   UNL A   1      41.531  22.962  28.345  1.00  0.00    -0.205 F 
ATOM     84  C   UNL A   1      42.914  22.248  25.035  1.00  0.00     0.022 A 
BRANCH  82  85
ATOM     85  S   UNL A   1      41.479  20.474  26.562  1.00  0.00     0.127 S 
ATOM     86  O   UNL A   1      40.059  20.809  26.582  1.00  0.00    -0.237 OA
ATOM     87  O   UNL A   1      41.913  19.693  25.400  1.00  0.00    -0.237 OA
ATOM     88  O   UNL A   1      42.054  20.022  27.823  1.00  0.00    -0.744 OA
ENDBRANCH  82  85
ENDBRANCH  54  78
BRANCH  66  89
ATOM     89  C   UNL A   1      47.669  26.172  31.809  1.00  0.00     0.023 A 
ATOM     90  C   UNL A   1      48.795  26.636  31.098  1.00  0.00     0.012 A 
ATOM     91  C   UNL A   1      47.853  25.306  32.904  1.00  0.00     0.148 A 
ATOM     92  C   UNL A   1      50.079  26.225  31.456  1.00  0.00     0.002 A 
ATOM     93  C   UNL A   1      49.138  24.937  33.284  1.00  0.00     0.091 A 
ATOM     94  F   UNL A   1      46.769  24.861  33.557  1.00  0.00    -0.205 F 
ATOM     95  C   UNL A   1      50.251  25.386  32.554  1.00  0.00     0.022 A 
BRANCH  93  96
ATOM     96  S   UNL A   1      49.464  23.940  34.744  1.00  0.00     0.127 S 
ATOM     97  O   UNL A   1      48.879  22.655  34.363  1.00  0.00    -0.237 OA
ATOM     98  O   UNL A   1      50.925  23.950  34.807  1.00  0.00    -0.237 OA
ATOM     99  O   UNL A   1      48.807  24.623  35.850  1.00  0.00    -0.744 OA
ENDBRANCH  93  96
ENDBRANCH  66  89
ENDBRANCH  40  41
ENDBRANCH  32  35
ENDBRANCH  30  31
ENDBRANCH  29  30
ENDBRANCH  28  29
ENDBRANCH   3  28
TORSDOF 19
ENDMDL
