MODEL 1
REMARK VINA RESULT:      -9.9      0.000      0.000
REMARK SMILES CCCCOCc1cc(C(=O)NCCCNC(=O)c2ccc(-c3c4nc(c(-c5cccc(S(=O)(=O)[O-])c5F)c5ccc([nH]5)c(-c5cccc(S(=O)(=O)[O-])c5F)c5nc(c(-c6cccc(S(=O)(=O)[O-])c6F)c6ccc3[nH]6)C=C5)C=C4)cc2)[nH]n1
REMARK SMILES IDX 13 1 12 2 10 3 11 4 9 6 7 7 8 8 83 9 82 10 6 12 5 13 4 14
REMARK SMILES IDX 3 15 2 16 1 17 14 18 15 19 16 20 17 21 18 23 19 24 20 25
REMARK SMILES IDX 81 26 21 27 80 28 22 29 23 30 24 31 74 32 25 33 79 34 73 35
REMARK SMILES IDX 75 36 26 37 78 38 72 39 71 40 27 42 59 43 39 44 58 45 40 46
REMARK SMILES IDX 43 47 57 48 76 49 41 50 42 51 56 53 77 54 44 55 28 56 29 57
REMARK SMILES IDX 37 58 30 59 32 60 38 61 31 62 33 63 34 64 35 65 36 66 60 67
REMARK SMILES IDX 61 68 69 69 62 70 64 71 70 72 63 73 65 74 66 75 67 76 68 77
REMARK SMILES IDX 45 78 46 79 54 80 47 81 49 82 55 83 48 84 50 85 51 86 52 87
REMARK SMILES IDX 53 88
REMARK H PARENT 12 5 82 11 16 22 75 41 43 52
REMARK Flexibility Score: inf
ROOT
ATOM      1  C   UNL A   1      42.199  19.477  25.748  1.00  0.00     0.118 C 
ENDROOT
BRANCH   1   2
ATOM      2  N   UNL A   1      43.390  18.642  25.737  1.00  0.00    -0.351 N 
ATOM      3  C   UNL A   1      44.668  18.918  25.315  1.00  0.00     0.269 C 
ATOM      4  O   UNL A   1      45.478  17.991  25.284  1.00  0.00    -0.268 OA
ATOM      5  H   UNL A   1      43.260  17.732  26.088  1.00  0.00     0.163 HD
BRANCH   3   6
ATOM      6  C   UNL A   1      45.010  20.231  24.848  1.00  0.00     0.123 A 
ATOM      7  C   UNL A   1      45.428  22.395  24.593  1.00  0.00     0.089 A 
ATOM      8  C   UNL A   1      45.809  21.249  25.331  1.00  0.00     0.061 A 
ATOM      9  N   UNL A   1      44.695  22.052  23.523  1.00  0.00    -0.178 NA
ATOM     10  N   UNL A   1      44.511  20.727  23.673  1.00  0.00    -0.273 N 
ATOM     11  H   UNL A   1      44.062  20.166  23.000  1.00  0.00     0.190 HD
BRANCH   7  12
ATOM     12  C   UNL A   1      45.685  23.837  24.917  1.00  0.00     0.218 C 
BRANCH  12  13
ATOM     13  O   UNL A   1      46.602  24.092  25.993  1.00  0.00    -0.375 OA
BRANCH  13  14
ATOM     14  C   UNL A   1      46.164  24.912  27.074  1.00  0.00     0.160 C 
BRANCH  14  15
ATOM     15  C   UNL A   1      45.701  24.204  28.347  1.00  0.00     0.028 C 
BRANCH  15  16
ATOM     16  C   UNL A   1      44.360  23.465  28.291  1.00  0.00    -0.001 C 
ATOM     17  C   UNL A   1      43.731  23.176  29.646  1.00  0.00     0.004 C 
ENDBRANCH  15  16
ENDBRANCH  14  15
ENDBRANCH  13  14
ENDBRANCH  12  13
ENDBRANCH   7  12
ENDBRANCH   3   6
ENDBRANCH   1   2
BRANCH   1  18
ATOM     18  C   UNL A   1      42.254  20.618  26.755  1.00  0.00     0.042 C 
BRANCH  18  19
ATOM     19  C   UNL A   1      41.755  21.956  26.227  1.00  0.00     0.118 C 
BRANCH  19  20
ATOM     20  N   UNL A   1      40.329  21.952  25.926  1.00  0.00    -0.352 N 
ATOM     21  C   UNL A   1      39.345  22.863  26.219  1.00  0.00     0.251 C 
ATOM     22  H   UNL A   1      40.019  21.161  25.429  1.00  0.00     0.163 HD
ATOM     23  O   UNL A   1      38.172  22.559  26.006  1.00  0.00    -0.269 OA
BRANCH  21  24
ATOM     24  C   UNL A   1      39.667  24.188  26.798  1.00  0.00     0.039 A 
ATOM     25  C   UNL A   1      39.447  24.399  28.163  1.00  0.00     0.014 A 
ATOM     26  C   UNL A   1      40.146  25.233  26.007  1.00  0.00     0.014 A 
ATOM     27  C   UNL A   1      39.772  25.630  28.743  1.00  0.00     0.010 A 
ATOM     28  C   UNL A   1      40.552  26.428  26.599  1.00  0.00     0.010 A 
ATOM     29  C   UNL A   1      40.364  26.643  27.972  1.00  0.00    -0.014 A 
BRANCH  29  30
ATOM     30  C   UNL A   1      40.792  27.933  28.576  1.00  0.00     0.031 A 
ATOM     31  C   UNL A   1      42.256  28.223  28.790  1.00  0.00     0.074 A 
ATOM     32  C   UNL A   1      39.862  28.807  29.012  1.00  0.00     0.049 A 
ATOM     33  N   UNL A   1      42.816  29.250  29.376  1.00  0.00    -0.248 NA
ATOM     34  C   UNL A   1      43.214  27.215  28.306  1.00  0.00     0.031 C 
ATOM     35  C   UNL A   1      38.413  28.615  28.928  1.00  0.00     0.029 A 
ATOM     36  N   UNL A   1      39.997  30.022  29.637  1.00  0.00    -0.354 N 
ATOM     37  C   UNL A   1      44.183  28.998  29.360  1.00  0.00     0.074 A 
ATOM     38  C   UNL A   1      44.366  27.702  28.743  1.00  0.00     0.031 C 
ATOM     39  C   UNL A   1      37.794  29.675  29.471  1.00  0.00     0.029 A 
ATOM     40  C   UNL A   1      38.798  30.607  29.973  1.00  0.00     0.049 A 
ATOM     41  H   UNL A   1      40.871  30.435  29.827  1.00  0.00     0.167 HD
ATOM     42  C   UNL A   1      45.199  29.787  29.785  1.00  0.00     0.034 A 
ATOM     43  C   UNL A   1      38.537  31.762  30.616  1.00  0.00     0.034 A 
ATOM     44  C   UNL A   1      45.020  31.094  30.356  1.00  0.00     0.049 A 
ATOM     45  C   UNL A   1      39.686  32.631  31.054  1.00  0.00     0.074 A 
ATOM     46  C   UNL A   1      45.988  31.997  30.761  1.00  0.00     0.029 A 
ATOM     47  N   UNL A   1      43.792  31.690  30.599  1.00  0.00    -0.354 N 
ATOM     48  N   UNL A   1      40.974  32.436  30.904  1.00  0.00    -0.248 NA
ATOM     49  C   UNL A   1      39.345  33.899  31.716  1.00  0.00     0.031 C 
ATOM     50  C   UNL A   1      45.344  33.136  31.258  1.00  0.00     0.029 A 
ATOM     51  C   UNL A   1      43.975  32.948  31.143  1.00  0.00     0.049 A 
ATOM     52  H   UNL A   1      42.917  31.278  30.409  1.00  0.00     0.167 HD
ATOM     53  C   UNL A   1      41.593  33.571  31.412  1.00  0.00     0.074 A 
ATOM     54  C   UNL A   1      40.539  34.460  31.856  1.00  0.00     0.031 C 
ATOM     55  C   UNL A   1      42.916  33.849  31.518  1.00  0.00     0.034 A 
BRANCH  42  56
ATOM     56  C   UNL A   1      46.607  29.286  29.583  1.00  0.00     0.023 A 
ATOM     57  C   UNL A   1      47.212  28.509  30.593  1.00  0.00     0.012 A 
ATOM     58  C   UNL A   1      47.305  29.522  28.383  1.00  0.00     0.148 A 
ATOM     59  C   UNL A   1      48.501  28.006  30.428  1.00  0.00     0.002 A 
ATOM     60  C   UNL A   1      48.573  28.980  28.207  1.00  0.00     0.091 A 
ATOM     61  F   UNL A   1      46.722  30.278  27.442  1.00  0.00    -0.205 F 
ATOM     62  C   UNL A   1      49.177  28.232  29.232  1.00  0.00     0.022 A 
BRANCH  60  63
ATOM     63  S   UNL A   1      49.498  29.147  26.677  1.00  0.00     0.127 S 
ATOM     64  O   UNL A   1      48.567  28.575  25.705  1.00  0.00    -0.237 OA
ATOM     65  O   UNL A   1      49.669  30.597  26.577  1.00  0.00    -0.237 OA
ATOM     66  O   UNL A   1      50.734  28.401  26.870  1.00  0.00    -0.744 OA
ENDBRANCH  60  63
ENDBRANCH  42  56
BRANCH  43  67
ATOM     67  C   UNL A   1      37.128  32.207  30.823  1.00  0.00     0.023 A 
ATOM     68  C   UNL A   1      36.539  32.050  32.093  1.00  0.00     0.012 A 
ATOM     69  C   UNL A   1      36.375  32.783  29.784  1.00  0.00     0.148 A 
ATOM     70  C   UNL A   1      35.211  32.422  32.313  1.00  0.00     0.002 A 
ATOM     71  C   UNL A   1      35.071  33.203  30.024  1.00  0.00     0.091 A 
ATOM     72  F   UNL A   1      36.946  32.912  28.578  1.00  0.00    -0.205 F 
ATOM     73  C   UNL A   1      34.480  33.006  31.282  1.00  0.00     0.022 A 
BRANCH  71  74
ATOM     74  S   UNL A   1      34.105  34.083  28.792  1.00  0.00     0.127 S 
ATOM     75  O   UNL A   1      35.032  35.132  28.376  1.00  0.00    -0.237 OA
ATOM     76  O   UNL A   1      33.862  33.042  27.792  1.00  0.00    -0.237 OA
ATOM     77  O   UNL A   1      32.906  34.531  29.488  1.00  0.00    -0.744 OA
ENDBRANCH  71  74
ENDBRANCH  43  67
BRANCH  55  78
ATOM     78  C   UNL A   1      43.305  35.186  32.091  1.00  0.00     0.023 A 
ATOM     79  C   UNL A   1      43.579  36.266  31.230  1.00  0.00     0.012 A 
ATOM     80  C   UNL A   1      43.330  35.390  33.486  1.00  0.00     0.148 A 
ATOM     81  C   UNL A   1      43.905  37.520  31.746  1.00  0.00     0.002 A 
ATOM     82  C   UNL A   1      43.608  36.652  33.992  1.00  0.00     0.091 A 
ATOM     83  F   UNL A   1      43.085  34.344  34.289  1.00  0.00    -0.205 F 
ATOM     84  C   UNL A   1      43.907  37.715  33.125  1.00  0.00     0.022 A 
BRANCH  82  85
ATOM     85  S   UNL A   1      43.539  37.020  35.750  1.00  0.00     0.127 S 
ATOM     86  O   UNL A   1      43.917  38.432  35.773  1.00  0.00    -0.237 OA
ATOM     87  O   UNL A   1      42.136  36.759  36.068  1.00  0.00    -0.237 OA
ATOM     88  O   UNL A   1      44.482  36.110  36.385  1.00  0.00    -0.744 OA
ENDBRANCH  82  85
ENDBRANCH  55  78
ENDBRANCH  29  30
ENDBRANCH  21  24
ENDBRANCH  19  20
ENDBRANCH  18  19
ENDBRANCH   1  18
TORSDOF 18
ENDMDL
MODEL 2
REMARK VINA RESULT:      -9.8      4.119     10.258
REMARK SMILES CCCCOCc1cc(C(=O)NCCCNC(=O)c2ccc(-c3c4nc(c(-c5cccc(S(=O)(=O)[O-])c5F)c5ccc([nH]5)c(-c5cccc(S(=O)(=O)[O-])c5F)c5nc(c(-c6cccc(S(=O)(=O)[O-])c6F)c6ccc3[nH]6)C=C5)C=C4)cc2)[nH]n1
REMARK SMILES IDX 13 1 12 2 10 3 11 4 9 6 7 7 8 8 83 9 82 10 6 12 5 13 4 14
REMARK SMILES IDX 3 15 2 16 1 17 14 18 15 19 16 20 17 21 18 23 19 24 20 25
REMARK SMILES IDX 81 26 21 27 80 28 22 29 23 30 24 31 74 32 25 33 79 34 73 35
REMARK SMILES IDX 75 36 26 37 78 38 72 39 71 40 27 42 59 43 39 44 58 45 40 46
REMARK SMILES IDX 43 47 57 48 76 49 41 50 42 51 56 53 77 54 44 55 28 56 29 57
REMARK SMILES IDX 37 58 30 59 32 60 38 61 31 62 33 63 34 64 35 65 36 66 60 67
REMARK SMILES IDX 61 68 69 69 62 70 64 71 70 72 63 73 65 74 66 75 67 76 68 77
REMARK SMILES IDX 45 78 46 79 54 80 47 81 49 82 55 83 48 84 50 85 51 86 52 87
REMARK SMILES IDX 53 88
REMARK H PARENT 12 5 82 11 16 22 75 41 43 52
REMARK Flexibility Score: inf
ROOT
ATOM      1  C   UNL A   1      34.265  22.494  23.905  1.00  0.00     0.118 C 
ENDROOT
BRANCH   1   2
ATOM      2  N   UNL A   1      33.546  21.279  24.251  1.00  0.00    -0.351 N 
ATOM      3  C   UNL A   1      32.412  21.097  25.006  1.00  0.00     0.269 C 
ATOM      4  O   UNL A   1      32.072  19.943  25.268  1.00  0.00    -0.268 OA
ATOM      5  H   UNL A   1      33.935  20.451  23.887  1.00  0.00     0.163 HD
BRANCH   3   6
ATOM      6  C   UNL A   1      31.706  22.229  25.535  1.00  0.00     0.123 A 
ATOM      7  C   UNL A   1      30.901  24.234  26.040  1.00  0.00     0.089 A 
ATOM      8  C   UNL A   1      31.072  23.319  24.973  1.00  0.00     0.061 A 
ATOM      9  N   UNL A   1      31.110  23.633  27.221  1.00  0.00    -0.178 NA
ATOM     10  N   UNL A   1      31.536  22.402  26.883  1.00  0.00    -0.273 N 
ATOM     11  H   UNL A   1      31.708  21.692  27.543  1.00  0.00     0.190 HD
BRANCH   7  12
ATOM     12  C   UNL A   1      30.609  25.703  25.967  1.00  0.00     0.218 C 
BRANCH  12  13
ATOM     13  O   UNL A   1      31.128  26.507  27.040  1.00  0.00    -0.375 OA
BRANCH  13  14
ATOM     14  C   UNL A   1      32.116  27.487  26.732  1.00  0.00     0.160 C 
BRANCH  14  15
ATOM     15  C   UNL A   1      33.408  26.997  26.079  1.00  0.00     0.028 C 
BRANCH  15  16
ATOM     16  C   UNL A   1      33.612  27.322  24.596  1.00  0.00    -0.001 C 
ATOM     17  C   UNL A   1      33.663  26.111  23.677  1.00  0.00     0.004 C 
ENDBRANCH  15  16
ENDBRANCH  14  15
ENDBRANCH  13  14
ENDBRANCH  12  13
ENDBRANCH   7  12
ENDBRANCH   3   6
ENDBRANCH   1   2
BRANCH   1  18
ATOM     18  C   UNL A   1      35.770  22.404  24.121  1.00  0.00     0.042 C 
BRANCH  18  19
ATOM     19  C   UNL A   1      36.187  22.015  25.533  1.00  0.00     0.118 C 
BRANCH  19  20
ATOM     20  N   UNL A   1      37.185  20.953  25.557  1.00  0.00    -0.352 N 
ATOM     21  C   UNL A   1      38.533  20.991  25.820  1.00  0.00     0.251 C 
ATOM     22  H   UNL A   1      36.834  20.057  25.350  1.00  0.00     0.163 HD
ATOM     23  O   UNL A   1      39.206  19.982  25.614  1.00  0.00    -0.269 OA
BRANCH  21  24
ATOM     24  C   UNL A   1      39.187  22.220  26.326  1.00  0.00     0.039 A 
ATOM     25  C   UNL A   1      40.298  22.096  27.166  1.00  0.00     0.014 A 
ATOM     26  C   UNL A   1      38.696  23.489  26.013  1.00  0.00     0.014 A 
ATOM     27  C   UNL A   1      40.954  23.240  27.633  1.00  0.00     0.010 A 
ATOM     28  C   UNL A   1      39.401  24.625  26.405  1.00  0.00     0.010 A 
ATOM     29  C   UNL A   1      40.533  24.515  27.225  1.00  0.00    -0.014 A 
BRANCH  29  30
ATOM     30  C   UNL A   1      41.258  25.746  27.641  1.00  0.00     0.031 A 
ATOM     31  C   UNL A   1      40.543  26.825  28.414  1.00  0.00     0.074 A 
ATOM     32  C   UNL A   1      42.536  25.931  27.251  1.00  0.00     0.049 A 
ATOM     33  N   UNL A   1      40.982  27.999  28.789  1.00  0.00    -0.248 NA
ATOM     34  C   UNL A   1      39.144  26.562  28.790  1.00  0.00     0.031 C 
ATOM     35  C   UNL A   1      43.319  24.995  26.441  1.00  0.00     0.029 A 
ATOM     36  N   UNL A   1      43.393  26.983  27.460  1.00  0.00    -0.354 N 
ATOM     37  C   UNL A   1      39.909  28.623  29.415  1.00  0.00     0.074 A 
ATOM     38  C   UNL A   1      38.786  27.716  29.332  1.00  0.00     0.031 C 
ATOM     39  C   UNL A   1      44.541  25.509  26.230  1.00  0.00     0.029 A 
ATOM     40  C   UNL A   1      44.620  26.824  26.858  1.00  0.00     0.049 A 
ATOM     41  H   UNL A   1      43.151  27.777  27.990  1.00  0.00     0.167 HD
ATOM     42  C   UNL A   1      39.869  29.827  30.035  1.00  0.00     0.034 A 
ATOM     43  C   UNL A   1      45.687  27.646  26.814  1.00  0.00     0.034 A 
ATOM     44  C   UNL A   1      40.998  30.709  30.157  1.00  0.00     0.049 A 
ATOM     45  C   UNL A   1      45.622  28.966  27.534  1.00  0.00     0.074 A 
ATOM     46  C   UNL A   1      41.076  31.922  30.819  1.00  0.00     0.029 A 
ATOM     47  N   UNL A   1      42.250  30.472  29.610  1.00  0.00    -0.354 N 
ATOM     48  N   UNL A   1      44.641  29.477  28.238  1.00  0.00    -0.248 NA
ATOM     49  C   UNL A   1      46.827  29.808  27.487  1.00  0.00     0.031 C 
ATOM     50  C   UNL A   1      42.373  32.424  30.663  1.00  0.00     0.029 A 
ATOM     51  C   UNL A   1      43.107  31.512  29.922  1.00  0.00     0.049 A 
ATOM     52  H   UNL A   1      42.493  29.679  29.078  1.00  0.00     0.167 HD
ATOM     53  C   UNL A   1      45.123  30.676  28.750  1.00  0.00     0.074 A 
ATOM     54  C   UNL A   1      46.491  30.806  28.294  1.00  0.00     0.031 C 
ATOM     55  C   UNL A   1      44.487  31.595  29.517  1.00  0.00     0.034 A 
BRANCH  42  56
ATOM     56  C   UNL A   1      38.575  30.232  30.694  1.00  0.00     0.023 A 
ATOM     57  C   UNL A   1      38.338  29.856  32.033  1.00  0.00     0.012 A 
ATOM     58  C   UNL A   1      37.628  31.030  30.025  1.00  0.00     0.148 A 
ATOM     59  C   UNL A   1      37.167  30.238  32.683  1.00  0.00     0.002 A 
ATOM     60  C   UNL A   1      36.481  31.444  30.693  1.00  0.00     0.091 A 
ATOM     61  F   UNL A   1      37.861  31.363  28.746  1.00  0.00    -0.205 F 
ATOM     62  C   UNL A   1      36.244  31.039  32.017  1.00  0.00     0.022 A 
BRANCH  60  63
ATOM     63  S   UNL A   1      35.267  32.541  29.953  1.00  0.00     0.127 S 
ATOM     64  O   UNL A   1      36.090  33.696  29.597  1.00  0.00    -0.237 OA
ATOM     65  O   UNL A   1      34.795  31.754  28.814  1.00  0.00    -0.237 OA
ATOM     66  O   UNL A   1      34.264  32.784  30.981  1.00  0.00    -0.744 OA
ENDBRANCH  60  63
ENDBRANCH  42  56
BRANCH  43  67
ATOM     67  C   UNL A   1      46.939  27.219  26.124  1.00  0.00     0.023 A 
ATOM     68  C   UNL A   1      47.091  27.489  24.750  1.00  0.00     0.012 A 
ATOM     69  C   UNL A   1      47.972  26.557  26.811  1.00  0.00     0.148 A 
ATOM     70  C   UNL A   1      48.233  27.072  24.064  1.00  0.00     0.002 A 
ATOM     71  C   UNL A   1      49.132  26.193  26.134  1.00  0.00     0.091 A 
ATOM     72  F   UNL A   1      47.805  26.295  28.115  1.00  0.00    -0.205 F 
ATOM     73  C   UNL A   1      49.256  26.433  24.757  1.00  0.00     0.022 A 
BRANCH  71  74
ATOM     74  S   UNL A   1      50.551  25.485  26.977  1.00  0.00     0.127 S 
ATOM     75  O   UNL A   1      50.925  26.561  27.892  1.00  0.00    -0.237 OA
ATOM     76  O   UNL A   1      49.970  24.305  27.617  1.00  0.00    -0.237 OA
ATOM     77  O   UNL A   1      51.513  25.180  25.926  1.00  0.00    -0.744 OA
ENDBRANCH  71  74
ENDBRANCH  43  67
BRANCH  55  78
ATOM     78  C   UNL A   1      45.273  32.802  29.956  1.00  0.00     0.023 A 
ATOM     79  C   UNL A   1      46.026  32.755  31.145  1.00  0.00     0.012 A 
ATOM     80  C   UNL A   1      45.320  33.959  29.152  1.00  0.00     0.148 A 
ATOM     81  C   UNL A   1      46.788  33.851  31.546  1.00  0.00     0.002 A 
ATOM     82  C   UNL A   1      46.119  35.030  29.533  1.00  0.00     0.091 A 
ATOM     83  F   UNL A   1      44.582  33.992  28.034  1.00  0.00    -0.205 F 
ATOM     84  C   UNL A   1      46.844  34.983  30.735  1.00  0.00     0.022 A 
BRANCH  82  85
ATOM     85  S   UNL A   1      46.328  36.488  28.504  1.00  0.00     0.127 S 
ATOM     86  O   UNL A   1      47.257  37.285  29.303  1.00  0.00    -0.237 OA
ATOM     87  O   UNL A   1      46.902  35.927  27.281  1.00  0.00    -0.237 OA
ATOM     88  O   UNL A   1      44.997  37.055  28.341  1.00  0.00    -0.744 OA
ENDBRANCH  82  85
ENDBRANCH  55  78
ENDBRANCH  29  30
ENDBRANCH  21  24
ENDBRANCH  19  20
ENDBRANCH  18  19
ENDBRANCH   1  18
TORSDOF 18
ENDMDL
MODEL 3
REMARK VINA RESULT:      -9.7      1.769      2.138
REMARK SMILES CCCCOCc1cc(C(=O)NCCCNC(=O)c2ccc(-c3c4nc(c(-c5cccc(S(=O)(=O)[O-])c5F)c5ccc([nH]5)c(-c5cccc(S(=O)(=O)[O-])c5F)c5nc(c(-c6cccc(S(=O)(=O)[O-])c6F)c6ccc3[nH]6)C=C5)C=C4)cc2)[nH]n1
REMARK SMILES IDX 13 1 12 2 10 3 11 4 9 6 7 7 8 8 83 9 82 10 6 12 5 13 4 14
REMARK SMILES IDX 3 15 2 16 1 17 14 18 15 19 16 20 17 21 18 23 19 24 20 25
REMARK SMILES IDX 81 26 21 27 80 28 22 29 23 30 24 31 74 32 25 33 79 34 73 35
REMARK SMILES IDX 75 36 26 37 78 38 72 39 71 40 27 42 59 43 39 44 58 45 40 46
REMARK SMILES IDX 43 47 57 48 76 49 41 50 42 51 56 53 77 54 44 55 28 56 29 57
REMARK SMILES IDX 37 58 30 59 32 60 38 61 31 62 33 63 34 64 35 65 36 66 60 67
REMARK SMILES IDX 61 68 69 69 62 70 64 71 70 72 63 73 65 74 66 75 67 76 68 77
REMARK SMILES IDX 45 78 46 79 54 80 47 81 49 82 55 83 48 84 50 85 51 86 52 87
REMARK SMILES IDX 53 88
REMARK H PARENT 12 5 82 11 16 22 75 41 43 52
REMARK Flexibility Score: inf
ROOT
ATOM      1  C   UNL A   1      42.367  19.112  25.792  1.00  0.00     0.118 C 
ENDROOT
BRANCH   1   2
ATOM      2  N   UNL A   1      43.651  18.444  25.650  1.00  0.00    -0.351 N 
ATOM      3  C   UNL A   1      44.852  18.911  25.174  1.00  0.00     0.269 C 
ATOM      4  O   UNL A   1      45.769  18.102  25.028  1.00  0.00    -0.268 OA
ATOM      5  H   UNL A   1      43.661  17.503  25.941  1.00  0.00     0.163 HD
BRANCH   3   6
ATOM      6  C   UNL A   1      44.992  20.285  24.786  1.00  0.00     0.123 A 
ATOM      7  C   UNL A   1      44.989  22.498  24.623  1.00  0.00     0.089 A 
ATOM      8  C   UNL A   1      45.458  21.423  25.416  1.00  0.00     0.061 A 
ATOM      9  N   UNL A   1      44.555  22.058  23.432  1.00  0.00    -0.178 NA
ATOM     10  N   UNL A   1      44.628  20.719  23.539  1.00  0.00    -0.273 N 
ATOM     11  H   UNL A   1      44.438  20.108  22.791  1.00  0.00     0.190 HD
BRANCH   7  12
ATOM     12  C   UNL A   1      44.875  23.946  24.994  1.00  0.00     0.218 C 
BRANCH  12  13
ATOM     13  O   UNL A   1      45.926  24.807  24.525  1.00  0.00    -0.375 OA
BRANCH  13  14
ATOM     14  C   UNL A   1      47.142  24.854  25.267  1.00  0.00     0.160 C 
BRANCH  14  15
ATOM     15  C   UNL A   1      47.191  25.793  26.472  1.00  0.00     0.028 C 
BRANCH  15  16
ATOM     16  C   UNL A   1      47.829  25.255  27.756  1.00  0.00    -0.001 C 
ATOM     17  C   UNL A   1      49.288  24.845  27.622  1.00  0.00     0.004 C 
ENDBRANCH  15  16
ENDBRANCH  14  15
ENDBRANCH  13  14
ENDBRANCH  12  13
ENDBRANCH   7  12
ENDBRANCH   3   6
ENDBRANCH   1   2
BRANCH   1  18
ATOM     18  C   UNL A   1      42.062  19.566  27.214  1.00  0.00     0.042 C 
BRANCH  18  19
ATOM     19  C   UNL A   1      41.577  21.004  27.332  1.00  0.00     0.118 C 
BRANCH  19  20
ATOM     20  N   UNL A   1      40.327  21.242  26.621  1.00  0.00    -0.352 N 
ATOM     21  C   UNL A   1      39.562  22.377  26.501  1.00  0.00     0.251 C 
ATOM     22  H   UNL A   1      39.969  20.456  26.149  1.00  0.00     0.163 HD
ATOM     23  O   UNL A   1      38.449  22.289  25.984  1.00  0.00    -0.269 OA
BRANCH  21  24
ATOM     24  C   UNL A   1      40.043  23.688  26.993  1.00  0.00     0.039 A 
ATOM     25  C   UNL A   1      40.171  24.743  26.085  1.00  0.00     0.014 A 
ATOM     26  C   UNL A   1      40.406  23.878  28.327  1.00  0.00     0.014 A 
ATOM     27  C   UNL A   1      40.594  26.001  26.528  1.00  0.00     0.010 A 
ATOM     28  C   UNL A   1      40.741  25.151  28.785  1.00  0.00     0.010 A 
ATOM     29  C   UNL A   1      40.846  26.226  27.890  1.00  0.00    -0.014 A 
BRANCH  29  30
ATOM     30  C   UNL A   1      41.220  27.572  28.403  1.00  0.00     0.031 A 
ATOM     31  C   UNL A   1      42.671  27.947  28.565  1.00  0.00     0.074 A 
ATOM     32  C   UNL A   1      40.255  28.425  28.803  1.00  0.00     0.049 A 
ATOM     33  N   UNL A   1      43.190  29.035  29.073  1.00  0.00    -0.248 NA
ATOM     34  C   UNL A   1      43.670  26.958  28.124  1.00  0.00     0.031 C 
ATOM     35  C   UNL A   1      38.816  28.155  28.764  1.00  0.00     0.029 A 
ATOM     36  N   UNL A   1      40.341  29.682  29.347  1.00  0.00    -0.354 N 
ATOM     37  C   UNL A   1      44.567  28.851  29.041  1.00  0.00     0.074 A 
ATOM     38  C   UNL A   1      44.803  27.529  28.504  1.00  0.00     0.031 C 
ATOM     39  C   UNL A   1      38.155  29.216  29.253  1.00  0.00     0.029 A 
ATOM     40  C   UNL A   1      39.120  30.228  29.672  1.00  0.00     0.049 A 
ATOM     41  H   UNL A   1      41.195  30.149  29.491  1.00  0.00     0.167 HD
ATOM     42  C   UNL A   1      45.549  29.715  29.393  1.00  0.00     0.034 A 
ATOM     43  C   UNL A   1      38.813  31.407  30.247  1.00  0.00     0.034 A 
ATOM     44  C   UNL A   1      45.315  31.045  29.885  1.00  0.00     0.049 A 
ATOM     45  C   UNL A   1      39.924  32.358  30.603  1.00  0.00     0.074 A 
ATOM     46  C   UNL A   1      46.243  32.019  30.210  1.00  0.00     0.029 A 
ATOM     47  N   UNL A   1      44.063  31.594  30.117  1.00  0.00    -0.354 N 
ATOM     48  N   UNL A   1      41.217  32.217  30.437  1.00  0.00    -0.248 NA
ATOM     49  C   UNL A   1      39.532  33.647  31.192  1.00  0.00     0.031 C 
ATOM     50  C   UNL A   1      45.552  33.154  30.649  1.00  0.00     0.029 A 
ATOM     51  C   UNL A   1      44.193  32.892  30.577  1.00  0.00     0.049 A 
ATOM     52  H   UNL A   1      43.207  31.128  29.973  1.00  0.00     0.167 HD
ATOM     53  C   UNL A   1      41.788  33.412  30.859  1.00  0.00     0.074 A 
ATOM     54  C   UNL A   1      40.698  34.274  31.270  1.00  0.00     0.031 C 
ATOM     55  C   UNL A   1      43.096  33.761  30.917  1.00  0.00     0.034 A 
BRANCH  42  56
ATOM     56  C   UNL A   1      46.976  29.272  29.192  1.00  0.00     0.023 A 
ATOM     57  C   UNL A   1      47.680  28.703  30.274  1.00  0.00     0.012 A 
ATOM     58  C   UNL A   1      47.600  29.356  27.932  1.00  0.00     0.148 A 
ATOM     59  C   UNL A   1      48.990  28.256  30.116  1.00  0.00     0.002 A 
ATOM     60  C   UNL A   1      48.893  28.868  27.771  1.00  0.00     0.091 A 
ATOM     61  F   UNL A   1      46.924  29.917  26.919  1.00  0.00    -0.205 F 
ATOM     62  C   UNL A   1      49.592  28.330  28.863  1.00  0.00     0.022 A 
BRANCH  60  63
ATOM     63  S   UNL A   1      49.732  28.845  26.183  1.00  0.00     0.127 S 
ATOM     64  O   UNL A   1      48.633  28.522  25.273  1.00  0.00    -0.237 OA
ATOM     65  O   UNL A   1      50.228  30.217  26.076  1.00  0.00    -0.237 OA
ATOM     66  O   UNL A   1      50.770  27.830  26.291  1.00  0.00    -0.744 OA
ENDBRANCH  60  63
ENDBRANCH  42  56
BRANCH  43  67
ATOM     67  C   UNL A   1      37.387  31.794  30.457  1.00  0.00     0.023 A 
ATOM     68  C   UNL A   1      36.846  31.740  31.756  1.00  0.00     0.012 A 
ATOM     69  C   UNL A   1      36.571  32.216  29.391  1.00  0.00     0.148 A 
ATOM     70  C   UNL A   1      35.506  32.060  31.984  1.00  0.00     0.002 A 
ATOM     71  C   UNL A   1      35.253  32.587  29.633  1.00  0.00     0.091 A 
ATOM     72  F   UNL A   1      37.098  32.248  28.159  1.00  0.00    -0.205 F 
ATOM     73  C   UNL A   1      34.712  32.491  30.925  1.00  0.00     0.022 A 
BRANCH  71  74
ATOM     74  S   UNL A   1      34.201  33.278  28.352  1.00  0.00     0.127 S 
ATOM     75  O   UNL A   1      33.279  34.101  29.131  1.00  0.00    -0.237 OA
ATOM     76  O   UNL A   1      35.161  34.027  27.539  1.00  0.00    -0.237 OA
ATOM     77  O   UNL A   1      33.613  32.131  27.673  1.00  0.00    -0.744 OA
ENDBRANCH  71  74
ENDBRANCH  43  67
BRANCH  55  78
ATOM     78  C   UNL A   1      43.428  35.150  31.396  1.00  0.00     0.023 A 
ATOM     79  C   UNL A   1      43.660  35.384  32.766  1.00  0.00     0.012 A 
ATOM     80  C   UNL A   1      43.580  36.209  30.478  1.00  0.00     0.148 A 
ATOM     81  C   UNL A   1      44.004  36.656  33.219  1.00  0.00     0.002 A 
ATOM     82  C   UNL A   1      43.970  37.462  30.931  1.00  0.00     0.091 A 
ATOM     83  F   UNL A   1      43.337  35.971  29.181  1.00  0.00    -0.205 F 
ATOM     84  C   UNL A   1      44.170  37.691  32.302  1.00  0.00     0.022 A 
BRANCH  82  85
ATOM     85  S   UNL A   1      44.302  38.829  29.813  1.00  0.00     0.127 S 
ATOM     86  O   UNL A   1      45.422  38.308  29.030  1.00  0.00    -0.237 OA
ATOM     87  O   UNL A   1      43.044  38.941  29.076  1.00  0.00    -0.237 OA
ATOM     88  O   UNL A   1      44.609  39.973  30.660  1.00  0.00    -0.744 OA
ENDBRANCH  82  85
ENDBRANCH  55  78
ENDBRANCH  29  30
ENDBRANCH  21  24
ENDBRANCH  19  20
ENDBRANCH  18  19
ENDBRANCH   1  18
TORSDOF 18
ENDMDL
