MODEL 1
REMARK VINA RESULT:     -13.5      0.000      0.000
REMARK SMILES COc1ccccc1C(=O)N1[C@@H](C(=O)NCCCNC(=O)c2ccc(-c3c4nc(c(-c5cccc(S(=O)(=O)[O-])c5F)c5ccc([nH]5)c(-c5cccc(S(=O)(=O)[O-])c5F)c5nc(c(-c6cccc(S(=O)(=O)[O-])c6F)c6ccc3[nH]6)C=C5)C=C4)cc2)COC12CC[NH+](Cc1ccccc1)CC2
REMARK SMILES IDX 17 1 16 2 15 3 13 4 14 5 12 7 11 8 87 9 85 10 86 11 88 12
REMARK SMILES IDX 99 13 89 14 98 15 90 16 9 18 10 19 8 20 3 21 4 22 5 23 7 24
REMARK SMILES IDX 6 25 2 26 1 27 91 28 92 29 93 30 97 31 94 32 96 33 95 34
REMARK SMILES IDX 18 35 19 36 20 37 21 39 22 40 23 41 84 42 24 43 83 44 25 45
REMARK SMILES IDX 26 46 27 47 77 48 28 49 82 50 76 51 78 52 29 53 81 54 75 55
REMARK SMILES IDX 74 56 30 58 62 59 42 60 61 61 43 62 46 63 60 64 79 65 44 66
REMARK SMILES IDX 45 67 59 69 80 70 47 71 31 72 32 73 40 74 33 75 35 76 41 77
REMARK SMILES IDX 34 78 36 79 37 80 38 81 39 82 63 83 64 84 72 85 65 86 67 87
REMARK SMILES IDX 73 88 66 89 68 90 69 91 70 92 71 93 48 94 49 95 57 96 50 97
REMARK SMILES IDX 52 98 58 99 51 100 53 101 54 102 55 103 56 104
REMARK H PARENT 15 6 90 17 19 38 78 57 46 68
REMARK Flexibility Score: inf
ROOT
ATOM      1  C   UNL A   1      31.858  30.676  25.657  1.00  0.00     0.042 C 
ENDROOT
BRANCH   1   2
ATOM      2  C   UNL A   1      31.935  29.199  25.315  1.00  0.00     0.117 C 
BRANCH   2   3
ATOM      3  N   UNL A   1      31.342  28.306  26.278  1.00  0.00    -0.354 N 
ATOM      4  C   UNL A   1      31.702  27.016  26.543  1.00  0.00     0.245 C 
ATOM      5  O   UNL A   1      31.469  26.593  27.680  1.00  0.00    -0.273 OA
ATOM      6  H   UNL A   1      30.591  28.666  26.803  1.00  0.00     0.163 HD
BRANCH   4   7
ATOM      7  C   UNL A   1      32.355  26.114  25.480  1.00  0.00     0.203 C 
ATOM      8  N   UNL A   1      31.643  24.885  25.127  1.00  0.00    -0.295 N 
ATOM      9  C   UNL A   1      32.598  23.762  25.237  1.00  0.00     0.155 C 
ATOM     10  C   UNL A   1      33.747  25.672  25.873  1.00  0.00     0.198 C 
ATOM     11  O   UNL A   1      33.622  24.265  26.135  1.00  0.00    -0.352 OA
ATOM     12  C   UNL A   1      32.000  22.507  25.878  1.00  0.00     0.120 C 
ATOM     13  C   UNL A   1      33.301  23.396  23.914  1.00  0.00     0.120 C 
ATOM     14  C   UNL A   1      32.998  21.363  25.982  1.00  0.00     0.267 C 
ATOM     15  C   UNL A   1      34.221  22.174  24.062  1.00  0.00     0.267 C 
ATOM     16  N   UNL A   1      33.612  21.015  24.709  1.00  0.00    -0.331 N 
ATOM     17  H   UNL A   1      34.407  20.416  24.929  1.00  0.00     0.348 HD
BRANCH   8  18
ATOM     18  C   UNL A   1      30.774  24.985  24.038  1.00  0.00     0.260 C 
ATOM     19  O   UNL A   1      30.352  23.954  23.503  1.00  0.00    -0.269 OA
BRANCH  18  20
ATOM     20  C   UNL A   1      30.387  26.304  23.423  1.00  0.00     0.082 A 
ATOM     21  C   UNL A   1      31.094  27.059  22.485  1.00  0.00     0.131 A 
ATOM     22  C   UNL A   1      30.639  28.333  22.087  1.00  0.00     0.047 A 
ATOM     23  C   UNL A   1      29.413  28.821  22.522  1.00  0.00     0.004 A 
ATOM     24  C   UNL A   1      29.133  26.815  23.830  1.00  0.00     0.018 A 
ATOM     25  C   UNL A   1      28.643  28.047  23.376  1.00  0.00     0.001 A 
BRANCH  21  26
ATOM     26  O   UNL A   1      32.263  26.639  21.917  1.00  0.00    -0.496 OA
ATOM     27  C   UNL A   1      33.328  27.503  22.304  1.00  0.00     0.278 C 
ENDBRANCH  21  26
ENDBRANCH  18  20
ENDBRANCH   8  18
BRANCH  16  28
ATOM     28  C   UNL A   1      32.882  20.057  23.873  1.00  0.00     0.299 C 
BRANCH  28  29
ATOM     29  C   UNL A   1      33.041  18.583  24.172  1.00  0.00     0.006 A 
ATOM     30  C   UNL A   1      33.619  17.708  23.242  1.00  0.00     0.009 A 
ATOM     31  C   UNL A   1      32.629  18.065  25.411  1.00  0.00     0.009 A 
ATOM     32  C   UNL A   1      33.837  16.369  23.570  1.00  0.00     0.001 A 
ATOM     33  C   UNL A   1      32.881  16.736  25.751  1.00  0.00     0.001 A 
ATOM     34  C   UNL A   1      33.492  15.890  24.831  1.00  0.00     0.000 A 
ENDBRANCH  28  29
ENDBRANCH  16  28
ENDBRANCH   4   7
ENDBRANCH   2   3
ENDBRANCH   1   2
BRANCH   1  35
ATOM     35  C   UNL A   1      32.555  30.960  26.979  1.00  0.00     0.118 C 
BRANCH  35  36
ATOM     36  N   UNL A   1      32.639  32.382  27.320  1.00  0.00    -0.352 N 
ATOM     37  C   UNL A   1      33.712  33.078  27.826  1.00  0.00     0.251 C 
ATOM     38  H   UNL A   1      31.821  32.908  27.167  1.00  0.00     0.163 HD
ATOM     39  O   UNL A   1      33.620  34.280  28.065  1.00  0.00    -0.269 OA
BRANCH  37  40
ATOM     40  C   UNL A   1      34.948  32.338  28.143  1.00  0.00     0.039 A 
ATOM     41  C   UNL A   1      36.153  33.039  28.220  1.00  0.00     0.014 A 
ATOM     42  C   UNL A   1      34.884  30.992  28.499  1.00  0.00     0.014 A 
ATOM     43  C   UNL A   1      37.276  32.410  28.757  1.00  0.00     0.010 A 
ATOM     44  C   UNL A   1      35.963  30.411  29.144  1.00  0.00     0.010 A 
ATOM     45  C   UNL A   1      37.173  31.111  29.278  1.00  0.00    -0.014 A 
BRANCH  45  46
ATOM     46  C   UNL A   1      38.303  30.447  29.974  1.00  0.00     0.031 A 
ATOM     47  C   UNL A   1      38.649  30.862  31.380  1.00  0.00     0.074 A 
ATOM     48  C   UNL A   1      39.092  29.583  29.305  1.00  0.00     0.049 A 
ATOM     49  N   UNL A   1      39.683  30.533  32.106  1.00  0.00    -0.248 NA
ATOM     50  C   UNL A   1      37.740  31.820  32.034  1.00  0.00     0.031 C 
ATOM     51  C   UNL A   1      38.922  29.182  27.904  1.00  0.00     0.029 A 
ATOM     52  N   UNL A   1      40.219  28.909  29.703  1.00  0.00    -0.354 N 
ATOM     53  C   UNL A   1      39.585  31.292  33.266  1.00  0.00     0.074 A 
ATOM     54  C   UNL A   1      38.417  32.132  33.128  1.00  0.00     0.031 C 
ATOM     55  C   UNL A   1      39.897  28.323  27.569  1.00  0.00     0.029 A 
ATOM     56  C   UNL A   1      40.781  28.135  28.714  1.00  0.00     0.049 A 
ATOM     57  H   UNL A   1      40.591  28.973  30.612  1.00  0.00     0.167 HD
ATOM     58  C   UNL A   1      40.371  31.264  34.368  1.00  0.00     0.034 A 
ATOM     59  C   UNL A   1      41.886  27.365  28.730  1.00  0.00     0.034 A 
ATOM     60  C   UNL A   1      41.467  30.354  34.536  1.00  0.00     0.049 A 
ATOM     61  C   UNL A   1      42.677  27.265  30.007  1.00  0.00     0.074 A 
ATOM     62  C   UNL A   1      42.254  30.150  35.656  1.00  0.00     0.029 A 
ATOM     63  N   UNL A   1      41.923  29.481  33.560  1.00  0.00    -0.354 N 
ATOM     64  N   UNL A   1      42.475  27.872  31.151  1.00  0.00    -0.248 NA
ATOM     65  C   UNL A   1      43.826  26.348  30.008  1.00  0.00     0.031 C 
ATOM     66  C   UNL A   1      43.188  29.153  35.354  1.00  0.00     0.029 A 
ATOM     67  C   UNL A   1      42.974  28.730  34.050  1.00  0.00     0.049 A 
ATOM     68  H   UNL A   1      41.551  29.406  32.651  1.00  0.00     0.167 HD
ATOM     69  C   UNL A   1      43.448  27.386  32.018  1.00  0.00     0.074 A 
ATOM     70  C   UNL A   1      44.225  26.418  31.272  1.00  0.00     0.031 C 
ATOM     71  C   UNL A   1      43.690  27.725  33.308  1.00  0.00     0.034 A 
BRANCH  58  72
ATOM     72  C   UNL A   1      40.013  32.187  35.502  1.00  0.00     0.023 A 
ATOM     73  C   UNL A   1      40.651  33.441  35.604  1.00  0.00     0.012 A 
ATOM     74  C   UNL A   1      39.030  31.835  36.446  1.00  0.00     0.148 A 
ATOM     75  C   UNL A   1      40.352  34.310  36.651  1.00  0.00     0.002 A 
ATOM     76  C   UNL A   1      38.701  32.728  37.461  1.00  0.00     0.091 A 
ATOM     77  F   UNL A   1      38.449  30.631  36.349  1.00  0.00    -0.205 F 
ATOM     78  C   UNL A   1      39.370  33.959  37.572  1.00  0.00     0.022 A 
BRANCH  76  79
ATOM     79  S   UNL A   1      37.395  32.403  38.651  1.00  0.00     0.127 S 
ATOM     80  O   UNL A   1      37.800  33.252  39.770  1.00  0.00    -0.237 OA
ATOM     81  O   UNL A   1      36.204  32.863  37.936  1.00  0.00    -0.237 OA
ATOM     82  O   UNL A   1      37.433  30.969  38.905  1.00  0.00    -0.744 OA
ENDBRANCH  76  79
ENDBRANCH  58  72
BRANCH  59  83
ATOM     83  C   UNL A   1      42.251  26.554  27.534  1.00  0.00     0.023 A 
ATOM     84  C   UNL A   1      42.965  27.166  26.484  1.00  0.00     0.012 A 
ATOM     85  C   UNL A   1      41.931  25.185  27.438  1.00  0.00     0.148 A 
ATOM     86  C   UNL A   1      43.325  26.441  25.348  1.00  0.00     0.002 A 
ATOM     87  C   UNL A   1      42.338  24.456  26.325  1.00  0.00     0.091 A 
ATOM     88  F   UNL A   1      41.243  24.622  28.440  1.00  0.00    -0.205 F 
ATOM     89  C   UNL A   1      43.020  25.085  25.272  1.00  0.00     0.022 A 
BRANCH  87  90
ATOM     90  S   UNL A   1      42.099  22.679  26.201  1.00  0.00     0.127 S 
ATOM     91  O   UNL A   1      42.755  22.378  24.931  1.00  0.00    -0.237 OA
ATOM     92  O   UNL A   1      42.804  22.194  27.389  1.00  0.00    -0.237 OA
ATOM     93  O   UNL A   1      40.658  22.477  26.237  1.00  0.00    -0.744 OA
ENDBRANCH  87  90
ENDBRANCH  59  83
BRANCH  71  94
ATOM     94  C   UNL A   1      44.817  27.022  34.013  1.00  0.00     0.023 A 
ATOM     95  C   UNL A   1      46.125  27.535  33.919  1.00  0.00     0.012 A 
ATOM     96  C   UNL A   1      44.565  25.911  34.842  1.00  0.00     0.148 A 
ATOM     97  C   UNL A   1      47.171  26.938  34.619  1.00  0.00     0.002 A 
ATOM     98  C   UNL A   1      45.604  25.349  35.573  1.00  0.00     0.091 A 
ATOM     99  F   UNL A   1      43.316  25.427  34.901  1.00  0.00    -0.205 F 
ATOM    100  C   UNL A   1      46.909  25.854  35.456  1.00  0.00     0.022 A 
BRANCH  98 101
ATOM    101  S   UNL A   1      45.336  24.017  36.748  1.00  0.00     0.127 S 
ATOM    102  O   UNL A   1      44.823  22.956  35.883  1.00  0.00    -0.237 OA
ATOM    103  O   UNL A   1      46.683  23.783  37.268  1.00  0.00    -0.237 OA
ATOM    104  O   UNL A   1      44.395  24.536  37.731  1.00  0.00    -0.744 OA
ENDBRANCH  98 101
ENDBRANCH  71  94
ENDBRANCH  45  46
ENDBRANCH  37  40
ENDBRANCH  35  36
ENDBRANCH   1  35
TORSDOF 18
ENDMDL
MODEL 2
REMARK VINA RESULT:     -13.0      5.094      9.213
REMARK SMILES COc1ccccc1C(=O)N1[C@@H](C(=O)NCCCNC(=O)c2ccc(-c3c4nc(c(-c5cccc(S(=O)(=O)[O-])c5F)c5ccc([nH]5)c(-c5cccc(S(=O)(=O)[O-])c5F)c5nc(c(-c6cccc(S(=O)(=O)[O-])c6F)c6ccc3[nH]6)C=C5)C=C4)cc2)COC12CC[NH+](Cc1ccccc1)CC2
REMARK SMILES IDX 17 1 16 2 15 3 13 4 14 5 12 7 11 8 87 9 85 10 86 11 88 12
REMARK SMILES IDX 99 13 89 14 98 15 90 16 9 18 10 19 8 20 3 21 4 22 5 23 7 24
REMARK SMILES IDX 6 25 2 26 1 27 91 28 92 29 93 30 97 31 94 32 96 33 95 34
REMARK SMILES IDX 18 35 19 36 20 37 21 39 22 40 23 41 84 42 24 43 83 44 25 45
REMARK SMILES IDX 26 46 27 47 77 48 28 49 82 50 76 51 78 52 29 53 81 54 75 55
REMARK SMILES IDX 74 56 30 58 62 59 42 60 61 61 43 62 46 63 60 64 79 65 44 66
REMARK SMILES IDX 45 67 59 69 80 70 47 71 31 72 32 73 40 74 33 75 35 76 41 77
REMARK SMILES IDX 34 78 36 79 37 80 38 81 39 82 63 83 64 84 72 85 65 86 67 87
REMARK SMILES IDX 73 88 66 89 68 90 69 91 70 92 71 93 48 94 49 95 57 96 50 97
REMARK SMILES IDX 52 98 58 99 51 100 53 101 54 102 55 103 56 104
REMARK H PARENT 15 6 90 17 19 38 78 57 46 68
REMARK Flexibility Score: inf
ROOT
ATOM      1  C   UNL A   1      37.461  19.502  25.084  1.00  0.00     0.042 C 
ENDROOT
BRANCH   1   2
ATOM      2  C   UNL A   1      36.407  20.584  24.940  1.00  0.00     0.117 C 
BRANCH   2   3
ATOM      3  N   UNL A   1      36.507  21.396  23.754  1.00  0.00    -0.354 N 
ATOM      4  C   UNL A   1      36.060  22.674  23.585  1.00  0.00     0.245 C 
ATOM      5  O   UNL A   1      36.652  23.368  22.752  1.00  0.00    -0.273 OA
ATOM      6  H   UNL A   1      36.945  20.981  22.977  1.00  0.00     0.163 HD
BRANCH   4   7
ATOM      7  C   UNL A   1      34.865  23.235  24.378  1.00  0.00     0.203 C 
ATOM      8  N   UNL A   1      33.688  23.635  23.606  1.00  0.00    -0.295 N 
ATOM      9  C   UNL A   1      33.329  25.012  24.009  1.00  0.00     0.155 C 
ATOM     10  C   UNL A   1      35.236  24.449  25.200  1.00  0.00     0.198 C 
ATOM     11  O   UNL A   1      34.564  25.544  24.559  1.00  0.00    -0.352 OA
ATOM     12  C   UNL A   1      32.923  25.909  22.837  1.00  0.00     0.120 C 
ATOM     13  C   UNL A   1      32.269  25.089  25.126  1.00  0.00     0.120 C 
ATOM     14  C   UNL A   1      32.557  27.321  23.272  1.00  0.00     0.267 C 
ATOM     15  C   UNL A   1      31.872  26.537  25.453  1.00  0.00     0.267 C 
ATOM     16  N   UNL A   1      31.525  27.359  24.298  1.00  0.00    -0.331 N 
ATOM     17  H   UNL A   1      31.525  28.309  24.668  1.00  0.00     0.348 HD
BRANCH   8  18
ATOM     18  C   UNL A   1      32.707  22.652  23.453  1.00  0.00     0.260 C 
ATOM     19  O   UNL A   1      31.720  22.887  22.747  1.00  0.00    -0.269 OA
BRANCH  18  20
ATOM     20  C   UNL A   1      32.752  21.335  24.181  1.00  0.00     0.082 A 
ATOM     21  C   UNL A   1      32.749  21.112  25.561  1.00  0.00     0.131 A 
ATOM     22  C   UNL A   1      32.903  19.812  26.085  1.00  0.00     0.047 A 
ATOM     23  C   UNL A   1      32.938  18.703  25.247  1.00  0.00     0.004 A 
ATOM     24  C   UNL A   1      32.766  20.188  23.355  1.00  0.00     0.018 A 
ATOM     25  C   UNL A   1      32.842  18.890  23.876  1.00  0.00     0.001 A 
BRANCH  21  26
ATOM     26  O   UNL A   1      32.624  22.115  26.479  1.00  0.00    -0.496 OA
ATOM     27  C   UNL A   1      33.557  21.919  27.539  1.00  0.00     0.278 C 
ENDBRANCH  21  26
ENDBRANCH  18  20
ENDBRANCH   8  18
BRANCH  16  28
ATOM     28  C   UNL A   1      30.137  27.344  23.826  1.00  0.00     0.299 C 
BRANCH  28  29
ATOM     29  C   UNL A   1      29.481  28.666  23.495  1.00  0.00     0.006 A 
ATOM     30  C   UNL A   1      28.280  28.725  22.775  1.00  0.00     0.009 A 
ATOM     31  C   UNL A   1      30.060  29.870  23.929  1.00  0.00     0.009 A 
ATOM     32  C   UNL A   1      27.645  29.948  22.555  1.00  0.00     0.001 A 
ATOM     33  C   UNL A   1      29.406  31.088  23.742  1.00  0.00     0.001 A 
ATOM     34  C   UNL A   1      28.194  31.125  23.060  1.00  0.00     0.000 A 
ENDBRANCH  28  29
ENDBRANCH  16  28
ENDBRANCH   4   7
ENDBRANCH   2   3
ENDBRANCH   1   2
BRANCH   1  35
ATOM     35  C   UNL A   1      38.571  19.954  26.020  1.00  0.00     0.118 C 
BRANCH  35  36
ATOM     36  N   UNL A   1      39.833  19.230  25.849  1.00  0.00    -0.352 N 
ATOM     37  C   UNL A   1      41.111  19.658  26.128  1.00  0.00     0.251 C 
ATOM     38  H   UNL A   1      39.758  18.317  25.486  1.00  0.00     0.163 HD
ATOM     39  O   UNL A   1      42.074  18.924  25.921  1.00  0.00    -0.269 OA
BRANCH  37  40
ATOM     40  C   UNL A   1      41.303  21.039  26.608  1.00  0.00     0.039 A 
ATOM     41  C   UNL A   1      41.971  21.246  27.817  1.00  0.00     0.014 A 
ATOM     42  C   UNL A   1      40.949  22.116  25.797  1.00  0.00     0.014 A 
ATOM     43  C   UNL A   1      42.378  22.535  28.160  1.00  0.00     0.010 A 
ATOM     44  C   UNL A   1      41.461  23.372  26.080  1.00  0.00     0.010 A 
ATOM     45  C   UNL A   1      42.179  23.598  27.265  1.00  0.00    -0.014 A 
BRANCH  45  46
ATOM     46  C   UNL A   1      42.705  24.960  27.526  1.00  0.00     0.031 A 
ATOM     47  C   UNL A   1      41.814  25.981  28.183  1.00  0.00     0.074 A 
ATOM     48  C   UNL A   1      43.917  25.316  27.056  1.00  0.00     0.049 A 
ATOM     49  N   UNL A   1      42.012  27.261  28.356  1.00  0.00    -0.248 NA
ATOM     50  C   UNL A   1      40.500  25.511  28.657  1.00  0.00     0.031 C 
ATOM     51  C   UNL A   1      44.831  24.445  26.309  1.00  0.00     0.029 A 
ATOM     52  N   UNL A   1      44.578  26.517  27.106  1.00  0.00    -0.354 N 
ATOM     53  C   UNL A   1      40.829  27.756  28.890  1.00  0.00     0.074 A 
ATOM     54  C   UNL A   1      39.902  26.650  28.972  1.00  0.00     0.031 C 
ATOM     55  C   UNL A   1      45.936  25.136  25.987  1.00  0.00     0.029 A 
ATOM     56  C   UNL A   1      45.800  26.505  26.472  1.00  0.00     0.049 A 
ATOM     57  H   UNL A   1      44.213  27.314  27.554  1.00  0.00     0.167 HD
ATOM     58  C   UNL A   1      40.551  29.009  29.317  1.00  0.00     0.034 A 
ATOM     59  C   UNL A   1      46.704  27.488  26.301  1.00  0.00     0.034 A 
ATOM     60  C   UNL A   1      41.511  30.076  29.327  1.00  0.00     0.049 A 
ATOM     61  C   UNL A   1      46.415  28.845  26.886  1.00  0.00     0.074 A 
ATOM     62  C   UNL A   1      41.378  31.350  29.849  1.00  0.00     0.029 A 
ATOM     63  N   UNL A   1      42.792  29.986  28.802  1.00  0.00    -0.354 N 
ATOM     64  N   UNL A   1      45.350  29.253  27.533  1.00  0.00    -0.248 NA
ATOM     65  C   UNL A   1      47.464  29.866  26.751  1.00  0.00     0.031 C 
ATOM     66  C   UNL A   1      42.582  32.032  29.637  1.00  0.00     0.029 A 
ATOM     67  C   UNL A   1      43.465  31.178  28.993  1.00  0.00     0.049 A 
ATOM     68  H   UNL A   1      43.166  29.191  28.359  1.00  0.00     0.167 HD
ATOM     69  C   UNL A   1      45.613  30.564  27.912  1.00  0.00     0.074 A 
ATOM     70  C   UNL A   1      46.948  30.875  27.442  1.00  0.00     0.031 C 
ATOM     71  C   UNL A   1      44.817  31.440  28.573  1.00  0.00     0.034 A 
BRANCH  58  72
ATOM     72  C   UNL A   1      39.179  29.263  29.884  1.00  0.00     0.023 A 
ATOM     73  C   UNL A   1      38.899  28.894  31.217  1.00  0.00     0.012 A 
ATOM     74  C   UNL A   1      38.179  29.892  29.118  1.00  0.00     0.148 A 
ATOM     75  C   UNL A   1      37.634  29.103  31.763  1.00  0.00     0.002 A 
ATOM     76  C   UNL A   1      36.934  30.141  29.686  1.00  0.00     0.091 A 
ATOM     77  F   UNL A   1      38.453  30.216  27.847  1.00  0.00    -0.205 F 
ATOM     78  C   UNL A   1      36.656  29.735  31.003  1.00  0.00     0.022 A 
BRANCH  76  79
ATOM     79  S   UNL A   1      35.631  31.021  28.816  1.00  0.00     0.127 S 
ATOM     80  O   UNL A   1      34.977  29.934  28.089  1.00  0.00    -0.237 OA
ATOM     81  O   UNL A   1      34.845  31.577  29.918  1.00  0.00    -0.237 OA
ATOM     82  O   UNL A   1      36.303  32.014  27.989  1.00  0.00    -0.744 OA
ENDBRANCH  76  79
ENDBRANCH  58  72
BRANCH  59  83
ATOM     83  C   UNL A   1      48.005  27.201  25.632  1.00  0.00     0.023 A 
ATOM     84  C   UNL A   1      49.064  26.669  26.394  1.00  0.00     0.012 A 
ATOM     85  C   UNL A   1      48.194  27.415  24.253  1.00  0.00     0.148 A 
ATOM     86  C   UNL A   1      50.297  26.386  25.804  1.00  0.00     0.002 A 
ATOM     87  C   UNL A   1      49.408  27.084  23.661  1.00  0.00     0.091 A 
ATOM     88  F   UNL A   1      47.179  27.932  23.545  1.00  0.00    -0.205 F 
ATOM     89  C   UNL A   1      50.466  26.585  24.437  1.00  0.00     0.022 A 
BRANCH  87  90
ATOM     90  S   UNL A   1      49.672  27.187  21.886  1.00  0.00     0.127 S 
ATOM     91  O   UNL A   1      48.684  26.237  21.382  1.00  0.00    -0.237 OA
ATOM     92  O   UNL A   1      49.369  28.593  21.614  1.00  0.00    -0.237 OA
ATOM     93  O   UNL A   1      51.067  26.826  21.679  1.00  0.00    -0.744 OA
ENDBRANCH  87  90
ENDBRANCH  59  83
BRANCH  71  94
ATOM     94  C   UNL A   1      45.372  32.808  28.860  1.00  0.00     0.023 A 
ATOM     95  C   UNL A   1      46.110  33.027  30.039  1.00  0.00     0.012 A 
ATOM     96  C   UNL A   1      45.242  33.848  27.919  1.00  0.00     0.148 A 
ATOM     97  C   UNL A   1      46.689  34.269  30.290  1.00  0.00     0.002 A 
ATOM     98  C   UNL A   1      45.861  35.070  28.154  1.00  0.00     0.091 A 
ATOM     99  F   UNL A   1      44.518  33.624  26.812  1.00  0.00    -0.205 F 
ATOM    100  C   UNL A   1      46.576  35.285  29.343  1.00  0.00     0.022 A 
BRANCH  98 101
ATOM    101  S   UNL A   1      45.849  36.397  26.944  1.00  0.00     0.127 S 
ATOM    102  O   UNL A   1      46.369  35.722  25.756  1.00  0.00    -0.237 OA
ATOM    103  O   UNL A   1      44.429  36.745  26.875  1.00  0.00    -0.237 OA
ATOM    104  O   UNL A   1      46.697  37.445  27.493  1.00  0.00    -0.744 OA
ENDBRANCH  98 101
ENDBRANCH  71  94
ENDBRANCH  45  46
ENDBRANCH  37  40
ENDBRANCH  35  36
ENDBRANCH   1  35
TORSDOF 18
ENDMDL
MODEL 3
REMARK VINA RESULT:     -12.8      0.513      7.164
REMARK SMILES COc1ccccc1C(=O)N1[C@@H](C(=O)NCCCNC(=O)c2ccc(-c3c4nc(c(-c5cccc(S(=O)(=O)[O-])c5F)c5ccc([nH]5)c(-c5cccc(S(=O)(=O)[O-])c5F)c5nc(c(-c6cccc(S(=O)(=O)[O-])c6F)c6ccc3[nH]6)C=C5)C=C4)cc2)COC12CC[NH+](Cc1ccccc1)CC2
REMARK SMILES IDX 17 1 16 2 15 3 13 4 14 5 12 7 11 8 87 9 85 10 86 11 88 12
REMARK SMILES IDX 99 13 89 14 98 15 90 16 9 18 10 19 8 20 3 21 4 22 5 23 7 24
REMARK SMILES IDX 6 25 2 26 1 27 91 28 92 29 93 30 97 31 94 32 96 33 95 34
REMARK SMILES IDX 18 35 19 36 20 37 21 39 22 40 23 41 84 42 24 43 83 44 25 45
REMARK SMILES IDX 26 46 27 47 77 48 28 49 82 50 76 51 78 52 29 53 81 54 75 55
REMARK SMILES IDX 74 56 30 58 62 59 42 60 61 61 43 62 46 63 60 64 79 65 44 66
REMARK SMILES IDX 45 67 59 69 80 70 47 71 31 72 32 73 40 74 33 75 35 76 41 77
REMARK SMILES IDX 34 78 36 79 37 80 38 81 39 82 63 83 64 84 72 85 65 86 67 87
REMARK SMILES IDX 73 88 66 89 68 90 69 91 70 92 71 93 48 94 49 95 57 96 50 97
REMARK SMILES IDX 52 98 58 99 51 100 53 101 54 102 55 103 56 104
REMARK H PARENT 15 6 90 17 19 38 78 57 46 68
REMARK Flexibility Score: inf
ROOT
ATOM      1  C   UNL A   1      33.082  29.980  25.542  1.00  0.00     0.042 C 
ENDROOT
BRANCH   1   2
ATOM      2  C   UNL A   1      31.897  29.153  25.079  1.00  0.00     0.117 C 
BRANCH   2   3
ATOM      3  N   UNL A   1      31.306  28.299  26.078  1.00  0.00    -0.354 N 
ATOM      4  C   UNL A   1      31.664  27.020  26.391  1.00  0.00     0.245 C 
ATOM      5  O   UNL A   1      31.434  26.641  27.545  1.00  0.00    -0.273 OA
ATOM      6  H   UNL A   1      30.558  28.681  26.592  1.00  0.00     0.163 HD
BRANCH   4   7
ATOM      7  C   UNL A   1      32.310  26.076  25.361  1.00  0.00     0.203 C 
ATOM      8  N   UNL A   1      31.577  24.852  25.033  1.00  0.00    -0.295 N 
ATOM      9  C   UNL A   1      32.506  23.713  25.186  1.00  0.00     0.155 C 
ATOM     10  C   UNL A   1      33.687  25.615  25.783  1.00  0.00     0.198 C 
ATOM     11  O   UNL A   1      33.530  24.220  26.082  1.00  0.00    -0.352 OA
ATOM     12  C   UNL A   1      31.874  22.489  25.854  1.00  0.00     0.120 C 
ATOM     13  C   UNL A   1      33.216  23.296  23.882  1.00  0.00     0.120 C 
ATOM     14  C   UNL A   1      32.847  21.328  26.001  1.00  0.00     0.267 C 
ATOM     15  C   UNL A   1      34.108  22.060  24.074  1.00  0.00     0.267 C 
ATOM     16  N   UNL A   1      33.468  20.933  24.745  1.00  0.00    -0.331 N 
ATOM     17  H   UNL A   1      34.248  20.323  24.991  1.00  0.00     0.348 HD
BRANCH   8  18
ATOM     18  C   UNL A   1      30.722  24.940  23.932  1.00  0.00     0.260 C 
ATOM     19  O   UNL A   1      30.354  23.905  23.367  1.00  0.00    -0.269 OA
BRANCH  18  20
ATOM     20  C   UNL A   1      30.288  26.255  23.340  1.00  0.00     0.082 A 
ATOM     21  C   UNL A   1      30.930  27.012  22.357  1.00  0.00     0.131 A 
ATOM     22  C   UNL A   1      30.443  28.283  21.986  1.00  0.00     0.047 A 
ATOM     23  C   UNL A   1      29.243  28.765  22.498  1.00  0.00     0.004 A 
ATOM     24  C   UNL A   1      29.060  26.760  23.826  1.00  0.00     0.018 A 
ATOM     25  C   UNL A   1      28.534  27.987  23.401  1.00  0.00     0.001 A 
BRANCH  21  26
ATOM     26  O   UNL A   1      32.062  26.598  21.717  1.00  0.00    -0.496 OA
ATOM     27  C   UNL A   1      33.202  27.236  22.286  1.00  0.00     0.278 C 
ENDBRANCH  21  26
ENDBRANCH  18  20
ENDBRANCH   8  18
BRANCH  16  28
ATOM     28  C   UNL A   1      32.728  19.967  23.927  1.00  0.00     0.299 C 
BRANCH  28  29
ATOM     29  C   UNL A   1      32.956  18.493  24.180  1.00  0.00     0.006 A 
ATOM     30  C   UNL A   1      33.693  17.705  23.287  1.00  0.00     0.009 A 
ATOM     31  C   UNL A   1      32.447  17.889  25.341  1.00  0.00     0.009 A 
ATOM     32  C   UNL A   1      33.968  16.369  23.581  1.00  0.00     0.001 A 
ATOM     33  C   UNL A   1      32.752  16.564  25.653  1.00  0.00     0.001 A 
ATOM     34  C   UNL A   1      33.520  15.806  24.774  1.00  0.00     0.000 A 
ENDBRANCH  28  29
ENDBRANCH  16  28
ENDBRANCH   4   7
ENDBRANCH   2   3
ENDBRANCH   1   2
BRANCH   1  35
ATOM     35  C   UNL A   1      32.942  30.346  27.012  1.00  0.00     0.118 C 
BRANCH  35  36
ATOM     36  N   UNL A   1      32.824  31.784  27.264  1.00  0.00    -0.352 N 
ATOM     37  C   UNL A   1      33.789  32.657  27.714  1.00  0.00     0.251 C 
ATOM     38  H   UNL A   1      31.939  32.179  27.087  1.00  0.00     0.163 HD
ATOM     39  O   UNL A   1      33.527  33.845  27.879  1.00  0.00    -0.269 OA
BRANCH  37  40
ATOM     40  C   UNL A   1      35.117  32.120  28.063  1.00  0.00     0.039 A 
ATOM     41  C   UNL A   1      36.191  33.005  28.188  1.00  0.00     0.014 A 
ATOM     42  C   UNL A   1      35.262  30.775  28.399  1.00  0.00     0.014 A 
ATOM     43  C   UNL A   1      37.383  32.556  28.754  1.00  0.00     0.010 A 
ATOM     44  C   UNL A   1      36.401  30.365  29.073  1.00  0.00     0.010 A 
ATOM     45  C   UNL A   1      37.476  31.248  29.256  1.00  0.00    -0.014 A 
BRANCH  45  46
ATOM     46  C   UNL A   1      38.676  30.763  29.981  1.00  0.00     0.031 A 
ATOM     47  C   UNL A   1      39.566  29.738  29.329  1.00  0.00     0.074 A 
ATOM     48  C   UNL A   1      38.888  31.134  31.259  1.00  0.00     0.049 A 
ATOM     49  N   UNL A   1      40.562  29.065  29.840  1.00  0.00    -0.248 NA
ATOM     50  C   UNL A   1      39.257  29.380  27.933  1.00  0.00     0.031 C 
ATOM     51  C   UNL A   1      38.035  32.041  32.036  1.00  0.00     0.029 A 
ATOM     52  N   UNL A   1      39.869  30.768  32.146  1.00  0.00    -0.354 N 
ATOM     53  C   UNL A   1      40.949  28.162  28.858  1.00  0.00     0.074 A 
ATOM     54  C   UNL A   1      40.054  28.340  27.738  1.00  0.00     0.031 C 
ATOM     55  C   UNL A   1      38.539  32.170  33.273  1.00  0.00     0.029 A 
ATOM     56  C   UNL A   1      39.729  31.335  33.392  1.00  0.00     0.049 A 
ATOM     57  H   UNL A   1      40.604  30.157  31.912  1.00  0.00     0.167 HD
ATOM     58  C   UNL A   1      41.985  27.291  28.867  1.00  0.00     0.034 A 
ATOM     59  C   UNL A   1      40.476  31.192  34.504  1.00  0.00     0.034 A 
ATOM     60  C   UNL A   1      42.930  27.194  29.942  1.00  0.00     0.049 A 
ATOM     61  C   UNL A   1      41.689  30.302  34.450  1.00  0.00     0.074 A 
ATOM     62  C   UNL A   1      44.087  26.438  30.008  1.00  0.00     0.029 A 
ATOM     63  N   UNL A   1      42.836  27.890  31.138  1.00  0.00    -0.354 N 
ATOM     64  N   UNL A   1      42.134  29.575  33.454  1.00  0.00    -0.248 NA
ATOM     65  C   UNL A   1      42.524  30.241  35.658  1.00  0.00     0.031 C 
ATOM     66  C   UNL A   1      44.691  26.677  31.247  1.00  0.00     0.029 A 
ATOM     67  C   UNL A   1      43.915  27.589  31.947  1.00  0.00     0.049 A 
ATOM     68  H   UNL A   1      42.107  28.508  31.376  1.00  0.00     0.167 HD
ATOM     69  C   UNL A   1      43.316  28.997  33.901  1.00  0.00     0.074 A 
ATOM     70  C   UNL A   1      43.530  29.477  35.251  1.00  0.00     0.031 C 
ATOM     71  C   UNL A   1      44.140  28.131  33.262  1.00  0.00     0.034 A 
BRANCH  58  72
ATOM     72  C   UNL A   1      42.191  26.441  27.641  1.00  0.00     0.023 A 
ATOM     73  C   UNL A   1      42.786  27.008  26.494  1.00  0.00     0.012 A 
ATOM     74  C   UNL A   1      41.830  25.080  27.629  1.00  0.00     0.148 A 
ATOM     75  C   UNL A   1      42.975  26.250  25.341  1.00  0.00     0.002 A 
ATOM     76  C   UNL A   1      42.066  24.317  26.491  1.00  0.00     0.091 A 
ATOM     77  F   UNL A   1      41.245  24.562  28.718  1.00  0.00    -0.205 F 
ATOM     78  C   UNL A   1      42.626  24.904  25.342  1.00  0.00     0.022 A 
BRANCH  76  79
ATOM     79  S   UNL A   1      41.725  22.555  26.418  1.00  0.00     0.127 S 
ATOM     80  O   UNL A   1      42.296  22.092  27.682  1.00  0.00    -0.237 OA
ATOM     81  O   UNL A   1      40.263  22.525  26.363  1.00  0.00    -0.237 OA
ATOM     82  O   UNL A   1      42.387  22.069  25.215  1.00  0.00    -0.744 OA
ENDBRANCH  76  79
ENDBRANCH  58  72
BRANCH  59  83
ATOM     83  C   UNL A   1      40.156  31.982  35.727  1.00  0.00     0.023 A 
ATOM     84  C   UNL A   1      40.979  33.073  36.072  1.00  0.00     0.012 A 
ATOM     85  C   UNL A   1      39.035  31.689  36.529  1.00  0.00     0.148 A 
ATOM     86  C   UNL A   1      40.712  33.837  37.209  1.00  0.00     0.002 A 
ATOM     87  C   UNL A   1      38.746  32.486  37.632  1.00  0.00     0.091 A 
ATOM     88  F   UNL A   1      38.269  30.642  36.192  1.00  0.00    -0.205 F 
ATOM     89  C   UNL A   1      39.592  33.550  37.983  1.00  0.00     0.022 A 
BRANCH  87  90
ATOM     90  S   UNL A   1      37.255  32.267  38.611  1.00  0.00     0.127 S 
ATOM     91  O   UNL A   1      37.126  30.812  38.637  1.00  0.00    -0.237 OA
ATOM     92  O   UNL A   1      37.635  32.875  39.887  1.00  0.00    -0.237 OA
ATOM     93  O   UNL A   1      36.211  32.985  37.894  1.00  0.00    -0.744 OA
ENDBRANCH  87  90
ENDBRANCH  59  83
BRANCH  71  94
ATOM     94  C   UNL A   1      45.371  27.670  33.994  1.00  0.00     0.023 A 
ATOM     95  C   UNL A   1      46.547  28.441  33.933  1.00  0.00     0.012 A 
ATOM     96  C   UNL A   1      45.332  26.526  34.814  1.00  0.00     0.148 A 
ATOM     97  C   UNL A   1      47.677  28.066  34.658  1.00  0.00     0.002 A 
ATOM     98  C   UNL A   1      46.446  26.183  35.570  1.00  0.00     0.091 A 
ATOM     99  F   UNL A   1      44.207  25.795  34.840  1.00  0.00    -0.205 F 
ATOM    100  C   UNL A   1      47.622  26.946  35.486  1.00  0.00     0.022 A 
BRANCH  98 101
ATOM    101  S   UNL A   1      46.428  24.817  36.735  1.00  0.00     0.127 S 
ATOM    102  O   UNL A   1      47.767  24.902  37.314  1.00  0.00    -0.237 OA
ATOM    103  O   UNL A   1      45.345  25.195  37.644  1.00  0.00    -0.237 OA
ATOM    104  O   UNL A   1      46.160  23.623  35.946  1.00  0.00    -0.744 OA
ENDBRANCH  98 101
ENDBRANCH  71  94
ENDBRANCH  45  46
ENDBRANCH  37  40
ENDBRANCH  35  36
ENDBRANCH   1  35
TORSDOF 18
ENDMDL
