MODEL 1
REMARK VINA RESULT:     -12.1      0.000      0.000
REMARK SMILES C=CCn1c(=S)[nH]c2cc(C(=O)NCCCNC(=O)c3ccc(-c4c5nc(c(-c6cccc(S(=O)(=O)[O-])c6F)c6ccc([nH]6)c(-c6cccc(S(=O)(=O)[O-])c6F)c6nc(c(-c7cccc(S(=O)(=O)[O-])c7F)c7ccc4[nH]7)C=C6)C=C5)cc3)ccc2c1=O
REMARK SMILES IDX 15 1 14 2 13 3 11 4 12 5 10 7 4 8 5 9 86 10 6 11 7 12 85 13
REMARK SMILES IDX 87 14 8 15 84 17 9 18 83 19 3 20 2 21 1 22 16 23 17 24 18 25
REMARK SMILES IDX 19 27 20 28 21 29 82 30 22 31 81 32 23 33 24 34 25 35 75 36
REMARK SMILES IDX 26 37 80 38 74 39 76 40 27 41 79 42 73 43 72 44 28 46 60 47
REMARK SMILES IDX 40 48 59 49 41 50 44 51 58 52 77 53 42 54 43 55 57 57 78 58
REMARK SMILES IDX 45 59 29 60 30 61 38 62 31 63 33 64 39 65 32 66 34 67 35 68
REMARK SMILES IDX 36 69 37 70 61 71 62 72 70 73 63 74 65 75 71 76 64 77 66 78
REMARK SMILES IDX 67 79 68 80 69 81 46 82 47 83 55 84 48 85 50 86 56 87 49 88
REMARK SMILES IDX 51 89 52 90 53 91 54 92
REMARK H PARENT 13 6 7 16 17 26 76 45 44 56
REMARK Flexibility Score: inf
ROOT
ATOM      1  C   UNL A   1      31.787  31.858  26.739  1.00  0.00     0.042 C 
ENDROOT
BRANCH   1   2
ATOM      2  C   UNL A   1      32.046  30.376  26.475  1.00  0.00     0.118 C 
BRANCH   2   3
ATOM      3  N   UNL A   1      31.782  30.033  25.090  1.00  0.00    -0.352 N 
ATOM      4  C   UNL A   1      31.681  28.835  24.433  1.00  0.00     0.251 C 
ATOM      5  O   UNL A   1      31.380  28.868  23.239  1.00  0.00    -0.269 OA
ATOM      6  H   UNL A   1      31.650  30.815  24.508  1.00  0.00     0.163 HD
BRANCH   4   7
ATOM      7  C   UNL A   1      31.864  27.506  25.086  1.00  0.00     0.041 A 
ATOM      8  N   UNL A   1      33.948  23.111  26.492  1.00  0.00    -0.281 N 
ATOM      9  C   UNL A   1      34.964  23.824  25.855  1.00  0.00     0.180 A 
ATOM     10  C   UNL A   1      32.667  23.636  26.720  1.00  0.00     0.262 A 
ATOM     11  S   UNL A   1      36.546  23.328  25.594  1.00  0.00    -0.040 S 
ATOM     12  N   UNL A   1      34.642  25.069  25.382  1.00  0.00    -0.332 N 
ATOM     13  C   UNL A   1      32.388  24.980  26.195  1.00  0.00     0.064 A 
ATOM     14  O   UNL A   1      31.768  23.038  27.307  1.00  0.00    -0.269 OA
ATOM     15  C   UNL A   1      33.385  25.652  25.509  1.00  0.00     0.054 A 
ATOM     16  H   UNL A   1      35.345  25.584  24.923  1.00  0.00     0.169 HD
ATOM     17  C   UNL A   1      31.141  25.576  26.377  1.00  0.00     0.017 A 
ATOM     18  C   UNL A   1      33.131  26.907  24.952  1.00  0.00     0.040 A 
ATOM     19  C   UNL A   1      30.893  26.843  25.842  1.00  0.00     0.015 A 
BRANCH   8  20
ATOM     20  C   UNL A   1      34.142  21.742  26.979  1.00  0.00     0.155 C 
BRANCH  20  21
ATOM     21  C   UNL A   1      33.720  20.777  25.900  1.00  0.00    -0.013 C 
ATOM     22  C   UNL A   1      34.531  20.240  24.979  1.00  0.00     0.006 C 
ENDBRANCH  20  21
ENDBRANCH   8  20
ENDBRANCH   4   7
ENDBRANCH   2   3
ENDBRANCH   1   2
BRANCH   1  23
ATOM     23  C   UNL A   1      32.990  32.580  27.331  1.00  0.00     0.118 C 
BRANCH  23  24
ATOM     24  N   UNL A   1      32.677  33.951  27.707  1.00  0.00    -0.352 N 
ATOM     25  C   UNL A   1      33.179  34.714  28.737  1.00  0.00     0.251 C 
ATOM     26  H   UNL A   1      32.007  34.399  27.141  1.00  0.00     0.163 HD
ATOM     27  O   UNL A   1      32.642  35.775  29.021  1.00  0.00    -0.269 OA
BRANCH  25  28
ATOM     28  C   UNL A   1      34.344  34.226  29.510  1.00  0.00     0.039 A 
ATOM     29  C   UNL A   1      35.645  34.505  29.087  1.00  0.00     0.014 A 
ATOM     30  C   UNL A   1      34.129  33.474  30.668  1.00  0.00     0.014 A 
ATOM     31  C   UNL A   1      36.721  33.892  29.718  1.00  0.00     0.010 A 
ATOM     32  C   UNL A   1      35.219  32.931  31.354  1.00  0.00     0.010 A 
ATOM     33  C   UNL A   1      36.521  33.093  30.854  1.00  0.00    -0.014 A 
BRANCH  33  34
ATOM     34  C   UNL A   1      37.688  32.453  31.512  1.00  0.00     0.031 A 
ATOM     35  C   UNL A   1      38.160  32.905  32.866  1.00  0.00     0.074 A 
ATOM     36  C   UNL A   1      38.312  31.434  30.889  1.00  0.00     0.049 A 
ATOM     37  N   UNL A   1      39.144  32.436  33.589  1.00  0.00    -0.248 NA
ATOM     38  C   UNL A   1      37.445  34.030  33.490  1.00  0.00     0.031 C 
ATOM     39  C   UNL A   1      37.965  30.924  29.562  1.00  0.00     0.029 A 
ATOM     40  N   UNL A   1      39.359  30.644  31.287  1.00  0.00    -0.354 N 
ATOM     41  C   UNL A   1      39.203  33.239  34.721  1.00  0.00     0.074 A 
ATOM     42  C   UNL A   1      38.149  34.223  34.597  1.00  0.00     0.031 C 
ATOM     43  C   UNL A   1      38.757  29.883  29.271  1.00  0.00     0.029 A 
ATOM     44  C   UNL A   1      39.702  29.684  30.366  1.00  0.00     0.049 A 
ATOM     45  H   UNL A   1      39.820  30.754  32.150  1.00  0.00     0.167 HD
ATOM     46  C   UNL A   1      40.048  33.155  35.774  1.00  0.00     0.034 A 
ATOM     47  C   UNL A   1      40.673  28.752  30.387  1.00  0.00     0.034 A 
ATOM     48  C   UNL A   1      41.053  32.138  35.928  1.00  0.00     0.049 A 
ATOM     49  C   UNL A   1      41.576  28.656  31.580  1.00  0.00     0.074 A 
ATOM     50  C   UNL A   1      41.894  31.922  37.005  1.00  0.00     0.029 A 
ATOM     51  N   UNL A   1      41.356  31.175  34.980  1.00  0.00    -0.354 N 
ATOM     52  N   UNL A   1      41.547  29.358  32.685  1.00  0.00    -0.248 NA
ATOM     53  C   UNL A   1      42.633  27.636  31.538  1.00  0.00     0.031 C 
ATOM     54  C   UNL A   1      42.720  30.834  36.701  1.00  0.00     0.029 A 
ATOM     55  C   UNL A   1      42.383  30.368  35.440  1.00  0.00     0.049 A 
ATOM     56  H   UNL A   1      40.909  31.078  34.108  1.00  0.00     0.167 HD
ATOM     57  C   UNL A   1      42.574  28.864  33.476  1.00  0.00     0.074 A 
ATOM     58  C   UNL A   1      43.197  27.788  32.732  1.00  0.00     0.031 C 
ATOM     59  C   UNL A   1      42.972  29.279  34.704  1.00  0.00     0.034 A 
BRANCH  46  60
ATOM     60  C   UNL A   1      39.908  34.172  36.873  1.00  0.00     0.023 A 
ATOM     61  C   UNL A   1      40.256  35.514  36.628  1.00  0.00     0.012 A 
ATOM     62  C   UNL A   1      39.356  33.813  38.118  1.00  0.00     0.148 A 
ATOM     63  C   UNL A   1      40.072  36.485  37.612  1.00  0.00     0.002 A 
ATOM     64  C   UNL A   1      39.148  34.790  39.084  1.00  0.00     0.091 A 
ATOM     65  F   UNL A   1      39.052  32.526  38.334  1.00  0.00    -0.205 F 
ATOM     66  C   UNL A   1      39.510  36.124  38.835  1.00  0.00     0.022 A 
BRANCH  64  67
ATOM     67  S   UNL A   1      38.378  34.439  40.669  1.00  0.00     0.127 S 
ATOM     68  O   UNL A   1      39.461  33.755  41.376  1.00  0.00    -0.237 OA
ATOM     69  O   UNL A   1      38.075  35.781  41.168  1.00  0.00    -0.237 OA
ATOM     70  O   UNL A   1      37.210  33.620  40.376  1.00  0.00    -0.744 OA
ENDBRANCH  64  67
ENDBRANCH  46  60
BRANCH  47  71
ATOM     71  C   UNL A   1      40.779  27.814  29.239  1.00  0.00     0.023 A 
ATOM     72  C   UNL A   1      39.881  26.734  29.149  1.00  0.00     0.012 A 
ATOM     73  C   UNL A   1      41.663  28.073  28.173  1.00  0.00     0.148 A 
ATOM     74  C   UNL A   1      39.852  25.933  28.008  1.00  0.00     0.002 A 
ATOM     75  C   UNL A   1      41.598  27.299  27.022  1.00  0.00     0.091 A 
ATOM     76  F   UNL A   1      42.500  29.113  28.287  1.00  0.00    -0.205 F 
ATOM     77  C   UNL A   1      40.699  26.223  26.941  1.00  0.00     0.022 A 
BRANCH  75  78
ATOM     78  S   UNL A   1      42.554  27.671  25.548  1.00  0.00     0.127 S 
ATOM     79  O   UNL A   1      43.913  27.732  26.080  1.00  0.00    -0.237 OA
ATOM     80  O   UNL A   1      42.270  26.505  24.711  1.00  0.00    -0.237 OA
ATOM     81  O   UNL A   1      42.030  28.931  25.040  1.00  0.00    -0.744 OA
ENDBRANCH  75  78
ENDBRANCH  47  71
BRANCH  59  82
ATOM     82  C   UNL A   1      44.141  28.579  35.340  1.00  0.00     0.023 A 
ATOM     83  C   UNL A   1      45.447  29.018  35.049  1.00  0.00     0.012 A 
ATOM     84  C   UNL A   1      43.941  27.582  36.314  1.00  0.00     0.148 A 
ATOM     85  C   UNL A   1      46.541  28.467  35.716  1.00  0.00     0.002 A 
ATOM     86  C   UNL A   1      45.032  27.063  36.998  1.00  0.00     0.091 A 
ATOM     87  F   UNL A   1      42.687  27.177  36.563  1.00  0.00    -0.205 F 
ATOM     88  C   UNL A   1      46.333  27.501  36.697  1.00  0.00     0.022 A 
BRANCH  86  89
ATOM     89  S   UNL A   1      44.861  25.872  38.333  1.00  0.00     0.127 S 
ATOM     90  O   UNL A   1      46.258  25.596  38.666  1.00  0.00    -0.237 OA
ATOM     91  O   UNL A   1      44.133  26.640  39.342  1.00  0.00    -0.237 OA
ATOM     92  O   UNL A   1      44.121  24.746  37.778  1.00  0.00    -0.744 OA
ENDBRANCH  86  89
ENDBRANCH  59  82
ENDBRANCH  33  34
ENDBRANCH  25  28
ENDBRANCH  23  24
ENDBRANCH   1  23
TORSDOF 15
ENDMDL
MODEL 2
REMARK VINA RESULT:     -12.1      2.480      3.324
REMARK SMILES C=CCn1c(=S)[nH]c2cc(C(=O)NCCCNC(=O)c3ccc(-c4c5nc(c(-c6cccc(S(=O)(=O)[O-])c6F)c6ccc([nH]6)c(-c6cccc(S(=O)(=O)[O-])c6F)c6nc(c(-c7cccc(S(=O)(=O)[O-])c7F)c7ccc4[nH]7)C=C6)C=C5)cc3)ccc2c1=O
REMARK SMILES IDX 15 1 14 2 13 3 11 4 12 5 10 7 4 8 5 9 86 10 6 11 7 12 85 13
REMARK SMILES IDX 87 14 8 15 84 17 9 18 83 19 3 20 2 21 1 22 16 23 17 24 18 25
REMARK SMILES IDX 19 27 20 28 21 29 82 30 22 31 81 32 23 33 24 34 25 35 75 36
REMARK SMILES IDX 26 37 80 38 74 39 76 40 27 41 79 42 73 43 72 44 28 46 60 47
REMARK SMILES IDX 40 48 59 49 41 50 44 51 58 52 77 53 42 54 43 55 57 57 78 58
REMARK SMILES IDX 45 59 29 60 30 61 38 62 31 63 33 64 39 65 32 66 34 67 35 68
REMARK SMILES IDX 36 69 37 70 61 71 62 72 70 73 63 74 65 75 71 76 64 77 66 78
REMARK SMILES IDX 67 79 68 80 69 81 46 82 47 83 55 84 48 85 50 86 56 87 49 88
REMARK SMILES IDX 51 89 52 90 53 91 54 92
REMARK H PARENT 13 6 7 16 17 26 76 45 44 56
REMARK Flexibility Score: inf
ROOT
ATOM      1  C   UNL A   1      31.496  28.965  25.126  1.00  0.00     0.042 C 
ENDROOT
BRANCH   1   2
ATOM      2  C   UNL A   1      31.353  28.981  23.606  1.00  0.00     0.118 C 
BRANCH   2   3
ATOM      3  N   UNL A   1      32.649  29.032  22.955  1.00  0.00    -0.352 N 
ATOM      4  C   UNL A   1      33.531  28.058  22.565  1.00  0.00     0.251 C 
ATOM      5  O   UNL A   1      34.544  28.420  21.966  1.00  0.00    -0.269 OA
ATOM      6  H   UNL A   1      32.954  29.945  22.753  1.00  0.00     0.163 HD
BRANCH   4   7
ATOM      7  C   UNL A   1      33.311  26.598  22.778  1.00  0.00     0.041 A 
ATOM      8  N   UNL A   1      33.253  22.039  24.980  1.00  0.00    -0.281 N 
ATOM      9  C   UNL A   1      33.607  22.939  25.985  1.00  0.00     0.180 A 
ATOM     10  C   UNL A   1      32.917  22.435  23.677  1.00  0.00     0.262 A 
ATOM     11  S   UNL A   1      33.955  22.588  27.589  1.00  0.00    -0.040 S 
ATOM     12  N   UNL A   1      33.685  24.261  25.632  1.00  0.00    -0.332 N 
ATOM     13  C   UNL A   1      33.014  23.868  23.363  1.00  0.00     0.064 A 
ATOM     14  O   UNL A   1      32.572  21.663  22.785  1.00  0.00    -0.269 OA
ATOM     15  C   UNL A   1      33.427  24.744  24.352  1.00  0.00     0.054 A 
ATOM     16  H   UNL A   1      33.941  24.910  26.326  1.00  0.00     0.169 HD
ATOM     17  C   UNL A   1      32.699  24.346  22.093  1.00  0.00     0.017 A 
ATOM     18  C   UNL A   1      33.580  26.102  24.068  1.00  0.00     0.040 A 
ATOM     19  C   UNL A   1      32.827  25.710  21.813  1.00  0.00     0.015 A 
BRANCH   8  20
ATOM     20  C   UNL A   1      33.204  20.592  25.210  1.00  0.00     0.155 C 
BRANCH  20  21
ATOM     21  C   UNL A   1      34.526  19.989  24.807  1.00  0.00    -0.013 C 
ATOM     22  C   UNL A   1      35.722  20.572  24.958  1.00  0.00     0.006 C 
ENDBRANCH  20  21
ENDBRANCH   8  20
ENDBRANCH   4   7
ENDBRANCH   2   3
ENDBRANCH   1   2
BRANCH   1  23
ATOM     23  C   UNL A   1      32.731  29.707  25.620  1.00  0.00     0.118 C 
BRANCH  23  24
ATOM     24  N   UNL A   1      32.415  31.046  26.093  1.00  0.00    -0.352 N 
ATOM     25  C   UNL A   1      33.036  31.803  27.060  1.00  0.00     0.251 C 
ATOM     26  H   UNL A   1      31.643  31.474  25.656  1.00  0.00     0.163 HD
ATOM     27  O   UNL A   1      32.500  32.825  27.465  1.00  0.00    -0.269 OA
BRANCH  25  28
ATOM     28  C   UNL A   1      34.332  31.357  27.621  1.00  0.00     0.039 A 
ATOM     29  C   UNL A   1      34.533  30.019  27.965  1.00  0.00     0.014 A 
ATOM     30  C   UNL A   1      35.352  32.292  27.812  1.00  0.00     0.014 A 
ATOM     31  C   UNL A   1      35.683  29.650  28.654  1.00  0.00     0.010 A 
ATOM     32  C   UNL A   1      36.545  31.901  28.426  1.00  0.00     0.010 A 
ATOM     33  C   UNL A   1      36.700  30.587  28.898  1.00  0.00    -0.014 A 
BRANCH  33  34
ATOM     34  C   UNL A   1      37.919  30.168  29.633  1.00  0.00     0.031 A 
ATOM     35  C   UNL A   1      38.153  30.595  31.056  1.00  0.00     0.074 A 
ATOM     36  C   UNL A   1      38.814  29.371  29.015  1.00  0.00     0.049 A 
ATOM     37  N   UNL A   1      39.151  30.296  31.847  1.00  0.00    -0.248 NA
ATOM     38  C   UNL A   1      37.146  31.475  31.671  1.00  0.00     0.031 C 
ATOM     39  C   UNL A   1      38.712  28.913  27.629  1.00  0.00     0.029 A 
ATOM     40  N   UNL A   1      39.975  28.803  29.471  1.00  0.00    -0.354 N 
ATOM     41  C   UNL A   1      38.923  30.991  33.028  1.00  0.00     0.074 A 
ATOM     42  C   UNL A   1      37.687  31.723  32.856  1.00  0.00     0.031 C 
ATOM     43  C   UNL A   1      39.745  28.104  27.358  1.00  0.00     0.029 A 
ATOM     44  C   UNL A   1      40.609  28.026  28.532  1.00  0.00     0.049 A 
ATOM     45  H   UNL A   1      40.320  28.937  30.383  1.00  0.00     0.167 HD
ATOM     46  C   UNL A   1      39.668  31.007  34.157  1.00  0.00     0.034 A 
ATOM     47  C   UNL A   1      41.763  27.335  28.595  1.00  0.00     0.034 A 
ATOM     48  C   UNL A   1      40.862  30.229  34.351  1.00  0.00     0.049 A 
ATOM     49  C   UNL A   1      42.554  27.339  29.868  1.00  0.00     0.074 A 
ATOM     50  C   UNL A   1      41.632  30.113  35.495  1.00  0.00     0.029 A 
ATOM     51  N   UNL A   1      41.461  29.443  33.381  1.00  0.00    -0.354 N 
ATOM     52  N   UNL A   1      42.267  27.919  31.007  1.00  0.00    -0.248 NA
ATOM     53  C   UNL A   1      43.817  26.587  29.874  1.00  0.00     0.031 C 
ATOM     54  C   UNL A   1      42.709  29.267  35.210  1.00  0.00     0.029 A 
ATOM     55  C   UNL A   1      42.602  28.848  33.894  1.00  0.00     0.049 A 
ATOM     56  H   UNL A   1      41.128  29.324  32.462  1.00  0.00     0.167 HD
ATOM     57  C   UNL A   1      43.306  27.600  31.870  1.00  0.00     0.074 A 
ATOM     58  C   UNL A   1      44.223  26.758  31.127  1.00  0.00     0.031 C 
ATOM     59  C   UNL A   1      43.488  27.985  33.156  1.00  0.00     0.034 A 
BRANCH  46  60
ATOM     60  C   UNL A   1      39.202  31.868  35.297  1.00  0.00     0.023 A 
ATOM     61  C   UNL A   1      38.325  31.333  36.261  1.00  0.00     0.012 A 
ATOM     62  C   UNL A   1      39.696  33.177  35.459  1.00  0.00     0.148 A 
ATOM     63  C   UNL A   1      37.932  32.094  37.362  1.00  0.00     0.002 A 
ATOM     64  C   UNL A   1      39.324  33.919  36.573  1.00  0.00     0.091 A 
ATOM     65  F   UNL A   1      40.513  33.671  34.518  1.00  0.00    -0.205 F 
ATOM     66  C   UNL A   1      38.439  33.382  37.522  1.00  0.00     0.022 A 
BRANCH  64  67
ATOM     67  S   UNL A   1      39.966  35.565  36.900  1.00  0.00     0.127 S 
ATOM     68  O   UNL A   1      41.405  35.311  36.966  1.00  0.00    -0.237 OA
ATOM     69  O   UNL A   1      39.531  36.306  35.716  1.00  0.00    -0.237 OA
ATOM     70  O   UNL A   1      39.351  35.996  38.148  1.00  0.00    -0.744 OA
ENDBRANCH  64  67
ENDBRANCH  46  60
BRANCH  47  71
ATOM     71  C   UNL A   1      42.183  26.547  27.407  1.00  0.00     0.023 A 
ATOM     72  C   UNL A   1      43.014  27.148  26.444  1.00  0.00     0.012 A 
ATOM     73  C   UNL A   1      41.883  25.174  27.308  1.00  0.00     0.148 A 
ATOM     74  C   UNL A   1      43.552  26.390  25.404  1.00  0.00     0.002 A 
ATOM     75  C   UNL A   1      42.457  24.416  26.295  1.00  0.00     0.091 A 
ATOM     76  F   UNL A   1      41.094  24.631  28.245  1.00  0.00    -0.205 F 
ATOM     77  C   UNL A   1      43.285  25.024  25.338  1.00  0.00     0.022 A 
BRANCH  75  78
ATOM     78  S   UNL A   1      42.279  22.632  26.200  1.00  0.00     0.127 S 
ATOM     79  O   UNL A   1      40.827  22.475  26.208  1.00  0.00    -0.237 OA
ATOM     80  O   UNL A   1      42.924  22.340  24.920  1.00  0.00    -0.237 OA
ATOM     81  O   UNL A   1      42.967  22.099  27.367  1.00  0.00    -0.744 OA
ENDBRANCH  75  78
ENDBRANCH  47  71
BRANCH  59  82
ATOM     82  C   UNL A   1      44.725  27.510  33.867  1.00  0.00     0.023 A 
ATOM     83  C   UNL A   1      45.865  28.336  33.887  1.00  0.00     0.012 A 
ATOM     84  C   UNL A   1      44.714  26.316  34.613  1.00  0.00     0.148 A 
ATOM     85  C   UNL A   1      46.983  27.975  34.639  1.00  0.00     0.002 A 
ATOM     86  C   UNL A   1      45.818  25.981  35.385  1.00  0.00     0.091 A 
ATOM     87  F   UNL A   1      43.618  25.545  34.566  1.00  0.00    -0.205 F 
ATOM     88  C   UNL A   1      46.955  26.806  35.396  1.00  0.00     0.022 A 
BRANCH  86  89
ATOM     89  S   UNL A   1      45.848  24.537  36.456  1.00  0.00     0.127 S 
ATOM     90  O   UNL A   1      44.705  24.793  37.331  1.00  0.00    -0.237 OA
ATOM     91  O   UNL A   1      45.658  23.443  35.505  1.00  0.00    -0.237 OA
ATOM     92  O   UNL A   1      47.148  24.550  37.114  1.00  0.00    -0.744 OA
ENDBRANCH  86  89
ENDBRANCH  59  82
ENDBRANCH  33  34
ENDBRANCH  25  28
ENDBRANCH  23  24
ENDBRANCH   1  23
TORSDOF 15
ENDMDL
MODEL 3
REMARK VINA RESULT:     -12.0      5.958     11.190
REMARK SMILES C=CCn1c(=S)[nH]c2cc(C(=O)NCCCNC(=O)c3ccc(-c4c5nc(c(-c6cccc(S(=O)(=O)[O-])c6F)c6ccc([nH]6)c(-c6cccc(S(=O)(=O)[O-])c6F)c6nc(c(-c7cccc(S(=O)(=O)[O-])c7F)c7ccc4[nH]7)C=C6)C=C5)cc3)ccc2c1=O
REMARK SMILES IDX 15 1 14 2 13 3 11 4 12 5 10 7 4 8 5 9 86 10 6 11 7 12 85 13
REMARK SMILES IDX 87 14 8 15 84 17 9 18 83 19 3 20 2 21 1 22 16 23 17 24 18 25
REMARK SMILES IDX 19 27 20 28 21 29 82 30 22 31 81 32 23 33 24 34 25 35 75 36
REMARK SMILES IDX 26 37 80 38 74 39 76 40 27 41 79 42 73 43 72 44 28 46 60 47
REMARK SMILES IDX 40 48 59 49 41 50 44 51 58 52 77 53 42 54 43 55 57 57 78 58
REMARK SMILES IDX 45 59 29 60 30 61 38 62 31 63 33 64 39 65 32 66 34 67 35 68
REMARK SMILES IDX 36 69 37 70 61 71 62 72 70 73 63 74 65 75 71 76 64 77 66 78
REMARK SMILES IDX 67 79 68 80 69 81 46 82 47 83 55 84 48 85 50 86 56 87 49 88
REMARK SMILES IDX 51 89 52 90 53 91 54 92
REMARK H PARENT 13 6 7 16 17 26 76 45 44 56
REMARK Flexibility Score: inf
ROOT
ATOM      1  C   UNL A   1      36.034  21.226  25.585  1.00  0.00     0.042 C 
ENDROOT
BRANCH   1   2
ATOM      2  C   UNL A   1      35.354  19.990  25.000  1.00  0.00     0.118 C 
BRANCH   2   3
ATOM      3  N   UNL A   1      33.935  19.975  25.305  1.00  0.00    -0.352 N 
ATOM      4  C   UNL A   1      32.917  20.851  25.031  1.00  0.00     0.251 C 
ATOM      5  O   UNL A   1      31.781  20.522  25.376  1.00  0.00    -0.269 OA
ATOM      6  H   UNL A   1      33.647  19.179  25.807  1.00  0.00     0.163 HD
BRANCH   4   7
ATOM      7  C   UNL A   1      33.097  22.140  24.304  1.00  0.00     0.041 A 
ATOM      8  N   UNL A   1      33.514  27.104  23.395  1.00  0.00    -0.281 N 
ATOM      9  C   UNL A   1      33.532  26.972  24.783  1.00  0.00     0.180 A 
ATOM     10  C   UNL A   1      33.475  26.009  22.519  1.00  0.00     0.262 A 
ATOM     11  S   UNL A   1      33.652  28.200  25.921  1.00  0.00    -0.040 S 
ATOM     12  N   UNL A   1      33.436  25.700  25.285  1.00  0.00    -0.332 N 
ATOM     13  C   UNL A   1      33.381  24.670  23.119  1.00  0.00     0.064 A 
ATOM     14  O   UNL A   1      33.492  26.101  21.293  1.00  0.00    -0.269 OA
ATOM     15  C   UNL A   1      33.335  24.556  24.498  1.00  0.00     0.054 A 
ATOM     16  H   UNL A   1      33.439  25.588  26.263  1.00  0.00     0.169 HD
ATOM     17  C   UNL A   1      33.335  23.528  22.321  1.00  0.00     0.017 A 
ATOM     18  C   UNL A   1      33.190  23.302  25.094  1.00  0.00     0.040 A 
ATOM     19  C   UNL A   1      33.217  22.270  22.917  1.00  0.00     0.015 A 
BRANCH   8  20
ATOM     20  C   UNL A   1      33.538  28.413  22.735  1.00  0.00     0.155 C 
BRANCH  20  21
ATOM     21  C   UNL A   1      32.146  28.991  22.750  1.00  0.00    -0.013 C 
ATOM     22  C   UNL A   1      31.011  28.280  22.737  1.00  0.00     0.006 C 
ENDBRANCH  20  21
ENDBRANCH   8  20
ENDBRANCH   4   7
ENDBRANCH   2   3
ENDBRANCH   1   2
BRANCH   1  23
ATOM     23  C   UNL A   1      37.442  21.446  25.047  1.00  0.00     0.118 C 
BRANCH  23  24
ATOM     24  N   UNL A   1      38.371  20.423  25.505  1.00  0.00    -0.352 N 
ATOM     25  C   UNL A   1      39.592  20.563  26.125  1.00  0.00     0.251 C 
ATOM     26  H   UNL A   1      38.083  19.495  25.347  1.00  0.00     0.163 HD
ATOM     27  O   UNL A   1      40.322  19.590  26.248  1.00  0.00    -0.269 OA
BRANCH  25  28
ATOM     28  C   UNL A   1      40.020  21.895  26.610  1.00  0.00     0.039 A 
ATOM     29  C   UNL A   1      39.433  23.057  26.105  1.00  0.00     0.014 A 
ATOM     30  C   UNL A   1      41.027  21.979  27.575  1.00  0.00     0.014 A 
ATOM     31  C   UNL A   1      39.967  24.298  26.435  1.00  0.00     0.010 A 
ATOM     32  C   UNL A   1      41.503  23.231  27.971  1.00  0.00     0.010 A 
ATOM     33  C   UNL A   1      41.012  24.399  27.367  1.00  0.00    -0.014 A 
BRANCH  33  34
ATOM     34  C   UNL A   1      41.563  25.736  27.704  1.00  0.00     0.031 A 
ATOM     35  C   UNL A   1      42.928  26.154  27.231  1.00  0.00     0.074 A 
ATOM     36  C   UNL A   1      40.810  26.591  28.424  1.00  0.00     0.049 A 
ATOM     37  N   UNL A   1      43.545  27.294  27.416  1.00  0.00    -0.248 NA
ATOM     38  C   UNL A   1      43.706  25.173  26.459  1.00  0.00     0.031 C 
ATOM     39  C   UNL A   1      39.483  26.290  28.962  1.00  0.00     0.029 A 
ATOM     40  N   UNL A   1      41.048  27.882  28.821  1.00  0.00    -0.354 N 
ATOM     41  C   UNL A   1      44.798  27.147  26.836  1.00  0.00     0.074 A 
ATOM     42  C   UNL A   1      44.855  25.811  26.283  1.00  0.00     0.031 C 
ATOM     43  C   UNL A   1      39.007  27.376  29.586  1.00  0.00     0.029 A 
ATOM     44  C   UNL A   1      40.013  28.433  29.537  1.00  0.00     0.049 A 
ATOM     45  H   UNL A   1      41.878  28.366  28.613  1.00  0.00     0.167 HD
ATOM     46  C   UNL A   1      45.804  28.048  26.757  1.00  0.00     0.034 A 
ATOM     47  C   UNL A   1      39.885  29.648  30.105  1.00  0.00     0.034 A 
ATOM     48  C   UNL A   1      45.724  29.396  27.250  1.00  0.00     0.049 A 
ATOM     49  C   UNL A   1      40.999  30.641  29.976  1.00  0.00     0.074 A 
ATOM     50  C   UNL A   1      46.662  30.407  27.134  1.00  0.00     0.029 A 
ATOM     51  N   UNL A   1      44.653  29.920  27.954  1.00  0.00    -0.354 N 
ATOM     52  N   UNL A   1      42.134  30.518  29.333  1.00  0.00    -0.248 NA
ATOM     53  C   UNL A   1      40.815  31.942  30.634  1.00  0.00     0.031 C 
ATOM     54  C   UNL A   1      46.163  31.541  27.784  1.00  0.00     0.029 A 
ATOM     55  C   UNL A   1      44.910  31.238  28.293  1.00  0.00     0.049 A 
ATOM     56  H   UNL A   1      43.830  29.430  28.181  1.00  0.00     0.167 HD
ATOM     57  C   UNL A   1      42.799  31.724  29.501  1.00  0.00     0.074 A 
ATOM     58  C   UNL A   1      41.932  32.574  30.291  1.00  0.00     0.031 C 
ATOM     59  C   UNL A   1      44.025  32.085  29.051  1.00  0.00     0.034 A 
BRANCH  46  60
ATOM     60  C   UNL A   1      47.079  27.624  26.083  1.00  0.00     0.023 A 
ATOM     61  C   UNL A   1      48.072  26.957  26.827  1.00  0.00     0.012 A 
ATOM     62  C   UNL A   1      47.258  27.814  24.699  1.00  0.00     0.148 A 
ATOM     63  C   UNL A   1      49.233  26.497  26.206  1.00  0.00     0.002 A 
ATOM     64  C   UNL A   1      48.404  27.327  24.081  1.00  0.00     0.091 A 
ATOM     65  F   UNL A   1      46.309  28.470  24.017  1.00  0.00    -0.205 F 
ATOM     66  C   UNL A   1      49.394  26.674  24.834  1.00  0.00     0.022 A 
BRANCH  64  67
ATOM     67  S   UNL A   1      48.679  27.454  22.311  1.00  0.00     0.127 S 
ATOM     68  O   UNL A   1      48.653  26.048  21.908  1.00  0.00    -0.237 OA
ATOM     69  O   UNL A   1      47.522  28.236  21.874  1.00  0.00    -0.237 OA
ATOM     70  O   UNL A   1      49.962  28.125  22.150  1.00  0.00    -0.744 OA
ENDBRANCH  64  67
ENDBRANCH  46  60
BRANCH  47  71
ATOM     71  C   UNL A   1      38.611  29.974  30.798  1.00  0.00     0.023 A 
ATOM     72  C   UNL A   1      38.458  29.627  32.153  1.00  0.00     0.012 A 
ATOM     73  C   UNL A   1      37.622  30.750  30.163  1.00  0.00     0.148 A 
ATOM     74  C   UNL A   1      37.344  30.058  32.871  1.00  0.00     0.002 A 
ATOM     75  C   UNL A   1      36.536  31.213  30.896  1.00  0.00     0.091 A 
ATOM     76  F   UNL A   1      37.801  31.070  28.874  1.00  0.00    -0.205 F 
ATOM     77  C   UNL A   1      36.391  30.862  32.248  1.00  0.00     0.022 A 
BRANCH  75  78
ATOM     78  S   UNL A   1      35.328  32.357  30.220  1.00  0.00     0.127 S 
ATOM     79  O   UNL A   1      34.403  32.511  31.341  1.00  0.00    -0.237 OA
ATOM     80  O   UNL A   1      36.157  33.529  29.939  1.00  0.00    -0.237 OA
ATOM     81  O   UNL A   1      34.773  31.703  29.044  1.00  0.00    -0.744 OA
ENDBRANCH  75  78
ENDBRANCH  47  71
BRANCH  59  82
ATOM     82  C   UNL A   1      44.526  33.460  29.395  1.00  0.00     0.023 A 
ATOM     83  C   UNL A   1      45.230  33.654  30.599  1.00  0.00     0.012 A 
ATOM     84  C   UNL A   1      44.412  34.520  28.475  1.00  0.00     0.148 A 
ATOM     85  C   UNL A   1      45.809  34.890  30.886  1.00  0.00     0.002 A 
ATOM     86  C   UNL A   1      45.021  35.737  28.752  1.00  0.00     0.091 A 
ATOM     87  F   UNL A   1      43.728  34.308  27.341  1.00  0.00    -0.205 F 
ATOM     88  C   UNL A   1      45.716  35.925  29.959  1.00  0.00     0.022 A 
BRANCH  86  89
ATOM     89  S   UNL A   1      45.023  37.106  27.587  1.00  0.00     0.127 S 
ATOM     90  O   UNL A   1      43.594  37.384  27.453  1.00  0.00    -0.237 OA
ATOM     91  O   UNL A   1      45.780  38.127  28.311  1.00  0.00    -0.237 OA
ATOM     92  O   UNL A   1      45.674  36.608  26.382  1.00  0.00    -0.744 OA
ENDBRANCH  86  89
ENDBRANCH  59  82
ENDBRANCH  33  34
ENDBRANCH  25  28
ENDBRANCH  23  24
ENDBRANCH   1  23
TORSDOF 15
ENDMDL
