MODEL 1
REMARK VINA RESULT:     -13.2      0.000      0.000
REMARK SMILES Cc1ccc(C)c(-n2nc(C)c(/C=C(/C#N)C(=O)NCCCNC(=O)c3ccc(-c4c5nc(c(-c6cccc(S(=O)(=O)[O-])c6F)c6ccc([nH]6)c(-c6cccc(S(=O)(=O)[O-])c6F)c6nc(c(-c7cccc(S(=O)(=O)[O-])c7F)c7ccc4[nH]7)C=C6)C=C5)cc3)c2Cl)c1
REMARK SMILES IDX 21 1 20 2 19 3 17 4 18 5 14 7 13 8 12 9 8 10 9 11 89 12
REMARK SMILES IDX 10 13 90 14 11 15 7 16 1 17 2 18 3 19 91 20 4 21 5 22 6 23
REMARK SMILES IDX 15 24 16 25 22 26 23 27 24 28 25 30 26 31 27 32 88 33 28 34
REMARK SMILES IDX 87 35 29 36 30 37 31 38 81 39 32 40 86 41 80 42 82 43 33 44
REMARK SMILES IDX 85 45 79 46 78 47 34 49 66 50 46 51 65 52 47 53 50 54 64 55
REMARK SMILES IDX 83 56 48 57 49 58 63 60 84 61 51 62 35 63 36 64 44 65 37 66
REMARK SMILES IDX 39 67 45 68 38 69 40 70 41 71 42 72 43 73 67 74 68 75 76 76
REMARK SMILES IDX 69 77 71 78 77 79 70 80 72 81 73 82 74 83 75 84 52 85 53 86
REMARK SMILES IDX 61 87 54 88 56 89 62 90 55 91 57 92 58 93 59 94 60 95
REMARK H PARENT 19 6 23 29 82 48 50 59
REMARK Flexibility Score: inf
ROOT
ATOM      1  C   UNL A   1      32.801  29.066  26.812  1.00  0.00     0.042 C 
ENDROOT
BRANCH   1   2
ATOM      2  C   UNL A   1      32.132  29.812  25.631  1.00  0.00     0.118 C 
BRANCH   2   3
ATOM      3  N   UNL A   1      32.851  29.658  24.359  1.00  0.00    -0.351 N 
ATOM      4  C   UNL A   1      32.620  28.986  23.185  1.00  0.00     0.261 C 
ATOM      5  O   UNL A   1      33.558  28.946  22.399  1.00  0.00    -0.268 OA
ATOM      6  H   UNL A   1      33.701  30.155  24.345  1.00  0.00     0.163 HD
BRANCH   4   7
ATOM      7  C   UNL A   1      31.327  28.282  22.883  1.00  0.00     0.117 C 
ATOM      8  C   UNL A   1      30.940  27.078  23.334  1.00  0.00     0.038 C 
BRANCH   8   9
ATOM      9  C   UNL A   1      31.607  26.094  24.158  1.00  0.00     0.036 A 
ATOM     10  N   UNL A   1      33.130  24.550  24.723  1.00  0.00    -0.221 N 
ATOM     11  N   UNL A   1      32.334  24.662  25.807  1.00  0.00    -0.171 NA
ATOM     12  C   UNL A   1      32.791  25.490  23.774  1.00  0.00     0.140 A 
ATOM     13  C   UNL A   1      31.361  25.512  25.445  1.00  0.00     0.069 A 
ATOM     14  Cl  UNL A   1      33.709  25.649  22.334  1.00  0.00    -0.061 Cl
ATOM     15  C   UNL A   1      30.282  25.705  26.447  1.00  0.00     0.069 C 
BRANCH  10  16
ATOM     16  C   UNL A   1      34.290  23.741  24.819  1.00  0.00     0.069 A 
ATOM     17  C   UNL A   1      37.832  24.100  26.183  1.00  0.00     0.044 C 
ATOM     18  C   UNL A   1      36.601  23.525  25.551  1.00  0.00    -0.049 A 
ATOM     19  C   UNL A   1      36.593  22.193  25.124  1.00  0.00     0.004 A 
ATOM     20  C   UNL A   1      35.449  24.300  25.381  1.00  0.00     0.032 A 
ATOM     21  C   UNL A   1      35.439  21.633  24.571  1.00  0.00     0.006 A 
ATOM     22  C   UNL A   1      34.263  22.388  24.431  1.00  0.00    -0.025 A 
ATOM     23  C   UNL A   1      33.089  21.721  23.764  1.00  0.00     0.047 C 
ENDBRANCH  10  16
ENDBRANCH   8   9
BRANCH   7  24
ATOM     24  C   UNL A   1      30.441  29.218  22.075  1.00  0.00     0.105 C 
ATOM     25  N   UNL A   1      29.707  29.994  21.405  1.00  0.00    -0.192 NA
ENDBRANCH   7  24
ENDBRANCH   4   7
ENDBRANCH   2   3
ENDBRANCH   1   2
BRANCH   1  26
ATOM     26  C   UNL A   1      34.206  29.480  27.268  1.00  0.00     0.118 C 
BRANCH  26  27
ATOM     27  N   UNL A   1      34.422  30.930  27.225  1.00  0.00    -0.352 N 
ATOM     28  C   UNL A   1      35.420  31.772  27.691  1.00  0.00     0.251 C 
ATOM     29  H   UNL A   1      33.698  31.412  26.762  1.00  0.00     0.163 HD
ATOM     30  O   UNL A   1      35.224  32.973  27.689  1.00  0.00    -0.269 OA
BRANCH  28  31
ATOM     31  C   UNL A   1      36.713  31.236  28.185  1.00  0.00     0.039 A 
ATOM     32  C   UNL A   1      37.527  31.935  29.086  1.00  0.00     0.014 A 
ATOM     33  C   UNL A   1      37.144  30.010  27.723  1.00  0.00     0.014 A 
ATOM     34  C   UNL A   1      38.761  31.385  29.453  1.00  0.00     0.010 A 
ATOM     35  C   UNL A   1      38.171  29.342  28.305  1.00  0.00     0.010 A 
ATOM     36  C   UNL A   1      39.076  30.092  29.022  1.00  0.00    -0.014 A 
BRANCH  36  37
ATOM     37  C   UNL A   1      40.338  29.419  29.257  1.00  0.00     0.031 A 
ATOM     38  C   UNL A   1      40.526  28.941  30.639  1.00  0.00     0.074 A 
ATOM     39  C   UNL A   1      41.065  28.891  28.245  1.00  0.00     0.049 A 
ATOM     40  N   UNL A   1      41.340  29.409  31.524  1.00  0.00    -0.248 NA
ATOM     41  C   UNL A   1      39.601  27.915  31.146  1.00  0.00     0.031 C 
ATOM     42  C   UNL A   1      40.723  28.835  26.813  1.00  0.00     0.029 A 
ATOM     43  N   UNL A   1      42.174  28.107  28.318  1.00  0.00    -0.354 N 
ATOM     44  C   UNL A   1      41.198  28.562  32.617  1.00  0.00     0.074 A 
ATOM     45  C   UNL A   1      39.953  27.864  32.430  1.00  0.00     0.031 C 
ATOM     46  C   UNL A   1      41.446  27.857  26.221  1.00  0.00     0.029 A 
ATOM     47  C   UNL A   1      42.398  27.335  27.183  1.00  0.00     0.049 A 
ATOM     48  H   UNL A   1      42.765  28.087  29.105  1.00  0.00     0.167 HD
ATOM     49  C   UNL A   1      42.247  28.274  33.434  1.00  0.00     0.034 A 
ATOM     50  C   UNL A   1      43.256  26.291  27.078  1.00  0.00     0.034 A 
ATOM     51  C   UNL A   1      43.390  29.108  33.154  1.00  0.00     0.049 A 
ATOM     52  C   UNL A   1      44.202  26.379  28.219  1.00  0.00     0.074 A 
ATOM     53  C   UNL A   1      43.604  30.469  33.040  1.00  0.00     0.029 A 
ATOM     54  N   UNL A   1      44.462  28.511  32.530  1.00  0.00    -0.354 N 
ATOM     55  N   UNL A   1      45.081  27.332  28.369  1.00  0.00    -0.248 NA
ATOM     56  C   UNL A   1      43.885  25.626  29.422  1.00  0.00     0.031 C 
ATOM     57  C   UNL A   1      44.502  30.607  31.940  1.00  0.00     0.029 A 
ATOM     58  C   UNL A   1      44.830  29.325  31.492  1.00  0.00     0.049 A 
ATOM     59  H   UNL A   1      44.885  27.658  32.783  1.00  0.00     0.167 HD
ATOM     60  C   UNL A   1      45.084  27.590  29.734  1.00  0.00     0.074 A 
ATOM     61  C   UNL A   1      44.426  26.433  30.338  1.00  0.00     0.031 C 
ATOM     62  C   UNL A   1      45.339  28.843  30.224  1.00  0.00     0.034 A 
BRANCH  49  63
ATOM     63  C   UNL A   1      42.381  27.014  34.251  1.00  0.00     0.023 A 
ATOM     64  C   UNL A   1      41.814  27.028  35.543  1.00  0.00     0.012 A 
ATOM     65  C   UNL A   1      43.210  25.917  33.926  1.00  0.00     0.148 A 
ATOM     66  C   UNL A   1      42.081  26.017  36.472  1.00  0.00     0.002 A 
ATOM     67  C   UNL A   1      43.383  24.862  34.814  1.00  0.00     0.091 A 
ATOM     68  F   UNL A   1      43.959  25.939  32.820  1.00  0.00    -0.205 F 
ATOM     69  C   UNL A   1      42.850  24.922  36.101  1.00  0.00     0.022 A 
BRANCH  67  70
ATOM     70  S   UNL A   1      44.283  23.387  34.325  1.00  0.00     0.127 S 
ATOM     71  O   UNL A   1      44.192  22.573  35.532  1.00  0.00    -0.237 OA
ATOM     72  O   UNL A   1      43.492  22.907  33.191  1.00  0.00    -0.237 OA
ATOM     73  O   UNL A   1      45.610  23.867  33.957  1.00  0.00    -0.744 OA
ENDBRANCH  67  70
ENDBRANCH  49  63
BRANCH  50  74
ATOM     74  C   UNL A   1      43.173  25.087  26.218  1.00  0.00     0.023 A 
ATOM     75  C   UNL A   1      44.119  24.901  25.191  1.00  0.00     0.012 A 
ATOM     76  C   UNL A   1      42.348  23.994  26.566  1.00  0.00     0.148 A 
ATOM     77  C   UNL A   1      44.252  23.662  24.548  1.00  0.00     0.002 A 
ATOM     78  C   UNL A   1      42.489  22.764  25.925  1.00  0.00     0.091 A 
ATOM     79  F   UNL A   1      41.487  24.121  27.588  1.00  0.00    -0.205 F 
ATOM     80  C   UNL A   1      43.442  22.592  24.918  1.00  0.00     0.022 A 
BRANCH  78  81
ATOM     81  S   UNL A   1      41.502  21.358  26.459  1.00  0.00     0.127 S 
ATOM     82  O   UNL A   1      40.142  21.736  26.066  1.00  0.00    -0.237 OA
ATOM     83  O   UNL A   1      42.067  20.260  25.684  1.00  0.00    -0.237 OA
ATOM     84  O   UNL A   1      41.707  21.313  27.901  1.00  0.00    -0.744 OA
ENDBRANCH  78  81
ENDBRANCH  50  74
BRANCH  62  85
ATOM     85  C   UNL A   1      45.899  29.895  29.294  1.00  0.00     0.023 A 
ATOM     86  C   UNL A   1      47.282  30.017  29.045  1.00  0.00     0.012 A 
ATOM     87  C   UNL A   1      45.006  30.640  28.502  1.00  0.00     0.148 A 
ATOM     88  C   UNL A   1      47.763  30.877  28.054  1.00  0.00     0.002 A 
ATOM     89  C   UNL A   1      45.486  31.456  27.482  1.00  0.00     0.091 A 
ATOM     90  F   UNL A   1      43.690  30.520  28.739  1.00  0.00    -0.205 F 
ATOM     91  C   UNL A   1      46.865  31.584  27.261  1.00  0.00     0.022 A 
BRANCH  89  92
ATOM     92  S   UNL A   1      44.370  32.277  26.340  1.00  0.00     0.127 S 
ATOM     93  O   UNL A   1      43.437  31.206  25.998  1.00  0.00    -0.237 OA
ATOM     94  O   UNL A   1      43.799  33.346  27.163  1.00  0.00    -0.237 OA
ATOM     95  O   UNL A   1      45.209  32.759  25.248  1.00  0.00    -0.744 OA
ENDBRANCH  89  92
ENDBRANCH  62  85
ENDBRANCH  36  37
ENDBRANCH  28  31
ENDBRANCH  26  27
ENDBRANCH   1  26
TORSDOF 16
ENDMDL
MODEL 2
REMARK VINA RESULT:     -12.9      1.896      2.383
REMARK SMILES Cc1ccc(C)c(-n2nc(C)c(/C=C(/C#N)C(=O)NCCCNC(=O)c3ccc(-c4c5nc(c(-c6cccc(S(=O)(=O)[O-])c6F)c6ccc([nH]6)c(-c6cccc(S(=O)(=O)[O-])c6F)c6nc(c(-c7cccc(S(=O)(=O)[O-])c7F)c7ccc4[nH]7)C=C6)C=C5)cc3)c2Cl)c1
REMARK SMILES IDX 21 1 20 2 19 3 17 4 18 5 14 7 13 8 12 9 8 10 9 11 89 12
REMARK SMILES IDX 10 13 90 14 11 15 7 16 1 17 2 18 3 19 91 20 4 21 5 22 6 23
REMARK SMILES IDX 15 24 16 25 22 26 23 27 24 28 25 30 26 31 27 32 88 33 28 34
REMARK SMILES IDX 87 35 29 36 30 37 31 38 81 39 32 40 86 41 80 42 82 43 33 44
REMARK SMILES IDX 85 45 79 46 78 47 34 49 66 50 46 51 65 52 47 53 50 54 64 55
REMARK SMILES IDX 83 56 48 57 49 58 63 60 84 61 51 62 35 63 36 64 44 65 37 66
REMARK SMILES IDX 39 67 45 68 38 69 40 70 41 71 42 72 43 73 67 74 68 75 76 76
REMARK SMILES IDX 69 77 71 78 77 79 70 80 72 81 73 82 74 83 75 84 52 85 53 86
REMARK SMILES IDX 61 87 54 88 56 89 62 90 55 91 57 92 58 93 59 94 60 95
REMARK H PARENT 19 6 23 29 82 48 50 59
REMARK Flexibility Score: inf
ROOT
ATOM      1  C   UNL A   1      32.614  30.811  26.761  1.00  0.00     0.042 C 
ENDROOT
BRANCH   1   2
ATOM      2  C   UNL A   1      32.183  29.632  25.856  1.00  0.00     0.118 C 
BRANCH   2   3
ATOM      3  N   UNL A   1      32.908  29.579  24.578  1.00  0.00    -0.351 N 
ATOM      4  C   UNL A   1      32.679  29.007  23.352  1.00  0.00     0.261 C 
ATOM      5  O   UNL A   1      33.622  29.026  22.570  1.00  0.00    -0.268 OA
ATOM      6  H   UNL A   1      33.760  30.070  24.609  1.00  0.00     0.163 HD
BRANCH   4   7
ATOM      7  C   UNL A   1      31.384  28.338  22.987  1.00  0.00     0.117 C 
ATOM      8  C   UNL A   1      31.206  27.045  22.670  1.00  0.00     0.038 C 
BRANCH   8   9
ATOM      9  C   UNL A   1      32.135  25.948  22.528  1.00  0.00     0.036 A 
ATOM     10  N   UNL A   1      33.578  24.354  23.165  1.00  0.00    -0.221 N 
ATOM     11  N   UNL A   1      33.497  24.230  21.824  1.00  0.00    -0.171 NA
ATOM     12  C   UNL A   1      32.674  25.290  23.620  1.00  0.00     0.140 A 
ATOM     13  C   UNL A   1      32.713  25.241  21.422  1.00  0.00     0.069 A 
ATOM     14  Cl  UNL A   1      32.481  25.574  25.300  1.00  0.00    -0.061 Cl
ATOM     15  C   UNL A   1      32.569  25.386  19.950  1.00  0.00     0.069 C 
BRANCH  10  16
ATOM     16  C   UNL A   1      34.315  23.383  23.889  1.00  0.00     0.069 A 
ATOM     17  C   UNL A   1      37.645  23.223  25.737  1.00  0.00     0.044 C 
ATOM     18  C   UNL A   1      36.316  22.839  25.163  1.00  0.00    -0.049 A 
ATOM     19  C   UNL A   1      35.798  21.561  25.397  1.00  0.00     0.004 A 
ATOM     20  C   UNL A   1      35.576  23.742  24.393  1.00  0.00     0.032 A 
ATOM     21  C   UNL A   1      34.541  21.205  24.902  1.00  0.00     0.006 A 
ATOM     22  C   UNL A   1      33.769  22.115  24.161  1.00  0.00    -0.025 A 
ATOM     23  C   UNL A   1      32.457  21.621  23.611  1.00  0.00     0.047 C 
ENDBRANCH  10  16
ENDBRANCH   8   9
BRANCH   7  24
ATOM     24  C   UNL A   1      30.253  29.340  23.162  1.00  0.00     0.105 C 
ATOM     25  N   UNL A   1      29.316  30.170  23.307  1.00  0.00    -0.192 NA
ENDBRANCH   7  24
ENDBRANCH   4   7
ENDBRANCH   2   3
ENDBRANCH   1   2
BRANCH   1  26
ATOM     26  C   UNL A   1      34.009  30.804  27.399  1.00  0.00     0.118 C 
BRANCH  26  27
ATOM     27  N   UNL A   1      34.119  31.703  28.553  1.00  0.00    -0.352 N 
ATOM     28  C   UNL A   1      35.000  31.800  29.620  1.00  0.00     0.251 C 
ATOM     29  H   UNL A   1      33.413  32.388  28.574  1.00  0.00     0.163 HD
ATOM     30  O   UNL A   1      34.716  32.532  30.550  1.00  0.00    -0.269 OA
BRANCH  28  31
ATOM     31  C   UNL A   1      36.273  31.036  29.643  1.00  0.00     0.039 A 
ATOM     32  C   UNL A   1      36.316  29.643  29.783  1.00  0.00     0.014 A 
ATOM     33  C   UNL A   1      37.463  31.726  29.544  1.00  0.00     0.014 A 
ATOM     34  C   UNL A   1      37.561  29.008  29.858  1.00  0.00     0.010 A 
ATOM     35  C   UNL A   1      38.641  31.097  29.305  1.00  0.00     0.010 A 
ATOM     36  C   UNL A   1      38.717  29.766  29.645  1.00  0.00    -0.014 A 
BRANCH  36  37
ATOM     37  C   UNL A   1      40.074  29.268  29.763  1.00  0.00     0.031 A 
ATOM     38  C   UNL A   1      40.568  29.167  31.148  1.00  0.00     0.074 A 
ATOM     39  C   UNL A   1      40.663  28.559  28.771  1.00  0.00     0.049 A 
ATOM     40  N   UNL A   1      41.466  29.900  31.713  1.00  0.00    -0.248 NA
ATOM     41  C   UNL A   1      39.883  28.234  32.058  1.00  0.00     0.031 C 
ATOM     42  C   UNL A   1      40.075  28.122  27.494  1.00  0.00     0.029 A 
ATOM     43  N   UNL A   1      41.853  27.904  28.792  1.00  0.00    -0.354 N 
ATOM     44  C   UNL A   1      41.631  29.346  32.977  1.00  0.00     0.074 A 
ATOM     45  C   UNL A   1      40.468  28.532  33.218  1.00  0.00     0.031 C 
ATOM     46  C   UNL A   1      40.791  27.084  27.007  1.00  0.00     0.029 A 
ATOM     47  C   UNL A   1      41.960  26.891  27.845  1.00  0.00     0.049 A 
ATOM     48  H   UNL A   1      42.577  28.125  29.423  1.00  0.00     0.167 HD
ATOM     49  C   UNL A   1      42.839  29.350  33.603  1.00  0.00     0.034 A 
ATOM     50  C   UNL A   1      42.904  25.921  27.808  1.00  0.00     0.034 A 
ATOM     51  C   UNL A   1      43.801  30.169  32.908  1.00  0.00     0.049 A 
ATOM     52  C   UNL A   1      44.025  26.361  28.677  1.00  0.00     0.074 A 
ATOM     53  C   UNL A   1      43.823  31.470  32.442  1.00  0.00     0.029 A 
ATOM     54  N   UNL A   1      44.806  29.516  32.230  1.00  0.00    -0.354 N 
ATOM     55  N   UNL A   1      44.794  27.383  28.417  1.00  0.00    -0.248 NA
ATOM     56  C   UNL A   1      44.028  25.912  30.060  1.00  0.00     0.031 C 
ATOM     57  C   UNL A   1      44.481  31.395  31.179  1.00  0.00     0.029 A 
ATOM     58  C   UNL A   1      44.876  30.070  30.980  1.00  0.00     0.049 A 
ATOM     59  H   UNL A   1      45.369  28.788  32.580  1.00  0.00     0.167 HD
ATOM     60  C   UNL A   1      45.014  27.975  29.656  1.00  0.00     0.074 A 
ATOM     61  C   UNL A   1      44.624  26.960  30.633  1.00  0.00     0.031 C 
ATOM     62  C   UNL A   1      45.199  29.325  29.780  1.00  0.00     0.034 A 
BRANCH  49  63
ATOM     63  C   UNL A   1      43.273  28.348  34.643  1.00  0.00     0.023 A 
ATOM     64  C   UNL A   1      43.841  28.862  35.827  1.00  0.00     0.012 A 
ATOM     65  C   UNL A   1      43.366  26.952  34.440  1.00  0.00     0.148 A 
ATOM     66  C   UNL A   1      44.494  28.036  36.747  1.00  0.00     0.002 A 
ATOM     67  C   UNL A   1      43.918  26.123  35.409  1.00  0.00     0.091 A 
ATOM     68  F   UNL A   1      43.060  26.418  33.254  1.00  0.00    -0.205 F 
ATOM     69  C   UNL A   1      44.515  26.661  36.549  1.00  0.00     0.022 A 
BRANCH  67  70
ATOM     70  S   UNL A   1      43.866  24.337  35.230  1.00  0.00     0.127 S 
ATOM     71  O   UNL A   1      44.663  24.139  34.024  1.00  0.00    -0.237 OA
ATOM     72  O   UNL A   1      44.495  23.886  36.472  1.00  0.00    -0.237 OA
ATOM     73  O   UNL A   1      42.446  24.015  35.137  1.00  0.00    -0.744 OA
ENDBRANCH  67  70
ENDBRANCH  49  63
BRANCH  50  74
ATOM     74  C   UNL A   1      42.814  24.537  27.285  1.00  0.00     0.023 A 
ATOM     75  C   UNL A   1      41.575  23.867  27.302  1.00  0.00     0.012 A 
ATOM     76  C   UNL A   1      43.864  23.971  26.527  1.00  0.00     0.148 A 
ATOM     77  C   UNL A   1      41.383  22.685  26.573  1.00  0.00     0.002 A 
ATOM     78  C   UNL A   1      43.664  22.798  25.800  1.00  0.00     0.091 A 
ATOM     79  F   UNL A   1      45.032  24.624  26.435  1.00  0.00    -0.205 F 
ATOM     80  C   UNL A   1      42.424  22.154  25.816  1.00  0.00     0.022 A 
BRANCH  78  81
ATOM     81  S   UNL A   1      44.980  22.156  24.756  1.00  0.00     0.127 S 
ATOM     82  O   UNL A   1      44.399  20.932  24.200  1.00  0.00    -0.237 OA
ATOM     83  O   UNL A   1      45.168  23.226  23.785  1.00  0.00    -0.237 OA
ATOM     84  O   UNL A   1      46.077  21.916  25.685  1.00  0.00    -0.744 OA
ENDBRANCH  78  81
ENDBRANCH  50  74
BRANCH  62  85
ATOM     85  C   UNL A   1      45.447  30.149  28.537  1.00  0.00     0.023 A 
ATOM     86  C   UNL A   1      44.391  30.658  27.751  1.00  0.00     0.012 A 
ATOM     87  C   UNL A   1      46.757  30.589  28.269  1.00  0.00     0.148 A 
ATOM     88  C   UNL A   1      44.637  31.559  26.711  1.00  0.00     0.002 A 
ATOM     89  C   UNL A   1      46.991  31.525  27.266  1.00  0.00     0.091 A 
ATOM     90  F   UNL A   1      47.758  30.105  29.019  1.00  0.00    -0.205 F 
ATOM     91  C   UNL A   1      45.934  32.005  26.479  1.00  0.00     0.022 A 
BRANCH  89  92
ATOM     92  S   UNL A   1      48.618  32.241  27.018  1.00  0.00     0.127 S 
ATOM     93  O   UNL A   1      48.373  33.196  25.940  1.00  0.00    -0.237 OA
ATOM     94  O   UNL A   1      48.903  32.849  28.320  1.00  0.00    -0.237 OA
ATOM     95  O   UNL A   1      49.495  31.123  26.686  1.00  0.00    -0.744 OA
ENDBRANCH  89  92
ENDBRANCH  62  85
ENDBRANCH  36  37
ENDBRANCH  28  31
ENDBRANCH  26  27
ENDBRANCH   1  26
TORSDOF 16
ENDMDL
MODEL 3
REMARK VINA RESULT:     -12.3      1.817      2.436
REMARK SMILES Cc1ccc(C)c(-n2nc(C)c(/C=C(/C#N)C(=O)NCCCNC(=O)c3ccc(-c4c5nc(c(-c6cccc(S(=O)(=O)[O-])c6F)c6ccc([nH]6)c(-c6cccc(S(=O)(=O)[O-])c6F)c6nc(c(-c7cccc(S(=O)(=O)[O-])c7F)c7ccc4[nH]7)C=C6)C=C5)cc3)c2Cl)c1
REMARK SMILES IDX 21 1 20 2 19 3 17 4 18 5 14 7 13 8 12 9 8 10 9 11 89 12
REMARK SMILES IDX 10 13 90 14 11 15 7 16 1 17 2 18 3 19 91 20 4 21 5 22 6 23
REMARK SMILES IDX 15 24 16 25 22 26 23 27 24 28 25 30 26 31 27 32 88 33 28 34
REMARK SMILES IDX 87 35 29 36 30 37 31 38 81 39 32 40 86 41 80 42 82 43 33 44
REMARK SMILES IDX 85 45 79 46 78 47 34 49 66 50 46 51 65 52 47 53 50 54 64 55
REMARK SMILES IDX 83 56 48 57 49 58 63 60 84 61 51 62 35 63 36 64 44 65 37 66
REMARK SMILES IDX 39 67 45 68 38 69 40 70 41 71 42 72 43 73 67 74 68 75 76 76
REMARK SMILES IDX 69 77 71 78 77 79 70 80 72 81 73 82 74 83 75 84 52 85 53 86
REMARK SMILES IDX 61 87 54 88 56 89 62 90 55 91 57 92 58 93 59 94 60 95
REMARK H PARENT 19 6 23 29 82 48 50 59
REMARK Flexibility Score: inf
ROOT
ATOM      1  C   UNL A   1      32.631  28.348  27.393  1.00  0.00     0.042 C 
ENDROOT
BRANCH   1   2
ATOM      2  C   UNL A   1      32.041  27.321  26.397  1.00  0.00     0.118 C 
BRANCH   2   3
ATOM      3  N   UNL A   1      32.948  26.990  25.289  1.00  0.00    -0.351 N 
ATOM      4  C   UNL A   1      32.823  26.330  24.092  1.00  0.00     0.261 C 
ATOM      5  O   UNL A   1      33.870  26.088  23.505  1.00  0.00    -0.268 OA
ATOM      6  H   UNL A   1      33.863  27.320  25.441  1.00  0.00     0.163 HD
BRANCH   4   7
ATOM      7  C   UNL A   1      31.503  25.868  23.544  1.00  0.00     0.117 C 
ATOM      8  C   UNL A   1      30.928  24.669  23.731  1.00  0.00     0.038 C 
BRANCH   8   9
ATOM      9  C   UNL A   1      31.372  23.481  24.426  1.00  0.00     0.036 A 
ATOM     10  N   UNL A   1      32.490  21.567  24.757  1.00  0.00    -0.221 N 
ATOM     11  N   UNL A   1      31.808  21.770  25.904  1.00  0.00    -0.171 NA
ATOM     12  C   UNL A   1      32.345  22.643  23.910  1.00  0.00     0.140 A 
ATOM     13  C   UNL A   1      31.060  22.861  25.681  1.00  0.00     0.069 A 
ATOM     14  Cl  UNL A   1      33.193  22.705  22.420  1.00  0.00    -0.061 Cl
ATOM     15  C   UNL A   1      30.120  23.220  26.774  1.00  0.00     0.069 C 
BRANCH  10  16
ATOM     16  C   UNL A   1      33.415  20.493  24.704  1.00  0.00     0.069 A 
ATOM     17  C   UNL A   1      33.413  16.872  23.513  1.00  0.00     0.044 C 
ATOM     18  C   UNL A   1      33.862  18.184  24.078  1.00  0.00    -0.049 A 
ATOM     19  C   UNL A   1      35.190  18.350  24.486  1.00  0.00     0.004 A 
ATOM     20  C   UNL A   1      32.973  19.257  24.205  1.00  0.00     0.032 A 
ATOM     21  C   UNL A   1      35.632  19.581  24.977  1.00  0.00     0.006 A 
ATOM     22  C   UNL A   1      34.760  20.678  25.072  1.00  0.00    -0.025 A 
ATOM     23  C   UNL A   1      35.308  21.946  25.674  1.00  0.00     0.047 C 
ENDBRANCH  10  16
ENDBRANCH   8   9
BRANCH   7  24
ATOM     24  C   UNL A   1      30.835  27.036  22.835  1.00  0.00     0.105 C 
ATOM     25  N   UNL A   1      30.282  28.003  22.246  1.00  0.00    -0.192 NA
ENDBRANCH   7  24
ENDBRANCH   4   7
ENDBRANCH   2   3
ENDBRANCH   1   2
BRANCH   1  26
ATOM     26  C   UNL A   1      34.058  28.872  27.181  1.00  0.00     0.118 C 
BRANCH  26  27
ATOM     27  N   UNL A   1      34.136  30.337  27.158  1.00  0.00    -0.352 N 
ATOM     28  C   UNL A   1      35.060  31.261  27.622  1.00  0.00     0.251 C 
ATOM     29  H   UNL A   1      33.362  30.755  26.716  1.00  0.00     0.163 HD
ATOM     30  O   UNL A   1      34.752  32.439  27.643  1.00  0.00    -0.269 OA
BRANCH  28  31
ATOM     31  C   UNL A   1      36.406  30.842  28.085  1.00  0.00     0.039 A 
ATOM     32  C   UNL A   1      37.140  31.569  29.032  1.00  0.00     0.014 A 
ATOM     33  C   UNL A   1      36.968  29.703  27.548  1.00  0.00     0.014 A 
ATOM     34  C   UNL A   1      38.429  31.137  29.367  1.00  0.00     0.010 A 
ATOM     35  C   UNL A   1      38.065  29.118  28.090  1.00  0.00     0.010 A 
ATOM     36  C   UNL A   1      38.884  29.916  28.856  1.00  0.00    -0.014 A 
BRANCH  36  37
ATOM     37  C   UNL A   1      40.214  29.374  29.052  1.00  0.00     0.031 A 
ATOM     38  C   UNL A   1      40.584  29.165  30.464  1.00  0.00     0.074 A 
ATOM     39  C   UNL A   1      40.870  28.717  28.067  1.00  0.00     0.049 A 
ATOM     40  N   UNL A   1      41.447  29.833  31.152  1.00  0.00    -0.248 NA
ATOM     41  C   UNL A   1      39.803  28.194  31.246  1.00  0.00     0.031 C 
ATOM     42  C   UNL A   1      40.384  28.384  26.717  1.00  0.00     0.029 A 
ATOM     43  N   UNL A   1      42.039  28.028  28.143  1.00  0.00    -0.354 N 
ATOM     44  C   UNL A   1      41.490  29.190  32.384  1.00  0.00     0.074 A 
ATOM     45  C   UNL A   1      40.293  28.396  32.469  1.00  0.00     0.031 C 
ATOM     46  C   UNL A   1      41.116  27.361  26.221  1.00  0.00     0.029 A 
ATOM     47  C   UNL A   1      42.204  27.080  27.140  1.00  0.00     0.049 A 
ATOM     48  H   UNL A   1      42.710  28.186  28.846  1.00  0.00     0.167 HD
ATOM     49  C   UNL A   1      42.639  29.118  33.109  1.00  0.00     0.034 A 
ATOM     50  C   UNL A   1      43.126  26.088  27.115  1.00  0.00     0.034 A 
ATOM     51  C   UNL A   1      43.676  29.955  32.556  1.00  0.00     0.049 A 
ATOM     52  C   UNL A   1      44.177  26.436  28.103  1.00  0.00     0.074 A 
ATOM     53  C   UNL A   1      43.767  31.284  32.185  1.00  0.00     0.029 A 
ATOM     54  N   UNL A   1      44.721  29.321  31.921  1.00  0.00    -0.354 N 
ATOM     55  N   UNL A   1      44.988  27.452  27.982  1.00  0.00    -0.248 NA
ATOM     56  C   UNL A   1      44.052  25.895  29.447  1.00  0.00     0.031 C 
ATOM     57  C   UNL A   1      44.529  31.275  30.979  1.00  0.00     0.029 A 
ATOM     58  C   UNL A   1      44.910  29.956  30.723  1.00  0.00     0.049 A 
ATOM     59  H   UNL A   1      45.235  28.555  32.266  1.00  0.00     0.167 HD
ATOM     60  C   UNL A   1      45.115  27.952  29.272  1.00  0.00     0.074 A 
ATOM     61  C   UNL A   1      44.619  26.885  30.140  1.00  0.00     0.031 C 
ATOM     62  C   UNL A   1      45.318  29.285  29.505  1.00  0.00     0.034 A 
BRANCH  49  63
ATOM     63  C   UNL A   1      42.960  28.037  34.109  1.00  0.00     0.023 A 
ATOM     64  C   UNL A   1      43.218  28.448  35.433  1.00  0.00     0.012 A 
ATOM     65  C   UNL A   1      43.242  26.689  33.789  1.00  0.00     0.148 A 
ATOM     66  C   UNL A   1      43.756  27.572  36.382  1.00  0.00     0.002 A 
ATOM     67  C   UNL A   1      43.673  25.797  34.763  1.00  0.00     0.091 A 
ATOM     68  F   UNL A   1      43.242  26.281  32.517  1.00  0.00    -0.205 F 
ATOM     69  C   UNL A   1      43.965  26.240  36.053  1.00  0.00     0.022 A 
BRANCH  67  70
ATOM     70  S   UNL A   1      43.851  24.049  34.395  1.00  0.00     0.127 S 
ATOM     71  O   UNL A   1      44.660  23.591  35.520  1.00  0.00    -0.237 OA
ATOM     72  O   UNL A   1      42.461  23.590  34.403  1.00  0.00    -0.237 OA
ATOM     73  O   UNL A   1      44.478  24.009  33.078  1.00  0.00    -0.744 OA
ENDBRANCH  67  70
ENDBRANCH  49  63
BRANCH  50  74
ATOM     74  C   UNL A   1      43.050  24.745  26.491  1.00  0.00     0.023 A 
ATOM     75  C   UNL A   1      44.198  24.194  25.888  1.00  0.00     0.012 A 
ATOM     76  C   UNL A   1      41.946  23.894  26.718  1.00  0.00     0.148 A 
ATOM     77  C   UNL A   1      44.250  22.836  25.543  1.00  0.00     0.002 A 
ATOM     78  C   UNL A   1      42.007  22.544  26.376  1.00  0.00     0.091 A 
ATOM     79  F   UNL A   1      40.867  24.375  27.354  1.00  0.00    -0.205 F 
ATOM     80  C   UNL A   1      43.158  22.009  25.793  1.00  0.00     0.022 A 
BRANCH  78  81
ATOM     81  S   UNL A   1      40.630  21.456  26.773  1.00  0.00     0.127 S 
ATOM     82  O   UNL A   1      40.699  21.349  28.232  1.00  0.00    -0.237 OA
ATOM     83  O   UNL A   1      39.481  22.205  26.280  1.00  0.00    -0.237 OA
ATOM     84  O   UNL A   1      40.951  20.217  26.075  1.00  0.00    -0.744 OA
ENDBRANCH  78  81
ENDBRANCH  50  74
BRANCH  62  85
ATOM     85  C   UNL A   1      45.691  30.184  28.348  1.00  0.00     0.023 A 
ATOM     86  C   UNL A   1      44.720  30.877  27.594  1.00  0.00     0.012 A 
ATOM     87  C   UNL A   1      47.048  30.495  28.145  1.00  0.00     0.148 A 
ATOM     88  C   UNL A   1      45.093  31.834  26.645  1.00  0.00     0.002 A 
ATOM     89  C   UNL A   1      47.412  31.485  27.237  1.00  0.00     0.091 A 
ATOM     90  F   UNL A   1      47.968  29.836  28.865  1.00  0.00    -0.205 F 
ATOM     91  C   UNL A   1      46.438  32.149  26.478  1.00  0.00     0.022 A 
BRANCH  89  92
ATOM     92  S   UNL A   1      49.115  32.031  27.084  1.00  0.00     0.127 S 
ATOM     93  O   UNL A   1      49.781  30.827  26.594  1.00  0.00    -0.237 OA
ATOM     94  O   UNL A   1      49.017  33.117  26.105  1.00  0.00    -0.237 OA
ATOM     95  O   UNL A   1      49.508  32.474  28.417  1.00  0.00    -0.744 OA
ENDBRANCH  89  92
ENDBRANCH  62  85
ENDBRANCH  36  37
ENDBRANCH  28  31
ENDBRANCH  26  27
ENDBRANCH   1  26
TORSDOF 16
ENDMDL
