MODEL 1
REMARK VINA RESULT:     -12.2      0.000      0.000
REMARK SMILES Cc1c(Cl)cccc1S(=O)(=O)N[C@H]1C=C[C@@H](C(=O)NCCCNC(=O)c2ccc(-c3c4nc(c(-c5cccc(S(=O)(=O)[O-])c5F)c5ccc([nH]5)c(-c5cccc(S(=O)(=O)[O-])c5F)c5nc(c(-c6cccc(S(=O)(=O)[O-])c6F)c6ccc3[nH]6)C=C5)C=C4)cc2)C1
REMARK SMILES IDX 21 1 20 2 19 3 17 4 18 5 16 7 13 8 14 9 89 10 15 11 12 12
REMARK SMILES IDX 9 14 10 15 11 16 8 17 1 18 2 19 3 20 4 21 5 22 7 23 6 24
REMARK SMILES IDX 22 25 23 26 24 27 25 29 26 30 27 31 88 32 28 33 87 34 29 35
REMARK SMILES IDX 30 36 31 37 81 38 32 39 86 40 80 41 82 42 33 43 85 44 79 45
REMARK SMILES IDX 78 46 34 48 66 49 46 50 65 51 47 52 50 53 64 54 83 55 48 56
REMARK SMILES IDX 49 57 63 59 84 60 51 61 35 62 36 63 44 64 37 65 39 66 45 67
REMARK SMILES IDX 38 68 40 69 41 70 42 71 43 72 67 73 68 74 76 75 69 76 71 77
REMARK SMILES IDX 77 78 70 79 72 80 73 81 74 82 75 83 52 84 53 85 61 86 54 87
REMARK SMILES IDX 56 88 62 89 55 90 57 91 58 92 59 93 60 94
REMARK H PARENT 19 6 12 13 23 28 82 47 50 58
REMARK Flexibility Score: inf
ROOT
ATOM      1  C   UNL A   1      31.729  29.382  27.018  1.00  0.00     0.042 C 
ENDROOT
BRANCH   1   2
ATOM      2  C   UNL A   1      31.935  27.944  27.512  1.00  0.00     0.117 C 
BRANCH   2   3
ATOM      3  N   UNL A   1      31.084  26.948  26.873  1.00  0.00    -0.356 N 
ATOM      4  C   UNL A   1      30.906  26.519  25.598  1.00  0.00     0.226 C 
ATOM      5  O   UNL A   1      30.141  25.553  25.466  1.00  0.00    -0.274 OA
ATOM      6  H   UNL A   1      30.503  26.479  27.514  1.00  0.00     0.163 HD
BRANCH   4   7
ATOM      7  C   UNL A   1      31.506  27.145  24.330  1.00  0.00     0.103 C 
ATOM      8  C   UNL A   1      32.241  25.778  22.413  1.00  0.00     0.093 C 
ATOM      9  C   UNL A   1      31.043  26.626  22.097  1.00  0.00    -0.011 C 
ATOM     10  C   UNL A   1      32.697  26.351  23.756  1.00  0.00     0.042 C 
ATOM     11  C   UNL A   1      30.642  27.366  23.137  1.00  0.00    -0.016 C 
BRANCH   8  12
ATOM     12  N   UNL A   1      31.784  24.397  22.548  1.00  0.00    -0.204 NA
ATOM     13  H   UNL A   1      31.373  24.309  23.478  1.00  0.00     0.142 HD
BRANCH  12  14
ATOM     14  S   UNL A   1      32.887  23.139  22.379  1.00  0.00     0.241 S 
ATOM     15  O   UNL A   1      33.719  23.451  21.237  1.00  0.00    -0.207 OA
ATOM     16  O   UNL A   1      32.057  21.955  22.406  1.00  0.00    -0.207 OA
BRANCH  14  17
ATOM     17  C   UNL A   1      33.974  23.017  23.799  1.00  0.00     0.086 A 
ATOM     18  C   UNL A   1      32.251  22.600  25.672  1.00  0.00     0.047 C 
ATOM     19  C   UNL A   1      33.626  22.843  25.153  1.00  0.00    -0.012 A 
ATOM     20  C   UNL A   1      34.671  22.844  26.113  1.00  0.00     0.045 A 
ATOM     21  Cl  UNL A   1      34.346  22.710  27.814  1.00  0.00    -0.084 Cl
ATOM     22  C   UNL A   1      36.010  22.945  25.743  1.00  0.00     0.021 A 
ATOM     23  C   UNL A   1      35.338  23.103  23.444  1.00  0.00     0.022 A 
ATOM     24  C   UNL A   1      36.347  23.055  24.403  1.00  0.00     0.003 A 
ENDBRANCH  14  17
ENDBRANCH  12  14
ENDBRANCH   8  12
ENDBRANCH   4   7
ENDBRANCH   2   3
ENDBRANCH   1   2
BRANCH   1  25
ATOM     25  C   UNL A   1      32.960  30.077  26.435  1.00  0.00     0.118 C 
BRANCH  25  26
ATOM     26  N   UNL A   1      32.984  31.488  26.772  1.00  0.00    -0.352 N 
ATOM     27  C   UNL A   1      33.812  32.163  27.639  1.00  0.00     0.251 C 
ATOM     28  H   UNL A   1      32.312  32.043  26.314  1.00  0.00     0.163 HD
ATOM     29  O   UNL A   1      33.476  33.283  28.022  1.00  0.00    -0.269 OA
BRANCH  27  30
ATOM     30  C   UNL A   1      35.097  31.582  28.108  1.00  0.00     0.039 A 
ATOM     31  C   UNL A   1      35.092  30.283  28.630  1.00  0.00     0.014 A 
ATOM     32  C   UNL A   1      36.275  32.335  28.158  1.00  0.00     0.014 A 
ATOM     33  C   UNL A   1      36.253  29.746  29.200  1.00  0.00     0.010 A 
ATOM     34  C   UNL A   1      37.449  31.776  28.675  1.00  0.00     0.010 A 
ATOM     35  C   UNL A   1      37.443  30.489  29.236  1.00  0.00    -0.014 A 
BRANCH  35  36
ATOM     36  C   UNL A   1      38.659  29.957  29.917  1.00  0.00     0.031 A 
ATOM     37  C   UNL A   1      39.039  30.451  31.292  1.00  0.00     0.074 A 
ATOM     38  C   UNL A   1      39.447  29.055  29.298  1.00  0.00     0.049 A 
ATOM     39  N   UNL A   1      40.061  30.117  32.040  1.00  0.00    -0.248 NA
ATOM     40  C   UNL A   1      38.167  31.472  31.898  1.00  0.00     0.031 C 
ATOM     41  C   UNL A   1      39.237  28.534  27.947  1.00  0.00     0.029 A 
ATOM     42  N   UNL A   1      40.598  28.432  29.718  1.00  0.00    -0.354 N 
ATOM     43  C   UNL A   1      39.977  30.908  33.181  1.00  0.00     0.074 A 
ATOM     44  C   UNL A   1      38.822  31.763  33.013  1.00  0.00     0.031 C 
ATOM     45  C   UNL A   1      40.222  27.671  27.650  1.00  0.00     0.029 A 
ATOM     46  C   UNL A   1      41.144  27.587  28.780  1.00  0.00     0.049 A 
ATOM     47  H   UNL A   1      40.993  28.576  30.609  1.00  0.00     0.167 HD
ATOM     48  C   UNL A   1      40.766  30.908  34.284  1.00  0.00     0.034 A 
ATOM     49  C   UNL A   1      42.258  26.827  28.825  1.00  0.00     0.034 A 
ATOM     50  C   UNL A   1      41.885  30.024  34.478  1.00  0.00     0.049 A 
ATOM     51  C   UNL A   1      43.084  26.799  30.084  1.00  0.00     0.074 A 
ATOM     52  C   UNL A   1      42.701  29.901  35.589  1.00  0.00     0.029 A 
ATOM     53  N   UNL A   1      42.345  29.111  33.543  1.00  0.00    -0.354 N 
ATOM     54  N   UNL A   1      42.901  27.451  31.207  1.00  0.00    -0.248 NA
ATOM     55  C   UNL A   1      44.242  25.894  30.099  1.00  0.00     0.031 C 
ATOM     56  C   UNL A   1      43.663  28.919  35.320  1.00  0.00     0.029 A 
ATOM     57  C   UNL A   1      43.429  28.416  34.051  1.00  0.00     0.049 A 
ATOM     58  H   UNL A   1      41.957  28.977  32.647  1.00  0.00     0.167 HD
ATOM     59  C   UNL A   1      43.890  26.999  32.075  1.00  0.00     0.074 A 
ATOM     60  C   UNL A   1      44.660  26.007  31.352  1.00  0.00     0.031 C 
ATOM     61  C   UNL A   1      44.145  27.381  33.351  1.00  0.00     0.034 A 
BRANCH  48  62
ATOM     62  C   UNL A   1      40.409  31.858  35.400  1.00  0.00     0.023 A 
ATOM     63  C   UNL A   1      41.183  33.022  35.593  1.00  0.00     0.012 A 
ATOM     64  C   UNL A   1      39.283  31.636  36.217  1.00  0.00     0.148 A 
ATOM     65  C   UNL A   1      40.868  33.926  36.607  1.00  0.00     0.002 A 
ATOM     66  C   UNL A   1      38.949  32.566  37.197  1.00  0.00     0.091 A 
ATOM     67  F   UNL A   1      38.568  30.518  36.031  1.00  0.00    -0.205 F 
ATOM     68  C   UNL A   1      39.748  33.703  37.401  1.00  0.00     0.022 A 
BRANCH  66  69
ATOM     69  S   UNL A   1      37.477  32.412  38.216  1.00  0.00     0.127 S 
ATOM     70  O   UNL A   1      36.465  33.040  37.369  1.00  0.00    -0.237 OA
ATOM     71  O   UNL A   1      37.344  30.961  38.351  1.00  0.00    -0.237 OA
ATOM     72  O   UNL A   1      37.777  33.111  39.458  1.00  0.00    -0.744 OA
ENDBRANCH  66  69
ENDBRANCH  48  62
BRANCH  49  73
ATOM     73  C   UNL A   1      42.612  25.959  27.665  1.00  0.00     0.023 A 
ATOM     74  C   UNL A   1      43.466  26.461  26.663  1.00  0.00     0.012 A 
ATOM     75  C   UNL A   1      42.125  24.643  27.557  1.00  0.00     0.148 A 
ATOM     76  C   UNL A   1      43.801  25.680  25.557  1.00  0.00     0.002 A 
ATOM     77  C   UNL A   1      42.506  23.851  26.479  1.00  0.00     0.091 A 
ATOM     78  F   UNL A   1      41.303  24.188  28.514  1.00  0.00    -0.205 F 
ATOM     79  C   UNL A   1      43.329  24.373  25.470  1.00  0.00     0.022 A 
BRANCH  77  80
ATOM     80  S   UNL A   1      42.048  22.120  26.346  1.00  0.00     0.127 S 
ATOM     81  O   UNL A   1      42.502  21.590  27.630  1.00  0.00    -0.237 OA
ATOM     82  O   UNL A   1      40.594  22.203  26.194  1.00  0.00    -0.237 OA
ATOM     83  O   UNL A   1      42.746  21.617  25.171  1.00  0.00    -0.744 OA
ENDBRANCH  77  80
ENDBRANCH  49  73
BRANCH  61  84
ATOM     84  C   UNL A   1      45.266  26.687  34.082  1.00  0.00     0.023 A 
ATOM     85  C   UNL A   1      46.582  27.179  33.985  1.00  0.00     0.012 A 
ATOM     86  C   UNL A   1      45.002  25.582  34.915  1.00  0.00     0.148 A 
ATOM     87  C   UNL A   1      47.624  26.559  34.676  1.00  0.00     0.002 A 
ATOM     88  C   UNL A   1      46.036  24.999  35.638  1.00  0.00     0.091 A 
ATOM     89  F   UNL A   1      43.747  25.111  34.978  1.00  0.00    -0.205 F 
ATOM     90  C   UNL A   1      47.350  25.478  35.510  1.00  0.00     0.022 A 
BRANCH  88  91
ATOM     91  S   UNL A   1      45.750  23.664  36.807  1.00  0.00     0.127 S 
ATOM     92  O   UNL A   1      44.847  24.295  37.767  1.00  0.00    -0.237 OA
ATOM     93  O   UNL A   1      45.126  22.639  35.967  1.00  0.00    -0.237 OA
ATOM     94  O   UNL A   1      47.064  23.299  37.319  1.00  0.00    -0.744 OA
ENDBRANCH  88  91
ENDBRANCH  61  84
ENDBRANCH  35  36
ENDBRANCH  27  30
ENDBRANCH  25  26
ENDBRANCH   1  25
TORSDOF 16
ENDMDL
MODEL 2
REMARK VINA RESULT:     -12.1      1.612      2.111
REMARK SMILES Cc1c(Cl)cccc1S(=O)(=O)N[C@H]1C=C[C@@H](C(=O)NCCCNC(=O)c2ccc(-c3c4nc(c(-c5cccc(S(=O)(=O)[O-])c5F)c5ccc([nH]5)c(-c5cccc(S(=O)(=O)[O-])c5F)c5nc(c(-c6cccc(S(=O)(=O)[O-])c6F)c6ccc3[nH]6)C=C5)C=C4)cc2)C1
REMARK SMILES IDX 21 1 20 2 19 3 17 4 18 5 16 7 13 8 14 9 89 10 15 11 12 12
REMARK SMILES IDX 9 14 10 15 11 16 8 17 1 18 2 19 3 20 4 21 5 22 7 23 6 24
REMARK SMILES IDX 22 25 23 26 24 27 25 29 26 30 27 31 88 32 28 33 87 34 29 35
REMARK SMILES IDX 30 36 31 37 81 38 32 39 86 40 80 41 82 42 33 43 85 44 79 45
REMARK SMILES IDX 78 46 34 48 66 49 46 50 65 51 47 52 50 53 64 54 83 55 48 56
REMARK SMILES IDX 49 57 63 59 84 60 51 61 35 62 36 63 44 64 37 65 39 66 45 67
REMARK SMILES IDX 38 68 40 69 41 70 42 71 43 72 67 73 68 74 76 75 69 76 71 77
REMARK SMILES IDX 77 78 70 79 72 80 73 81 74 82 75 83 52 84 53 85 61 86 54 87
REMARK SMILES IDX 56 88 62 89 55 90 57 91 58 92 59 93 60 94
REMARK H PARENT 19 6 12 13 23 28 82 47 50 58
REMARK Flexibility Score: inf
ROOT
ATOM      1  C   UNL A   1      33.427  28.639  25.475  1.00  0.00     0.042 C 
ENDROOT
BRANCH   1   2
ATOM      2  C   UNL A   1      33.067  28.912  24.008  1.00  0.00     0.117 C 
BRANCH   2   3
ATOM      3  N   UNL A   1      33.547  27.912  23.063  1.00  0.00    -0.356 N 
ATOM      4  C   UNL A   1      32.952  27.012  22.239  1.00  0.00     0.226 C 
ATOM      5  O   UNL A   1      33.719  26.390  21.490  1.00  0.00    -0.274 OA
ATOM      6  H   UNL A   1      34.529  27.882  23.009  1.00  0.00     0.163 HD
BRANCH   4   7
ATOM      7  C   UNL A   1      31.457  26.660  22.196  1.00  0.00     0.103 C 
ATOM      8  C   UNL A   1      30.333  25.479  24.046  1.00  0.00     0.093 C 
ATOM      9  C   UNL A   1      29.862  26.896  23.891  1.00  0.00    -0.011 C 
ATOM     10  C   UNL A   1      31.137  25.263  22.763  1.00  0.00     0.042 C 
ATOM     11  C   UNL A   1      30.473  27.539  22.888  1.00  0.00    -0.016 C 
BRANCH   8  12
ATOM     12  N   UNL A   1      31.189  25.423  25.230  1.00  0.00    -0.204 NA
ATOM     13  H   UNL A   1      32.073  25.865  24.978  1.00  0.00     0.142 HD
BRANCH  12  14
ATOM     14  S   UNL A   1      31.561  23.933  25.913  1.00  0.00     0.241 S 
ATOM     15  O   UNL A   1      30.693  22.952  25.298  1.00  0.00    -0.207 OA
ATOM     16  O   UNL A   1      31.517  24.192  27.335  1.00  0.00    -0.207 OA
BRANCH  14  17
ATOM     17  C   UNL A   1      33.245  23.441  25.549  1.00  0.00     0.086 A 
ATOM     18  C   UNL A   1      32.957  20.885  25.363  1.00  0.00     0.047 C 
ATOM     19  C   UNL A   1      33.760  22.139  25.385  1.00  0.00    -0.012 A 
ATOM     20  C   UNL A   1      35.154  21.998  25.166  1.00  0.00     0.045 A 
ATOM     21  Cl  UNL A   1      35.901  20.436  25.024  1.00  0.00    -0.084 Cl
ATOM     22  C   UNL A   1      35.996  23.102  25.049  1.00  0.00     0.021 A 
ATOM     23  C   UNL A   1      34.113  24.546  25.410  1.00  0.00     0.022 A 
ATOM     24  C   UNL A   1      35.471  24.380  25.151  1.00  0.00     0.003 A 
ENDBRANCH  14  17
ENDBRANCH  12  14
ENDBRANCH   8  12
ENDBRANCH   4   7
ENDBRANCH   2   3
ENDBRANCH   1   2
BRANCH   1  25
ATOM     25  C   UNL A   1      32.452  29.185  26.519  1.00  0.00     0.118 C 
BRANCH  25  26
ATOM     26  N   UNL A   1      32.454  30.636  26.541  1.00  0.00    -0.352 N 
ATOM     27  C   UNL A   1      33.290  31.497  27.213  1.00  0.00     0.251 C 
ATOM     28  H   UNL A   1      31.755  31.066  25.997  1.00  0.00     0.163 HD
ATOM     29  O   UNL A   1      32.939  32.667  27.355  1.00  0.00    -0.269 OA
BRANCH  27  30
ATOM     30  C   UNL A   1      34.601  31.053  27.755  1.00  0.00     0.039 A 
ATOM     31  C   UNL A   1      34.707  29.756  28.269  1.00  0.00     0.014 A 
ATOM     32  C   UNL A   1      35.686  31.928  27.876  1.00  0.00     0.014 A 
ATOM     33  C   UNL A   1      35.885  29.342  28.904  1.00  0.00     0.010 A 
ATOM     34  C   UNL A   1      36.881  31.494  28.458  1.00  0.00     0.010 A 
ATOM     35  C   UNL A   1      36.984  30.208  29.013  1.00  0.00    -0.014 A 
BRANCH  35  36
ATOM     36  C   UNL A   1      38.208  29.804  29.761  1.00  0.00     0.031 A 
ATOM     37  C   UNL A   1      38.454  30.324  31.158  1.00  0.00     0.074 A 
ATOM     38  C   UNL A   1      39.123  28.997  29.187  1.00  0.00     0.049 A 
ATOM     39  N   UNL A   1      39.462  30.095  31.962  1.00  0.00    -0.248 NA
ATOM     40  C   UNL A   1      37.444  31.240  31.715  1.00  0.00     0.031 C 
ATOM     41  C   UNL A   1      39.048  28.469  27.825  1.00  0.00     0.029 A 
ATOM     42  N   UNL A   1      40.308  28.497  29.671  1.00  0.00    -0.354 N 
ATOM     43  C   UNL A   1      39.228  30.862  33.099  1.00  0.00     0.074 A 
ATOM     44  C   UNL A   1      37.999  31.590  32.867  1.00  0.00     0.031 C 
ATOM     45  C   UNL A   1      40.135  27.718  27.583  1.00  0.00     0.029 A 
ATOM     46  C   UNL A   1      40.995  27.724  28.764  1.00  0.00     0.049 A 
ATOM     47  H   UNL A   1      40.634  28.676  30.583  1.00  0.00     0.167 HD
ATOM     48  C   UNL A   1      39.948  30.937  34.245  1.00  0.00     0.034 A 
ATOM     49  C   UNL A   1      42.180  27.088  28.871  1.00  0.00     0.034 A 
ATOM     50  C   UNL A   1      41.143  30.177  34.501  1.00  0.00     0.049 A 
ATOM     51  C   UNL A   1      42.930  27.137  30.176  1.00  0.00     0.074 A 
ATOM     52  C   UNL A   1      41.903  30.132  35.657  1.00  0.00     0.029 A 
ATOM     53  N   UNL A   1      41.750  29.326  33.592  1.00  0.00    -0.354 N 
ATOM     54  N   UNL A   1      42.615  27.756  31.288  1.00  0.00    -0.248 NA
ATOM     55  C   UNL A   1      44.177  26.362  30.255  1.00  0.00     0.031 C 
ATOM     56  C   UNL A   1      42.979  29.261  35.442  1.00  0.00     0.029 A 
ATOM     57  C   UNL A   1      42.872  28.747  34.160  1.00  0.00     0.049 A 
ATOM     58  H   UNL A   1      41.432  29.159  32.675  1.00  0.00     0.167 HD
ATOM     59  C   UNL A   1      43.596  27.405  32.211  1.00  0.00     0.074 A 
ATOM     60  C   UNL A   1      44.507  26.508  31.531  1.00  0.00     0.031 C 
ATOM     61  C   UNL A   1      43.735  27.801  33.500  1.00  0.00     0.034 A 
BRANCH  48  62
ATOM     62  C   UNL A   1      39.428  31.834  35.341  1.00  0.00     0.023 A 
ATOM     63  C   UNL A   1      38.524  31.314  36.291  1.00  0.00     0.012 A 
ATOM     64  C   UNL A   1      39.872  33.165  35.468  1.00  0.00     0.148 A 
ATOM     65  C   UNL A   1      38.038  32.116  37.324  1.00  0.00     0.002 A 
ATOM     66  C   UNL A   1      39.418  33.944  36.528  1.00  0.00     0.091 A 
ATOM     67  F   UNL A   1      40.719  33.649  34.549  1.00  0.00    -0.205 F 
ATOM     68  C   UNL A   1      38.492  33.425  37.447  1.00  0.00     0.022 A 
BRANCH  66  69
ATOM     69  S   UNL A   1      40.007  35.616  36.823  1.00  0.00     0.127 S 
ATOM     70  O   UNL A   1      39.366  35.933  38.098  1.00  0.00    -0.237 OA
ATOM     71  O   UNL A   1      41.455  35.425  36.900  1.00  0.00    -0.237 OA
ATOM     72  O   UNL A   1      39.560  36.404  35.683  1.00  0.00    -0.744 OA
ENDBRANCH  66  69
ENDBRANCH  48  62
BRANCH  49  73
ATOM     73  C   UNL A   1      42.691  26.272  27.732  1.00  0.00     0.023 A 
ATOM     74  C   UNL A   1      43.629  26.838  26.845  1.00  0.00     0.012 A 
ATOM     75  C   UNL A   1      42.269  24.945  27.531  1.00  0.00     0.148 A 
ATOM     76  C   UNL A   1      44.112  26.108  25.760  1.00  0.00     0.002 A 
ATOM     77  C   UNL A   1      42.796  24.205  26.478  1.00  0.00     0.091 A 
ATOM     78  F   UNL A   1      41.367  24.430  28.378  1.00  0.00    -0.205 F 
ATOM     79  C   UNL A   1      43.703  24.789  25.581  1.00  0.00     0.022 A 
BRANCH  77  80
ATOM     80  S   UNL A   1      42.421  22.464  26.243  1.00  0.00     0.127 S 
ATOM     81  O   UNL A   1      42.938  21.877  27.477  1.00  0.00    -0.237 OA
ATOM     82  O   UNL A   1      40.962  22.482  26.132  1.00  0.00    -0.237 OA
ATOM     83  O   UNL A   1      43.111  22.075  25.020  1.00  0.00    -0.744 OA
ENDBRANCH  77  80
ENDBRANCH  49  73
BRANCH  61  84
ATOM     84  C   UNL A   1      44.880  27.225  34.293  1.00  0.00     0.023 A 
ATOM     85  C   UNL A   1      46.137  27.860  34.279  1.00  0.00     0.012 A 
ATOM     86  C   UNL A   1      44.691  26.086  35.101  1.00  0.00     0.148 A 
ATOM     87  C   UNL A   1      47.198  27.349  35.027  1.00  0.00     0.002 A 
ATOM     88  C   UNL A   1      45.739  25.611  35.881  1.00  0.00     0.091 A 
ATOM     89  F   UNL A   1      43.494  25.480  35.085  1.00  0.00    -0.205 F 
ATOM     90  C   UNL A   1      46.996  26.233  35.836  1.00  0.00     0.022 A 
BRANCH  88  91
ATOM     91  S   UNL A   1      45.532  24.238  37.023  1.00  0.00     0.127 S 
ATOM     92  O   UNL A   1      44.544  24.771  37.957  1.00  0.00    -0.237 OA
ATOM     93  O   UNL A   1      45.033  23.175  36.148  1.00  0.00    -0.237 OA
ATOM     94  O   UNL A   1      46.856  23.984  37.577  1.00  0.00    -0.744 OA
ENDBRANCH  88  91
ENDBRANCH  61  84
ENDBRANCH  35  36
ENDBRANCH  27  30
ENDBRANCH  25  26
ENDBRANCH   1  25
TORSDOF 16
ENDMDL
MODEL 3
REMARK VINA RESULT:     -12.0      2.602      3.184
REMARK SMILES Cc1c(Cl)cccc1S(=O)(=O)N[C@H]1C=C[C@@H](C(=O)NCCCNC(=O)c2ccc(-c3c4nc(c(-c5cccc(S(=O)(=O)[O-])c5F)c5ccc([nH]5)c(-c5cccc(S(=O)(=O)[O-])c5F)c5nc(c(-c6cccc(S(=O)(=O)[O-])c6F)c6ccc3[nH]6)C=C5)C=C4)cc2)C1
REMARK SMILES IDX 21 1 20 2 19 3 17 4 18 5 16 7 13 8 14 9 89 10 15 11 12 12
REMARK SMILES IDX 9 14 10 15 11 16 8 17 1 18 2 19 3 20 4 21 5 22 7 23 6 24
REMARK SMILES IDX 22 25 23 26 24 27 25 29 26 30 27 31 88 32 28 33 87 34 29 35
REMARK SMILES IDX 30 36 31 37 81 38 32 39 86 40 80 41 82 42 33 43 85 44 79 45
REMARK SMILES IDX 78 46 34 48 66 49 46 50 65 51 47 52 50 53 64 54 83 55 48 56
REMARK SMILES IDX 49 57 63 59 84 60 51 61 35 62 36 63 44 64 37 65 39 66 45 67
REMARK SMILES IDX 38 68 40 69 41 70 42 71 43 72 67 73 68 74 76 75 69 76 71 77
REMARK SMILES IDX 77 78 70 79 72 80 73 81 74 82 75 83 52 84 53 85 61 86 54 87
REMARK SMILES IDX 56 88 62 89 55 90 57 91 58 92 59 93 60 94
REMARK H PARENT 19 6 12 13 23 28 82 47 50 58
REMARK Flexibility Score: inf
ROOT
ATOM      1  C   UNL A   1      33.100  28.200  25.497  1.00  0.00     0.042 C 
ENDROOT
BRANCH   1   2
ATOM      2  C   UNL A   1      33.250  28.572  24.015  1.00  0.00     0.117 C 
BRANCH   2   3
ATOM      3  N   UNL A   1      33.698  27.486  23.153  1.00  0.00    -0.356 N 
ATOM      4  C   UNL A   1      33.077  26.583  22.352  1.00  0.00     0.226 C 
ATOM      5  O   UNL A   1      33.831  25.866  21.679  1.00  0.00    -0.274 OA
ATOM      6  H   UNL A   1      34.677  27.384  23.150  1.00  0.00     0.163 HD
BRANCH   4   7
ATOM      7  C   UNL A   1      31.564  26.336  22.253  1.00  0.00     0.103 C 
ATOM      8  C   UNL A   1      30.271  25.354  24.109  1.00  0.00     0.093 C 
ATOM      9  C   UNL A   1      29.914  26.788  23.848  1.00  0.00    -0.011 C 
ATOM     10  C   UNL A   1      31.116  25.002  22.884  1.00  0.00     0.042 C 
ATOM     11  C   UNL A   1      30.616  27.323  22.842  1.00  0.00    -0.016 C 
BRANCH   8  12
ATOM     12  N   UNL A   1      31.064  25.311  25.336  1.00  0.00    -0.204 NA
ATOM     13  H   UNL A   1      31.918  25.839  25.157  1.00  0.00     0.142 HD
BRANCH  12  14
ATOM     14  S   UNL A   1      31.531  23.825  25.970  1.00  0.00     0.241 S 
ATOM     15  O   UNL A   1      30.683  22.819  25.368  1.00  0.00    -0.207 OA
ATOM     16  O   UNL A   1      31.535  24.052  27.398  1.00  0.00    -0.207 OA
BRANCH  14  17
ATOM     17  C   UNL A   1      33.219  23.418  25.526  1.00  0.00     0.086 A 
ATOM     18  C   UNL A   1      33.090  20.842  25.510  1.00  0.00     0.047 C 
ATOM     19  C   UNL A   1      33.807  22.143  25.405  1.00  0.00    -0.012 A 
ATOM     20  C   UNL A   1      35.192  22.076  25.105  1.00  0.00     0.045 A 
ATOM     21  Cl  UNL A   1      36.032  20.559  25.007  1.00  0.00    -0.084 Cl
ATOM     22  C   UNL A   1      35.950  23.221  24.868  1.00  0.00     0.021 A 
ATOM     23  C   UNL A   1      34.001  24.564  25.266  1.00  0.00     0.022 A 
ATOM     24  C   UNL A   1      35.348  24.468  24.929  1.00  0.00     0.003 A 
ENDBRANCH  14  17
ENDBRANCH  12  14
ENDBRANCH   8  12
ENDBRANCH   4   7
ENDBRANCH   2   3
ENDBRANCH   1   2
BRANCH   1  25
ATOM     25  C   UNL A   1      34.185  28.728  26.437  1.00  0.00     0.118 C 
BRANCH  25  26
ATOM     26  N   UNL A   1      33.938  30.107  26.813  1.00  0.00    -0.352 N 
ATOM     27  C   UNL A   1      34.549  30.869  27.782  1.00  0.00     0.251 C 
ATOM     28  H   UNL A   1      33.233  30.565  26.301  1.00  0.00     0.163 HD
ATOM     29  O   UNL A   1      33.993  31.899  28.158  1.00  0.00    -0.269 OA
BRANCH  27  30
ATOM     30  C   UNL A   1      35.858  30.485  28.372  1.00  0.00     0.039 A 
ATOM     31  C   UNL A   1      37.029  30.892  27.723  1.00  0.00     0.014 A 
ATOM     32  C   UNL A   1      35.950  29.632  29.477  1.00  0.00     0.014 A 
ATOM     33  C   UNL A   1      38.278  30.445  28.171  1.00  0.00     0.010 A 
ATOM     34  C   UNL A   1      37.201  29.234  29.960  1.00  0.00     0.010 A 
ATOM     35  C   UNL A   1      38.379  29.605  29.291  1.00  0.00    -0.014 A 
BRANCH  35  36
ATOM     36  C   UNL A   1      39.697  29.057  29.723  1.00  0.00     0.031 A 
ATOM     37  C   UNL A   1      40.458  29.707  30.855  1.00  0.00     0.074 A 
ATOM     38  C   UNL A   1      40.236  27.999  29.087  1.00  0.00     0.049 A 
ATOM     39  N   UNL A   1      41.619  29.383  31.366  1.00  0.00    -0.248 NA
ATOM     40  C   UNL A   1      39.841  30.889  31.480  1.00  0.00     0.031 C 
ATOM     41  C   UNL A   1      39.645  27.309  27.940  1.00  0.00     0.029 A 
ATOM     42  N   UNL A   1      41.417  27.329  29.302  1.00  0.00    -0.354 N 
ATOM     43  C   UNL A   1      41.889  30.337  32.342  1.00  0.00     0.074 A 
ATOM     44  C   UNL A   1      40.785  31.272  32.329  1.00  0.00     0.031 C 
ATOM     45  C   UNL A   1      40.461  26.315  27.555  1.00  0.00     0.029 A 
ATOM     46  C   UNL A   1      41.643  26.304  28.413  1.00  0.00     0.049 A 
ATOM     47  H   UNL A   1      42.043  27.561  30.027  1.00  0.00     0.167 HD
ATOM     48  C   UNL A   1      42.941  30.418  33.194  1.00  0.00     0.034 A 
ATOM     49  C   UNL A   1      42.681  25.449  28.302  1.00  0.00     0.034 A 
ATOM     50  C   UNL A   1      44.015  29.462  33.246  1.00  0.00     0.049 A 
ATOM     51  C   UNL A   1      43.808  25.521  29.299  1.00  0.00     0.074 A 
ATOM     52  C   UNL A   1      45.088  29.420  34.120  1.00  0.00     0.029 A 
ATOM     53  N   UNL A   1      44.154  28.379  32.393  1.00  0.00    -0.354 N 
ATOM     54  N   UNL A   1      43.970  26.346  30.306  1.00  0.00    -0.248 NA
ATOM     55  C   UNL A   1      44.871  24.514  29.174  1.00  0.00     0.031 C 
ATOM     56  C   UNL A   1      45.883  28.315  33.787  1.00  0.00     0.029 A 
ATOM     57  C   UNL A   1      45.290  27.659  32.721  1.00  0.00     0.049 A 
ATOM     58  H   UNL A   1      43.536  28.156  31.659  1.00  0.00     0.167 HD
ATOM     59  C   UNL A   1      45.124  25.928  30.960  1.00  0.00     0.074 A 
ATOM     60  C   UNL A   1      45.612  24.767  30.244  1.00  0.00     0.031 C 
ATOM     61  C   UNL A   1      45.731  26.464  32.048  1.00  0.00     0.034 A 
BRANCH  48  62
ATOM     62  C   UNL A   1      42.951  31.553  34.187  1.00  0.00     0.023 A 
ATOM     63  C   UNL A   1      43.580  32.768  33.844  1.00  0.00     0.012 A 
ATOM     64  C   UNL A   1      42.294  31.443  35.429  1.00  0.00     0.148 A 
ATOM     65  C   UNL A   1      43.593  33.840  34.737  1.00  0.00     0.002 A 
ATOM     66  C   UNL A   1      42.272  32.532  36.295  1.00  0.00     0.091 A 
ATOM     67  F   UNL A   1      41.715  30.277  35.747  1.00  0.00    -0.205 F 
ATOM     68  C   UNL A   1      42.932  33.725  35.955  1.00  0.00     0.022 A 
BRANCH  66  69
ATOM     69  S   UNL A   1      41.376  32.513  37.852  1.00  0.00     0.127 S 
ATOM     70  O   UNL A   1      40.062  32.032  37.431  1.00  0.00    -0.237 OA
ATOM     71  O   UNL A   1      42.151  31.557  38.644  1.00  0.00    -0.237 OA
ATOM     72  O   UNL A   1      41.413  33.881  38.351  1.00  0.00    -0.744 OA
ENDBRANCH  66  69
ENDBRANCH  48  62
BRANCH  49  73
ATOM     73  C   UNL A   1      42.662  24.388  27.255  1.00  0.00     0.023 A 
ATOM     74  C   UNL A   1      43.304  24.624  26.023  1.00  0.00     0.012 A 
ATOM     75  C   UNL A   1      42.029  23.150  27.474  1.00  0.00     0.148 A 
ATOM     76  C   UNL A   1      43.288  23.658  25.016  1.00  0.00     0.002 A 
ATOM     77  C   UNL A   1      42.063  22.173  26.486  1.00  0.00     0.091 A 
ATOM     78  F   UNL A   1      41.412  22.951  28.647  1.00  0.00    -0.205 F 
ATOM     79  C   UNL A   1      42.676  22.430  25.250  1.00  0.00     0.022 A 
BRANCH  77  80
ATOM     80  S   UNL A   1      41.409  20.519  26.744  1.00  0.00     0.127 S 
ATOM     81  O   UNL A   1      42.152  20.085  27.925  1.00  0.00    -0.237 OA
ATOM     82  O   UNL A   1      39.989  20.789  26.974  1.00  0.00    -0.237 OA
ATOM     83  O   UNL A   1      41.690  19.789  25.516  1.00  0.00    -0.744 OA
ENDBRANCH  77  80
ENDBRANCH  49  73
BRANCH  61  84
ATOM     84  C   UNL A   1      46.961  25.774  32.578  1.00  0.00     0.023 A 
ATOM     85  C   UNL A   1      46.854  24.870  33.653  1.00  0.00     0.012 A 
ATOM     86  C   UNL A   1      48.215  25.976  31.969  1.00  0.00     0.148 A 
ATOM     87  C   UNL A   1      47.982  24.207  34.137  1.00  0.00     0.002 A 
ATOM     88  C   UNL A   1      49.326  25.277  32.425  1.00  0.00     0.091 A 
ATOM     89  F   UNL A   1      48.304  26.858  30.962  1.00  0.00    -0.205 F 
ATOM     90  C   UNL A   1      49.215  24.401  33.517  1.00  0.00     0.022 A 
BRANCH  88  91
ATOM     91  S   UNL A   1      50.928  25.398  31.619  1.00  0.00     0.127 S 
ATOM     92  O   UNL A   1      51.729  24.459  32.401  1.00  0.00    -0.237 OA
ATOM     93  O   UNL A   1      50.628  24.956  30.256  1.00  0.00    -0.237 OA
ATOM     94  O   UNL A   1      51.316  26.799  31.722  1.00  0.00    -0.744 OA
ENDBRANCH  88  91
ENDBRANCH  61  84
ENDBRANCH  35  36
ENDBRANCH  27  30
ENDBRANCH  25  26
ENDBRANCH   1  25
TORSDOF 16
ENDMDL
