MODEL 1
REMARK VINA RESULT:     -11.1      0.000      0.000
REMARK SMILES CCCOc1ccccc1C(=O)NCCCNC(=O)c1ccc(-c2c3nc(c(-c4cccc(S(=O)(=O)[O-])c4F)c4ccc([nH]4)c(-c4cccc(S(=O)(=O)[O-])c4F)c4nc(c(-c5cccc(S(=O)(=O)[O-])c5F)c5ccc2[nH]5)C=C4)C=C3)cc1
REMARK SMILES IDX 15 1 14 2 13 3 11 4 12 5 10 7 5 8 6 9 7 10 9 11 8 12 4 13
REMARK SMILES IDX 3 14 2 15 1 16 16 17 17 18 18 19 19 21 20 22 21 23 82 24
REMARK SMILES IDX 22 25 81 26 23 27 24 28 25 29 75 30 26 31 80 32 74 33 76 34
REMARK SMILES IDX 27 35 79 36 73 37 72 38 28 40 60 41 40 42 59 43 41 44 44 45
REMARK SMILES IDX 58 46 77 47 42 48 43 49 57 51 78 52 45 53 29 54 30 55 38 56
REMARK SMILES IDX 31 57 33 58 39 59 32 60 34 61 35 62 36 63 37 64 61 65 62 66
REMARK SMILES IDX 70 67 63 68 65 69 71 70 64 71 66 72 67 73 68 74 69 75 46 76
REMARK SMILES IDX 47 77 55 78 48 79 50 80 56 81 49 82 51 83 52 84 53 85 54 86
REMARK H PARENT 13 6 17 20 76 39 44 50
REMARK Flexibility Score: inf
ROOT
ATOM      1  C   UNL A   1      32.480  29.496  25.100  1.00  0.00     0.042 C 
ENDROOT
BRANCH   1   2
ATOM      2  C   UNL A   1      33.321  28.242  24.947  1.00  0.00     0.118 C 
BRANCH   2   3
ATOM      3  N   UNL A   1      33.760  28.014  23.580  1.00  0.00    -0.352 N 
ATOM      4  C   UNL A   1      33.428  27.024  22.695  1.00  0.00     0.255 C 
ATOM      5  O   UNL A   1      33.906  27.071  21.560  1.00  0.00    -0.269 OA
ATOM      6  H   UNL A   1      34.400  28.679  23.235  1.00  0.00     0.163 HD
BRANCH   4   7
ATOM      7  C   UNL A   1      32.578  25.864  23.061  1.00  0.00     0.081 A 
ATOM      8  C   UNL A   1      31.186  25.800  22.937  1.00  0.00     0.132 A 
ATOM      9  C   UNL A   1      30.495  24.665  23.377  1.00  0.00     0.047 A 
ATOM     10  C   UNL A   1      31.194  23.553  23.848  1.00  0.00     0.004 A 
ATOM     11  C   UNL A   1      33.272  24.721  23.493  1.00  0.00     0.018 A 
ATOM     12  C   UNL A   1      32.585  23.572  23.882  1.00  0.00     0.001 A 
BRANCH   8  13
ATOM     13  O   UNL A   1      30.441  26.848  22.483  1.00  0.00    -0.493 OA
BRANCH  13  14
ATOM     14  C   UNL A   1      29.739  27.565  23.505  1.00  0.00     0.229 C 
BRANCH  14  15
ATOM     15  C   UNL A   1      28.896  28.703  22.925  1.00  0.00     0.038 C 
ATOM     16  C   UNL A   1      29.753  29.820  22.346  1.00  0.00     0.007 C 
ENDBRANCH  14  15
ENDBRANCH  13  14
ENDBRANCH   8  13
ENDBRANCH   4   7
ENDBRANCH   2   3
ENDBRANCH   1   2
BRANCH   1  17
ATOM     17  C   UNL A   1      32.217  29.861  26.559  1.00  0.00     0.118 C 
BRANCH  17  18
ATOM     18  N   UNL A   1      32.218  31.297  26.833  1.00  0.00    -0.352 N 
ATOM     19  C   UNL A   1      33.189  32.110  27.387  1.00  0.00     0.251 C 
ATOM     20  H   UNL A   1      31.388  31.763  26.584  1.00  0.00     0.163 HD
ATOM     21  O   UNL A   1      32.954  33.289  27.599  1.00  0.00    -0.269 OA
BRANCH  19  22
ATOM     22  C   UNL A   1      34.497  31.529  27.769  1.00  0.00     0.039 A 
ATOM     23  C   UNL A   1      35.584  32.380  27.981  1.00  0.00     0.014 A 
ATOM     24  C   UNL A   1      34.630  30.162  27.993  1.00  0.00     0.014 A 
ATOM     25  C   UNL A   1      36.758  31.871  28.546  1.00  0.00     0.010 A 
ATOM     26  C   UNL A   1      35.739  29.688  28.682  1.00  0.00     0.010 A 
ATOM     27  C   UNL A   1      36.817  30.536  28.974  1.00  0.00    -0.014 A 
BRANCH  27  28
ATOM     28  C   UNL A   1      37.969  29.999  29.754  1.00  0.00     0.031 A 
ATOM     29  C   UNL A   1      38.190  30.444  31.178  1.00  0.00     0.074 A 
ATOM     30  C   UNL A   1      38.896  29.231  29.140  1.00  0.00     0.049 A 
ATOM     31  N   UNL A   1      39.206  30.209  31.967  1.00  0.00    -0.248 NA
ATOM     32  C   UNL A   1      37.161  31.312  31.779  1.00  0.00     0.031 C 
ATOM     33  C   UNL A   1      38.868  28.821  27.733  1.00  0.00     0.029 A 
ATOM     34  N   UNL A   1      40.065  28.686  29.614  1.00  0.00    -0.354 N 
ATOM     35  C   UNL A   1      38.976  30.955  33.117  1.00  0.00     0.074 A 
ATOM     36  C   UNL A   1      37.739  31.676  32.913  1.00  0.00     0.031 C 
ATOM     37  C   UNL A   1      39.956  28.081  27.464  1.00  0.00     0.029 A 
ATOM     38  C   UNL A   1      40.779  27.991  28.663  1.00  0.00     0.049 A 
ATOM     39  H   UNL A   1      40.363  28.783  30.547  1.00  0.00     0.167 HD
ATOM     40  C   UNL A   1      39.706  31.010  34.256  1.00  0.00     0.034 A 
ATOM     41  C   UNL A   1      41.965  27.356  28.747  1.00  0.00     0.034 A 
ATOM     42  C   UNL A   1      40.871  30.207  34.499  1.00  0.00     0.049 A 
ATOM     43  C   UNL A   1      42.692  27.336  30.065  1.00  0.00     0.074 A 
ATOM     44  C   UNL A   1      41.590  30.071  35.673  1.00  0.00     0.029 A 
ATOM     45  N   UNL A   1      41.483  29.397  33.556  1.00  0.00    -0.354 N 
ATOM     46  N   UNL A   1      42.352  27.893  31.202  1.00  0.00    -0.248 NA
ATOM     47  C   UNL A   1      43.946  26.571  30.124  1.00  0.00     0.031 C 
ATOM     48  C   UNL A   1      42.645  29.185  35.438  1.00  0.00     0.029 A 
ATOM     49  C   UNL A   1      42.573  28.760  34.121  1.00  0.00     0.049 A 
ATOM     50  H   UNL A   1      41.185  29.291  32.624  1.00  0.00     0.167 HD
ATOM     51  C   UNL A   1      43.326  27.513  32.118  1.00  0.00     0.074 A 
ATOM     52  C   UNL A   1      44.258  26.661  31.409  1.00  0.00     0.031 C 
ATOM     53  C   UNL A   1      43.450  27.856  33.424  1.00  0.00     0.034 A 
BRANCH  40  54
ATOM     54  C   UNL A   1      39.224  31.913  35.362  1.00  0.00     0.023 A 
ATOM     55  C   UNL A   1      38.316  31.417  36.319  1.00  0.00     0.012 A 
ATOM     56  C   UNL A   1      39.726  33.222  35.497  1.00  0.00     0.148 A 
ATOM     57  C   UNL A   1      37.888  32.220  37.375  1.00  0.00     0.002 A 
ATOM     58  C   UNL A   1      39.329  34.002  36.578  1.00  0.00     0.091 A 
ATOM     59  F   UNL A   1      40.573  33.682  34.566  1.00  0.00    -0.205 F 
ATOM     60  C   UNL A   1      38.403  33.507  37.510  1.00  0.00     0.022 A 
BRANCH  58  61
ATOM     61  S   UNL A   1      39.996  35.641  36.890  1.00  0.00     0.127 S 
ATOM     62  O   UNL A   1      39.340  35.990  38.149  1.00  0.00    -0.237 OA
ATOM     63  O   UNL A   1      41.430  35.373  37.002  1.00  0.00    -0.237 OA
ATOM     64  O   UNL A   1      39.618  36.453  35.741  1.00  0.00    -0.744 OA
ENDBRANCH  58  61
ENDBRANCH  40  54
BRANCH  41  65
ATOM     65  C   UNL A   1      42.506  26.613  27.571  1.00  0.00     0.023 A 
ATOM     66  C   UNL A   1      43.330  27.292  26.651  1.00  0.00     0.012 A 
ATOM     67  C   UNL A   1      42.224  25.250  27.359  1.00  0.00     0.148 A 
ATOM     68  C   UNL A   1      43.829  26.641  25.523  1.00  0.00     0.002 A 
ATOM     69  C   UNL A   1      42.769  24.593  26.261  1.00  0.00     0.091 A 
ATOM     70  F   UNL A   1      41.427  24.620  28.234  1.00  0.00    -0.205 F 
ATOM     71  C   UNL A   1      43.557  25.289  25.332  1.00  0.00     0.022 A 
BRANCH  69  72
ATOM     72  S   UNL A   1      42.574  22.823  26.016  1.00  0.00     0.127 S 
ATOM     73  O   UNL A   1      43.344  22.279  27.132  1.00  0.00    -0.237 OA
ATOM     74  O   UNL A   1      41.124  22.653  26.126  1.00  0.00    -0.237 OA
ATOM     75  O   UNL A   1      43.103  22.560  24.684  1.00  0.00    -0.744 OA
ENDBRANCH  69  72
ENDBRANCH  41  65
BRANCH  53  76
ATOM     76  C   UNL A   1      44.606  27.281  34.194  1.00  0.00     0.023 A 
ATOM     77  C   UNL A   1      45.853  27.936  34.173  1.00  0.00     0.012 A 
ATOM     78  C   UNL A   1      44.433  26.144  35.008  1.00  0.00     0.148 A 
ATOM     79  C   UNL A   1      46.919  27.452  34.932  1.00  0.00     0.002 A 
ATOM     80  C   UNL A   1      45.485  25.696  35.797  1.00  0.00     0.091 A 
ATOM     81  F   UNL A   1      43.244  25.524  34.997  1.00  0.00    -0.205 F 
ATOM     82  C   UNL A   1      46.730  26.342  35.753  1.00  0.00     0.022 A 
BRANCH  80  83
ATOM     83  S   UNL A   1      45.300  24.336  36.956  1.00  0.00     0.127 S 
ATOM     84  O   UNL A   1      44.932  23.235  36.067  1.00  0.00    -0.237 OA
ATOM     85  O   UNL A   1      46.640  24.232  37.534  1.00  0.00    -0.237 OA
ATOM     86  O   UNL A   1      44.269  24.753  37.898  1.00  0.00    -0.744 OA
ENDBRANCH  80  83
ENDBRANCH  53  76
ENDBRANCH  27  28
ENDBRANCH  19  22
ENDBRANCH  17  18
ENDBRANCH   1  17
TORSDOF 16
ENDMDL
MODEL 2
REMARK VINA RESULT:     -11.0      5.609     11.237
REMARK SMILES CCCOc1ccccc1C(=O)NCCCNC(=O)c1ccc(-c2c3nc(c(-c4cccc(S(=O)(=O)[O-])c4F)c4ccc([nH]4)c(-c4cccc(S(=O)(=O)[O-])c4F)c4nc(c(-c5cccc(S(=O)(=O)[O-])c5F)c5ccc2[nH]5)C=C4)C=C3)cc1
REMARK SMILES IDX 15 1 14 2 13 3 11 4 12 5 10 7 5 8 6 9 7 10 9 11 8 12 4 13
REMARK SMILES IDX 3 14 2 15 1 16 16 17 17 18 18 19 19 21 20 22 21 23 82 24
REMARK SMILES IDX 22 25 81 26 23 27 24 28 25 29 75 30 26 31 80 32 74 33 76 34
REMARK SMILES IDX 27 35 79 36 73 37 72 38 28 40 60 41 40 42 59 43 41 44 44 45
REMARK SMILES IDX 58 46 77 47 42 48 43 49 57 51 78 52 45 53 29 54 30 55 38 56
REMARK SMILES IDX 31 57 33 58 39 59 32 60 34 61 35 62 36 63 37 64 61 65 62 66
REMARK SMILES IDX 70 67 63 68 65 69 71 70 64 71 66 72 67 73 68 74 69 75 46 76
REMARK SMILES IDX 47 77 55 78 48 79 50 80 56 81 49 82 51 83 52 84 53 85 54 86
REMARK H PARENT 13 6 17 20 76 39 44 50
REMARK Flexibility Score: inf
ROOT
ATOM      1  C   UNL A   1      41.054  20.294  26.154  1.00  0.00     0.042 C 
ENDROOT
BRANCH   1   2
ATOM      2  C   UNL A   1      42.508  20.725  26.092  1.00  0.00     0.118 C 
BRANCH   2   3
ATOM      3  N   UNL A   1      42.706  21.956  25.345  1.00  0.00    -0.352 N 
ATOM      4  C   UNL A   1      43.285  23.138  25.720  1.00  0.00     0.255 C 
ATOM      5  O   UNL A   1      43.376  24.035  24.881  1.00  0.00    -0.269 OA
ATOM      6  H   UNL A   1      42.369  21.936  24.419  1.00  0.00     0.163 HD
BRANCH   4   7
ATOM      7  C   UNL A   1      43.742  23.410  27.105  1.00  0.00     0.081 A 
ATOM      8  C   UNL A   1      45.075  23.490  27.524  1.00  0.00     0.132 A 
ATOM      9  C   UNL A   1      45.372  23.693  28.877  1.00  0.00     0.047 A 
ATOM     10  C   UNL A   1      44.349  23.916  29.797  1.00  0.00     0.004 A 
ATOM     11  C   UNL A   1      42.724  23.682  28.034  1.00  0.00     0.018 A 
ATOM     12  C   UNL A   1      43.024  23.937  29.371  1.00  0.00     0.001 A 
BRANCH   8  13
ATOM     13  O   UNL A   1      46.123  23.284  26.677  1.00  0.00    -0.493 OA
BRANCH  13  14
ATOM     14  C   UNL A   1      46.653  24.477  26.087  1.00  0.00     0.229 C 
BRANCH  14  15
ATOM     15  C   UNL A   1      46.985  24.280  24.606  1.00  0.00     0.038 C 
ATOM     16  C   UNL A   1      46.561  22.909  24.096  1.00  0.00     0.007 C 
ENDBRANCH  14  15
ENDBRANCH  13  14
ENDBRANCH   8  13
ENDBRANCH   4   7
ENDBRANCH   2   3
ENDBRANCH   1   2
BRANCH   1  17
ATOM     17  C   UNL A   1      40.195  21.220  27.011  1.00  0.00     0.118 C 
BRANCH  17  18
ATOM     18  N   UNL A   1      38.994  21.721  26.344  1.00  0.00    -0.352 N 
ATOM     19  C   UNL A   1      38.516  23.009  26.192  1.00  0.00     0.251 C 
ATOM     20  H   UNL A   1      38.432  21.025  25.935  1.00  0.00     0.163 HD
ATOM     21  O   UNL A   1      37.437  23.204  25.655  1.00  0.00    -0.269 OA
BRANCH  19  22
ATOM     22  C   UNL A   1      39.296  24.146  26.733  1.00  0.00     0.039 A 
ATOM     23  C   UNL A   1      40.062  24.922  25.860  1.00  0.00     0.014 A 
ATOM     24  C   UNL A   1      39.209  24.492  28.078  1.00  0.00     0.014 A 
ATOM     25  C   UNL A   1      40.628  26.118  26.316  1.00  0.00     0.010 A 
ATOM     26  C   UNL A   1      39.648  25.743  28.491  1.00  0.00     0.010 A 
ATOM     27  C   UNL A   1      40.359  26.578  27.615  1.00  0.00    -0.014 A 
BRANCH  27  28
ATOM     28  C   UNL A   1      40.774  27.931  28.083  1.00  0.00     0.031 A 
ATOM     29  C   UNL A   1      42.238  28.285  28.172  1.00  0.00     0.074 A 
ATOM     30  C   UNL A   1      39.848  28.788  28.567  1.00  0.00     0.049 A 
ATOM     31  N   UNL A   1      42.800  29.346  28.689  1.00  0.00    -0.248 NA
ATOM     32  C   UNL A   1      43.201  27.292  27.662  1.00  0.00     0.031 C 
ATOM     33  C   UNL A   1      38.407  28.528  28.649  1.00  0.00     0.029 A 
ATOM     34  N   UNL A   1      39.985  30.041  29.115  1.00  0.00    -0.354 N 
ATOM     35  C   UNL A   1      44.170  29.115  28.636  1.00  0.00     0.074 A 
ATOM     36  C   UNL A   1      44.356  27.800  28.064  1.00  0.00     0.031 C 
ATOM     37  C   UNL A   1      37.796  29.590  29.199  1.00  0.00     0.029 A 
ATOM     38  C   UNL A   1      38.797  30.593  29.542  1.00  0.00     0.049 A 
ATOM     39  H   UNL A   1      40.851  30.501  29.194  1.00  0.00     0.167 HD
ATOM     40  C   UNL A   1      45.185  29.935  28.995  1.00  0.00     0.034 A 
ATOM     41  C   UNL A   1      38.544  31.770  30.147  1.00  0.00     0.034 A 
ATOM     42  C   UNL A   1      45.002  31.282  29.456  1.00  0.00     0.049 A 
ATOM     43  C   UNL A   1      39.687  32.711  30.422  1.00  0.00     0.074 A 
ATOM     44  C   UNL A   1      45.964  32.246  29.695  1.00  0.00     0.029 A 
ATOM     45  N   UNL A   1      43.774  31.860  29.737  1.00  0.00    -0.354 N 
ATOM     46  N   UNL A   1      40.965  32.548  30.180  1.00  0.00    -0.248 NA
ATOM     47  C   UNL A   1      39.351  34.013  31.017  1.00  0.00     0.031 C 
ATOM     48  C   UNL A   1      45.319  33.408  30.132  1.00  0.00     0.029 A 
ATOM     49  C   UNL A   1      43.954  33.167  30.151  1.00  0.00     0.049 A 
ATOM     50  H   UNL A   1      42.904  31.407  29.653  1.00  0.00     0.167 HD
ATOM     51  C   UNL A   1      41.579  33.736  30.557  1.00  0.00     0.074 A 
ATOM     52  C   UNL A   1      40.529  34.620  31.021  1.00  0.00     0.031 C 
ATOM     53  C   UNL A   1      42.895  34.061  30.539  1.00  0.00     0.034 A 
BRANCH  40  54
ATOM     54  C   UNL A   1      46.595  29.428  28.832  1.00  0.00     0.023 A 
ATOM     55  C   UNL A   1      47.304  29.713  27.648  1.00  0.00     0.012 A 
ATOM     56  C   UNL A   1      47.242  28.739  29.877  1.00  0.00     0.148 A 
ATOM     57  C   UNL A   1      48.623  29.291  27.490  1.00  0.00     0.002 A 
ATOM     58  C   UNL A   1      48.572  28.361  29.730  1.00  0.00     0.091 A 
ATOM     59  F   UNL A   1      46.545  28.461  30.988  1.00  0.00    -0.205 F 
ATOM     60  C   UNL A   1      49.259  28.626  28.535  1.00  0.00     0.022 A 
BRANCH  58  61
ATOM     61  S   UNL A   1      49.508  27.575  31.046  1.00  0.00     0.127 S 
ATOM     62  O   UNL A   1      50.876  27.683  30.540  1.00  0.00    -0.237 OA
ATOM     63  O   UNL A   1      49.211  28.434  32.192  1.00  0.00    -0.237 OA
ATOM     64  O   UNL A   1      48.988  26.218  31.154  1.00  0.00    -0.744 OA
ENDBRANCH  58  61
ENDBRANCH  40  54
BRANCH  41  65
ATOM     65  C   UNL A   1      37.140  32.170  30.459  1.00  0.00     0.023 A 
ATOM     66  C   UNL A   1      36.622  31.903  31.742  1.00  0.00     0.012 A 
ATOM     67  C   UNL A   1      36.322  32.814  29.512  1.00  0.00     0.148 A 
ATOM     68  C   UNL A   1      35.305  32.232  32.063  1.00  0.00     0.002 A 
ATOM     69  C   UNL A   1      35.027  33.188  29.856  1.00  0.00     0.091 A 
ATOM     70  F   UNL A   1      36.824  33.049  28.291  1.00  0.00    -0.205 F 
ATOM     71  C   UNL A   1      34.511  32.883  31.124  1.00  0.00     0.022 A 
BRANCH  69  72
ATOM     72  S   UNL A   1      33.986  34.147  28.749  1.00  0.00     0.127 S 
ATOM     73  O   UNL A   1      33.620  33.153  27.744  1.00  0.00    -0.237 OA
ATOM     74  O   UNL A   1      32.895  34.562  29.632  1.00  0.00    -0.237 OA
ATOM     75  O   UNL A   1      34.826  35.245  28.287  1.00  0.00    -0.744 OA
ENDBRANCH  69  72
ENDBRANCH  41  65
BRANCH  53  76
ATOM     76  C   UNL A   1      43.283  35.441  30.993  1.00  0.00     0.023 A 
ATOM     77  C   UNL A   1      43.625  35.662  32.342  1.00  0.00     0.012 A 
ATOM     78  C   UNL A   1      43.397  36.496  30.067  1.00  0.00     0.148 A 
ATOM     79  C   UNL A   1      44.049  36.921  32.766  1.00  0.00     0.002 A 
ATOM     80  C   UNL A   1      43.865  37.735  30.488  1.00  0.00     0.091 A 
ATOM     81  F   UNL A   1      43.048  36.269  28.792  1.00  0.00    -0.205 F 
ATOM     82  C   UNL A   1      44.182  37.951  31.838  1.00  0.00     0.022 A 
BRANCH  80  83
ATOM     83  S   UNL A   1      44.161  39.086  29.342  1.00  0.00     0.127 S 
ATOM     84  O   UNL A   1      44.693  40.119  30.229  1.00  0.00    -0.237 OA
ATOM     85  O   UNL A   1      45.142  38.507  28.422  1.00  0.00    -0.237 OA
ATOM     86  O   UNL A   1      42.871  39.384  28.734  1.00  0.00    -0.744 OA
ENDBRANCH  80  83
ENDBRANCH  53  76
ENDBRANCH  27  28
ENDBRANCH  19  22
ENDBRANCH  17  18
ENDBRANCH   1  17
TORSDOF 16
ENDMDL
MODEL 3
REMARK VINA RESULT:     -11.0      1.562      2.010
REMARK SMILES CCCOc1ccccc1C(=O)NCCCNC(=O)c1ccc(-c2c3nc(c(-c4cccc(S(=O)(=O)[O-])c4F)c4ccc([nH]4)c(-c4cccc(S(=O)(=O)[O-])c4F)c4nc(c(-c5cccc(S(=O)(=O)[O-])c5F)c5ccc2[nH]5)C=C4)C=C3)cc1
REMARK SMILES IDX 15 1 14 2 13 3 11 4 12 5 10 7 5 8 6 9 7 10 9 11 8 12 4 13
REMARK SMILES IDX 3 14 2 15 1 16 16 17 17 18 18 19 19 21 20 22 21 23 82 24
REMARK SMILES IDX 22 25 81 26 23 27 24 28 25 29 75 30 26 31 80 32 74 33 76 34
REMARK SMILES IDX 27 35 79 36 73 37 72 38 28 40 60 41 40 42 59 43 41 44 44 45
REMARK SMILES IDX 58 46 77 47 42 48 43 49 57 51 78 52 45 53 29 54 30 55 38 56
REMARK SMILES IDX 31 57 33 58 39 59 32 60 34 61 35 62 36 63 37 64 61 65 62 66
REMARK SMILES IDX 70 67 63 68 65 69 71 70 64 71 66 72 67 73 68 74 69 75 46 76
REMARK SMILES IDX 47 77 55 78 48 79 50 80 56 81 49 82 51 83 52 84 53 85 54 86
REMARK H PARENT 13 6 17 20 76 39 44 50
REMARK Flexibility Score: inf
ROOT
ATOM      1  C   UNL A   1      31.881  29.090  27.167  1.00  0.00     0.042 C 
ENDROOT
BRANCH   1   2
ATOM      2  C   UNL A   1      32.220  27.635  26.902  1.00  0.00     0.118 C 
BRANCH   2   3
ATOM      3  N   UNL A   1      31.046  26.779  26.836  1.00  0.00    -0.352 N 
ATOM      4  C   UNL A   1      30.537  26.051  25.796  1.00  0.00     0.255 C 
ATOM      5  O   UNL A   1      29.539  25.357  26.003  1.00  0.00    -0.269 OA
ATOM      6  H   UNL A   1      30.535  26.713  27.677  1.00  0.00     0.163 HD
BRANCH   4   7
ATOM      7  C   UNL A   1      31.087  26.112  24.420  1.00  0.00     0.081 A 
ATOM      8  C   UNL A   1      30.925  27.172  23.522  1.00  0.00     0.132 A 
ATOM      9  C   UNL A   1      31.447  27.078  22.226  1.00  0.00     0.047 A 
ATOM     10  C   UNL A   1      32.214  25.974  21.854  1.00  0.00     0.004 A 
ATOM     11  C   UNL A   1      31.901  25.028  24.048  1.00  0.00     0.018 A 
ATOM     12  C   UNL A   1      32.464  24.961  22.774  1.00  0.00     0.001 A 
BRANCH   8  13
ATOM     13  O   UNL A   1      30.189  28.280  23.821  1.00  0.00    -0.493 OA
BRANCH  13  14
ATOM     14  C   UNL A   1      28.830  28.229  23.374  1.00  0.00     0.229 C 
BRANCH  14  15
ATOM     15  C   UNL A   1      28.503  29.375  22.414  1.00  0.00     0.038 C 
ATOM     16  C   UNL A   1      27.652  30.454  23.071  1.00  0.00     0.007 C 
ENDBRANCH  14  15
ENDBRANCH  13  14
ENDBRANCH   8  13
ENDBRANCH   4   7
ENDBRANCH   2   3
ENDBRANCH   1   2
BRANCH   1  17
ATOM     17  C   UNL A   1      32.762  30.059  26.382  1.00  0.00     0.118 C 
BRANCH  17  18
ATOM     18  N   UNL A   1      32.757  31.429  26.890  1.00  0.00    -0.352 N 
ATOM     19  C   UNL A   1      33.700  32.125  27.622  1.00  0.00     0.251 C 
ATOM     20  H   UNL A   1      31.944  31.942  26.677  1.00  0.00     0.163 HD
ATOM     21  O   UNL A   1      33.461  33.257  28.014  1.00  0.00    -0.269 OA
BRANCH  19  22
ATOM     22  C   UNL A   1      34.982  31.470  27.972  1.00  0.00     0.039 A 
ATOM     23  C   UNL A   1      36.136  32.248  28.085  1.00  0.00     0.014 A 
ATOM     24  C   UNL A   1      35.028  30.109  28.263  1.00  0.00     0.014 A 
ATOM     25  C   UNL A   1      37.299  31.683  28.620  1.00  0.00     0.010 A 
ATOM     26  C   UNL A   1      36.134  29.590  28.923  1.00  0.00     0.010 A 
ATOM     27  C   UNL A   1      37.284  30.370  29.117  1.00  0.00    -0.014 A 
BRANCH  27  28
ATOM     28  C   UNL A   1      38.433  29.790  29.869  1.00  0.00     0.031 A 
ATOM     29  C   UNL A   1      38.760  30.290  31.254  1.00  0.00     0.074 A 
ATOM     30  C   UNL A   1      39.270  28.925  29.255  1.00  0.00     0.049 A 
ATOM     31  N   UNL A   1      39.797  30.022  32.005  1.00  0.00    -0.248 NA
ATOM     32  C   UNL A   1      37.829  31.262  31.855  1.00  0.00     0.031 C 
ATOM     33  C   UNL A   1      39.139  28.445  27.875  1.00  0.00     0.029 A 
ATOM     34  N   UNL A   1      40.420  28.319  29.701  1.00  0.00    -0.354 N 
ATOM     35  C   UNL A   1      39.681  30.841  33.121  1.00  0.00     0.074 A 
ATOM     36  C   UNL A   1      38.490  31.641  32.938  1.00  0.00     0.031 C 
ATOM     37  C   UNL A   1      40.155  27.613  27.596  1.00  0.00     0.029 A 
ATOM     38  C   UNL A   1      41.032  27.524  28.758  1.00  0.00     0.049 A 
ATOM     39  H   UNL A   1      40.773  28.442  30.612  1.00  0.00     0.167 HD
ATOM     40  C   UNL A   1      40.471  30.901  34.219  1.00  0.00     0.034 A 
ATOM     41  C   UNL A   1      42.172  26.808  28.819  1.00  0.00     0.034 A 
ATOM     42  C   UNL A   1      41.587  30.027  34.450  1.00  0.00     0.049 A 
ATOM     43  C   UNL A   1      42.963  26.802  30.099  1.00  0.00     0.074 A 
ATOM     44  C   UNL A   1      42.354  29.899  35.594  1.00  0.00     0.029 A 
ATOM     45  N   UNL A   1      42.089  29.126  33.525  1.00  0.00    -0.354 N 
ATOM     46  N   UNL A   1      42.723  27.440  31.219  1.00  0.00    -0.248 NA
ATOM     47  C   UNL A   1      44.160  25.950  30.141  1.00  0.00     0.031 C 
ATOM     48  C   UNL A   1      43.329  28.925  35.358  1.00  0.00     0.029 A 
ATOM     49  C   UNL A   1      43.158  28.440  34.071  1.00  0.00     0.049 A 
ATOM     50  H   UNL A   1      41.736  28.994  32.616  1.00  0.00     0.167 HD
ATOM     51  C   UNL A   1      43.714  27.038  32.107  1.00  0.00     0.074 A 
ATOM     52  C   UNL A   1      44.544  26.083  31.402  1.00  0.00     0.031 C 
ATOM     53  C   UNL A   1      43.930  27.438  33.384  1.00  0.00     0.034 A 
BRANCH  40  54
ATOM     54  C   UNL A   1      40.114  31.893  35.295  1.00  0.00     0.023 A 
ATOM     55  C   UNL A   1      40.755  33.148  35.324  1.00  0.00     0.012 A 
ATOM     56  C   UNL A   1      39.096  31.614  36.227  1.00  0.00     0.148 A 
ATOM     57  C   UNL A   1      40.412  34.098  36.285  1.00  0.00     0.002 A 
ATOM     58  C   UNL A   1      38.728  32.584  37.153  1.00  0.00     0.091 A 
ATOM     59  F   UNL A   1      38.511  30.408  36.195  1.00  0.00    -0.205 F 
ATOM     60  C   UNL A   1      39.393  33.820  37.191  1.00  0.00     0.022 A 
BRANCH  58  61
ATOM     61  S   UNL A   1      37.371  32.358  38.309  1.00  0.00     0.127 S 
ATOM     62  O   UNL A   1      37.894  33.009  39.509  1.00  0.00    -0.237 OA
ATOM     63  O   UNL A   1      36.282  33.077  37.649  1.00  0.00    -0.237 OA
ATOM     64  O   UNL A   1      37.170  30.919  38.416  1.00  0.00    -0.744 OA
ENDBRANCH  58  61
ENDBRANCH  40  54
BRANCH  41  65
ATOM     65  C   UNL A   1      42.596  25.966  27.661  1.00  0.00     0.023 A 
ATOM     66  C   UNL A   1      43.463  26.516  26.696  1.00  0.00     0.012 A 
ATOM     67  C   UNL A   1      42.161  24.636  27.511  1.00  0.00     0.148 A 
ATOM     68  C   UNL A   1      43.857  25.772  25.584  1.00  0.00     0.002 A 
ATOM     69  C   UNL A   1      42.600  23.882  26.427  1.00  0.00     0.091 A 
ATOM     70  F   UNL A   1      41.324  24.131  28.429  1.00  0.00    -0.205 F 
ATOM     71  C   UNL A   1      43.434  24.453  25.454  1.00  0.00     0.022 A 
BRANCH  69  72
ATOM     72  S   UNL A   1      42.207  22.137  26.258  1.00  0.00     0.127 S 
ATOM     73  O   UNL A   1      42.664  21.600  27.537  1.00  0.00    -0.237 OA
ATOM     74  O   UNL A   1      40.753  22.163  26.085  1.00  0.00    -0.237 OA
ATOM     75  O   UNL A   1      42.937  21.692  25.078  1.00  0.00    -0.744 OA
ENDBRANCH  69  72
ENDBRANCH  41  65
BRANCH  53  76
ATOM     76  C   UNL A   1      45.081  26.819  34.128  1.00  0.00     0.023 A 
ATOM     77  C   UNL A   1      46.353  27.421  34.073  1.00  0.00     0.012 A 
ATOM     78  C   UNL A   1      44.881  25.694  34.952  1.00  0.00     0.148 A 
ATOM     79  C   UNL A   1      47.416  26.897  34.807  1.00  0.00     0.002 A 
ATOM     80  C   UNL A   1      45.934  25.205  35.717  1.00  0.00     0.091 A 
ATOM     81  F   UNL A   1      43.668  25.123  34.974  1.00  0.00    -0.205 F 
ATOM     82  C   UNL A   1      47.203  25.800  35.639  1.00  0.00     0.022 A 
BRANCH  80  83
ATOM     83  S   UNL A   1      45.721  23.860  36.888  1.00  0.00     0.127 S 
ATOM     84  O   UNL A   1      44.735  24.420  37.810  1.00  0.00    -0.237 OA
ATOM     85  O   UNL A   1      45.217  22.781  36.036  1.00  0.00    -0.237 OA
ATOM     86  O   UNL A   1      47.041  23.611  37.454  1.00  0.00    -0.744 OA
ENDBRANCH  80  83
ENDBRANCH  53  76
ENDBRANCH  27  28
ENDBRANCH  19  22
ENDBRANCH  17  18
ENDBRANCH   1  17
TORSDOF 16
ENDMDL
