MODEL 1
REMARK VINA RESULT:     -14.0      0.000      0.000
REMARK SMILES Cc1ccc(S(=O)(=O)n2cc(C(=O)C(=O)N[C@@H](Cc3c[nH]c4ccccc34)C(=O)NCCCNC(=O)c3ccc(-c4c5nc(c(-c6cccc(S(=O)(=O)[O-])c6F)c6ccc([nH]6)c(-c6cccc(S(=O)(=O)[O-])c6F)c6nc(c(-c7cccc(S(=O)(=O)[O-])c7F)c7ccc4[nH]7)C=C6)C=C5)cc3)c3ccccc32)cc1
REMARK SMILES IDX 31 1 30 2 28 3 29 4 17 6 16 7 14 8 15 9 12 11 13 12 11 13
REMARK SMILES IDX 9 14 10 15 105 16 100 17 104 18 101 19 103 20 102 21 6 22
REMARK SMILES IDX 7 23 8 24 5 25 1 26 2 27 3 28 107 29 4 30 106 31 18 32 19 33
REMARK SMILES IDX 20 34 27 35 21 36 22 37 26 38 23 40 25 41 24 42 32 43 33 44
REMARK SMILES IDX 34 45 35 46 36 48 37 49 38 50 99 51 39 52 98 53 40 54 41 55
REMARK SMILES IDX 42 56 92 57 43 58 97 59 91 60 93 61 44 62 96 63 90 64 89 65
REMARK SMILES IDX 45 67 77 68 57 69 76 70 58 71 61 72 75 73 94 74 59 75 60 76
REMARK SMILES IDX 74 78 95 79 62 80 46 81 47 82 55 83 48 84 50 85 56 86 49 87
REMARK SMILES IDX 51 88 52 89 53 90 54 91 78 92 79 93 87 94 80 95 82 96 88 97
REMARK SMILES IDX 81 98 83 99 84 100 85 101 86 102 63 103 64 104 72 105 65 106
REMARK SMILES IDX 67 107 73 108 66 109 68 110 69 111 70 112 71 113
REMARK H PARENT 30 5 16 10 21 39 34 47 93 66 61 77
REMARK Flexibility Score: inf
ROOT
ATOM      1  C   UNL A   1      37.380  21.591  24.250  1.00  0.00     0.117 C 
ENDROOT
BRANCH   1   2
ATOM      2  N   UNL A   1      36.533  22.722  24.597  1.00  0.00    -0.354 N 
ATOM      3  C   UNL A   1      35.415  22.810  25.371  1.00  0.00     0.242 C 
ATOM      4  O   UNL A   1      35.267  23.863  26.006  1.00  0.00    -0.273 OA
ATOM      5  H   UNL A   1      36.819  23.577  24.202  1.00  0.00     0.163 HD
BRANCH   3   6
ATOM      6  C   UNL A   1      34.405  21.654  25.584  1.00  0.00     0.176 C 
BRANCH   6   7
ATOM      7  N   UNL A   1      33.502  21.793  26.742  1.00  0.00    -0.337 N 
ATOM      8  C   UNL A   1      32.361  22.566  26.928  1.00  0.00     0.293 C 
ATOM      9  O   UNL A   1      31.810  22.600  28.025  1.00  0.00    -0.265 OA
ATOM     10  H   UNL A   1      33.749  21.240  27.518  1.00  0.00     0.164 HD
BRANCH   8  11
ATOM     11  C   UNL A   1      31.762  23.376  25.773  1.00  0.00     0.252 C 
ATOM     12  O   UNL A   1      31.014  22.753  25.021  1.00  0.00    -0.283 OA
BRANCH  11  13
ATOM     13  C   UNL A   1      32.151  24.775  25.478  1.00  0.00     0.054 A 
ATOM     14  N   UNL A   1      32.818  26.947  25.488  1.00  0.00    -0.240 N 
ATOM     15  C   UNL A   1      32.340  25.907  26.292  1.00  0.00     0.117 A 
ATOM     16  C   UNL A   1      33.084  26.400  24.219  1.00  0.00     0.065 A 
ATOM     17  C   UNL A   1      32.307  25.251  24.140  1.00  0.00     0.012 A 
ATOM     18  C   UNL A   1      33.654  26.982  23.068  1.00  0.00     0.028 A 
ATOM     19  C   UNL A   1      31.909  24.795  22.866  1.00  0.00     0.011 A 
ATOM     20  C   UNL A   1      33.178  26.570  21.825  1.00  0.00     0.002 A 
ATOM     21  C   UNL A   1      32.278  25.519  21.727  1.00  0.00     0.001 A 
BRANCH  14  22
ATOM     22  S   UNL A   1      32.223  28.579  25.324  1.00  0.00     0.268 S 
ATOM     23  O   UNL A   1      33.433  29.325  25.009  1.00  0.00    -0.201 OA
ATOM     24  O   UNL A   1      31.546  28.758  26.604  1.00  0.00    -0.201 OA
BRANCH  22  25
ATOM     25  C   UNL A   1      31.014  29.273  24.258  1.00  0.00     0.088 A 
ATOM     26  C   UNL A   1      27.687  31.564  22.704  1.00  0.00     0.044 C 
ATOM     27  C   UNL A   1      28.874  30.772  23.173  1.00  0.00    -0.051 A 
ATOM     28  C   UNL A   1      29.585  31.284  24.246  1.00  0.00     0.005 A 
ATOM     29  C   UNL A   1      29.266  29.528  22.626  1.00  0.00     0.005 A 
ATOM     30  C   UNL A   1      30.639  30.551  24.760  1.00  0.00     0.022 A 
ATOM     31  C   UNL A   1      30.337  28.761  23.167  1.00  0.00     0.022 A 
ENDBRANCH  22  25
ENDBRANCH  14  22
ENDBRANCH  11  13
ENDBRANCH   8  11
ENDBRANCH   6   7
BRANCH   6  32
ATOM     32  C   UNL A   1      33.702  21.199  24.263  1.00  0.00     0.072 C 
BRANCH  32  33
ATOM     33  C   UNL A   1      33.327  19.745  24.088  1.00  0.00    -0.020 A 
ATOM     34  C   UNL A   1      32.081  19.275  23.692  1.00  0.00     0.087 A 
ATOM     35  C   UNL A   1      34.134  18.576  24.319  1.00  0.00     0.003 A 
ATOM     36  N   UNL A   1      32.063  17.910  23.825  1.00  0.00    -0.361 N 
ATOM     37  C   UNL A   1      33.279  17.469  24.289  1.00  0.00     0.046 A 
ATOM     38  C   UNL A   1      35.482  18.358  24.676  1.00  0.00     0.010 A 
ATOM     39  H   UNL A   1      31.292  17.332  23.621  1.00  0.00     0.166 HD
ATOM     40  C   UNL A   1      33.668  16.194  24.721  1.00  0.00     0.026 A 
ATOM     41  C   UNL A   1      35.871  17.105  25.165  1.00  0.00     0.001 A 
ATOM     42  C   UNL A   1      34.967  16.048  25.213  1.00  0.00     0.002 A 
ENDBRANCH  32  33
ENDBRANCH   6  32
ENDBRANCH   3   6
ENDBRANCH   1   2
BRANCH   1  43
ATOM     43  C   UNL A   1      38.358  21.142  25.329  1.00  0.00     0.042 C 
BRANCH  43  44
ATOM     44  C   UNL A   1      38.663  22.181  26.402  1.00  0.00     0.118 C 
BRANCH  44  45
ATOM     45  N   UNL A   1      40.066  22.175  26.859  1.00  0.00    -0.352 N 
ATOM     46  C   UNL A   1      41.043  23.160  26.959  1.00  0.00     0.251 C 
ATOM     47  H   UNL A   1      40.375  21.289  27.156  1.00  0.00     0.163 HD
ATOM     48  O   UNL A   1      42.223  22.807  26.997  1.00  0.00    -0.269 OA
BRANCH  46  49
ATOM     49  C   UNL A   1      40.663  24.585  27.058  1.00  0.00     0.039 A 
ATOM     50  C   UNL A   1      40.823  25.570  26.082  1.00  0.00     0.014 A 
ATOM     51  C   UNL A   1      40.289  25.004  28.313  1.00  0.00     0.014 A 
ATOM     52  C   UNL A   1      40.743  26.913  26.493  1.00  0.00     0.010 A 
ATOM     53  C   UNL A   1      39.706  26.193  28.546  1.00  0.00     0.010 A 
ATOM     54  C   UNL A   1      40.273  27.183  27.778  1.00  0.00    -0.014 A 
BRANCH  54  55
ATOM     55  C   UNL A   1      40.506  28.342  28.623  1.00  0.00     0.031 A 
ATOM     56  C   UNL A   1      39.543  29.435  28.609  1.00  0.00     0.074 A 
ATOM     57  C   UNL A   1      41.257  28.120  29.738  1.00  0.00     0.049 A 
ATOM     58  N   UNL A   1      39.750  30.569  29.171  1.00  0.00    -0.248 NA
ATOM     59  C   UNL A   1      38.231  29.291  27.998  1.00  0.00     0.031 C 
ATOM     60  C   UNL A   1      41.170  28.787  31.032  1.00  0.00     0.029 A 
ATOM     61  N   UNL A   1      42.299  27.205  29.929  1.00  0.00    -0.354 N 
ATOM     62  C   UNL A   1      38.519  31.170  29.288  1.00  0.00     0.074 A 
ATOM     63  C   UNL A   1      37.638  30.404  28.434  1.00  0.00     0.031 C 
ATOM     64  C   UNL A   1      42.273  28.500  31.744  1.00  0.00     0.029 A 
ATOM     65  C   UNL A   1      43.173  27.784  30.860  1.00  0.00     0.049 A 
ATOM     66  H   UNL A   1      42.399  26.326  29.494  1.00  0.00     0.167 HD
ATOM     67  C   UNL A   1      38.340  32.122  30.247  1.00  0.00     0.034 A 
ATOM     68  C   UNL A   1      44.439  28.176  30.520  1.00  0.00     0.034 A 
ATOM     69  C   UNL A   1      39.553  32.274  31.085  1.00  0.00     0.049 A 
ATOM     70  C   UNL A   1      44.608  29.694  30.585  1.00  0.00     0.074 A 
ATOM     71  C   UNL A   1      39.890  31.896  32.377  1.00  0.00     0.029 A 
ATOM     72  N   UNL A   1      40.753  32.631  30.484  1.00  0.00    -0.354 N 
ATOM     73  N   UNL A   1      43.756  30.527  31.120  1.00  0.00    -0.248 NA
ATOM     74  C   UNL A   1      45.715  30.389  29.935  1.00  0.00     0.031 C 
ATOM     75  C   UNL A   1      41.305  32.027  32.535  1.00  0.00     0.029 A 
ATOM     76  C   UNL A   1      41.831  32.509  31.351  1.00  0.00     0.049 A 
ATOM     77  H   UNL A   1      40.830  32.935  29.550  1.00  0.00     0.167 HD
ATOM     78  C   UNL A   1      44.034  31.807  30.695  1.00  0.00     0.074 A 
ATOM     79  C   UNL A   1      45.305  31.667  29.999  1.00  0.00     0.031 C 
ATOM     80  C   UNL A   1      43.164  32.859  30.858  1.00  0.00     0.034 A 
BRANCH  67  81
ATOM     81  C   UNL A   1      36.981  32.685  30.632  1.00  0.00     0.023 A 
ATOM     82  C   UNL A   1      36.460  32.339  31.896  1.00  0.00     0.012 A 
ATOM     83  C   UNL A   1      36.156  33.517  29.838  1.00  0.00     0.148 A 
ATOM     84  C   UNL A   1      35.163  32.681  32.295  1.00  0.00     0.002 A 
ATOM     85  C   UNL A   1      34.829  33.779  30.190  1.00  0.00     0.091 A 
ATOM     86  F   UNL A   1      36.675  34.169  28.792  1.00  0.00    -0.205 F 
ATOM     87  C   UNL A   1      34.327  33.358  31.421  1.00  0.00     0.022 A 
BRANCH  85  88
ATOM     88  S   UNL A   1      33.673  34.562  29.049  1.00  0.00     0.127 S 
ATOM     89  O   UNL A   1      34.435  35.724  28.583  1.00  0.00    -0.237 OA
ATOM     90  O   UNL A   1      33.471  33.527  28.040  1.00  0.00    -0.237 OA
ATOM     91  O   UNL A   1      32.502  34.910  29.847  1.00  0.00    -0.744 OA
ENDBRANCH  85  88
ENDBRANCH  67  81
BRANCH  68  92
ATOM     92  C   UNL A   1      45.041  27.272  29.482  1.00  0.00     0.023 A 
ATOM     93  C   UNL A   1      45.217  25.917  29.860  1.00  0.00     0.012 A 
ATOM     94  C   UNL A   1      44.955  27.584  28.114  1.00  0.00     0.148 A 
ATOM     95  C   UNL A   1      45.091  24.893  28.917  1.00  0.00     0.002 A 
ATOM     96  C   UNL A   1      44.845  26.557  27.179  1.00  0.00     0.091 A 
ATOM     97  F   UNL A   1      44.879  28.867  27.743  1.00  0.00    -0.205 F 
ATOM     98  C   UNL A   1      44.852  25.214  27.584  1.00  0.00     0.022 A 
BRANCH  96  99
ATOM     99  S   UNL A   1      44.563  26.942  25.447  1.00  0.00     0.127 S 
ATOM    100  O   UNL A   1      44.111  25.653  24.934  1.00  0.00    -0.237 OA
ATOM    101  O   UNL A   1      43.531  27.974  25.505  1.00  0.00    -0.237 OA
ATOM    102  O   UNL A   1      45.854  27.415  24.968  1.00  0.00    -0.744 OA
ENDBRANCH  96  99
ENDBRANCH  68  92
BRANCH  80 103
ATOM    103  C   UNL A   1      43.449  34.315  30.468  1.00  0.00     0.023 A 
ATOM    104  C   UNL A   1      43.634  35.325  31.430  1.00  0.00     0.012 A 
ATOM    105  C   UNL A   1      43.451  34.754  29.113  1.00  0.00     0.148 A 
ATOM    106  C   UNL A   1      43.966  36.642  31.081  1.00  0.00     0.002 A 
ATOM    107  C   UNL A   1      43.770  36.064  28.764  1.00  0.00     0.091 A 
ATOM    108  F   UNL A   1      43.063  33.929  28.137  1.00  0.00    -0.205 F 
ATOM    109  C   UNL A   1      44.063  37.005  29.748  1.00  0.00     0.022 A 
BRANCH 107 110
ATOM    110  S   UNL A   1      43.794  36.621  27.053  1.00  0.00     0.127 S 
ATOM    111  O   UNL A   1      44.983  35.940  26.541  1.00  0.00    -0.237 OA
ATOM    112  O   UNL A   1      42.526  36.097  26.546  1.00  0.00    -0.237 OA
ATOM    113  O   UNL A   1      43.874  38.074  27.097  1.00  0.00    -0.744 OA
ENDBRANCH 107 110
ENDBRANCH  80 103
ENDBRANCH  54  55
ENDBRANCH  46  49
ENDBRANCH  44  45
ENDBRANCH  43  44
ENDBRANCH   1  43
TORSDOF 20
ENDMDL
MODEL 2
REMARK VINA RESULT:     -13.7      3.620     10.071
REMARK SMILES Cc1ccc(S(=O)(=O)n2cc(C(=O)C(=O)N[C@@H](Cc3c[nH]c4ccccc34)C(=O)NCCCNC(=O)c3ccc(-c4c5nc(c(-c6cccc(S(=O)(=O)[O-])c6F)c6ccc([nH]6)c(-c6cccc(S(=O)(=O)[O-])c6F)c6nc(c(-c7cccc(S(=O)(=O)[O-])c7F)c7ccc4[nH]7)C=C6)C=C5)cc3)c3ccccc32)cc1
REMARK SMILES IDX 31 1 30 2 28 3 29 4 17 6 16 7 14 8 15 9 12 11 13 12 11 13
REMARK SMILES IDX 9 14 10 15 105 16 100 17 104 18 101 19 103 20 102 21 6 22
REMARK SMILES IDX 7 23 8 24 5 25 1 26 2 27 3 28 107 29 4 30 106 31 18 32 19 33
REMARK SMILES IDX 20 34 27 35 21 36 22 37 26 38 23 40 25 41 24 42 32 43 33 44
REMARK SMILES IDX 34 45 35 46 36 48 37 49 38 50 99 51 39 52 98 53 40 54 41 55
REMARK SMILES IDX 42 56 92 57 43 58 97 59 91 60 93 61 44 62 96 63 90 64 89 65
REMARK SMILES IDX 45 67 77 68 57 69 76 70 58 71 61 72 75 73 94 74 59 75 60 76
REMARK SMILES IDX 74 78 95 79 62 80 46 81 47 82 55 83 48 84 50 85 56 86 49 87
REMARK SMILES IDX 51 88 52 89 53 90 54 91 78 92 79 93 87 94 80 95 82 96 88 97
REMARK SMILES IDX 81 98 83 99 84 100 85 101 86 102 63 103 64 104 72 105 65 106
REMARK SMILES IDX 67 107 73 108 66 109 68 110 69 111 70 112 71 113
REMARK H PARENT 30 5 16 10 21 39 34 47 93 66 61 77
REMARK Flexibility Score: inf
ROOT
ATOM      1  C   UNL A   1      33.433  29.355  24.428  1.00  0.00     0.117 C 
ENDROOT
BRANCH   1   2
ATOM      2  N   UNL A   1      33.146  28.296  23.471  1.00  0.00    -0.354 N 
ATOM      3  C   UNL A   1      31.970  27.747  23.055  1.00  0.00     0.242 C 
ATOM      4  O   UNL A   1      31.924  27.375  21.875  1.00  0.00    -0.273 OA
ATOM      5  H   UNL A   1      33.946  27.907  23.048  1.00  0.00     0.163 HD
BRANCH   3   6
ATOM      6  C   UNL A   1      30.688  27.669  23.921  1.00  0.00     0.176 C 
BRANCH   6   7
ATOM      7  N   UNL A   1      30.871  27.897  25.367  1.00  0.00    -0.337 N 
ATOM      8  C   UNL A   1      30.860  27.016  26.443  1.00  0.00     0.293 C 
ATOM      9  O   UNL A   1      30.941  27.444  27.591  1.00  0.00    -0.265 OA
ATOM     10  H   UNL A   1      31.031  28.837  25.612  1.00  0.00     0.164 HD
BRANCH   8  11
ATOM     11  C   UNL A   1      30.763  25.503  26.220  1.00  0.00     0.252 C 
ATOM     12  O   UNL A   1      29.723  24.976  26.611  1.00  0.00    -0.283 OA
BRANCH  11  13
ATOM     13  C   UNL A   1      31.887  24.688  25.702  1.00  0.00     0.054 A 
ATOM     14  N   UNL A   1      33.590  23.730  24.543  1.00  0.00    -0.240 N 
ATOM     15  C   UNL A   1      32.483  24.578  24.432  1.00  0.00     0.117 A 
ATOM     16  C   UNL A   1      33.770  23.459  25.913  1.00  0.00     0.065 A 
ATOM     17  C   UNL A   1      32.534  23.697  26.502  1.00  0.00     0.012 A 
ATOM     18  C   UNL A   1      34.777  22.735  26.582  1.00  0.00     0.028 A 
ATOM     19  C   UNL A   1      32.217  23.013  27.695  1.00  0.00     0.011 A 
ATOM     20  C   UNL A   1      34.412  22.001  27.709  1.00  0.00     0.002 A 
ATOM     21  C   UNL A   1      33.132  22.102  28.232  1.00  0.00     0.001 A 
BRANCH  14  22
ATOM     22  S   UNL A   1      34.002  22.323  23.597  1.00  0.00     0.268 S 
ATOM     23  O   UNL A   1      35.390  22.579  23.240  1.00  0.00    -0.201 OA
ATOM     24  O   UNL A   1      32.951  22.352  22.583  1.00  0.00    -0.201 OA
BRANCH  22  25
ATOM     25  C   UNL A   1      33.978  20.612  23.987  1.00  0.00     0.088 A 
ATOM     26  C   UNL A   1      32.687  16.641  25.126  1.00  0.00     0.044 C 
ATOM     27  C   UNL A   1      33.191  17.986  24.688  1.00  0.00    -0.051 A 
ATOM     28  C   UNL A   1      32.288  18.816  24.043  1.00  0.00     0.005 A 
ATOM     29  C   UNL A   1      34.497  18.468  24.943  1.00  0.00     0.005 A 
ATOM     30  C   UNL A   1      32.686  20.092  23.691  1.00  0.00     0.022 A 
ATOM     31  C   UNL A   1      34.902  19.789  24.601  1.00  0.00     0.022 A 
ENDBRANCH  22  25
ENDBRANCH  14  22
ENDBRANCH  11  13
ENDBRANCH   8  11
ENDBRANCH   6   7
BRANCH   6  32
ATOM     32  C   UNL A   1      29.472  28.426  23.292  1.00  0.00     0.072 C 
BRANCH  32  33
ATOM     33  C   UNL A   1      29.473  29.938  23.272  1.00  0.00    -0.020 A 
ATOM     34  C   UNL A   1      29.901  30.758  24.307  1.00  0.00     0.087 A 
ATOM     35  C   UNL A   1      29.018  30.822  22.231  1.00  0.00     0.003 A 
ATOM     36  N   UNL A   1      29.582  32.057  24.001  1.00  0.00    -0.361 N 
ATOM     37  C   UNL A   1      28.963  32.109  22.775  1.00  0.00     0.046 A 
ATOM     38  C   UNL A   1      28.525  30.637  20.922  1.00  0.00     0.010 A 
ATOM     39  H   UNL A   1      29.767  32.836  24.575  1.00  0.00     0.166 HD
ATOM     40  C   UNL A   1      28.328  33.181  22.133  1.00  0.00     0.026 A 
ATOM     41  C   UNL A   1      27.837  31.681  20.292  1.00  0.00     0.001 A 
ATOM     42  C   UNL A   1      27.717  32.925  20.903  1.00  0.00     0.002 A 
ENDBRANCH  32  33
ENDBRANCH   6  32
ENDBRANCH   3   6
ENDBRANCH   1   2
BRANCH   1  43
ATOM     43  C   UNL A   1      34.107  28.912  25.721  1.00  0.00     0.042 C 
BRANCH  43  44
ATOM     44  C   UNL A   1      33.799  29.771  26.941  1.00  0.00     0.118 C 
BRANCH  44  45
ATOM     45  N   UNL A   1      34.661  30.962  27.067  1.00  0.00    -0.352 N 
ATOM     46  C   UNL A   1      35.765  31.265  27.856  1.00  0.00     0.251 C 
ATOM     47  H   UNL A   1      34.400  31.696  26.464  1.00  0.00     0.163 HD
ATOM     48  O   UNL A   1      36.041  32.452  28.039  1.00  0.00    -0.269 OA
BRANCH  46  49
ATOM     49  C   UNL A   1      36.600  30.185  28.423  1.00  0.00     0.039 A 
ATOM     50  C   UNL A   1      36.616  29.736  29.744  1.00  0.00     0.014 A 
ATOM     51  C   UNL A   1      37.589  29.716  27.591  1.00  0.00     0.014 A 
ATOM     52  C   UNL A   1      37.720  28.970  30.158  1.00  0.00     0.010 A 
ATOM     53  C   UNL A   1      38.293  28.598  27.847  1.00  0.00     0.010 A 
ATOM     54  C   UNL A   1      38.601  28.500  29.183  1.00  0.00    -0.014 A 
BRANCH  54  55
ATOM     55  C   UNL A   1      39.998  28.121  29.306  1.00  0.00     0.031 A 
ATOM     56  C   UNL A   1      40.391  26.753  28.996  1.00  0.00     0.074 A 
ATOM     57  C   UNL A   1      40.901  29.131  29.157  1.00  0.00     0.049 A 
ATOM     58  N   UNL A   1      41.555  26.275  29.248  1.00  0.00    -0.248 NA
ATOM     59  C   UNL A   1      39.495  25.836  28.310  1.00  0.00     0.031 C 
ATOM     60  C   UNL A   1      42.251  29.062  28.610  1.00  0.00     0.029 A 
ATOM     61  N   UNL A   1      40.770  30.484  29.491  1.00  0.00    -0.354 N 
ATOM     62  C   UNL A   1      41.676  25.137  28.487  1.00  0.00     0.074 A 
ATOM     63  C   UNL A   1      40.336  24.838  28.031  1.00  0.00     0.031 C 
ATOM     64  C   UNL A   1      42.906  30.191  28.926  1.00  0.00     0.029 A 
ATOM     65  C   UNL A   1      42.053  30.938  29.830  1.00  0.00     0.049 A 
ATOM     66  H   UNL A   1      39.939  31.014  29.489  1.00  0.00     0.167 HD
ATOM     67  C   UNL A   1      42.922  24.692  28.162  1.00  0.00     0.034 A 
ATOM     68  C   UNL A   1      42.375  31.316  31.105  1.00  0.00     0.034 A 
ATOM     69  C   UNL A   1      43.968  25.622  28.650  1.00  0.00     0.049 A 
ATOM     70  C   UNL A   1      43.387  30.369  31.747  1.00  0.00     0.074 A 
ATOM     71  C   UNL A   1      44.798  26.551  28.038  1.00  0.00     0.029 A 
ATOM     72  N   UNL A   1      44.056  25.894  30.009  1.00  0.00    -0.354 N 
ATOM     73  N   UNL A   1      44.064  29.446  31.117  1.00  0.00    -0.248 NA
ATOM     74  C   UNL A   1      43.619  30.326  33.188  1.00  0.00     0.031 C 
ATOM     75  C   UNL A   1      45.375  27.381  29.049  1.00  0.00     0.029 A 
ATOM     76  C   UNL A   1      44.921  26.946  30.280  1.00  0.00     0.049 A 
ATOM     77  H   UNL A   1      43.561  25.397  30.701  1.00  0.00     0.167 HD
ATOM     78  C   UNL A   1      44.595  28.561  32.029  1.00  0.00     0.074 A 
ATOM     79  C   UNL A   1      44.329  29.194  33.313  1.00  0.00     0.031 C 
ATOM     80  C   UNL A   1      45.121  27.341  31.675  1.00  0.00     0.034 A 
BRANCH  67  81
ATOM     81  C   UNL A   1      43.187  23.596  27.142  1.00  0.00     0.023 A 
ATOM     82  C   UNL A   1      43.840  23.957  25.945  1.00  0.00     0.012 A 
ATOM     83  C   UNL A   1      42.826  22.232  27.254  1.00  0.00     0.148 A 
ATOM     84  C   UNL A   1      44.007  23.065  24.880  1.00  0.00     0.002 A 
ATOM     85  C   UNL A   1      42.902  21.365  26.161  1.00  0.00     0.091 A 
ATOM     86  F   UNL A   1      42.518  21.720  28.450  1.00  0.00    -0.205 F 
ATOM     87  C   UNL A   1      43.491  21.781  24.967  1.00  0.00     0.022 A 
BRANCH  85  88
ATOM     88  S   UNL A   1      42.156  19.724  26.187  1.00  0.00     0.127 S 
ATOM     89  O   UNL A   1      40.725  20.031  26.104  1.00  0.00    -0.237 OA
ATOM     90  O   UNL A   1      42.712  19.102  24.989  1.00  0.00    -0.237 OA
ATOM     91  O   UNL A   1      42.554  19.127  27.457  1.00  0.00    -0.744 OA
ENDBRANCH  85  88
ENDBRANCH  67  81
BRANCH  68  92
ATOM     92  C   UNL A   1      41.211  31.959  31.804  1.00  0.00     0.023 A 
ATOM     93  C   UNL A   1      40.712  33.151  31.222  1.00  0.00     0.012 A 
ATOM     94  C   UNL A   1      40.360  31.207  32.632  1.00  0.00     0.148 A 
ATOM     95  C   UNL A   1      39.351  33.460  31.287  1.00  0.00     0.002 A 
ATOM     96  C   UNL A   1      39.006  31.531  32.703  1.00  0.00     0.091 A 
ATOM     97  F   UNL A   1      40.846  30.129  33.258  1.00  0.00    -0.205 F 
ATOM     98  C   UNL A   1      38.490  32.618  31.985  1.00  0.00     0.022 A 
BRANCH  96  99
ATOM     99  S   UNL A   1      37.875  30.477  33.620  1.00  0.00     0.127 S 
ATOM    100  O   UNL A   1      36.596  30.827  33.011  1.00  0.00    -0.237 OA
ATOM    101  O   UNL A   1      38.355  29.133  33.308  1.00  0.00    -0.237 OA
ATOM    102  O   UNL A   1      38.063  30.869  35.010  1.00  0.00    -0.744 OA
ENDBRANCH  96  99
ENDBRANCH  68  92
BRANCH  80 103
ATOM    103  C   UNL A   1      45.787  26.349  32.636  1.00  0.00     0.023 A 
ATOM    104  C   UNL A   1      47.183  26.180  32.690  1.00  0.00     0.012 A 
ATOM    105  C   UNL A   1      45.033  25.470  33.466  1.00  0.00     0.148 A 
ATOM    106  C   UNL A   1      47.801  25.328  33.616  1.00  0.00     0.002 A 
ATOM    107  C   UNL A   1      45.644  24.614  34.379  1.00  0.00     0.091 A 
ATOM    108  F   UNL A   1      43.707  25.385  33.329  1.00  0.00    -0.205 F 
ATOM    109  C   UNL A   1      47.032  24.566  34.481  1.00  0.00     0.022 A 
BRANCH 107 110
ATOM    110  S   UNL A   1      44.698  23.515  35.445  1.00  0.00     0.127 S 
ATOM    111  O   UNL A   1      45.762  22.843  36.190  1.00  0.00    -0.237 OA
ATOM    112  O   UNL A   1      43.908  24.463  36.231  1.00  0.00    -0.237 OA
ATOM    113  O   UNL A   1      43.916  22.662  34.561  1.00  0.00    -0.744 OA
ENDBRANCH 107 110
ENDBRANCH  80 103
ENDBRANCH  54  55
ENDBRANCH  46  49
ENDBRANCH  44  45
ENDBRANCH  43  44
ENDBRANCH   1  43
TORSDOF 20
ENDMDL
MODEL 3
REMARK VINA RESULT:     -13.1      3.553     10.030
REMARK SMILES Cc1ccc(S(=O)(=O)n2cc(C(=O)C(=O)N[C@@H](Cc3c[nH]c4ccccc34)C(=O)NCCCNC(=O)c3ccc(-c4c5nc(c(-c6cccc(S(=O)(=O)[O-])c6F)c6ccc([nH]6)c(-c6cccc(S(=O)(=O)[O-])c6F)c6nc(c(-c7cccc(S(=O)(=O)[O-])c7F)c7ccc4[nH]7)C=C6)C=C5)cc3)c3ccccc32)cc1
REMARK SMILES IDX 31 1 30 2 28 3 29 4 17 6 16 7 14 8 15 9 12 11 13 12 11 13
REMARK SMILES IDX 9 14 10 15 105 16 100 17 104 18 101 19 103 20 102 21 6 22
REMARK SMILES IDX 7 23 8 24 5 25 1 26 2 27 3 28 107 29 4 30 106 31 18 32 19 33
REMARK SMILES IDX 20 34 27 35 21 36 22 37 26 38 23 40 25 41 24 42 32 43 33 44
REMARK SMILES IDX 34 45 35 46 36 48 37 49 38 50 99 51 39 52 98 53 40 54 41 55
REMARK SMILES IDX 42 56 92 57 43 58 97 59 91 60 93 61 44 62 96 63 90 64 89 65
REMARK SMILES IDX 45 67 77 68 57 69 76 70 58 71 61 72 75 73 94 74 59 75 60 76
REMARK SMILES IDX 74 78 95 79 62 80 46 81 47 82 55 83 48 84 50 85 56 86 49 87
REMARK SMILES IDX 51 88 52 89 53 90 54 91 78 92 79 93 87 94 80 95 82 96 88 97
REMARK SMILES IDX 81 98 83 99 84 100 85 101 86 102 63 103 64 104 72 105 65 106
REMARK SMILES IDX 67 107 73 108 66 109 68 110 69 111 70 112 71 113
REMARK H PARENT 30 5 16 10 21 39 34 47 93 66 61 77
REMARK Flexibility Score: inf
ROOT
ATOM      1  C   UNL A   1      34.299  29.651  24.984  1.00  0.00     0.117 C 
ENDROOT
BRANCH   1   2
ATOM      2  N   UNL A   1      33.887  28.640  24.022  1.00  0.00    -0.354 N 
ATOM      3  C   UNL A   1      32.656  28.266  23.573  1.00  0.00     0.242 C 
ATOM      4  O   UNL A   1      32.589  27.896  22.393  1.00  0.00    -0.273 OA
ATOM      5  H   UNL A   1      34.633  28.135  23.623  1.00  0.00     0.163 HD
BRANCH   3   6
ATOM      6  C   UNL A   1      31.351  28.382  24.402  1.00  0.00     0.176 C 
BRANCH   6   7
ATOM      7  N   UNL A   1      31.415  27.860  25.780  1.00  0.00    -0.337 N 
ATOM      8  C   UNL A   1      30.932  26.682  26.338  1.00  0.00     0.293 C 
ATOM      9  O   UNL A   1      31.016  26.493  27.549  1.00  0.00    -0.265 OA
ATOM     10  H   UNL A   1      31.884  28.449  26.416  1.00  0.00     0.164 HD
BRANCH   8  11
ATOM     11  C   UNL A   1      30.302  25.595  25.460  1.00  0.00     0.252 C 
ATOM     12  O   UNL A   1      29.180  25.850  25.024  1.00  0.00    -0.283 OA
BRANCH  11  13
ATOM     13  C   UNL A   1      30.921  24.265  25.251  1.00  0.00     0.054 A 
ATOM     14  N   UNL A   1      31.525  22.075  25.208  1.00  0.00    -0.240 N 
ATOM     15  C   UNL A   1      30.770  23.027  25.902  1.00  0.00     0.117 A 
ATOM     16  C   UNL A   1      31.996  22.695  24.035  1.00  0.00     0.065 A 
ATOM     17  C   UNL A   1      31.968  24.059  24.300  1.00  0.00     0.012 A 
ATOM     18  C   UNL A   1      32.728  22.172  22.949  1.00  0.00     0.028 A 
ATOM     19  C   UNL A   1      32.861  24.898  23.601  1.00  0.00     0.011 A 
ATOM     20  C   UNL A   1      33.664  23.002  22.335  1.00  0.00     0.002 A 
ATOM     21  C   UNL A   1      33.762  24.339  22.689  1.00  0.00     0.001 A 
BRANCH  14  22
ATOM     22  S   UNL A   1      32.718  20.956  25.814  1.00  0.00     0.268 S 
ATOM     23  O   UNL A   1      32.308  19.699  25.205  1.00  0.00    -0.201 OA
ATOM     24  O   UNL A   1      32.591  21.167  27.253  1.00  0.00    -0.201 OA
BRANCH  22  25
ATOM     25  C   UNL A   1      34.467  20.937  25.679  1.00  0.00     0.088 A 
ATOM     26  C   UNL A   1      38.618  22.142  25.444  1.00  0.00     0.044 C 
ATOM     27  C   UNL A   1      37.201  21.657  25.557  1.00  0.00    -0.051 A 
ATOM     28  C   UNL A   1      36.323  22.445  26.284  1.00  0.00     0.005 A 
ATOM     29  C   UNL A   1      36.707  20.491  24.926  1.00  0.00     0.005 A 
ATOM     30  C   UNL A   1      34.992  22.077  26.351  1.00  0.00     0.022 A 
ATOM     31  C   UNL A   1      35.333  20.121  24.975  1.00  0.00     0.022 A 
ENDBRANCH  22  25
ENDBRANCH  14  22
ENDBRANCH  11  13
ENDBRANCH   8  11
ENDBRANCH   6   7
BRANCH   6  32
ATOM     32  C   UNL A   1      30.656  29.776  24.265  1.00  0.00     0.072 C 
BRANCH  32  33
ATOM     33  C   UNL A   1      29.530  29.947  23.271  1.00  0.00    -0.020 A 
ATOM     34  C   UNL A   1      28.927  28.923  22.553  1.00  0.00     0.087 A 
ATOM     35  C   UNL A   1      28.888  31.162  22.843  1.00  0.00     0.003 A 
ATOM     36  N   UNL A   1      28.083  29.477  21.623  1.00  0.00    -0.361 N 
ATOM     37  C   UNL A   1      28.109  30.846  21.725  1.00  0.00     0.046 A 
ATOM     38  C   UNL A   1      28.989  32.519  23.214  1.00  0.00     0.010 A 
ATOM     39  H   UNL A   1      27.540  28.967  20.977  1.00  0.00     0.166 HD
ATOM     40  C   UNL A   1      27.542  31.821  20.893  1.00  0.00     0.026 A 
ATOM     41  C   UNL A   1      28.479  33.506  22.363  1.00  0.00     0.001 A 
ATOM     42  C   UNL A   1      27.790  33.160  21.204  1.00  0.00     0.002 A 
ENDBRANCH  32  33
ENDBRANCH   6  32
ENDBRANCH   3   6
ENDBRANCH   1   2
BRANCH   1  43
ATOM     43  C   UNL A   1      34.171  29.258  26.451  1.00  0.00     0.042 C 
BRANCH  43  44
ATOM     44  C   UNL A   1      33.751  30.383  27.390  1.00  0.00     0.118 C 
BRANCH  44  45
ATOM     45  N   UNL A   1      34.750  31.462  27.515  1.00  0.00    -0.352 N 
ATOM     46  C   UNL A   1      35.947  31.581  28.212  1.00  0.00     0.251 C 
ATOM     47  H   UNL A   1      34.521  32.266  26.994  1.00  0.00     0.163 HD
ATOM     48  O   UNL A   1      36.371  32.713  28.451  1.00  0.00    -0.269 OA
BRANCH  46  49
ATOM     49  C   UNL A   1      36.702  30.376  28.616  1.00  0.00     0.039 A 
ATOM     50  C   UNL A   1      36.612  29.692  29.829  1.00  0.00     0.014 A 
ATOM     51  C   UNL A   1      37.728  30.020  27.772  1.00  0.00     0.014 A 
ATOM     52  C   UNL A   1      37.657  28.810  30.159  1.00  0.00     0.010 A 
ATOM     53  C   UNL A   1      38.372  28.842  27.857  1.00  0.00     0.010 A 
ATOM     54  C   UNL A   1      38.584  28.486  29.168  1.00  0.00    -0.014 A 
BRANCH  54  55
ATOM     55  C   UNL A   1      39.955  28.023  29.301  1.00  0.00     0.031 A 
ATOM     56  C   UNL A   1      40.258  26.621  29.049  1.00  0.00     0.074 A 
ATOM     57  C   UNL A   1      40.920  28.965  29.105  1.00  0.00     0.049 A 
ATOM     58  N   UNL A   1      41.390  26.080  29.317  1.00  0.00    -0.248 NA
ATOM     59  C   UNL A   1      39.300  25.734  28.408  1.00  0.00     0.031 C 
ATOM     60  C   UNL A   1      42.258  28.786  28.556  1.00  0.00     0.029 A 
ATOM     61  N   UNL A   1      40.877  30.338  29.381  1.00  0.00    -0.354 N 
ATOM     62  C   UNL A   1      41.433  24.905  28.606  1.00  0.00     0.074 A 
ATOM     63  C   UNL A   1      40.073  24.674  28.169  1.00  0.00     0.031 C 
ATOM     64  C   UNL A   1      42.987  29.884  28.821  1.00  0.00     0.029 A 
ATOM     65  C   UNL A   1      42.189  30.722  29.695  1.00  0.00     0.049 A 
ATOM     66  H   UNL A   1      40.082  30.919  29.359  1.00  0.00     0.167 HD
ATOM     67  C   UNL A   1      42.646  24.367  28.296  1.00  0.00     0.034 A 
ATOM     68  C   UNL A   1      42.543  31.133  30.951  1.00  0.00     0.034 A 
ATOM     69  C   UNL A   1      43.752  25.249  28.739  1.00  0.00     0.049 A 
ATOM     70  C   UNL A   1      43.497  30.151  31.630  1.00  0.00     0.074 A 
ATOM     71  C   UNL A   1      44.636  26.096  28.083  1.00  0.00     0.029 A 
ATOM     72  N   UNL A   1      43.866  25.572  30.084  1.00  0.00    -0.354 N 
ATOM     73  N   UNL A   1      44.110  29.161  31.038  1.00  0.00    -0.248 NA
ATOM     74  C   UNL A   1      43.735  30.156  33.070  1.00  0.00     0.031 C 
ATOM     75  C   UNL A   1      45.272  26.929  29.056  1.00  0.00     0.029 A 
ATOM     76  C   UNL A   1      44.799  26.577  30.306  1.00  0.00     0.049 A 
ATOM     77  H   UNL A   1      43.346  25.138  30.799  1.00  0.00     0.167 HD
ATOM     78  C   UNL A   1      44.589  28.284  31.985  1.00  0.00     0.074 A 
ATOM     79  C   UNL A   1      44.373  28.987  33.241  1.00  0.00     0.031 C 
ATOM     80  C   UNL A   1      45.033  27.019  31.682  1.00  0.00     0.034 A 
BRANCH  67  81
ATOM     81  C   UNL A   1      42.834  23.214  27.323  1.00  0.00     0.023 A 
ATOM     82  C   UNL A   1      42.071  22.046  27.533  1.00  0.00     0.012 A 
ATOM     83  C   UNL A   1      43.722  23.174  26.221  1.00  0.00     0.148 A 
ATOM     84  C   UNL A   1      42.265  20.877  26.789  1.00  0.00     0.002 A 
ATOM     85  C   UNL A   1      43.988  21.983  25.541  1.00  0.00     0.091 A 
ATOM     86  F   UNL A   1      44.232  24.310  25.735  1.00  0.00    -0.205 F 
ATOM     87  C   UNL A   1      43.260  20.827  25.826  1.00  0.00     0.022 A 
BRANCH  85  88
ATOM     88  S   UNL A   1      45.338  21.838  24.356  1.00  0.00     0.127 S 
ATOM     89  O   UNL A   1      44.930  22.774  23.303  1.00  0.00    -0.237 OA
ATOM     90  O   UNL A   1      46.494  22.272  25.135  1.00  0.00    -0.237 OA
ATOM     91  O   UNL A   1      45.346  20.444  23.929  1.00  0.00    -0.744 OA
ENDBRANCH  85  88
ENDBRANCH  67  81
BRANCH  68  92
ATOM     92  C   UNL A   1      41.428  31.879  31.627  1.00  0.00     0.023 A 
ATOM     93  C   UNL A   1      40.978  33.055  30.976  1.00  0.00     0.012 A 
ATOM     94  C   UNL A   1      40.556  31.226  32.515  1.00  0.00     0.148 A 
ATOM     95  C   UNL A   1      39.635  33.437  31.044  1.00  0.00     0.002 A 
ATOM     96  C   UNL A   1      39.223  31.623  32.589  1.00  0.00     0.091 A 
ATOM     97  F   UNL A   1      41.001  30.168  33.203  1.00  0.00    -0.205 F 
ATOM     98  C   UNL A   1      38.747  32.688  31.809  1.00  0.00     0.022 A 
BRANCH  96  99
ATOM     99  S   UNL A   1      38.059  30.691  33.591  1.00  0.00     0.127 S 
ATOM    100  O   UNL A   1      36.782  31.147  33.051  1.00  0.00    -0.237 OA
ATOM    101  O   UNL A   1      38.396  29.304  33.279  1.00  0.00    -0.237 OA
ATOM    102  O   UNL A   1      38.364  31.085  34.959  1.00  0.00    -0.744 OA
ENDBRANCH  96  99
ENDBRANCH  68  92
BRANCH  80 103
ATOM    103  C   UNL A   1      45.641  26.028  32.682  1.00  0.00     0.023 A 
ATOM    104  C   UNL A   1      47.020  25.749  32.717  1.00  0.00     0.012 A 
ATOM    105  C   UNL A   1      44.839  25.258  33.574  1.00  0.00     0.148 A 
ATOM    106  C   UNL A   1      47.590  24.899  33.676  1.00  0.00     0.002 A 
ATOM    107  C   UNL A   1      45.402  24.405  34.521  1.00  0.00     0.091 A 
ATOM    108  F   UNL A   1      43.508  25.275  33.469  1.00  0.00    -0.205 F 
ATOM    109  C   UNL A   1      46.784  24.250  34.597  1.00  0.00     0.022 A 
BRANCH 107 110
ATOM    110  S   UNL A   1      44.397  23.446  35.664  1.00  0.00     0.127 S 
ATOM    111  O   UNL A   1      43.654  24.500  36.355  1.00  0.00    -0.237 OA
ATOM    112  O   UNL A   1      43.594  22.632  34.751  1.00  0.00    -0.237 OA
ATOM    113  O   UNL A   1      45.327  22.690  36.491  1.00  0.00    -0.744 OA
ENDBRANCH 107 110
ENDBRANCH  80 103
ENDBRANCH  54  55
ENDBRANCH  46  49
ENDBRANCH  44  45
ENDBRANCH  43  44
ENDBRANCH   1  43
TORSDOF 20
ENDMDL
