MODEL 1
REMARK VINA RESULT:     -10.9      0.000      0.000
REMARK SMILES CC(C)COc1ccc(CC(=O)NCCCNC(=O)c2ccc(-c3c4nc(c(-c5cccc(S(=O)(=O)[O-])c5F)c5ccc([nH]5)c(-c5cccc(S(=O)(=O)[O-])c5F)c5nc(c(-c6cccc(S(=O)(=O)[O-])c6F)c6ccc3[nH]6)C=C5)C=C4)cc2)cc1
REMARK SMILES IDX 14 1 13 2 11 3 12 4 10 6 9 7 6 8 7 9 84 10 8 11 83 12 5 13
REMARK SMILES IDX 4 14 2 15 1 16 3 17 15 18 16 19 17 20 18 21 19 23 20 24
REMARK SMILES IDX 21 25 82 26 22 27 81 28 23 29 24 30 25 31 75 32 26 33 80 34
REMARK SMILES IDX 74 35 76 36 27 37 79 38 73 39 72 40 28 42 60 43 40 44 59 45
REMARK SMILES IDX 41 46 44 47 58 48 77 49 42 50 43 51 57 53 78 54 45 55 29 56
REMARK SMILES IDX 30 57 38 58 31 59 33 60 39 61 32 62 34 63 35 64 36 65 37 66
REMARK SMILES IDX 61 67 62 68 70 69 63 70 65 71 71 72 64 73 66 74 67 75 68 76
REMARK SMILES IDX 69 77 46 78 47 79 55 80 48 81 50 82 56 83 49 84 51 85 52 86
REMARK SMILES IDX 53 87 54 88
REMARK H PARENT 13 5 17 22 76 41 44 52
REMARK Flexibility Score: inf
ROOT
ATOM      1  C   UNL A   1      33.080  26.280  26.148  1.00  0.00     0.117 C 
ENDROOT
BRANCH   1   2
ATOM      2  N   UNL A   1      32.032  25.439  26.694  1.00  0.00    -0.356 N 
ATOM      3  C   UNL A   1      31.044  24.748  26.053  1.00  0.00     0.224 C 
ATOM      4  O   UNL A   1      30.249  24.104  26.742  1.00  0.00    -0.275 OA
ATOM      5  H   UNL A   1      32.033  25.353  27.675  1.00  0.00     0.163 HD
BRANCH   3   6
ATOM      6  C   UNL A   1      30.976  24.704  24.535  1.00  0.00     0.135 C 
BRANCH   6   7
ATOM      7  C   UNL A   1      30.321  25.901  23.897  1.00  0.00    -0.038 A 
ATOM      8  C   UNL A   1      29.186  28.165  22.708  1.00  0.00     0.119 A 
ATOM      9  C   UNL A   1      28.406  27.355  23.527  1.00  0.00     0.047 A 
ATOM     10  C   UNL A   1      30.541  27.909  22.568  1.00  0.00     0.047 A 
ATOM     11  C   UNL A   1      28.980  26.234  24.141  1.00  0.00     0.008 A 
ATOM     12  C   UNL A   1      31.078  26.734  23.067  1.00  0.00     0.008 A 
BRANCH   8  13
ATOM     13  O   UNL A   1      28.645  29.248  22.079  1.00  0.00    -0.493 OA
BRANCH  13  14
ATOM     14  C   UNL A   1      29.501  30.412  22.122  1.00  0.00     0.232 C 
BRANCH  14  15
ATOM     15  C   UNL A   1      28.745  31.732  22.414  1.00  0.00     0.020 C 
ATOM     16  C   UNL A   1      28.095  32.326  21.154  1.00  0.00     0.011 C 
ATOM     17  C   UNL A   1      27.633  31.528  23.444  1.00  0.00     0.011 C 
ENDBRANCH  14  15
ENDBRANCH  13  14
ENDBRANCH   8  13
ENDBRANCH   6   7
ENDBRANCH   3   6
ENDBRANCH   1   2
BRANCH   1  18
ATOM     18  C   UNL A   1      32.865  27.758  26.470  1.00  0.00     0.042 C 
BRANCH  18  19
ATOM     19  C   UNL A   1      34.079  28.629  26.185  1.00  0.00     0.118 C 
BRANCH  19  20
ATOM     20  N   UNL A   1      33.868  30.015  26.579  1.00  0.00    -0.352 N 
ATOM     21  C   UNL A   1      34.567  30.788  27.473  1.00  0.00     0.251 C 
ATOM     22  H   UNL A   1      33.111  30.465  26.138  1.00  0.00     0.163 HD
ATOM     23  O   UNL A   1      34.114  31.875  27.815  1.00  0.00    -0.269 OA
BRANCH  21  24
ATOM     24  C   UNL A   1      35.851  30.307  28.028  1.00  0.00     0.039 A 
ATOM     25  C   UNL A   1      35.859  29.697  29.286  1.00  0.00     0.014 A 
ATOM     26  C   UNL A   1      37.046  30.474  27.324  1.00  0.00     0.014 A 
ATOM     27  C   UNL A   1      37.057  29.208  29.812  1.00  0.00     0.010 A 
ATOM     28  C   UNL A   1      38.221  29.912  27.812  1.00  0.00     0.010 A 
ATOM     29  C   UNL A   1      38.243  29.285  29.065  1.00  0.00    -0.014 A 
BRANCH  29  30
ATOM     30  C   UNL A   1      39.528  28.741  29.577  1.00  0.00     0.031 A 
ATOM     31  C   UNL A   1      40.266  29.474  30.667  1.00  0.00     0.074 A 
ATOM     32  C   UNL A   1      40.073  27.651  29.001  1.00  0.00     0.049 A 
ATOM     33  N   UNL A   1      41.456  29.244  31.155  1.00  0.00    -0.248 NA
ATOM     34  C   UNL A   1      39.588  30.637  31.265  1.00  0.00     0.031 C 
ATOM     35  C   UNL A   1      39.484  26.890  27.898  1.00  0.00     0.029 A 
ATOM     36  N   UNL A   1      41.267  27.016  29.239  1.00  0.00    -0.354 N 
ATOM     37  C   UNL A   1      41.684  30.249  32.090  1.00  0.00     0.074 A 
ATOM     38  C   UNL A   1      40.524  31.113  32.073  1.00  0.00     0.031 C 
ATOM     39  C   UNL A   1      40.322  25.900  27.547  1.00  0.00     0.029 A 
ATOM     40  C   UNL A   1      41.522  25.979  28.370  1.00  0.00     0.049 A 
ATOM     41  H   UNL A   1      41.881  27.277  29.963  1.00  0.00     0.167 HD
ATOM     42  C   UNL A   1      42.748  30.419  32.909  1.00  0.00     0.034 A 
ATOM     43  C   UNL A   1      42.613  25.199  28.237  1.00  0.00     0.034 A 
ATOM     44  C   UNL A   1      43.881  29.536  32.948  1.00  0.00     0.049 A 
ATOM     45  C   UNL A   1      43.776  25.402  29.173  1.00  0.00     0.074 A 
ATOM     46  C   UNL A   1      44.983  29.591  33.782  1.00  0.00     0.029 A 
ATOM     47  N   UNL A   1      44.056  28.440  32.120  1.00  0.00    -0.354 N 
ATOM     48  N   UNL A   1      43.917  26.283  30.134  1.00  0.00    -0.248 NA
ATOM     49  C   UNL A   1      44.915  24.484  29.033  1.00  0.00     0.031 C 
ATOM     50  C   UNL A   1      45.837  28.538  33.443  1.00  0.00     0.029 A 
ATOM     51  C   UNL A   1      45.247  27.806  32.425  1.00  0.00     0.049 A 
ATOM     52  H   UNL A   1      43.428  28.155  31.418  1.00  0.00     0.167 HD
ATOM     53  C   UNL A   1      45.131  25.990  30.744  1.00  0.00     0.074 A 
ATOM     54  C   UNL A   1      45.682  24.844  30.052  1.00  0.00     0.031 C 
ATOM     55  C   UNL A   1      45.742  26.619  31.777  1.00  0.00     0.034 A 
BRANCH  42  56
ATOM     56  C   UNL A   1      42.715  31.574  33.877  1.00  0.00     0.023 A 
ATOM     57  C   UNL A   1      43.099  32.857  33.437  1.00  0.00     0.012 A 
ATOM     58  C   UNL A   1      42.229  31.410  35.189  1.00  0.00     0.148 A 
ATOM     59  C   UNL A   1      43.029  33.954  34.295  1.00  0.00     0.002 A 
ATOM     60  C   UNL A   1      42.116  32.516  36.023  1.00  0.00     0.091 A 
ATOM     61  F   UNL A   1      41.883  30.179  35.593  1.00  0.00    -0.205 F 
ATOM     62  C   UNL A   1      42.526  33.785  35.582  1.00  0.00     0.022 A 
BRANCH  60  63
ATOM     63  S   UNL A   1      41.404  32.425  37.669  1.00  0.00     0.127 S 
ATOM     64  O   UNL A   1      41.512  33.815  38.114  1.00  0.00    -0.237 OA
ATOM     65  O   UNL A   1      40.039  31.981  37.387  1.00  0.00    -0.237 OA
ATOM     66  O   UNL A   1      42.217  31.472  38.411  1.00  0.00    -0.744 OA
ENDBRANCH  60  63
ENDBRANCH  42  56
BRANCH  43  67
ATOM     67  C   UNL A   1      42.654  24.124  27.202  1.00  0.00     0.023 A 
ATOM     68  C   UNL A   1      43.298  24.368  25.973  1.00  0.00     0.012 A 
ATOM     69  C   UNL A   1      42.047  22.872  27.420  1.00  0.00     0.148 A 
ATOM     70  C   UNL A   1      43.289  23.407  24.961  1.00  0.00     0.002 A 
ATOM     71  C   UNL A   1      42.094  21.897  26.430  1.00  0.00     0.091 A 
ATOM     72  F   UNL A   1      41.432  22.660  28.592  1.00  0.00    -0.205 F 
ATOM     73  C   UNL A   1      42.693  22.170  25.191  1.00  0.00     0.022 A 
BRANCH  71  74
ATOM     74  S   UNL A   1      41.464  20.234  26.685  1.00  0.00     0.127 S 
ATOM     75  O   UNL A   1      42.189  19.820  27.883  1.00  0.00    -0.237 OA
ATOM     76  O   UNL A   1      40.035  20.478  26.882  1.00  0.00    -0.237 OA
ATOM     77  O   UNL A   1      41.783  19.505  25.465  1.00  0.00    -0.744 OA
ENDBRANCH  71  74
ENDBRANCH  43  67
BRANCH  55  78
ATOM     78  C   UNL A   1      47.036  26.044  32.289  1.00  0.00     0.023 A 
ATOM     79  C   UNL A   1      47.043  25.199  33.414  1.00  0.00     0.012 A 
ATOM     80  C   UNL A   1      48.235  26.272  31.583  1.00  0.00     0.148 A 
ATOM     81  C   UNL A   1      48.232  24.612  33.848  1.00  0.00     0.002 A 
ATOM     82  C   UNL A   1      49.403  25.640  31.990  1.00  0.00     0.091 A 
ATOM     83  F   UNL A   1      48.208  27.093  30.523  1.00  0.00    -0.205 F 
ATOM     84  C   UNL A   1      49.407  24.821  33.129  1.00  0.00     0.022 A 
BRANCH  82  85
ATOM     85  S   UNL A   1      50.939  25.768  31.067  1.00  0.00     0.127 S 
ATOM     86  O   UNL A   1      50.543  25.253  29.757  1.00  0.00    -0.237 OA
ATOM     87  O   UNL A   1      51.200  27.207  31.103  1.00  0.00    -0.237 OA
ATOM     88  O   UNL A   1      51.912  24.957  31.786  1.00  0.00    -0.744 OA
ENDBRANCH  82  85
ENDBRANCH  55  78
ENDBRANCH  29  30
ENDBRANCH  21  24
ENDBRANCH  19  20
ENDBRANCH  18  19
ENDBRANCH   1  18
TORSDOF 17
ENDMDL
MODEL 2
REMARK VINA RESULT:     -10.8      4.301      9.642
REMARK SMILES CC(C)COc1ccc(CC(=O)NCCCNC(=O)c2ccc(-c3c4nc(c(-c5cccc(S(=O)(=O)[O-])c5F)c5ccc([nH]5)c(-c5cccc(S(=O)(=O)[O-])c5F)c5nc(c(-c6cccc(S(=O)(=O)[O-])c6F)c6ccc3[nH]6)C=C5)C=C4)cc2)cc1
REMARK SMILES IDX 14 1 13 2 11 3 12 4 10 6 9 7 6 8 7 9 84 10 8 11 83 12 5 13
REMARK SMILES IDX 4 14 2 15 1 16 3 17 15 18 16 19 17 20 18 21 19 23 20 24
REMARK SMILES IDX 21 25 82 26 22 27 81 28 23 29 24 30 25 31 75 32 26 33 80 34
REMARK SMILES IDX 74 35 76 36 27 37 79 38 73 39 72 40 28 42 60 43 40 44 59 45
REMARK SMILES IDX 41 46 44 47 58 48 77 49 42 50 43 51 57 53 78 54 45 55 29 56
REMARK SMILES IDX 30 57 38 58 31 59 33 60 39 61 32 62 34 63 35 64 36 65 37 66
REMARK SMILES IDX 61 67 62 68 70 69 63 70 65 71 71 72 64 73 66 74 67 75 68 76
REMARK SMILES IDX 69 77 46 78 47 79 55 80 48 81 50 82 56 83 49 84 51 85 52 86
REMARK SMILES IDX 53 87 54 88
REMARK H PARENT 13 5 17 22 76 41 44 52
REMARK Flexibility Score: inf
ROOT
ATOM      1  C   UNL A   1      31.717  30.408  26.709  1.00  0.00     0.117 C 
ENDROOT
BRANCH   1   2
ATOM      2  N   UNL A   1      33.017  29.963  27.175  1.00  0.00    -0.356 N 
ATOM      3  C   UNL A   1      33.936  29.161  26.561  1.00  0.00     0.224 C 
ATOM      4  O   UNL A   1      34.979  28.908  27.170  1.00  0.00    -0.275 OA
ATOM      5  H   UNL A   1      33.275  30.288  28.067  1.00  0.00     0.163 HD
BRANCH   3   6
ATOM      6  C   UNL A   1      33.721  28.666  25.141  1.00  0.00     0.135 C 
BRANCH   6   7
ATOM      7  C   UNL A   1      33.539  27.175  25.012  1.00  0.00    -0.038 A 
ATOM      8  C   UNL A   1      33.175  24.421  24.684  1.00  0.00     0.119 A 
ATOM      9  C   UNL A   1      33.022  24.989  25.944  1.00  0.00     0.047 A 
ATOM     10  C   UNL A   1      33.403  25.230  23.582  1.00  0.00     0.047 A 
ATOM     11  C   UNL A   1      33.180  26.372  26.105  1.00  0.00     0.008 A 
ATOM     12  C   UNL A   1      33.688  26.574  23.759  1.00  0.00     0.008 A 
BRANCH   8  13
ATOM     13  O   UNL A   1      33.050  23.075  24.506  1.00  0.00    -0.493 OA
BRANCH  13  14
ATOM     14  C   UNL A   1      34.061  22.523  23.633  1.00  0.00     0.232 C 
BRANCH  14  15
ATOM     15  C   UNL A   1      35.463  22.426  24.284  1.00  0.00     0.020 C 
ATOM     16  C   UNL A   1      35.751  21.025  24.848  1.00  0.00     0.011 C 
ATOM     17  C   UNL A   1      36.574  22.748  23.282  1.00  0.00     0.011 C 
ENDBRANCH  14  15
ENDBRANCH  13  14
ENDBRANCH   8  13
ENDBRANCH   6   7
ENDBRANCH   3   6
ENDBRANCH   1   2
BRANCH   1  18
ATOM     18  C   UNL A   1      31.558  31.926  26.796  1.00  0.00     0.042 C 
BRANCH  18  19
ATOM     19  C   UNL A   1      32.827  32.650  27.221  1.00  0.00     0.118 C 
BRANCH  19  20
ATOM     20  N   UNL A   1      32.570  34.029  27.612  1.00  0.00    -0.352 N 
ATOM     21  C   UNL A   1      33.118  34.767  28.632  1.00  0.00     0.251 C 
ATOM     22  H   UNL A   1      31.905  34.502  27.063  1.00  0.00     0.163 HD
ATOM     23  O   UNL A   1      32.627  35.853  28.922  1.00  0.00    -0.269 OA
BRANCH  21  24
ATOM     24  C   UNL A   1      34.283  34.250  29.383  1.00  0.00     0.039 A 
ATOM     25  C   UNL A   1      34.064  33.438  30.499  1.00  0.00     0.014 A 
ATOM     26  C   UNL A   1      35.586  34.579  29.002  1.00  0.00     0.014 A 
ATOM     27  C   UNL A   1      35.153  32.915  31.201  1.00  0.00     0.010 A 
ATOM     28  C   UNL A   1      36.667  33.990  29.650  1.00  0.00     0.010 A 
ATOM     29  C   UNL A   1      36.463  33.162  30.763  1.00  0.00    -0.014 A 
BRANCH  29  30
ATOM     30  C   UNL A   1      37.643  32.591  31.462  1.00  0.00     0.031 A 
ATOM     31  C   UNL A   1      38.384  31.431  30.848  1.00  0.00     0.074 A 
ATOM     32  C   UNL A   1      37.987  33.046  32.684  1.00  0.00     0.049 A 
ATOM     33  N   UNL A   1      39.347  30.707  31.353  1.00  0.00    -0.248 NA
ATOM     34  C   UNL A   1      37.966  31.014  29.497  1.00  0.00     0.031 C 
ATOM     35  C   UNL A   1      37.310  34.122  33.409  1.00  0.00     0.029 A 
ATOM     36  N   UNL A   1      38.971  32.634  33.547  1.00  0.00    -0.354 N 
ATOM     37  C   UNL A   1      39.626  29.730  30.402  1.00  0.00     0.074 A 
ATOM     38  C   UNL A   1      38.705  29.931  29.305  1.00  0.00     0.031 C 
ATOM     39  C   UNL A   1      37.889  34.276  34.611  1.00  0.00     0.029 A 
ATOM     40  C   UNL A   1      38.950  33.287  34.759  1.00  0.00     0.049 A 
ATOM     41  H   UNL A   1      39.629  31.936  33.322  1.00  0.00     0.167 HD
ATOM     42  C   UNL A   1      40.582  28.772  30.426  1.00  0.00     0.034 A 
ATOM     43  C   UNL A   1      39.687  33.092  35.871  1.00  0.00     0.034 A 
ATOM     44  C   UNL A   1      41.518  28.600  31.503  1.00  0.00     0.049 A 
ATOM     45  C   UNL A   1      40.753  32.028  35.863  1.00  0.00     0.074 A 
ATOM     46  C   UNL A   1      42.561  27.696  31.596  1.00  0.00     0.029 A 
ATOM     47  N   UNL A   1      41.528  29.348  32.669  1.00  0.00    -0.354 N 
ATOM     48  N   UNL A   1      41.082  31.197  34.904  1.00  0.00    -0.248 NA
ATOM     49  C   UNL A   1      41.576  31.898  37.074  1.00  0.00     0.031 C 
ATOM     50  C   UNL A   1      43.188  27.882  32.831  1.00  0.00     0.029 A 
ATOM     51  C   UNL A   1      42.560  28.928  33.488  1.00  0.00     0.049 A 
ATOM     52  H   UNL A   1      40.893  30.068  32.883  1.00  0.00     0.167 HD
ATOM     53  C   UNL A   1      42.179  30.486  35.376  1.00  0.00     0.074 A 
ATOM     54  C   UNL A   1      42.467  30.990  36.702  1.00  0.00     0.031 C 
ATOM     55  C   UNL A   1      42.880  29.495  34.772  1.00  0.00     0.034 A 
BRANCH  42  56
ATOM     56  C   UNL A   1      40.705  27.868  29.228  1.00  0.00     0.023 A 
ATOM     57  C   UNL A   1      39.879  26.729  29.130  1.00  0.00     0.012 A 
ATOM     58  C   UNL A   1      41.572  28.184  28.163  1.00  0.00     0.148 A 
ATOM     59  C   UNL A   1      39.933  25.904  28.009  1.00  0.00     0.002 A 
ATOM     60  C   UNL A   1      41.587  27.385  27.027  1.00  0.00     0.091 A 
ATOM     61  F   UNL A   1      42.361  29.263  28.281  1.00  0.00    -0.205 F 
ATOM     62  C   UNL A   1      40.777  26.239  26.953  1.00  0.00     0.022 A 
BRANCH  60  63
ATOM     63  S   UNL A   1      42.573  27.771  25.577  1.00  0.00     0.127 S 
ATOM     64  O   UNL A   1      42.365  26.580  24.753  1.00  0.00    -0.237 OA
ATOM     65  O   UNL A   1      41.920  28.980  25.076  1.00  0.00    -0.237 OA
ATOM     66  O   UNL A   1      43.936  27.963  26.053  1.00  0.00    -0.744 OA
ENDBRANCH  60  63
ENDBRANCH  42  56
BRANCH  43  67
ATOM     67  C   UNL A   1      39.474  33.942  37.079  1.00  0.00     0.023 A 
ATOM     68  C   UNL A   1      39.938  35.272  37.083  1.00  0.00     0.012 A 
ATOM     69  C   UNL A   1      38.830  33.437  38.226  1.00  0.00     0.148 A 
ATOM     70  C   UNL A   1      39.816  36.066  38.225  1.00  0.00     0.002 A 
ATOM     71  C   UNL A   1      38.658  34.253  39.339  1.00  0.00     0.091 A 
ATOM     72  F   UNL A   1      38.402  32.168  38.208  1.00  0.00    -0.205 F 
ATOM     73  C   UNL A   1      39.171  35.559  39.350  1.00  0.00     0.022 A 
BRANCH  71  74
ATOM     74  S   UNL A   1      37.729  33.727  40.783  1.00  0.00     0.127 S 
ATOM     75  O   UNL A   1      37.560  34.985  41.505  1.00  0.00    -0.237 OA
ATOM     76  O   UNL A   1      36.508  33.193  40.180  1.00  0.00    -0.237 OA
ATOM     77  O   UNL A   1      38.559  32.726  41.439  1.00  0.00    -0.744 OA
ENDBRANCH  71  74
ENDBRANCH  43  67
BRANCH  55  78
ATOM     78  C   UNL A   1      44.080  28.939  35.491  1.00  0.00     0.023 A 
ATOM     79  C   UNL A   1      45.329  29.581  35.394  1.00  0.00     0.012 A 
ATOM     80  C   UNL A   1      43.936  27.826  36.345  1.00  0.00     0.148 A 
ATOM     81  C   UNL A   1      46.425  29.106  36.114  1.00  0.00     0.002 A 
ATOM     82  C   UNL A   1      45.018  27.393  37.099  1.00  0.00     0.091 A 
ATOM     83  F   UNL A   1      42.740  27.221  36.410  1.00  0.00    -0.205 F 
ATOM     84  C   UNL A   1      46.266  28.022  36.975  1.00  0.00     0.022 A 
BRANCH  82  85
ATOM     85  S   UNL A   1      44.881  26.073  38.310  1.00  0.00     0.127 S 
ATOM     86  O   UNL A   1      43.997  26.673  39.307  1.00  0.00    -0.237 OA
ATOM     87  O   UNL A   1      44.275  24.997  37.525  1.00  0.00    -0.237 OA
ATOM     88  O   UNL A   1      46.238  25.800  38.766  1.00  0.00    -0.744 OA
ENDBRANCH  82  85
ENDBRANCH  55  78
ENDBRANCH  29  30
ENDBRANCH  21  24
ENDBRANCH  19  20
ENDBRANCH  18  19
ENDBRANCH   1  18
TORSDOF 17
ENDMDL
MODEL 3
REMARK VINA RESULT:     -10.7      3.375      9.090
REMARK SMILES CC(C)COc1ccc(CC(=O)NCCCNC(=O)c2ccc(-c3c4nc(c(-c5cccc(S(=O)(=O)[O-])c5F)c5ccc([nH]5)c(-c5cccc(S(=O)(=O)[O-])c5F)c5nc(c(-c6cccc(S(=O)(=O)[O-])c6F)c6ccc3[nH]6)C=C5)C=C4)cc2)cc1
REMARK SMILES IDX 14 1 13 2 11 3 12 4 10 6 9 7 6 8 7 9 84 10 8 11 83 12 5 13
REMARK SMILES IDX 4 14 2 15 1 16 3 17 15 18 16 19 17 20 18 21 19 23 20 24
REMARK SMILES IDX 21 25 82 26 22 27 81 28 23 29 24 30 25 31 75 32 26 33 80 34
REMARK SMILES IDX 74 35 76 36 27 37 79 38 73 39 72 40 28 42 60 43 40 44 59 45
REMARK SMILES IDX 41 46 44 47 58 48 77 49 42 50 43 51 57 53 78 54 45 55 29 56
REMARK SMILES IDX 30 57 38 58 31 59 33 60 39 61 32 62 34 63 35 64 36 65 37 66
REMARK SMILES IDX 61 67 62 68 70 69 63 70 65 71 71 72 64 73 66 74 67 75 68 76
REMARK SMILES IDX 69 77 46 78 47 79 55 80 48 81 50 82 56 83 49 84 51 85 52 86
REMARK SMILES IDX 53 87 54 88
REMARK H PARENT 13 5 17 22 76 41 44 52
REMARK Flexibility Score: inf
ROOT
ATOM      1  C   UNL A   1      32.197  28.195  22.886  1.00  0.00     0.117 C 
ENDROOT
BRANCH   1   2
ATOM      2  N   UNL A   1      32.593  27.109  22.010  1.00  0.00    -0.356 N 
ATOM      3  C   UNL A   1      33.316  25.984  22.287  1.00  0.00     0.224 C 
ATOM      4  O   UNL A   1      33.541  25.200  21.361  1.00  0.00    -0.275 OA
ATOM      5  H   UNL A   1      32.296  27.196  21.076  1.00  0.00     0.163 HD
BRANCH   3   6
ATOM      6  C   UNL A   1      33.756  25.664  23.706  1.00  0.00     0.135 C 
BRANCH   6   7
ATOM      7  C   UNL A   1      33.858  24.193  24.020  1.00  0.00    -0.038 A 
ATOM      8  C   UNL A   1      34.129  21.461  24.559  1.00  0.00     0.119 A 
ATOM      9  C   UNL A   1      32.858  22.018  24.452  1.00  0.00     0.047 A 
ATOM     10  C   UNL A   1      35.248  22.234  24.296  1.00  0.00     0.047 A 
ATOM     11  C   UNL A   1      32.721  23.382  24.159  1.00  0.00     0.008 A 
ATOM     12  C   UNL A   1      35.120  23.604  24.135  1.00  0.00     0.008 A 
BRANCH   8  13
ATOM     13  O   UNL A   1      34.288  20.143  24.868  1.00  0.00    -0.493 OA
BRANCH  13  14
ATOM     14  C   UNL A   1      33.071  19.377  24.719  1.00  0.00     0.232 C 
BRANCH  14  15
ATOM     15  C   UNL A   1      33.300  17.934  24.203  1.00  0.00     0.020 C 
ATOM     16  C   UNL A   1      32.808  17.744  22.759  1.00  0.00     0.011 C 
ATOM     17  C   UNL A   1      34.782  17.555  24.231  1.00  0.00     0.011 C 
ENDBRANCH  14  15
ENDBRANCH  13  14
ENDBRANCH   8  13
ENDBRANCH   6   7
ENDBRANCH   3   6
ENDBRANCH   1   2
BRANCH   1  18
ATOM     18  C   UNL A   1      33.384  29.055  23.318  1.00  0.00     0.042 C 
BRANCH  18  19
ATOM     19  C   UNL A   1      33.537  29.174  24.827  1.00  0.00     0.118 C 
BRANCH  19  20
ATOM     20  N   UNL A   1      32.760  30.277  25.375  1.00  0.00    -0.352 N 
ATOM     21  C   UNL A   1      32.923  30.962  26.554  1.00  0.00     0.251 C 
ATOM     22  H   UNL A   1      32.007  30.575  24.817  1.00  0.00     0.163 HD
ATOM     23  O   UNL A   1      32.046  31.732  26.930  1.00  0.00    -0.269 OA
BRANCH  21  24
ATOM     24  C   UNL A   1      34.142  30.764  27.368  1.00  0.00     0.039 A 
ATOM     25  C   UNL A   1      34.408  29.495  27.892  1.00  0.00     0.014 A 
ATOM     26  C   UNL A   1      35.010  31.826  27.632  1.00  0.00     0.014 A 
ATOM     27  C   UNL A   1      35.571  29.282  28.637  1.00  0.00     0.010 A 
ATOM     28  C   UNL A   1      36.207  31.592  28.302  1.00  0.00     0.010 A 
ATOM     29  C   UNL A   1      36.494  30.322  28.822  1.00  0.00    -0.014 A 
BRANCH  29  30
ATOM     30  C   UNL A   1      37.759  30.122  29.575  1.00  0.00     0.031 A 
ATOM     31  C   UNL A   1      38.819  29.205  29.021  1.00  0.00     0.074 A 
ATOM     32  C   UNL A   1      37.914  30.681  30.792  1.00  0.00     0.049 A 
ATOM     33  N   UNL A   1      39.926  28.792  29.579  1.00  0.00    -0.248 NA
ATOM     34  C   UNL A   1      38.589  28.658  27.672  1.00  0.00     0.031 C 
ATOM     35  C   UNL A   1      36.933  31.539  31.462  1.00  0.00     0.029 A 
ATOM     36  N   UNL A   1      38.939  30.582  31.699  1.00  0.00    -0.354 N 
ATOM     37  C   UNL A   1      40.505  27.913  28.670  1.00  0.00     0.074 A 
ATOM     38  C   UNL A   1      39.608  27.823  27.538  1.00  0.00     0.031 C 
ATOM     39  C   UNL A   1      37.399  31.875  32.676  1.00  0.00     0.029 A 
ATOM     40  C   UNL A   1      38.688  31.229  32.888  1.00  0.00     0.049 A 
ATOM     41  H   UNL A   1      39.775  30.093  31.517  1.00  0.00     0.167 HD
ATOM     42  C   UNL A   1      41.690  27.264  28.754  1.00  0.00     0.034 A 
ATOM     43  C   UNL A   1      39.406  31.273  34.028  1.00  0.00     0.034 A 
ATOM     44  C   UNL A   1      42.595  27.386  29.864  1.00  0.00     0.049 A 
ATOM     45  C   UNL A   1      40.728  30.553  34.087  1.00  0.00     0.074 A 
ATOM     46  C   UNL A   1      43.845  26.815  30.019  1.00  0.00     0.029 A 
ATOM     47  N   UNL A   1      42.348  28.131  31.006  1.00  0.00    -0.354 N 
ATOM     48  N   UNL A   1      41.314  29.827  33.166  1.00  0.00    -0.248 NA
ATOM     49  C   UNL A   1      41.506  30.686  35.328  1.00  0.00     0.031 C 
ATOM     50  C   UNL A   1      44.346  27.197  31.267  1.00  0.00     0.029 A 
ATOM     51  C   UNL A   1      43.424  28.037  31.870  1.00  0.00     0.049 A 
ATOM     52  H   UNL A   1      41.528  28.648  31.177  1.00  0.00     0.167 HD
ATOM     53  C   UNL A   1      42.547  29.465  33.695  1.00  0.00     0.074 A 
ATOM     54  C   UNL A   1      42.630  30.058  35.012  1.00  0.00     0.031 C 
ATOM     55  C   UNL A   1      43.521  28.699  33.144  1.00  0.00     0.034 A 
BRANCH  42  56
ATOM     56  C   UNL A   1      42.109  26.406  27.589  1.00  0.00     0.023 A 
ATOM     57  C   UNL A   1      42.910  26.963  26.570  1.00  0.00     0.012 A 
ATOM     58  C   UNL A   1      41.786  25.035  27.541  1.00  0.00     0.148 A 
ATOM     59  C   UNL A   1      43.357  26.180  25.508  1.00  0.00     0.002 A 
ATOM     60  C   UNL A   1      42.275  24.249  26.505  1.00  0.00     0.091 A 
ATOM     61  F   UNL A   1      41.011  24.528  28.511  1.00  0.00    -0.205 F 
ATOM     62  C   UNL A   1      43.051  24.822  25.482  1.00  0.00     0.022 A 
BRANCH  60  63
ATOM     63  S   UNL A   1      42.010  22.476  26.420  1.00  0.00     0.127 S 
ATOM     64  O   UNL A   1      40.553  22.400  26.302  1.00  0.00    -0.237 OA
ATOM     65  O   UNL A   1      42.738  22.116  25.203  1.00  0.00    -0.237 OA
ATOM     66  O   UNL A   1      42.561  21.924  27.649  1.00  0.00    -0.744 OA
ENDBRANCH  60  63
ENDBRANCH  42  56
BRANCH  43  67
ATOM     67  C   UNL A   1      38.916  32.054  35.201  1.00  0.00     0.023 A 
ATOM     68  C   UNL A   1      39.052  33.457  35.209  1.00  0.00     0.012 A 
ATOM     69  C   UNL A   1      38.332  31.417  36.314  1.00  0.00     0.148 A 
ATOM     70  C   UNL A   1      38.668  34.204  36.323  1.00  0.00     0.002 A 
ATOM     71  C   UNL A   1      37.896  32.174  37.396  1.00  0.00     0.091 A 
ATOM     72  F   UNL A   1      38.217  30.083  36.294  1.00  0.00    -0.205 F 
ATOM     73  C   UNL A   1      38.084  33.565  37.413  1.00  0.00     0.022 A 
BRANCH  71  74
ATOM     74  S   UNL A   1      37.020  31.451  38.787  1.00  0.00     0.127 S 
ATOM     75  O   UNL A   1      37.994  31.597  39.864  1.00  0.00    -0.237 OA
ATOM     76  O   UNL A   1      35.848  32.321  38.892  1.00  0.00    -0.237 OA
ATOM     77  O   UNL A   1      36.714  30.084  38.387  1.00  0.00    -0.744 OA
ENDBRANCH  71  74
ENDBRANCH  43  67
BRANCH  55  78
ATOM     78  C   UNL A   1      44.800  28.519  33.918  1.00  0.00     0.023 A 
ATOM     79  C   UNL A   1      45.860  29.431  33.763  1.00  0.00     0.012 A 
ATOM     80  C   UNL A   1      44.904  27.490  34.876  1.00  0.00     0.148 A 
ATOM     81  C   UNL A   1      47.019  29.304  34.529  1.00  0.00     0.002 A 
ATOM     82  C   UNL A   1      46.038  27.403  35.673  1.00  0.00     0.091 A 
ATOM     83  F   UNL A   1      43.888  26.623  34.997  1.00  0.00    -0.205 F 
ATOM     84  C   UNL A   1      47.102  28.300  35.492  1.00  0.00     0.022 A 
BRANCH  82  85
ATOM     85  S   UNL A   1      46.190  26.209  37.006  1.00  0.00     0.127 S 
ATOM     86  O   UNL A   1      47.322  26.747  37.760  1.00  0.00    -0.237 OA
ATOM     87  O   UNL A   1      44.896  26.332  37.678  1.00  0.00    -0.237 OA
ATOM     88  O   UNL A   1      46.424  24.920  36.371  1.00  0.00    -0.744 OA
ENDBRANCH  82  85
ENDBRANCH  55  78
ENDBRANCH  29  30
ENDBRANCH  21  24
ENDBRANCH  19  20
ENDBRANCH  18  19
ENDBRANCH   1  18
TORSDOF 17
ENDMDL
