MODEL 1
REMARK VINA RESULT:     -12.8      0.000      0.000
REMARK SMILES Cc1ccc(N2CCC[C@@H](Cn3cc(C(=O)NCCCNC(=O)c4ccc(-c5c6nc(c(-c7cccc(S(=O)(=O)[O-])c7F)c7ccc([nH]7)c(-c7cccc(S(=O)(=O)[O-])c7F)c7nc(c(-c8cccc(S(=O)(=O)[O-])c8F)c8ccc5[nH]8)C=C7)C=C6)cc4)nn3)C2)nn1
REMARK SMILES IDX 19 1 18 2 17 3 15 4 16 5 14 7 12 8 13 9 88 10 87 11 11 12
REMARK SMILES IDX 10 13 6 14 7 15 89 16 8 17 9 18 5 19 1 20 2 21 3 22 91 23
REMARK SMILES IDX 4 24 90 25 20 26 21 27 22 28 23 30 24 31 25 32 86 33 26 34
REMARK SMILES IDX 85 35 27 36 28 37 29 38 79 39 30 40 84 41 78 42 80 43 31 44
REMARK SMILES IDX 83 45 77 46 76 47 32 49 64 50 44 51 63 52 45 53 48 54 62 55
REMARK SMILES IDX 81 56 46 57 47 58 61 60 82 61 49 62 33 63 34 64 42 65 35 66
REMARK SMILES IDX 37 67 43 68 36 69 38 70 39 71 40 72 41 73 65 74 66 75 74 76
REMARK SMILES IDX 67 77 69 78 75 79 68 80 70 81 71 82 72 83 73 84 50 85 51 86
REMARK SMILES IDX 59 87 52 88 54 89 60 90 53 91 55 92 56 93 57 94 58 95
REMARK H PARENT 17 6 21 29 80 48 48 59
REMARK Flexibility Score: inf
ROOT
ATOM      1  C   UNL A   1      32.494  30.264  26.900  1.00  0.00     0.042 C 
ENDROOT
BRANCH   1   2
ATOM      2  C   UNL A   1      32.408  29.599  25.526  1.00  0.00     0.118 C 
BRANCH   2   3
ATOM      3  N   UNL A   1      31.327  30.117  24.708  1.00  0.00    -0.351 N 
ATOM      4  C   UNL A   1      30.453  29.472  23.852  1.00  0.00     0.273 C 
ATOM      5  O   UNL A   1      29.476  30.093  23.466  1.00  0.00    -0.267 OA
ATOM      6  H   UNL A   1      31.194  31.091  24.773  1.00  0.00     0.163 HD
BRANCH   4   7
ATOM      7  C   UNL A   1      30.675  28.072  23.492  1.00  0.00     0.170 A 
ATOM      8  N   UNL A   1      31.480  26.195  22.800  1.00  0.00    -0.251 N 
ATOM      9  C   UNL A   1      31.415  27.515  22.469  1.00  0.00     0.145 A 
ATOM     10  N   UNL A   1      30.611  25.893  23.773  1.00  0.00    -0.067 NA
ATOM     11  N   UNL A   1      30.126  27.041  24.228  1.00  0.00    -0.125 NA
BRANCH   8  12
ATOM     12  C   UNL A   1      32.499  25.246  22.408  1.00  0.00     0.151 C 
BRANCH  12  13
ATOM     13  C   UNL A   1      33.068  24.416  23.580  1.00  0.00     0.030 C 
ATOM     14  N   UNL A   1      33.985  22.312  24.311  1.00  0.00    -0.355 N 
ATOM     15  C   UNL A   1      35.188  22.856  24.920  1.00  0.00     0.118 C 
ATOM     16  C   UNL A   1      33.491  23.002  23.138  1.00  0.00     0.123 C 
ATOM     17  C   UNL A   1      34.842  24.253  25.429  1.00  0.00     0.022 C 
ATOM     18  C   UNL A   1      34.233  25.120  24.318  1.00  0.00     0.009 C 
BRANCH  14  19
ATOM     19  C   UNL A   1      33.638  20.999  24.533  1.00  0.00     0.151 A 
ATOM     20  C   UNL A   1      32.622  16.973  25.379  1.00  0.00     0.069 C 
ATOM     21  C   UNL A   1      33.009  18.389  25.094  1.00  0.00     0.060 A 
ATOM     22  C   UNL A   1      34.339  18.733  24.934  1.00  0.00     0.029 A 
ATOM     23  N   UNL A   1      32.034  19.315  24.995  1.00  0.00    -0.154 NA
ATOM     24  C   UNL A   1      34.648  20.052  24.635  1.00  0.00     0.051 A 
ATOM     25  N   UNL A   1      32.356  20.631  24.736  1.00  0.00    -0.133 NA
ENDBRANCH  14  19
ENDBRANCH  12  13
ENDBRANCH   8  12
ENDBRANCH   4   7
ENDBRANCH   2   3
ENDBRANCH   1   2
BRANCH   1  26
ATOM     26  C   UNL A   1      33.932  30.573  27.277  1.00  0.00     0.118 C 
BRANCH  26  27
ATOM     27  N   UNL A   1      34.013  31.667  28.243  1.00  0.00    -0.352 N 
ATOM     28  C   UNL A   1      34.902  31.844  29.277  1.00  0.00     0.251 C 
ATOM     29  H   UNL A   1      33.337  32.375  28.137  1.00  0.00     0.163 HD
ATOM     30  O   UNL A   1      34.625  32.619  30.189  1.00  0.00    -0.269 OA
BRANCH  28  31
ATOM     31  C   UNL A   1      36.176  31.103  29.296  1.00  0.00     0.039 A 
ATOM     32  C   UNL A   1      37.366  31.774  28.996  1.00  0.00     0.014 A 
ATOM     33  C   UNL A   1      36.186  29.733  29.568  1.00  0.00     0.014 A 
ATOM     34  C   UNL A   1      38.563  31.070  29.030  1.00  0.00     0.010 A 
ATOM     35  C   UNL A   1      37.377  29.060  29.713  1.00  0.00     0.010 A 
ATOM     36  C   UNL A   1      38.560  29.718  29.406  1.00  0.00    -0.014 A 
BRANCH  36  37
ATOM     37  C   UNL A   1      39.820  29.026  29.610  1.00  0.00     0.031 A 
ATOM     38  C   UNL A   1      40.281  29.030  31.021  1.00  0.00     0.074 A 
ATOM     39  C   UNL A   1      40.456  28.315  28.660  1.00  0.00     0.049 A 
ATOM     40  N   UNL A   1      41.224  29.756  31.518  1.00  0.00    -0.248 NA
ATOM     41  C   UNL A   1      39.507  28.280  32.021  1.00  0.00     0.031 C 
ATOM     42  C   UNL A   1      39.989  27.962  27.317  1.00  0.00     0.029 A 
ATOM     43  N   UNL A   1      41.639  27.650  28.753  1.00  0.00    -0.354 N 
ATOM     44  C   UNL A   1      41.335  29.362  32.845  1.00  0.00     0.074 A 
ATOM     45  C   UNL A   1      40.138  28.621  33.149  1.00  0.00     0.031 C 
ATOM     46  C   UNL A   1      40.764  26.970  26.821  1.00  0.00     0.029 A 
ATOM     47  C   UNL A   1      41.863  26.726  27.737  1.00  0.00     0.049 A 
ATOM     48  H   UNL A   1      42.284  27.810  29.479  1.00  0.00     0.167 HD
ATOM     49  C   UNL A   1      42.523  29.450  33.504  1.00  0.00     0.034 A 
ATOM     50  C   UNL A   1      42.857  25.803  27.703  1.00  0.00     0.034 A 
ATOM     51  C   UNL A   1      43.470  30.267  32.787  1.00  0.00     0.049 A 
ATOM     52  C   UNL A   1      43.938  26.334  28.574  1.00  0.00     0.074 A 
ATOM     53  C   UNL A   1      43.464  31.560  32.301  1.00  0.00     0.029 A 
ATOM     54  N   UNL A   1      44.463  29.609  32.098  1.00  0.00    -0.354 N 
ATOM     55  N   UNL A   1      44.610  27.420  28.308  1.00  0.00    -0.248 NA
ATOM     56  C   UNL A   1      43.974  25.894  29.960  1.00  0.00     0.031 C 
ATOM     57  C   UNL A   1      44.087  31.469  31.022  1.00  0.00     0.029 A 
ATOM     58  C   UNL A   1      44.505  30.149  30.840  1.00  0.00     0.049 A 
ATOM     59  H   UNL A   1      45.035  28.887  32.444  1.00  0.00     0.167 HD
ATOM     60  C   UNL A   1      44.756  28.040  29.541  1.00  0.00     0.074 A 
ATOM     61  C   UNL A   1      44.439  27.010  30.528  1.00  0.00     0.031 C 
ATOM     62  C   UNL A   1      44.831  29.398  29.648  1.00  0.00     0.034 A 
BRANCH  49  63
ATOM     63  C   UNL A   1      42.968  28.512  34.593  1.00  0.00     0.023 A 
ATOM     64  C   UNL A   1      43.513  29.081  35.763  1.00  0.00     0.012 A 
ATOM     65  C   UNL A   1      43.130  27.120  34.415  1.00  0.00     0.148 A 
ATOM     66  C   UNL A   1      44.210  28.307  36.696  1.00  0.00     0.002 A 
ATOM     67  C   UNL A   1      43.752  26.341  35.381  1.00  0.00     0.091 A 
ATOM     68  F   UNL A   1      42.810  26.556  33.247  1.00  0.00    -0.205 F 
ATOM     69  C   UNL A   1      44.318  26.933  36.513  1.00  0.00     0.022 A 
BRANCH  67  70
ATOM     70  S   UNL A   1      43.887  24.559  35.209  1.00  0.00     0.127 S 
ATOM     71  O   UNL A   1      44.546  24.194  36.460  1.00  0.00    -0.237 OA
ATOM     72  O   UNL A   1      42.484  24.162  35.105  1.00  0.00    -0.237 OA
ATOM     73  O   UNL A   1      44.660  24.343  33.991  1.00  0.00    -0.744 OA
ENDBRANCH  67  70
ENDBRANCH  49  63
BRANCH  50  74
ATOM     74  C   UNL A   1      42.854  24.397  27.216  1.00  0.00     0.023 A 
ATOM     75  C   UNL A   1      41.652  23.657  27.276  1.00  0.00     0.012 A 
ATOM     76  C   UNL A   1      43.904  23.870  26.432  1.00  0.00     0.148 A 
ATOM     77  C   UNL A   1      41.475  22.486  26.527  1.00  0.00     0.002 A 
ATOM     78  C   UNL A   1      43.729  22.696  25.701  1.00  0.00     0.091 A 
ATOM     79  F   UNL A   1      45.045  24.560  26.317  1.00  0.00    -0.205 F 
ATOM     80  C   UNL A   1      42.509  22.012  25.729  1.00  0.00     0.022 A 
BRANCH  78  81
ATOM     81  S   UNL A   1      45.029  22.034  24.648  1.00  0.00     0.127 S 
ATOM     82  O   UNL A   1      45.212  23.108  23.671  1.00  0.00    -0.237 OA
ATOM     83  O   UNL A   1      46.131  21.872  25.593  1.00  0.00    -0.237 OA
ATOM     84  O   UNL A   1      44.485  20.804  24.085  1.00  0.00    -0.744 OA
ENDBRANCH  78  81
ENDBRANCH  50  74
BRANCH  62  85
ATOM     85  C   UNL A   1      44.996  30.221  28.397  1.00  0.00     0.023 A 
ATOM     86  C   UNL A   1      43.889  30.674  27.648  1.00  0.00     0.012 A 
ATOM     87  C   UNL A   1      46.265  30.766  28.142  1.00  0.00     0.148 A 
ATOM     88  C   UNL A   1      44.047  31.669  26.677  1.00  0.00     0.002 A 
ATOM     89  C   UNL A   1      46.410  31.783  27.207  1.00  0.00     0.091 A 
ATOM     90  F   UNL A   1      47.298  30.326  28.877  1.00  0.00    -0.205 F 
ATOM     91  C   UNL A   1      45.304  32.236  26.471  1.00  0.00     0.022 A 
BRANCH  89  92
ATOM     92  S   UNL A   1      47.967  32.645  26.981  1.00  0.00     0.127 S 
ATOM     93  O   UNL A   1      48.842  31.577  26.503  1.00  0.00    -0.237 OA
ATOM     94  O   UNL A   1      47.619  33.648  25.973  1.00  0.00    -0.237 OA
ATOM     95  O   UNL A   1      48.324  33.196  28.283  1.00  0.00    -0.744 OA
ENDBRANCH  89  92
ENDBRANCH  62  85
ENDBRANCH  36  37
ENDBRANCH  28  31
ENDBRANCH  26  27
ENDBRANCH   1  26
TORSDOF 16
ENDMDL
MODEL 2
REMARK VINA RESULT:     -12.8      4.788     11.542
REMARK SMILES Cc1ccc(N2CCC[C@@H](Cn3cc(C(=O)NCCCNC(=O)c4ccc(-c5c6nc(c(-c7cccc(S(=O)(=O)[O-])c7F)c7ccc([nH]7)c(-c7cccc(S(=O)(=O)[O-])c7F)c7nc(c(-c8cccc(S(=O)(=O)[O-])c8F)c8ccc5[nH]8)C=C7)C=C6)cc4)nn3)C2)nn1
REMARK SMILES IDX 19 1 18 2 17 3 15 4 16 5 14 7 12 8 13 9 88 10 87 11 11 12
REMARK SMILES IDX 10 13 6 14 7 15 89 16 8 17 9 18 5 19 1 20 2 21 3 22 91 23
REMARK SMILES IDX 4 24 90 25 20 26 21 27 22 28 23 30 24 31 25 32 86 33 26 34
REMARK SMILES IDX 85 35 27 36 28 37 29 38 79 39 30 40 84 41 78 42 80 43 31 44
REMARK SMILES IDX 83 45 77 46 76 47 32 49 64 50 44 51 63 52 45 53 48 54 62 55
REMARK SMILES IDX 81 56 46 57 47 58 61 60 82 61 49 62 33 63 34 64 42 65 35 66
REMARK SMILES IDX 37 67 43 68 36 69 38 70 39 71 40 72 41 73 65 74 66 75 74 76
REMARK SMILES IDX 67 77 69 78 75 79 68 80 70 81 71 82 72 83 73 84 50 85 51 86
REMARK SMILES IDX 59 87 52 88 54 89 60 90 53 91 55 92 56 93 57 94 58 95
REMARK H PARENT 17 6 21 29 80 48 48 59
REMARK Flexibility Score: inf
ROOT
ATOM      1  C   UNL A   1      42.268  19.640  27.499  1.00  0.00     0.042 C 
ENDROOT
BRANCH   1   2
ATOM      2  C   UNL A   1      42.235  19.222  26.028  1.00  0.00     0.118 C 
BRANCH   2   3
ATOM      3  N   UNL A   1      43.547  18.901  25.497  1.00  0.00    -0.351 N 
ATOM      4  C   UNL A   1      44.571  19.724  25.063  1.00  0.00     0.273 C 
ATOM      5  O   UNL A   1      45.668  19.218  24.890  1.00  0.00    -0.267 OA
ATOM      6  H   UNL A   1      43.740  17.938  25.436  1.00  0.00     0.163 HD
BRANCH   4   7
ATOM      7  C   UNL A   1      44.341  21.157  24.893  1.00  0.00     0.170 A 
ATOM      8  N   UNL A   1      44.160  23.290  25.154  1.00  0.00    -0.251 N 
ATOM      9  C   UNL A   1      43.921  22.113  25.796  1.00  0.00     0.145 A 
ATOM     10  N   UNL A   1      44.420  23.093  23.856  1.00  0.00    -0.067 NA
ATOM     11  N   UNL A   1      44.561  21.786  23.683  1.00  0.00    -0.125 NA
BRANCH   8  12
ATOM     12  C   UNL A   1      44.395  24.583  25.760  1.00  0.00     0.151 C 
BRANCH  12  13
ATOM     13  C   UNL A   1      45.881  25.001  25.793  1.00  0.00     0.030 C 
ATOM     14  N   UNL A   1      47.541  26.623  25.150  1.00  0.00    -0.355 N 
ATOM     15  C   UNL A   1      48.088  26.840  26.480  1.00  0.00     0.118 C 
ATOM     16  C   UNL A   1      46.124  26.342  25.076  1.00  0.00     0.123 C 
ATOM     17  C   UNL A   1      47.927  25.533  27.251  1.00  0.00     0.022 C 
ATOM     18  C   UNL A   1      46.473  25.041  27.224  1.00  0.00     0.009 C 
BRANCH  14  19
ATOM     19  C   UNL A   1      48.203  27.116  24.048  1.00  0.00     0.151 A 
ATOM     20  C   UNL A   1      50.236  28.478  20.589  1.00  0.00     0.069 C 
ATOM     21  C   UNL A   1      49.539  27.972  21.811  1.00  0.00     0.060 A 
ATOM     22  C   UNL A   1      50.225  27.225  22.751  1.00  0.00     0.029 A 
ATOM     23  N   UNL A   1      48.233  28.265  21.975  1.00  0.00    -0.154 NA
ATOM     24  C   UNL A   1      49.547  26.809  23.887  1.00  0.00     0.051 A 
ATOM     25  N   UNL A   1      47.559  27.813  23.090  1.00  0.00    -0.133 NA
ENDBRANCH  14  19
ENDBRANCH  12  13
ENDBRANCH   8  12
ENDBRANCH   4   7
ENDBRANCH   2   3
ENDBRANCH   1   2
BRANCH   1  26
ATOM     26  C   UNL A   1      41.141  20.605  27.826  1.00  0.00     0.118 C 
BRANCH  26  27
ATOM     27  N   UNL A   1      40.273  20.830  26.672  1.00  0.00    -0.352 N 
ATOM     28  C   UNL A   1      39.522  21.938  26.358  1.00  0.00     0.251 C 
ATOM     29  H   UNL A   1      40.220  20.085  26.031  1.00  0.00     0.163 HD
ATOM     30  O   UNL A   1      38.598  21.837  25.556  1.00  0.00    -0.269 OA
BRANCH  28  31
ATOM     31  C   UNL A   1      39.817  23.238  26.988  1.00  0.00     0.039 A 
ATOM     32  C   UNL A   1      41.008  23.399  27.704  1.00  0.00     0.014 A 
ATOM     33  C   UNL A   1      38.895  24.283  26.905  1.00  0.00     0.014 A 
ATOM     34  C   UNL A   1      41.284  24.632  28.281  1.00  0.00     0.010 A 
ATOM     35  C   UNL A   1      39.216  25.535  27.378  1.00  0.00     0.010 A 
ATOM     36  C   UNL A   1      40.390  25.698  28.099  1.00  0.00    -0.014 A 
BRANCH  36  37
ATOM     37  C   UNL A   1      40.756  27.028  28.552  1.00  0.00     0.031 A 
ATOM     38  C   UNL A   1      42.047  27.511  28.001  1.00  0.00     0.074 A 
ATOM     39  C   UNL A   1      39.954  27.827  29.280  1.00  0.00     0.049 A 
ATOM     40  N   UNL A   1      43.171  27.580  28.630  1.00  0.00    -0.248 NA
ATOM     41  C   UNL A   1      42.145  27.786  26.561  1.00  0.00     0.031 C 
ATOM     42  C   UNL A   1      38.549  27.625  29.644  1.00  0.00     0.029 A 
ATOM     43  N   UNL A   1      40.213  29.074  29.760  1.00  0.00    -0.354 N 
ATOM     44  C   UNL A   1      44.063  28.154  27.734  1.00  0.00     0.074 A 
ATOM     45  C   UNL A   1      43.446  28.064  26.435  1.00  0.00     0.031 C 
ATOM     46  C   UNL A   1      38.027  28.795  30.076  1.00  0.00     0.029 A 
ATOM     47  C   UNL A   1      39.086  29.783  30.163  1.00  0.00     0.049 A 
ATOM     48  H   UNL A   1      41.124  29.442  29.817  1.00  0.00     0.167 HD
ATOM     49  C   UNL A   1      45.117  28.895  28.173  1.00  0.00     0.034 A 
ATOM     50  C   UNL A   1      39.047  31.099  30.488  1.00  0.00     0.034 A 
ATOM     51  C   UNL A   1      45.343  28.714  29.585  1.00  0.00     0.049 A 
ATOM     52  C   UNL A   1      40.428  31.460  30.902  1.00  0.00     0.074 A 
ATOM     53  C   UNL A   1      45.570  27.622  30.399  1.00  0.00     0.029 A 
ATOM     54  N   UNL A   1      44.919  29.725  30.416  1.00  0.00    -0.354 N 
ATOM     55  N   UNL A   1      41.015  30.970  31.960  1.00  0.00    -0.248 NA
ATOM     56  C   UNL A   1      41.312  32.034  29.899  1.00  0.00     0.031 C 
ATOM     57  C   UNL A   1      44.798  27.877  31.570  1.00  0.00     0.029 A 
ATOM     58  C   UNL A   1      44.214  29.138  31.434  1.00  0.00     0.049 A 
ATOM     59  H   UNL A   1      45.091  30.688  30.303  1.00  0.00     0.167 HD
ATOM     60  C   UNL A   1      42.324  30.753  31.553  1.00  0.00     0.074 A 
ATOM     61  C   UNL A   1      42.473  31.520  30.317  1.00  0.00     0.031 C 
ATOM     62  C   UNL A   1      43.075  29.747  32.085  1.00  0.00     0.034 A 
BRANCH  49  63
ATOM     63  C   UNL A   1      45.710  30.061  27.429  1.00  0.00     0.023 A 
ATOM     64  C   UNL A   1      47.113  30.207  27.455  1.00  0.00     0.012 A 
ATOM     65  C   UNL A   1      44.955  31.155  26.950  1.00  0.00     0.148 A 
ATOM     66  C   UNL A   1      47.732  31.394  27.048  1.00  0.00     0.002 A 
ATOM     67  C   UNL A   1      45.576  32.301  26.473  1.00  0.00     0.091 A 
ATOM     68  F   UNL A   1      43.625  31.155  27.080  1.00  0.00    -0.205 F 
ATOM     69  C   UNL A   1      46.964  32.437  26.544  1.00  0.00     0.022 A 
BRANCH  67  70
ATOM     70  S   UNL A   1      44.632  33.663  25.779  1.00  0.00     0.127 S 
ATOM     71  O   UNL A   1      43.908  32.995  24.701  1.00  0.00    -0.237 OA
ATOM     72  O   UNL A   1      43.813  34.070  26.920  1.00  0.00    -0.237 OA
ATOM     73  O   UNL A   1      45.621  34.653  25.370  1.00  0.00    -0.744 OA
ENDBRANCH  67  70
ENDBRANCH  49  63
BRANCH  50  74
ATOM     74  C   UNL A   1      38.009  32.131  30.218  1.00  0.00     0.023 A 
ATOM     75  C   UNL A   1      37.739  32.493  28.880  1.00  0.00     0.012 A 
ATOM     76  C   UNL A   1      37.084  32.542  31.203  1.00  0.00     0.148 A 
ATOM     77  C   UNL A   1      36.562  33.166  28.526  1.00  0.00     0.002 A 
ATOM     78  C   UNL A   1      35.921  33.226  30.849  1.00  0.00     0.091 A 
ATOM     79  F   UNL A   1      37.282  32.185  32.477  1.00  0.00    -0.205 F 
ATOM     80  C   UNL A   1      35.647  33.522  29.510  1.00  0.00     0.022 A 
BRANCH  78  81
ATOM     81  S   UNL A   1      34.698  33.711  32.076  1.00  0.00     0.127 S 
ATOM     82  O   UNL A   1      35.513  34.428  33.059  1.00  0.00    -0.237 OA
ATOM     83  O   UNL A   1      33.801  34.556  31.293  1.00  0.00    -0.237 OA
ATOM     84  O   UNL A   1      34.130  32.464  32.573  1.00  0.00    -0.744 OA
ENDBRANCH  78  81
ENDBRANCH  50  74
BRANCH  62  85
ATOM     85  C   UNL A   1      42.560  29.012  33.295  1.00  0.00     0.023 A 
ATOM     86  C   UNL A   1      41.551  28.031  33.201  1.00  0.00     0.012 A 
ATOM     87  C   UNL A   1      43.299  29.124  34.484  1.00  0.00     0.148 A 
ATOM     88  C   UNL A   1      41.301  27.164  34.271  1.00  0.00     0.002 A 
ATOM     89  C   UNL A   1      43.077  28.234  35.527  1.00  0.00     0.091 A 
ATOM     90  F   UNL A   1      44.261  30.058  34.541  1.00  0.00    -0.205 F 
ATOM     91  C   UNL A   1      42.077  27.253  35.425  1.00  0.00     0.022 A 
BRANCH  89  92
ATOM     92  S   UNL A   1      44.120  28.208  36.986  1.00  0.00     0.127 S 
ATOM     93  O   UNL A   1      43.886  29.534  37.554  1.00  0.00    -0.237 OA
ATOM     94  O   UNL A   1      43.544  27.104  37.756  1.00  0.00    -0.237 OA
ATOM     95  O   UNL A   1      45.479  27.971  36.516  1.00  0.00    -0.744 OA
ENDBRANCH  89  92
ENDBRANCH  62  85
ENDBRANCH  36  37
ENDBRANCH  28  31
ENDBRANCH  26  27
ENDBRANCH   1  26
TORSDOF 16
ENDMDL
MODEL 3
REMARK VINA RESULT:     -12.7      1.639      2.022
REMARK SMILES Cc1ccc(N2CCC[C@@H](Cn3cc(C(=O)NCCCNC(=O)c4ccc(-c5c6nc(c(-c7cccc(S(=O)(=O)[O-])c7F)c7ccc([nH]7)c(-c7cccc(S(=O)(=O)[O-])c7F)c7nc(c(-c8cccc(S(=O)(=O)[O-])c8F)c8ccc5[nH]8)C=C7)C=C6)cc4)nn3)C2)nn1
REMARK SMILES IDX 19 1 18 2 17 3 15 4 16 5 14 7 12 8 13 9 88 10 87 11 11 12
REMARK SMILES IDX 10 13 6 14 7 15 89 16 8 17 9 18 5 19 1 20 2 21 3 22 91 23
REMARK SMILES IDX 4 24 90 25 20 26 21 27 22 28 23 30 24 31 25 32 86 33 26 34
REMARK SMILES IDX 85 35 27 36 28 37 29 38 79 39 30 40 84 41 78 42 80 43 31 44
REMARK SMILES IDX 83 45 77 46 76 47 32 49 64 50 44 51 63 52 45 53 48 54 62 55
REMARK SMILES IDX 81 56 46 57 47 58 61 60 82 61 49 62 33 63 34 64 42 65 35 66
REMARK SMILES IDX 37 67 43 68 36 69 38 70 39 71 40 72 41 73 65 74 66 75 74 76
REMARK SMILES IDX 67 77 69 78 75 79 68 80 70 81 71 82 72 83 73 84 50 85 51 86
REMARK SMILES IDX 59 87 52 88 54 89 60 90 53 91 55 92 56 93 57 94 58 95
REMARK H PARENT 17 6 21 29 80 48 48 59
REMARK Flexibility Score: inf
ROOT
ATOM      1  C   UNL A   1      32.936  30.412  27.070  1.00  0.00     0.042 C 
ENDROOT
BRANCH   1   2
ATOM      2  C   UNL A   1      32.962  29.633  25.753  1.00  0.00     0.118 C 
BRANCH   2   3
ATOM      3  N   UNL A   1      31.796  29.877  24.924  1.00  0.00    -0.351 N 
ATOM      4  C   UNL A   1      31.038  29.012  24.154  1.00  0.00     0.273 C 
ATOM      5  O   UNL A   1      29.962  29.414  23.744  1.00  0.00    -0.267 OA
ATOM      6  H   UNL A   1      31.492  30.814  24.907  1.00  0.00     0.163 HD
BRANCH   4   7
ATOM      7  C   UNL A   1      31.501  27.647  23.913  1.00  0.00     0.170 A 
ATOM      8  N   UNL A   1      31.730  25.505  23.817  1.00  0.00    -0.251 N 
ATOM      9  C   UNL A   1      31.340  26.499  24.662  1.00  0.00     0.145 A 
ATOM     10  N   UNL A   1      32.364  25.996  22.746  1.00  0.00    -0.067 NA
ATOM     11  N   UNL A   1      32.209  27.314  22.775  1.00  0.00    -0.125 NA
BRANCH   8  12
ATOM     12  C   UNL A   1      31.319  24.117  23.852  1.00  0.00     0.151 C 
BRANCH  12  13
ATOM     13  C   UNL A   1      32.286  23.196  24.626  1.00  0.00     0.030 C 
ATOM     14  N   UNL A   1      33.525  21.131  24.655  1.00  0.00    -0.355 N 
ATOM     15  C   UNL A   1      34.821  21.716  24.956  1.00  0.00     0.118 C 
ATOM     16  C   UNL A   1      32.638  21.924  23.832  1.00  0.00     0.123 C 
ATOM     17  C   UNL A   1      34.566  22.970  25.787  1.00  0.00     0.022 C 
ATOM     18  C   UNL A   1      33.578  23.915  25.087  1.00  0.00     0.009 C 
BRANCH  14  19
ATOM     19  C   UNL A   1      33.354  19.767  24.734  1.00  0.00     0.151 A 
ATOM     20  C   UNL A   1      32.906  15.572  25.130  1.00  0.00     0.069 C 
ATOM     21  C   UNL A   1      33.096  17.049  24.999  1.00  0.00     0.060 A 
ATOM     22  C   UNL A   1      34.336  17.572  24.683  1.00  0.00     0.029 A 
ATOM     23  N   UNL A   1      32.031  17.854  25.191  1.00  0.00    -0.154 NA
ATOM     24  C   UNL A   1      34.456  18.946  24.536  1.00  0.00     0.051 A 
ATOM     25  N   UNL A   1      32.170  19.221  25.081  1.00  0.00    -0.133 NA
ENDBRANCH  14  19
ENDBRANCH  12  13
ENDBRANCH   8  12
ENDBRANCH   4   7
ENDBRANCH   2   3
ENDBRANCH   1   2
BRANCH   1  26
ATOM     26  C   UNL A   1      34.342  30.690  27.575  1.00  0.00     0.118 C 
BRANCH  26  27
ATOM     27  N   UNL A   1      34.358  31.782  28.546  1.00  0.00    -0.352 N 
ATOM     28  C   UNL A   1      35.185  31.964  29.630  1.00  0.00     0.251 C 
ATOM     29  H   UNL A   1      33.684  32.485  28.403  1.00  0.00     0.163 HD
ATOM     30  O   UNL A   1      34.851  32.734  30.526  1.00  0.00    -0.269 OA
BRANCH  28  31
ATOM     31  C   UNL A   1      36.461  31.232  29.720  1.00  0.00     0.039 A 
ATOM     32  C   UNL A   1      36.449  29.862  30.001  1.00  0.00     0.014 A 
ATOM     33  C   UNL A   1      37.672  31.911  29.569  1.00  0.00     0.014 A 
ATOM     34  C   UNL A   1      37.656  29.177  30.070  1.00  0.00     0.010 A 
ATOM     35  C   UNL A   1      38.860  31.218  29.525  1.00  0.00     0.010 A 
ATOM     36  C   UNL A   1      38.855  29.861  29.814  1.00  0.00    -0.014 A 
BRANCH  36  37
ATOM     37  C   UNL A   1      40.098  29.118  29.716  1.00  0.00     0.031 A 
ATOM     38  C   UNL A   1      40.744  28.862  31.027  1.00  0.00     0.074 A 
ATOM     39  C   UNL A   1      40.567  28.573  28.577  1.00  0.00     0.049 A 
ATOM     40  N   UNL A   1      41.778  29.469  31.504  1.00  0.00    -0.248 NA
ATOM     41  C   UNL A   1      40.080  27.962  31.981  1.00  0.00     0.031 C 
ATOM     42  C   UNL A   1      39.907  28.474  27.272  1.00  0.00     0.029 A 
ATOM     43  N   UNL A   1      41.720  27.878  28.386  1.00  0.00    -0.354 N 
ATOM     44  C   UNL A   1      42.050  28.843  32.714  1.00  0.00     0.074 A 
ATOM     45  C   UNL A   1      40.872  28.084  33.051  1.00  0.00     0.031 C 
ATOM     46  C   UNL A   1      40.563  27.570  26.508  1.00  0.00     0.029 A 
ATOM     47  C   UNL A   1      41.763  27.145  27.204  1.00  0.00     0.049 A 
ATOM     48  H   UNL A   1      42.464  27.893  29.031  1.00  0.00     0.167 HD
ATOM     49  C   UNL A   1      43.319  28.788  33.204  1.00  0.00     0.034 A 
ATOM     50  C   UNL A   1      42.701  26.222  26.872  1.00  0.00     0.034 A 
ATOM     51  C   UNL A   1      44.196  29.699  32.513  1.00  0.00     0.049 A 
ATOM     52  C   UNL A   1      43.912  26.567  27.660  1.00  0.00     0.074 A 
ATOM     53  C   UNL A   1      44.183  31.057  32.263  1.00  0.00     0.029 A 
ATOM     54  N   UNL A   1      45.055  29.153  31.587  1.00  0.00    -0.354 N 
ATOM     55  N   UNL A   1      44.590  27.669  27.494  1.00  0.00    -0.248 NA
ATOM     56  C   UNL A   1      44.115  25.887  28.930  1.00  0.00     0.031 C 
ATOM     57  C   UNL A   1      44.622  31.182  30.913  1.00  0.00     0.029 A 
ATOM     58  C   UNL A   1      44.952  29.907  30.449  1.00  0.00     0.049 A 
ATOM     59  H   UNL A   1      45.637  28.369  31.720  1.00  0.00     0.167 HD
ATOM     60  C   UNL A   1      44.930  28.058  28.782  1.00  0.00     0.074 A 
ATOM     61  C   UNL A   1      44.703  26.875  29.611  1.00  0.00     0.031 C 
ATOM     62  C   UNL A   1      45.080  29.373  29.110  1.00  0.00     0.034 A 
BRANCH  49  63
ATOM     63  C   UNL A   1      43.863  27.662  34.041  1.00  0.00     0.023 A 
ATOM     64  C   UNL A   1      44.321  26.510  33.367  1.00  0.00     0.012 A 
ATOM     65  C   UNL A   1      43.693  27.568  35.440  1.00  0.00     0.148 A 
ATOM     66  C   UNL A   1      44.572  25.315  34.050  1.00  0.00     0.002 A 
ATOM     67  C   UNL A   1      44.018  26.405  36.125  1.00  0.00     0.091 A 
ATOM     68  F   UNL A   1      43.083  28.554  36.105  1.00  0.00    -0.205 F 
ATOM     69  C   UNL A   1      44.434  25.266  35.432  1.00  0.00     0.022 A 
BRANCH  67  70
ATOM     70  S   UNL A   1      43.891  26.301  37.914  1.00  0.00     0.127 S 
ATOM     71  O   UNL A   1      44.586  27.517  38.326  1.00  0.00    -0.237 OA
ATOM     72  O   UNL A   1      42.442  26.316  38.110  1.00  0.00    -0.237 OA
ATOM     73  O   UNL A   1      44.530  25.042  38.277  1.00  0.00    -0.744 OA
ENDBRANCH  67  70
ENDBRANCH  49  63
BRANCH  50  74
ATOM     74  C   UNL A   1      42.568  24.925  26.154  1.00  0.00     0.023 A 
ATOM     75  C   UNL A   1      43.560  24.560  25.217  1.00  0.00     0.012 A 
ATOM     76  C   UNL A   1      41.670  23.920  26.578  1.00  0.00     0.148 A 
ATOM     77  C   UNL A   1      43.702  23.236  24.779  1.00  0.00     0.002 A 
ATOM     78  C   UNL A   1      41.805  22.607  26.127  1.00  0.00     0.091 A 
ATOM     79  F   UNL A   1      40.742  24.215  27.495  1.00  0.00    -0.205 F 
ATOM     80  C   UNL A   1      42.833  22.257  25.244  1.00  0.00     0.022 A 
BRANCH  78  81
ATOM     81  S   UNL A   1      40.713  21.295  26.695  1.00  0.00     0.127 S 
ATOM     82  O   UNL A   1      39.422  21.706  26.140  1.00  0.00    -0.237 OA
ATOM     83  O   UNL A   1      41.301  20.116  26.064  1.00  0.00    -0.237 OA
ATOM     84  O   UNL A   1      40.776  21.339  28.150  1.00  0.00    -0.744 OA
ENDBRANCH  78  81
ENDBRANCH  50  74
BRANCH  62  85
ATOM     85  C   UNL A   1      45.111  30.401  28.011  1.00  0.00     0.023 A 
ATOM     86  C   UNL A   1      43.931  30.929  27.446  1.00  0.00     0.012 A 
ATOM     87  C   UNL A   1      46.338  31.032  27.747  1.00  0.00     0.148 A 
ATOM     88  C   UNL A   1      43.976  32.079  26.650  1.00  0.00     0.002 A 
ATOM     89  C   UNL A   1      46.373  32.198  26.993  1.00  0.00     0.091 A 
ATOM     90  F   UNL A   1      47.443  30.517  28.307  1.00  0.00    -0.205 F 
ATOM     91  C   UNL A   1      45.194  32.723  26.440  1.00  0.00     0.022 A 
BRANCH  89  92
ATOM     92  S   UNL A   1      47.881  33.148  26.789  1.00  0.00     0.127 S 
ATOM     93  O   UNL A   1      48.842  32.118  26.400  1.00  0.00    -0.237 OA
ATOM     94  O   UNL A   1      47.516  34.078  25.720  1.00  0.00    -0.237 OA
ATOM     95  O   UNL A   1      48.145  33.781  28.076  1.00  0.00    -0.744 OA
ENDBRANCH  89  92
ENDBRANCH  62  85
ENDBRANCH  36  37
ENDBRANCH  28  31
ENDBRANCH  26  27
ENDBRANCH   1  26
TORSDOF 16
ENDMDL
