MODEL 1
REMARK VINA RESULT:     -10.8      0.000      0.000
REMARK SMILES Nc1ccc(O)c(C(=O)NCCCNC(=O)c2ccc(-c3c4nc(c(-c5cccc(S(=O)(=O)[O-])c5F)c5ccc([nH]5)c(-c5cccc(S(=O)(=O)[O-])c5F)c5nc(c(-c6cccc(S(=O)(=O)[O-])c6F)c6ccc3[nH]6)C=C5)C=C4)cc2)c1
REMARK SMILES IDX 13 1 12 2 11 3 10 4 8 5 9 6 7 8 2 9 3 10 80 11 4 12 5 13
REMARK SMILES IDX 1 14 6 17 14 19 15 20 16 22 17 23 18 24 79 25 19 26 78 27
REMARK SMILES IDX 20 28 21 29 22 30 72 31 23 32 77 33 71 34 73 35 24 36 76 37
REMARK SMILES IDX 70 38 69 39 25 41 57 42 37 43 56 44 38 45 41 46 55 47 74 48
REMARK SMILES IDX 39 49 40 50 54 52 75 53 42 54 26 55 27 56 35 57 28 58 30 59
REMARK SMILES IDX 36 60 29 61 31 62 32 63 33 64 34 65 58 66 59 67 67 68 60 69
REMARK SMILES IDX 62 70 68 71 61 72 63 73 64 74 65 75 66 76 43 77 44 78 52 79
REMARK SMILES IDX 45 80 47 81 53 82 46 83 48 84 49 85 50 86 51 87
REMARK H PARENT 10 7 1 15 1 16 6 18 14 21 73 40 41 51
REMARK Flexibility Score: inf
ROOT
ATOM      1  C   UNL A   1      34.180  33.880  28.817  1.00  0.00     0.118 C 
ENDROOT
BRANCH   1   2
ATOM      2  C   UNL A   1      33.250  35.025  29.214  1.00  0.00     0.042 C 
BRANCH   2   3
ATOM      3  C   UNL A   1      33.547  35.570  30.611  1.00  0.00     0.118 C 
BRANCH   3   4
ATOM      4  N   UNL A   1      33.264  34.572  31.626  1.00  0.00    -0.352 N 
ATOM      5  C   UNL A   1      34.036  33.919  32.548  1.00  0.00     0.255 C 
ATOM      6  O   UNL A   1      33.448  33.142  33.309  1.00  0.00    -0.269 OA
ATOM      7  H   UNL A   1      32.316  34.311  31.659  1.00  0.00     0.163 HD
BRANCH   5   8
ATOM      8  C   UNL A   1      35.500  34.123  32.751  1.00  0.00     0.083 A 
ATOM      9  C   UNL A   1      37.776  34.556  31.964  1.00  0.00     0.032 A 
ATOM     10  C   UNL A   1      38.214  34.645  33.285  1.00  0.00     0.029 A 
ATOM     11  C   UNL A   1      36.425  34.280  31.711  1.00  0.00     0.043 A 
ATOM     12  C   UNL A   1      37.333  34.410  34.337  1.00  0.00     0.049 A 
ATOM     13  C   UNL A   1      35.990  34.155  34.071  1.00  0.00     0.128 A 
BRANCH   9  14
ATOM     14  N   UNL A   1      38.629  34.884  30.919  1.00  0.00    -0.399 N 
ATOM     15  H   UNL A   1      38.451  34.543  30.013  1.00  0.00     0.156 HD
ATOM     16  H   UNL A   1      39.413  35.456  31.085  1.00  0.00     0.156 HD
ENDBRANCH   9  14
BRANCH  13  17
ATOM     17  O   UNL A   1      35.203  33.948  35.177  1.00  0.00    -0.507 OA
ATOM     18  H   UNL A   1      35.599  33.795  36.012  1.00  0.00     0.293 HD
ENDBRANCH  13  17
ENDBRANCH   5   8
ENDBRANCH   3   4
ENDBRANCH   2   3
ENDBRANCH   1   2
BRANCH   1  19
ATOM     19  N   UNL A   1      33.501  32.896  27.979  1.00  0.00    -0.352 N 
ATOM     20  C   UNL A   1      33.948  31.685  27.510  1.00  0.00     0.251 C 
ATOM     21  H   UNL A   1      32.586  33.137  27.711  1.00  0.00     0.163 HD
ATOM     22  O   UNL A   1      33.328  31.110  26.622  1.00  0.00    -0.269 OA
BRANCH  20  23
ATOM     23  C   UNL A   1      35.174  31.083  28.072  1.00  0.00     0.039 A 
ATOM     24  C   UNL A   1      36.363  31.817  28.057  1.00  0.00     0.014 A 
ATOM     25  C   UNL A   1      35.149  29.790  28.599  1.00  0.00     0.014 A 
ATOM     26  C   UNL A   1      37.515  31.277  28.637  1.00  0.00     0.010 A 
ATOM     27  C   UNL A   1      36.274  29.287  29.242  1.00  0.00     0.010 A 
ATOM     28  C   UNL A   1      37.468  30.023  29.266  1.00  0.00    -0.014 A 
BRANCH  28  29
ATOM     29  C   UNL A   1      38.644  29.460  29.977  1.00  0.00     0.031 A 
ATOM     30  C   UNL A   1      39.038  30.002  31.323  1.00  0.00     0.074 A 
ATOM     31  C   UNL A   1      39.422  28.550  29.357  1.00  0.00     0.049 A 
ATOM     32  N   UNL A   1      40.098  29.739  32.040  1.00  0.00    -0.248 NA
ATOM     33  C   UNL A   1      38.135  30.996  31.931  1.00  0.00     0.031 C 
ATOM     34  C   UNL A   1      39.180  27.999  28.022  1.00  0.00     0.029 A 
ATOM     35  N   UNL A   1      40.596  27.958  29.751  1.00  0.00    -0.354 N 
ATOM     36  C   UNL A   1      40.016  30.563  33.156  1.00  0.00     0.074 A 
ATOM     37  C   UNL A   1      38.816  31.355  33.009  1.00  0.00     0.031 C 
ATOM     38  C   UNL A   1      40.174  27.156  27.705  1.00  0.00     0.029 A 
ATOM     39  C   UNL A   1      41.147  27.138  28.794  1.00  0.00     0.049 A 
ATOM     40  H   UNL A   1      41.004  28.105  30.635  1.00  0.00     0.167 HD
ATOM     41  C   UNL A   1      40.853  30.636  34.217  1.00  0.00     0.034 A 
ATOM     42  C   UNL A   1      42.316  26.467  28.781  1.00  0.00     0.034 A 
ATOM     43  C   UNL A   1      42.025  29.818  34.374  1.00  0.00     0.049 A 
ATOM     44  C   UNL A   1      43.218  26.550  29.984  1.00  0.00     0.074 A 
ATOM     45  C   UNL A   1      42.889  29.752  35.452  1.00  0.00     0.029 A 
ATOM     46  N   UNL A   1      42.505  28.934  33.420  1.00  0.00    -0.354 N 
ATOM     47  N   UNL A   1      43.048  27.224  31.095  1.00  0.00    -0.248 NA
ATOM     48  C   UNL A   1      44.455  25.758  29.945  1.00  0.00     0.031 C 
ATOM     49  C   UNL A   1      43.913  28.853  35.136  1.00  0.00     0.029 A 
ATOM     50  C   UNL A   1      43.662  28.328  33.878  1.00  0.00     0.049 A 
ATOM     51  H   UNL A   1      42.086  28.763  32.546  1.00  0.00     0.167 HD
ATOM     52  C   UNL A   1      44.133  26.904  31.903  1.00  0.00     0.074 A 
ATOM     53  C   UNL A   1      44.947  25.967  31.159  1.00  0.00     0.031 C 
ATOM     54  C   UNL A   1      44.432  27.355  33.147  1.00  0.00     0.034 A 
BRANCH  41  55
ATOM     55  C   UNL A   1      40.514  31.611  35.316  1.00  0.00     0.023 A 
ATOM     56  C   UNL A   1      41.275  32.790  35.465  1.00  0.00     0.012 A 
ATOM     57  C   UNL A   1      39.408  31.392  36.160  1.00  0.00     0.148 A 
ATOM     58  C   UNL A   1      40.964  33.715  36.461  1.00  0.00     0.002 A 
ATOM     59  C   UNL A   1      39.075  32.344  37.118  1.00  0.00     0.091 A 
ATOM     60  F   UNL A   1      38.707  30.258  36.016  1.00  0.00    -0.205 F 
ATOM     61  C   UNL A   1      39.859  33.497  37.279  1.00  0.00     0.022 A 
BRANCH  59  62
ATOM     62  S   UNL A   1      37.623  32.198  38.165  1.00  0.00     0.127 S 
ATOM     63  O   UNL A   1      36.663  33.046  37.460  1.00  0.00    -0.237 OA
ATOM     64  O   UNL A   1      37.337  30.764  38.093  1.00  0.00    -0.237 OA
ATOM     65  O   UNL A   1      38.025  32.672  39.482  1.00  0.00    -0.744 OA
ENDBRANCH  59  62
ENDBRANCH  41  55
BRANCH  42  66
ATOM     66  C   UNL A   1      42.679  25.622  27.609  1.00  0.00     0.023 A 
ATOM     67  C   UNL A   1      43.531  26.144  26.616  1.00  0.00     0.012 A 
ATOM     68  C   UNL A   1      42.210  24.300  27.483  1.00  0.00     0.148 A 
ATOM     69  C   UNL A   1      43.879  25.379  25.502  1.00  0.00     0.002 A 
ATOM     70  C   UNL A   1      42.607  23.524  26.401  1.00  0.00     0.091 A 
ATOM     71  F   UNL A   1      41.395  23.823  28.436  1.00  0.00    -0.205 F 
ATOM     72  C   UNL A   1      43.425  24.067  25.399  1.00  0.00     0.022 A 
BRANCH  70  73
ATOM     73  S   UNL A   1      42.182  21.784  26.254  1.00  0.00     0.127 S 
ATOM     74  O   UNL A   1      42.501  21.285  27.589  1.00  0.00    -0.237 OA
ATOM     75  O   UNL A   1      40.752  21.849  25.946  1.00  0.00    -0.237 OA
ATOM     76  O   UNL A   1      43.005  21.266  25.171  1.00  0.00    -0.744 OA
ENDBRANCH  70  73
ENDBRANCH  42  66
BRANCH  54  77
ATOM     77  C   UNL A   1      45.662  26.805  33.818  1.00  0.00     0.023 A 
ATOM     78  C   UNL A   1      46.885  27.498  33.729  1.00  0.00     0.012 A 
ATOM     79  C   UNL A   1      45.576  25.649  34.621  1.00  0.00     0.148 A 
ATOM     80  C   UNL A   1      48.011  27.034  34.412  1.00  0.00     0.002 A 
ATOM     81  C   UNL A   1      46.687  25.225  35.339  1.00  0.00     0.091 A 
ATOM     82  F   UNL A   1      44.407  24.997  34.676  1.00  0.00    -0.205 F 
ATOM     83  C   UNL A   1      47.907  25.909  35.226  1.00  0.00     0.022 A 
BRANCH  81  84
ATOM     84  S   UNL A   1      46.622  23.849  36.491  1.00  0.00     0.127 S 
ATOM     85  O   UNL A   1      45.566  24.276  37.408  1.00  0.00    -0.237 OA
ATOM     86  O   UNL A   1      46.258  22.734  35.617  1.00  0.00    -0.237 OA
ATOM     87  O   UNL A   1      47.951  23.750  37.080  1.00  0.00    -0.744 OA
ENDBRANCH  81  84
ENDBRANCH  54  77
ENDBRANCH  28  29
ENDBRANCH  20  23
ENDBRANCH   1  19
TORSDOF 15
ENDMDL
MODEL 2
REMARK VINA RESULT:     -10.8      3.414      9.870
REMARK SMILES Nc1ccc(O)c(C(=O)NCCCNC(=O)c2ccc(-c3c4nc(c(-c5cccc(S(=O)(=O)[O-])c5F)c5ccc([nH]5)c(-c5cccc(S(=O)(=O)[O-])c5F)c5nc(c(-c6cccc(S(=O)(=O)[O-])c6F)c6ccc3[nH]6)C=C5)C=C4)cc2)c1
REMARK SMILES IDX 13 1 12 2 11 3 10 4 8 5 9 6 7 8 2 9 3 10 80 11 4 12 5 13
REMARK SMILES IDX 1 14 6 17 14 19 15 20 16 22 17 23 18 24 79 25 19 26 78 27
REMARK SMILES IDX 20 28 21 29 22 30 72 31 23 32 77 33 71 34 73 35 24 36 76 37
REMARK SMILES IDX 70 38 69 39 25 41 57 42 37 43 56 44 38 45 41 46 55 47 74 48
REMARK SMILES IDX 39 49 40 50 54 52 75 53 42 54 26 55 27 56 35 57 28 58 30 59
REMARK SMILES IDX 36 60 29 61 31 62 32 63 33 64 34 65 58 66 59 67 67 68 60 69
REMARK SMILES IDX 62 70 68 71 61 72 63 73 64 74 65 75 66 76 43 77 44 78 52 79
REMARK SMILES IDX 45 80 47 81 53 82 46 83 48 84 49 85 50 86 51 87
REMARK H PARENT 10 7 1 15 1 16 6 18 14 21 73 40 41 51
REMARK Flexibility Score: inf
ROOT
ATOM      1  C   UNL A   1      32.712  31.863  27.176  1.00  0.00     0.118 C 
ENDROOT
BRANCH   1   2
ATOM      2  C   UNL A   1      31.626  31.251  26.293  1.00  0.00     0.042 C 
BRANCH   2   3
ATOM      3  C   UNL A   1      31.859  29.767  26.013  1.00  0.00     0.118 C 
BRANCH   3   4
ATOM      4  N   UNL A   1      32.373  29.569  24.670  1.00  0.00    -0.352 N 
ATOM      5  C   UNL A   1      31.801  29.172  23.491  1.00  0.00     0.255 C 
ATOM      6  O   UNL A   1      32.541  29.152  22.500  1.00  0.00    -0.269 OA
ATOM      7  H   UNL A   1      33.334  29.760  24.590  1.00  0.00     0.163 HD
BRANCH   5   8
ATOM      8  C   UNL A   1      30.361  28.837  23.297  1.00  0.00     0.083 A 
ATOM      9  C   UNL A   1      28.393  27.409  23.573  1.00  0.00     0.032 A 
ATOM     10  C   UNL A   1      27.597  28.398  22.996  1.00  0.00     0.029 A 
ATOM     11  C   UNL A   1      29.771  27.633  23.703  1.00  0.00     0.043 A 
ATOM     12  C   UNL A   1      28.170  29.569  22.508  1.00  0.00     0.049 A 
ATOM     13  C   UNL A   1      29.538  29.785  22.660  1.00  0.00     0.128 A 
BRANCH   9  14
ATOM     14  N   UNL A   1      27.811  26.287  24.145  1.00  0.00    -0.399 N 
ATOM     15  H   UNL A   1      28.010  25.392  23.786  1.00  0.00     0.156 HD
ATOM     16  H   UNL A   1      27.199  26.385  24.910  1.00  0.00     0.156 HD
ENDBRANCH   9  14
BRANCH  13  17
ATOM     17  O   UNL A   1      30.002  30.975  22.155  1.00  0.00    -0.507 OA
ATOM     18  H   UNL A   1      30.872  31.260  22.352  1.00  0.00     0.293 HD
ENDBRANCH  13  17
ENDBRANCH   5   8
ENDBRANCH   3   4
ENDBRANCH   2   3
ENDBRANCH   1   2
BRANCH   1  19
ATOM     19  N   UNL A   1      32.509  33.296  27.371  1.00  0.00    -0.352 N 
ATOM     20  C   UNL A   1      33.074  34.146  28.289  1.00  0.00     0.251 C 
ATOM     21  H   UNL A   1      31.873  33.715  26.749  1.00  0.00     0.163 HD
ATOM     22  O   UNL A   1      32.600  35.264  28.457  1.00  0.00    -0.269 OA
BRANCH  20  23
ATOM     23  C   UNL A   1      34.246  33.708  29.075  1.00  0.00     0.039 A 
ATOM     24  C   UNL A   1      34.064  32.808  30.128  1.00  0.00     0.014 A 
ATOM     25  C   UNL A   1      35.519  34.200  28.779  1.00  0.00     0.014 A 
ATOM     26  C   UNL A   1      35.175  32.346  30.841  1.00  0.00     0.010 A 
ATOM     27  C   UNL A   1      36.628  33.681  29.438  1.00  0.00     0.010 A 
ATOM     28  C   UNL A   1      36.468  32.752  30.476  1.00  0.00    -0.014 A 
BRANCH  28  29
ATOM     29  C   UNL A   1      37.676  32.209  31.146  1.00  0.00     0.031 A 
ATOM     30  C   UNL A   1      38.433  31.069  30.520  1.00  0.00     0.074 A 
ATOM     31  C   UNL A   1      38.018  32.660  32.369  1.00  0.00     0.049 A 
ATOM     32  N   UNL A   1      39.426  30.372  31.007  1.00  0.00    -0.248 NA
ATOM     33  C   UNL A   1      37.994  30.633  29.183  1.00  0.00     0.031 C 
ATOM     34  C   UNL A   1      37.320  33.714  33.107  1.00  0.00     0.029 A 
ATOM     35  N   UNL A   1      39.014  32.261  33.225  1.00  0.00    -0.354 N 
ATOM     36  C   UNL A   1      39.701  29.392  30.062  1.00  0.00     0.074 A 
ATOM     37  C   UNL A   1      38.752  29.564  28.984  1.00  0.00     0.031 C 
ATOM     38  C   UNL A   1      37.903  33.875  34.304  1.00  0.00     0.029 A 
ATOM     39  C   UNL A   1      38.989  32.908  34.439  1.00  0.00     0.049 A 
ATOM     40  H   UNL A   1      39.684  31.577  32.993  1.00  0.00     0.167 HD
ATOM     41  C   UNL A   1      40.670  28.447  30.079  1.00  0.00     0.034 A 
ATOM     42  C   UNL A   1      39.737  32.727  35.546  1.00  0.00     0.034 A 
ATOM     43  C   UNL A   1      41.633  28.305  31.137  1.00  0.00     0.049 A 
ATOM     44  C   UNL A   1      40.821  31.684  35.530  1.00  0.00     0.074 A 
ATOM     45  C   UNL A   1      42.710  27.439  31.208  1.00  0.00     0.029 A 
ATOM     46  N   UNL A   1      41.630  29.038  32.314  1.00  0.00    -0.354 N 
ATOM     47  N   UNL A   1      41.161  30.864  34.566  1.00  0.00    -0.248 NA
ATOM     48  C   UNL A   1      41.645  31.562  36.740  1.00  0.00     0.031 C 
ATOM     49  C   UNL A   1      43.336  27.624  32.445  1.00  0.00     0.029 A 
ATOM     50  C   UNL A   1      42.675  28.635  33.125  1.00  0.00     0.049 A 
ATOM     51  H   UNL A   1      40.979  29.741  32.539  1.00  0.00     0.167 HD
ATOM     52  C   UNL A   1      42.263  30.159  35.036  1.00  0.00     0.074 A 
ATOM     53  C   UNL A   1      42.541  30.658  36.366  1.00  0.00     0.031 C 
ATOM     54  C   UNL A   1      42.974  29.180  34.424  1.00  0.00     0.034 A 
BRANCH  41  55
ATOM     55  C   UNL A   1      40.763  27.511  28.901  1.00  0.00     0.023 A 
ATOM     56  C   UNL A   1      39.845  26.447  28.778  1.00  0.00     0.012 A 
ATOM     57  C   UNL A   1      41.717  27.720  27.886  1.00  0.00     0.148 A 
ATOM     58  C   UNL A   1      39.901  25.583  27.686  1.00  0.00     0.002 A 
ATOM     59  C   UNL A   1      41.734  26.884  26.775  1.00  0.00     0.091 A 
ATOM     60  F   UNL A   1      42.593  28.725  28.028  1.00  0.00    -0.205 F 
ATOM     61  C   UNL A   1      40.836  25.808  26.680  1.00  0.00     0.022 A 
BRANCH  59  62
ATOM     62  S   UNL A   1      42.845  27.139  25.387  1.00  0.00     0.127 S 
ATOM     63  O   UNL A   1      44.127  27.325  26.064  1.00  0.00    -0.237 OA
ATOM     64  O   UNL A   1      42.718  25.876  24.658  1.00  0.00    -0.237 OA
ATOM     65  O   UNL A   1      42.340  28.305  24.675  1.00  0.00    -0.744 OA
ENDBRANCH  59  62
ENDBRANCH  41  55
BRANCH  42  66
ATOM     66  C   UNL A   1      39.516  33.584  36.744  1.00  0.00     0.023 A 
ATOM     67  C   UNL A   1      39.939  34.928  36.722  1.00  0.00     0.012 A 
ATOM     68  C   UNL A   1      38.868  33.088  37.893  1.00  0.00     0.148 A 
ATOM     69  C   UNL A   1      39.755  35.751  37.834  1.00  0.00     0.002 A 
ATOM     70  C   UNL A   1      38.637  33.930  38.975  1.00  0.00     0.091 A 
ATOM     71  F   UNL A   1      38.478  31.805  37.897  1.00  0.00    -0.205 F 
ATOM     72  C   UNL A   1      39.096  35.255  38.956  1.00  0.00     0.022 A 
BRANCH  70  73
ATOM     73  S   UNL A   1      37.678  33.418  40.406  1.00  0.00     0.127 S 
ATOM     74  O   UNL A   1      37.644  34.645  41.197  1.00  0.00    -0.237 OA
ATOM     75  O   UNL A   1      36.403  33.043  39.795  1.00  0.00    -0.237 OA
ATOM     76  O   UNL A   1      38.410  32.306  40.995  1.00  0.00    -0.744 OA
ENDBRANCH  70  73
ENDBRANCH  42  66
BRANCH  54  77
ATOM     77  C   UNL A   1      44.161  28.611  35.154  1.00  0.00     0.023 A 
ATOM     78  C   UNL A   1      45.444  29.156  34.952  1.00  0.00     0.012 A 
ATOM     79  C   UNL A   1      43.982  27.597  36.118  1.00  0.00     0.148 A 
ATOM     80  C   UNL A   1      46.535  28.684  35.682  1.00  0.00     0.002 A 
ATOM     81  C   UNL A   1      45.064  27.171  36.877  1.00  0.00     0.091 A 
ATOM     82  F   UNL A   1      42.756  27.081  36.280  1.00  0.00    -0.205 F 
ATOM     83  C   UNL A   1      46.342  27.704  36.652  1.00  0.00     0.022 A 
BRANCH  81  84
ATOM     84  S   UNL A   1      44.894  25.988  38.218  1.00  0.00     0.127 S 
ATOM     85  O   UNL A   1      43.936  26.664  39.093  1.00  0.00    -0.237 OA
ATOM     86  O   UNL A   1      44.363  24.813  37.526  1.00  0.00    -0.237 OA
ATOM     87  O   UNL A   1      46.227  25.812  38.776  1.00  0.00    -0.744 OA
ENDBRANCH  81  84
ENDBRANCH  54  77
ENDBRANCH  28  29
ENDBRANCH  20  23
ENDBRANCH   1  19
TORSDOF 15
ENDMDL
MODEL 3
REMARK VINA RESULT:     -10.7      3.081      9.621
REMARK SMILES Nc1ccc(O)c(C(=O)NCCCNC(=O)c2ccc(-c3c4nc(c(-c5cccc(S(=O)(=O)[O-])c5F)c5ccc([nH]5)c(-c5cccc(S(=O)(=O)[O-])c5F)c5nc(c(-c6cccc(S(=O)(=O)[O-])c6F)c6ccc3[nH]6)C=C5)C=C4)cc2)c1
REMARK SMILES IDX 13 1 12 2 11 3 10 4 8 5 9 6 7 8 2 9 3 10 80 11 4 12 5 13
REMARK SMILES IDX 1 14 6 17 14 19 15 20 16 22 17 23 18 24 79 25 19 26 78 27
REMARK SMILES IDX 20 28 21 29 22 30 72 31 23 32 77 33 71 34 73 35 24 36 76 37
REMARK SMILES IDX 70 38 69 39 25 41 57 42 37 43 56 44 38 45 41 46 55 47 74 48
REMARK SMILES IDX 39 49 40 50 54 52 75 53 42 54 26 55 27 56 35 57 28 58 30 59
REMARK SMILES IDX 36 60 29 61 31 62 32 63 33 64 34 65 58 66 59 67 67 68 60 69
REMARK SMILES IDX 62 70 68 71 61 72 63 73 64 74 65 75 66 76 43 77 44 78 52 79
REMARK SMILES IDX 45 80 47 81 53 82 46 83 48 84 49 85 50 86 51 87
REMARK H PARENT 10 7 1 15 1 16 6 18 14 21 73 40 41 51
REMARK Flexibility Score: inf
ROOT
ATOM      1  C   UNL A   1      32.224  30.246  26.875  1.00  0.00     0.118 C 
ENDROOT
BRANCH   1   2
ATOM      2  C   UNL A   1      31.845  29.655  25.517  1.00  0.00     0.042 C 
BRANCH   2   3
ATOM      3  C   UNL A   1      31.661  28.138  25.564  1.00  0.00     0.118 C 
BRANCH   3   4
ATOM      4  N   UNL A   1      31.939  27.544  24.270  1.00  0.00    -0.352 N 
ATOM      5  C   UNL A   1      31.297  27.573  23.062  1.00  0.00     0.255 C 
ATOM      6  O   UNL A   1      31.847  26.974  22.131  1.00  0.00    -0.269 OA
ATOM      7  H   UNL A   1      32.764  27.007  24.259  1.00  0.00     0.163 HD
BRANCH   5   8
ATOM      8  C   UNL A   1      30.039  28.319  22.768  1.00  0.00     0.083 A 
ATOM      9  C   UNL A   1      27.621  28.664  22.900  1.00  0.00     0.032 A 
ATOM     10  C   UNL A   1      27.765  29.902  22.276  1.00  0.00     0.029 A 
ATOM     11  C   UNL A   1      28.759  27.878  23.125  1.00  0.00     0.043 A 
ATOM     12  C   UNL A   1      29.015  30.329  21.835  1.00  0.00     0.049 A 
ATOM     13  C   UNL A   1      30.139  29.545  22.082  1.00  0.00     0.128 A 
BRANCH   9  14
ATOM     14  N   UNL A   1      26.394  28.282  23.424  1.00  0.00    -0.399 N 
ATOM     15  H   UNL A   1      25.851  28.931  23.927  1.00  0.00     0.156 HD
ATOM     16  H   UNL A   1      26.067  27.362  23.294  1.00  0.00     0.156 HD
ENDBRANCH   9  14
BRANCH  13  17
ATOM     17  O   UNL A   1      31.325  30.059  21.617  1.00  0.00    -0.507 OA
ATOM     18  H   UNL A   1      31.854  29.558  21.028  1.00  0.00     0.293 HD
ENDBRANCH  13  17
ENDBRANCH   5   8
ENDBRANCH   3   4
ENDBRANCH   2   3
ENDBRANCH   1   2
BRANCH   1  19
ATOM     19  N   UNL A   1      32.178  31.705  26.862  1.00  0.00    -0.352 N 
ATOM     20  C   UNL A   1      33.012  32.616  27.463  1.00  0.00     0.251 C 
ATOM     21  H   UNL A   1      31.438  32.095  26.343  1.00  0.00     0.163 HD
ATOM     22  O   UNL A   1      32.675  33.792  27.542  1.00  0.00    -0.269 OA
BRANCH  20  23
ATOM     23  C   UNL A   1      34.308  32.174  28.016  1.00  0.00     0.039 A 
ATOM     24  C   UNL A   1      35.382  33.069  28.042  1.00  0.00     0.014 A 
ATOM     25  C   UNL A   1      34.464  30.871  28.495  1.00  0.00     0.014 A 
ATOM     26  C   UNL A   1      36.595  32.676  28.614  1.00  0.00     0.010 A 
ATOM     27  C   UNL A   1      35.646  30.508  29.132  1.00  0.00     0.010 A 
ATOM     28  C   UNL A   1      36.724  31.405  29.197  1.00  0.00    -0.014 A 
BRANCH  28  29
ATOM     29  C   UNL A   1      37.963  30.988  29.899  1.00  0.00     0.031 A 
ATOM     30  C   UNL A   1      38.881  29.979  29.265  1.00  0.00     0.074 A 
ATOM     31  C   UNL A   1      38.195  31.424  31.153  1.00  0.00     0.049 A 
ATOM     32  N   UNL A   1      39.934  29.391  29.769  1.00  0.00    -0.248 NA
ATOM     33  C   UNL A   1      38.555  29.551  27.893  1.00  0.00     0.031 C 
ATOM     34  C   UNL A   1      37.341  32.350  31.898  1.00  0.00     0.029 A 
ATOM     35  N   UNL A   1      39.199  31.115  32.037  1.00  0.00    -0.354 N 
ATOM     36  C   UNL A   1      40.368  28.494  28.800  1.00  0.00     0.074 A 
ATOM     37  C   UNL A   1      39.449  28.595  27.688  1.00  0.00     0.031 C 
ATOM     38  C   UNL A   1      37.851  32.530  33.126  1.00  0.00     0.029 A 
ATOM     39  C   UNL A   1      39.043  31.700  33.273  1.00  0.00     0.049 A 
ATOM     40  H   UNL A   1      39.958  30.530  31.809  1.00  0.00     0.167 HD
ATOM     41  C   UNL A   1      41.447  27.677  28.825  1.00  0.00     0.034 A 
ATOM     42  C   UNL A   1      39.763  31.565  34.404  1.00  0.00     0.034 A 
ATOM     43  C   UNL A   1      42.377  27.610  29.919  1.00  0.00     0.049 A 
ATOM     44  C   UNL A   1      40.970  30.666  34.397  1.00  0.00     0.074 A 
ATOM     45  C   UNL A   1      43.550  26.882  30.006  1.00  0.00     0.029 A 
ATOM     46  N   UNL A   1      42.234  28.285  31.122  1.00  0.00    -0.354 N 
ATOM     47  N   UNL A   1      41.449  29.938  33.419  1.00  0.00    -0.248 NA
ATOM     48  C   UNL A   1      41.754  30.594  35.638  1.00  0.00     0.031 C 
ATOM     49  C   UNL A   1      44.099  27.089  31.276  1.00  0.00     0.029 A 
ATOM     50  C   UNL A   1      43.289  27.979  31.963  1.00  0.00     0.049 A 
ATOM     51  H   UNL A   1      41.491  28.891  31.344  1.00  0.00     0.167 HD
ATOM     52  C   UNL A   1      42.611  29.355  33.911  1.00  0.00     0.074 A 
ATOM     53  C   UNL A   1      42.771  29.826  35.271  1.00  0.00     0.031 C 
ATOM     54  C   UNL A   1      43.464  28.500  33.294  1.00  0.00     0.034 A 
BRANCH  41  55
ATOM     55  C   UNL A   1      41.705  26.813  27.617  1.00  0.00     0.023 A 
ATOM     56  C   UNL A   1      42.320  27.371  26.477  1.00  0.00     0.012 A 
ATOM     57  C   UNL A   1      41.394  25.440  27.631  1.00  0.00     0.148 A 
ATOM     58  C   UNL A   1      42.587  26.585  25.357  1.00  0.00     0.002 A 
ATOM     59  C   UNL A   1      41.707  24.652  26.529  1.00  0.00     0.091 A 
ATOM     60  F   UNL A   1      40.792  24.931  28.716  1.00  0.00    -0.205 F 
ATOM     61  C   UNL A   1      42.291  25.225  25.387  1.00  0.00     0.022 A 
BRANCH  59  62
ATOM     62  S   UNL A   1      41.443  22.875  26.501  1.00  0.00     0.127 S 
ATOM     63  O   UNL A   1      39.993  22.795  26.336  1.00  0.00    -0.237 OA
ATOM     64  O   UNL A   1      42.214  22.471  25.324  1.00  0.00    -0.237 OA
ATOM     65  O   UNL A   1      41.956  22.371  27.767  1.00  0.00    -0.744 OA
ENDBRANCH  59  62
ENDBRANCH  41  55
BRANCH  42  66
ATOM     66  C   UNL A   1      39.388  32.335  35.624  1.00  0.00     0.023 A 
ATOM     67  C   UNL A   1      39.854  33.655  35.779  1.00  0.00     0.012 A 
ATOM     68  C   UNL A   1      38.555  31.781  36.615  1.00  0.00     0.148 A 
ATOM     69  C   UNL A   1      39.528  34.396  36.916  1.00  0.00     0.002 A 
ATOM     70  C   UNL A   1      38.186  32.544  37.716  1.00  0.00     0.091 A 
ATOM     71  F   UNL A   1      38.126  30.520  36.451  1.00  0.00    -0.205 F 
ATOM     72  C   UNL A   1      38.687  33.844  37.879  1.00  0.00     0.022 A 
BRANCH  70  73
ATOM     73  S   UNL A   1      37.002  31.966  38.937  1.00  0.00     0.127 S 
ATOM     74  O   UNL A   1      37.611  32.422  40.184  1.00  0.00    -0.237 OA
ATOM     75  O   UNL A   1      35.790  32.686  38.544  1.00  0.00    -0.237 OA
ATOM     76  O   UNL A   1      36.925  30.523  38.762  1.00  0.00    -0.744 OA
ENDBRANCH  70  73
ENDBRANCH  42  66
BRANCH  54  77
ATOM     77  C   UNL A   1      44.683  28.051  34.055  1.00  0.00     0.023 A 
ATOM     78  C   UNL A   1      45.853  28.835  34.042  1.00  0.00     0.012 A 
ATOM     79  C   UNL A   1      44.630  26.898  34.865  1.00  0.00     0.148 A 
ATOM     80  C   UNL A   1      46.961  28.464  34.806  1.00  0.00     0.002 A 
ATOM     81  C   UNL A   1      45.716  26.566  35.663  1.00  0.00     0.091 A 
ATOM     82  F   UNL A   1      43.512  26.159  34.849  1.00  0.00    -0.205 F 
ATOM     83  C   UNL A   1      46.887  27.341  35.625  1.00  0.00     0.022 A 
BRANCH  81  84
ATOM     84  S   UNL A   1      45.677  25.198  36.826  1.00  0.00     0.127 S 
ATOM     85  O   UNL A   1      44.410  25.431  37.518  1.00  0.00    -0.237 OA
ATOM     86  O   UNL A   1      45.681  24.037  35.935  1.00  0.00    -0.237 OA
ATOM     87  O   UNL A   1      46.868  25.333  37.652  1.00  0.00    -0.744 OA
ENDBRANCH  81  84
ENDBRANCH  54  77
ENDBRANCH  28  29
ENDBRANCH  20  23
ENDBRANCH   1  19
TORSDOF 15
ENDMDL
