MODEL 1
REMARK VINA RESULT:     -11.2      0.000      0.000
REMARK SMILES O=C(CCCNC(=O)N1CC[C@@H](C(=O)NCCCNC(=O)c2ccc(-c3c4nc(c(-c5cccc(S(=O)(=O)[O-])c5F)c5ccc([nH]5)c(-c5cccc(S(=O)(=O)[O-])c5F)c5nc(c(-c6cccc(S(=O)(=O)[O-])c6F)c6ccc3[nH]6)C=C5)C=C4)cc2)C1)NC1CC1
REMARK SMILES IDX 13 1 14 2 15 3 12 5 9 6 10 7 85 8 11 9 7 10 6 11 8 13 5 14
REMARK SMILES IDX 4 15 3 16 2 17 1 18 86 19 87 21 88 22 89 23 16 24 17 25
REMARK SMILES IDX 18 26 19 27 20 28 21 30 22 31 23 32 84 33 24 34 83 35 25 36
REMARK SMILES IDX 26 37 27 38 77 39 28 40 82 41 76 42 78 43 29 44 81 45 75 46
REMARK SMILES IDX 74 47 30 49 62 50 42 51 61 52 43 53 46 54 60 55 79 56 44 57
REMARK SMILES IDX 45 58 59 60 80 61 47 62 31 63 32 64 40 65 33 66 35 67 41 68
REMARK SMILES IDX 34 69 36 70 37 71 38 72 39 73 63 74 64 75 72 76 65 77 67 78
REMARK SMILES IDX 73 79 66 80 68 81 69 82 70 83 71 84 48 85 49 86 57 87 50 88
REMARK SMILES IDX 52 89 58 90 51 91 53 92 54 93 55 94 56 95
REMARK H PARENT 15 4 6 12 86 20 19 29 78 48 46 59
REMARK Flexibility Score: inf
ROOT
ATOM      1  C   UNL A   1      36.281  22.671  23.511  1.00  0.00     0.224 C 
ATOM      2  O   UNL A   1      36.674  23.224  22.473  1.00  0.00    -0.275 OA
ATOM      3  N   UNL A   1      37.044  21.644  23.945  1.00  0.00    -0.356 N 
ATOM      4  H   UNL A   1      37.861  21.514  23.413  1.00  0.00     0.163 HD
ENDROOT
BRANCH   1   5
ATOM      5  C   UNL A   1      35.091  23.276  24.242  1.00  0.00     0.100 C 
ATOM      6  N   UNL A   1      33.657  24.850  23.210  1.00  0.00    -0.324 N 
ATOM      7  C   UNL A   1      33.310  23.542  22.682  1.00  0.00     0.122 C 
ATOM      8  C   UNL A   1      34.768  24.757  24.144  1.00  0.00     0.134 C 
ATOM      9  C   UNL A   1      33.799  22.598  23.759  1.00  0.00     0.037 C 
BRANCH   6  10
ATOM     10  C   UNL A   1      33.275  26.038  22.670  1.00  0.00     0.317 C 
ATOM     11  N   UNL A   1      32.377  26.785  23.364  1.00  0.00    -0.338 N 
ATOM     12  H   UNL A   1      31.790  27.378  22.842  1.00  0.00     0.165 HD
ATOM     13  O   UNL A   1      33.725  26.477  21.617  1.00  0.00    -0.249 OA
BRANCH  11  14
ATOM     14  C   UNL A   1      32.205  26.788  24.807  1.00  0.00     0.118 C 
BRANCH  14  15
ATOM     15  C   UNL A   1      33.342  27.512  25.530  1.00  0.00     0.031 C 
BRANCH  15  16
ATOM     16  C   UNL A   1      33.373  29.029  25.354  1.00  0.00     0.102 C 
BRANCH  16  17
ATOM     17  C   UNL A   1      33.303  29.767  26.675  1.00  0.00     0.220 C 
ATOM     18  O   UNL A   1      32.374  29.596  27.460  1.00  0.00    -0.275 OA
ATOM     19  N   UNL A   1      34.348  30.646  26.877  1.00  0.00    -0.353 N 
ATOM     20  H   UNL A   1      35.052  30.691  26.191  1.00  0.00     0.163 HD
BRANCH  19  21
ATOM     21  C   UNL A   1      34.475  31.493  28.020  1.00  0.00     0.082 C 
ATOM     22  C   UNL A   1      35.674  32.400  28.135  1.00  0.00     0.027 C 
ATOM     23  C   UNL A   1      34.305  32.984  27.968  1.00  0.00     0.027 C 
ENDBRANCH  19  21
ENDBRANCH  16  17
ENDBRANCH  15  16
ENDBRANCH  14  15
ENDBRANCH  11  14
ENDBRANCH   6  10
ENDBRANCH   1   5
BRANCH   3  24
ATOM     24  C   UNL A   1      36.907  20.690  25.032  1.00  0.00     0.117 C 
BRANCH  24  25
ATOM     25  C   UNL A   1      38.065  19.697  25.069  1.00  0.00     0.042 C 
BRANCH  25  26
ATOM     26  C   UNL A   1      39.302  20.232  25.782  1.00  0.00     0.118 C 
BRANCH  26  27
ATOM     27  N   UNL A   1      40.313  19.204  25.978  1.00  0.00    -0.352 N 
ATOM     28  C   UNL A   1      41.669  19.325  26.158  1.00  0.00     0.251 C 
ATOM     29  H   UNL A   1      39.974  18.279  25.984  1.00  0.00     0.163 HD
ATOM     30  O   UNL A   1      42.379  18.325  26.078  1.00  0.00    -0.269 OA
BRANCH  28  31
ATOM     31  C   UNL A   1      42.276  20.644  26.439  1.00  0.00     0.039 A 
ATOM     32  C   UNL A   1      42.748  21.414  25.373  1.00  0.00     0.014 A 
ATOM     33  C   UNL A   1      42.411  21.110  27.751  1.00  0.00     0.014 A 
ATOM     34  C   UNL A   1      43.302  22.673  25.617  1.00  0.00     0.010 A 
ATOM     35  C   UNL A   1      42.891  22.396  27.985  1.00  0.00     0.010 A 
ATOM     36  C   UNL A   1      43.346  23.190  26.922  1.00  0.00    -0.014 A 
BRANCH  36  37
ATOM     37  C   UNL A   1      43.853  24.559  27.197  1.00  0.00     0.031 A 
ATOM     38  C   UNL A   1      42.919  25.630  27.694  1.00  0.00     0.074 A 
ATOM     39  C   UNL A   1      45.138  24.858  26.915  1.00  0.00     0.049 A 
ATOM     40  N   UNL A   1      43.158  26.898  27.908  1.00  0.00    -0.248 NA
ATOM     41  C   UNL A   1      41.527  25.230  27.964  1.00  0.00     0.031 C 
ATOM     42  C   UNL A   1      46.123  23.925  26.361  1.00  0.00     0.029 A 
ATOM     43  N   UNL A   1      45.829  26.040  27.026  1.00  0.00    -0.354 N 
ATOM     44  C   UNL A   1      41.948  27.451  28.311  1.00  0.00     0.074 A 
ATOM     45  C   UNL A   1      40.966  26.390  28.278  1.00  0.00     0.031 C 
ATOM     46  C   UNL A   1      47.286  24.569  26.177  1.00  0.00     0.029 A 
ATOM     47  C   UNL A   1      47.124  25.966  26.566  1.00  0.00     0.049 A 
ATOM     48  H   UNL A   1      45.435  26.861  27.398  1.00  0.00     0.167 HD
ATOM     49  C   UNL A   1      41.685  28.720  28.704  1.00  0.00     0.034 A 
ATOM     50  C   UNL A   1      48.070  26.920  26.455  1.00  0.00     0.034 A 
ATOM     51  C   UNL A   1      42.673  29.763  28.773  1.00  0.00     0.049 A 
ATOM     52  C   UNL A   1      47.750  28.317  26.917  1.00  0.00     0.074 A 
ATOM     53  C   UNL A   1      42.520  31.062  29.223  1.00  0.00     0.029 A 
ATOM     54  N   UNL A   1      43.995  29.628  28.383  1.00  0.00    -0.354 N 
ATOM     55  N   UNL A   1      46.640  28.783  27.435  1.00  0.00    -0.248 NA
ATOM     56  C   UNL A   1      48.827  29.314  26.813  1.00  0.00     0.031 C 
ATOM     57  C   UNL A   1      43.747  31.719  29.087  1.00  0.00     0.029 A 
ATOM     58  C   UNL A   1      44.669  30.821  28.576  1.00  0.00     0.049 A 
ATOM     59  H   UNL A   1      44.396  28.805  28.021  1.00  0.00     0.167 HD
ATOM     60  C   UNL A   1      46.895  30.112  27.751  1.00  0.00     0.074 A 
ATOM     61  C   UNL A   1      48.274  30.371  27.392  1.00  0.00     0.031 C 
ATOM     62  C   UNL A   1      46.058  31.043  28.272  1.00  0.00     0.034 A 
BRANCH  49  63
ATOM     63  C   UNL A   1      40.285  29.043  29.161  1.00  0.00     0.023 A 
ATOM     64  C   UNL A   1      39.311  29.387  28.201  1.00  0.00     0.012 A 
ATOM     65  C   UNL A   1      39.910  28.917  30.513  1.00  0.00     0.148 A 
ATOM     66  C   UNL A   1      37.991  29.624  28.581  1.00  0.00     0.002 A 
ATOM     67  C   UNL A   1      38.583  29.114  30.878  1.00  0.00     0.091 A 
ATOM     68  F   UNL A   1      40.854  28.604  31.411  1.00  0.00    -0.205 F 
ATOM     69  C   UNL A   1      37.626  29.477  29.915  1.00  0.00     0.022 A 
BRANCH  67  70
ATOM     70  S   UNL A   1      37.988  28.876  32.556  1.00  0.00     0.127 S 
ATOM     71  O   UNL A   1      38.931  29.691  33.322  1.00  0.00    -0.237 OA
ATOM     72  O   UNL A   1      36.632  29.421  32.480  1.00  0.00    -0.237 OA
ATOM     73  O   UNL A   1      38.058  27.444  32.812  1.00  0.00    -0.744 OA
ENDBRANCH  67  70
ENDBRANCH  49  63
BRANCH  50  74
ATOM     74  C   UNL A   1      49.421  26.586  25.923  1.00  0.00     0.023 A 
ATOM     75  C   UNL A   1      50.315  25.843  26.720  1.00  0.00     0.012 A 
ATOM     76  C   UNL A   1      49.831  27.003  24.642  1.00  0.00     0.148 A 
ATOM     77  C   UNL A   1      51.606  25.562  26.270  1.00  0.00     0.002 A 
ATOM     78  C   UNL A   1      51.099  26.669  24.177  1.00  0.00     0.091 A 
ATOM     79  F   UNL A   1      48.975  27.722  23.902  1.00  0.00    -0.205 F 
ATOM     80  C   UNL A   1      51.994  25.967  24.997  1.00  0.00     0.022 A 
BRANCH  78  81
ATOM     81  S   UNL A   1      51.628  27.040  22.501  1.00  0.00     0.127 S 
ATOM     82  O   UNL A   1      51.869  28.478  22.574  1.00  0.00    -0.237 OA
ATOM     83  O   UNL A   1      52.832  26.219  22.371  1.00  0.00    -0.237 OA
ATOM     84  O   UNL A   1      50.526  26.620  21.645  1.00  0.00    -0.744 OA
ENDBRANCH  78  81
ENDBRANCH  50  74
BRANCH  62  85
ATOM     85  C   UNL A   1      46.616  32.418  28.525  1.00  0.00     0.023 A 
ATOM     86  C   UNL A   1      47.108  32.750  29.803  1.00  0.00     0.012 A 
ATOM     87  C   UNL A   1      46.721  33.355  27.477  1.00  0.00     0.148 A 
ATOM     88  C   UNL A   1      47.667  34.006  30.042  1.00  0.00     0.002 A 
ATOM     89  C   UNL A   1      47.324  34.585  27.711  1.00  0.00     0.091 A 
ATOM     90  F   UNL A   1      46.232  33.025  26.273  1.00  0.00    -0.205 F 
ATOM     91  C   UNL A   1      47.785  34.917  28.995  1.00  0.00     0.022 A 
BRANCH  89  92
ATOM     92  S   UNL A   1      47.608  35.785  26.406  1.00  0.00     0.127 S 
ATOM     93  O   UNL A   1      48.414  35.013  25.462  1.00  0.00    -0.237 OA
ATOM     94  O   UNL A   1      46.248  36.076  25.951  1.00  0.00    -0.237 OA
ATOM     95  O   UNL A   1      48.290  36.909  27.034  1.00  0.00    -0.744 OA
ENDBRANCH  89  92
ENDBRANCH  62  85
ENDBRANCH  36  37
ENDBRANCH  28  31
ENDBRANCH  26  27
ENDBRANCH  25  26
ENDBRANCH  24  25
ENDBRANCH   3  24
TORSDOF 19
ENDMDL
MODEL 2
REMARK VINA RESULT:     -11.2      5.887     12.352
REMARK SMILES O=C(CCCNC(=O)N1CC[C@@H](C(=O)NCCCNC(=O)c2ccc(-c3c4nc(c(-c5cccc(S(=O)(=O)[O-])c5F)c5ccc([nH]5)c(-c5cccc(S(=O)(=O)[O-])c5F)c5nc(c(-c6cccc(S(=O)(=O)[O-])c6F)c6ccc3[nH]6)C=C5)C=C4)cc2)C1)NC1CC1
REMARK SMILES IDX 13 1 14 2 15 3 12 5 9 6 10 7 85 8 11 9 7 10 6 11 8 13 5 14
REMARK SMILES IDX 4 15 3 16 2 17 1 18 86 19 87 21 88 22 89 23 16 24 17 25
REMARK SMILES IDX 18 26 19 27 20 28 21 30 22 31 23 32 84 33 24 34 83 35 25 36
REMARK SMILES IDX 26 37 27 38 77 39 28 40 82 41 76 42 78 43 29 44 81 45 75 46
REMARK SMILES IDX 74 47 30 49 62 50 42 51 61 52 43 53 46 54 60 55 79 56 44 57
REMARK SMILES IDX 45 58 59 60 80 61 47 62 31 63 32 64 40 65 33 66 35 67 41 68
REMARK SMILES IDX 34 69 36 70 37 71 38 72 39 73 63 74 64 75 72 76 65 77 67 78
REMARK SMILES IDX 73 79 66 80 68 81 69 82 70 83 71 84 48 85 49 86 57 87 50 88
REMARK SMILES IDX 52 89 58 90 51 91 53 92 54 93 55 94 56 95
REMARK H PARENT 15 4 6 12 86 20 19 29 78 48 46 59
REMARK Flexibility Score: inf
ROOT
ATOM      1  C   UNL A   1      32.088  28.483  27.225  1.00  0.00     0.224 C 
ATOM      2  O   UNL A   1      31.104  28.234  27.936  1.00  0.00    -0.275 OA
ATOM      3  N   UNL A   1      32.844  29.529  27.626  1.00  0.00    -0.356 N 
ATOM      4  H   UNL A   1      32.550  29.916  28.481  1.00  0.00     0.163 HD
ENDROOT
BRANCH   1   5
ATOM      5  C   UNL A   1      32.412  27.527  26.085  1.00  0.00     0.100 C 
ATOM      6  N   UNL A   1      31.293  25.458  25.832  1.00  0.00    -0.324 N 
ATOM      7  C   UNL A   1      30.384  26.496  25.375  1.00  0.00     0.122 C 
ATOM      8  C   UNL A   1      32.539  26.031  26.314  1.00  0.00     0.134 C 
ATOM      9  C   UNL A   1      31.318  27.630  25.010  1.00  0.00     0.037 C 
BRANCH   6  10
ATOM     10  C   UNL A   1      30.937  24.178  26.120  1.00  0.00     0.317 C 
ATOM     11  N   UNL A   1      30.551  23.384  25.087  1.00  0.00    -0.338 N 
ATOM     12  H   UNL A   1      29.915  22.661  25.292  1.00  0.00     0.165 HD
ATOM     13  O   UNL A   1      30.981  23.703  27.250  1.00  0.00    -0.249 OA
BRANCH  11  14
ATOM     14  C   UNL A   1      30.994  23.504  23.708  1.00  0.00     0.118 C 
BRANCH  14  15
ATOM     15  C   UNL A   1      32.292  22.741  23.442  1.00  0.00     0.031 C 
BRANCH  15  16
ATOM     16  C   UNL A   1      32.129  21.259  23.112  1.00  0.00     0.102 C 
BRANCH  16  17
ATOM     17  C   UNL A   1      32.700  20.360  24.189  1.00  0.00     0.220 C 
ATOM     18  O   UNL A   1      33.021  20.797  25.291  1.00  0.00    -0.275 OA
ATOM     19  N   UNL A   1      32.844  19.045  23.797  1.00  0.00    -0.353 N 
ATOM     20  H   UNL A   1      32.536  18.796  22.895  1.00  0.00     0.163 HD
BRANCH  19  21
ATOM     21  C   UNL A   1      33.409  18.020  24.615  1.00  0.00     0.082 C 
ATOM     22  C   UNL A   1      32.496  17.157  25.451  1.00  0.00     0.027 C 
ATOM     23  C   UNL A   1      33.270  16.553  24.319  1.00  0.00     0.027 C 
ENDBRANCH  19  21
ENDBRANCH  16  17
ENDBRANCH  15  16
ENDBRANCH  14  15
ENDBRANCH  11  14
ENDBRANCH   6  10
ENDBRANCH   1   5
BRANCH   3  24
ATOM     24  C   UNL A   1      33.999  30.201  27.057  1.00  0.00     0.117 C 
BRANCH  24  25
ATOM     25  C   UNL A   1      33.929  31.713  27.244  1.00  0.00     0.042 C 
BRANCH  25  26
ATOM     26  C   UNL A   1      32.529  32.219  27.573  1.00  0.00     0.118 C 
BRANCH  26  27
ATOM     27  N   UNL A   1      32.478  33.671  27.677  1.00  0.00    -0.352 N 
ATOM     28  C   UNL A   1      33.178  34.520  28.496  1.00  0.00     0.251 C 
ATOM     29  H   UNL A   1      31.844  34.112  27.065  1.00  0.00     0.163 HD
ATOM     30  O   UNL A   1      32.825  35.694  28.590  1.00  0.00    -0.269 OA
BRANCH  28  31
ATOM     31  C   UNL A   1      34.343  34.033  29.266  1.00  0.00     0.039 A 
ATOM     32  C   UNL A   1      34.124  33.284  30.426  1.00  0.00     0.014 A 
ATOM     33  C   UNL A   1      35.648  34.339  28.869  1.00  0.00     0.014 A 
ATOM     34  C   UNL A   1      35.212  32.794  31.152  1.00  0.00     0.010 A 
ATOM     35  C   UNL A   1      36.730  33.785  29.549  1.00  0.00     0.010 A 
ATOM     36  C   UNL A   1      36.524  33.010  30.701  1.00  0.00    -0.014 A 
BRANCH  36  37
ATOM     37  C   UNL A   1      37.693  32.429  31.410  1.00  0.00     0.031 A 
ATOM     38  C   UNL A   1      38.444  31.269  30.812  1.00  0.00     0.074 A 
ATOM     39  C   UNL A   1      38.023  32.892  32.633  1.00  0.00     0.049 A 
ATOM     40  N   UNL A   1      39.432  30.577  31.320  1.00  0.00    -0.248 NA
ATOM     41  C   UNL A   1      38.016  30.810  29.480  1.00  0.00     0.031 C 
ATOM     42  C   UNL A   1      37.326  33.964  33.349  1.00  0.00     0.029 A 
ATOM     43  N   UNL A   1      39.009  32.500  33.505  1.00  0.00    -0.354 N 
ATOM     44  C   UNL A   1      39.725  29.590  30.386  1.00  0.00     0.074 A 
ATOM     45  C   UNL A   1      38.787  29.747  29.296  1.00  0.00     0.031 C 
ATOM     46  C   UNL A   1      37.901  34.140  34.549  1.00  0.00     0.029 A 
ATOM     47  C   UNL A   1      38.984  33.175  34.704  1.00  0.00     0.049 A 
ATOM     48  H   UNL A   1      39.669  31.802  33.292  1.00  0.00     0.167 HD
ATOM     49  C   UNL A   1      40.706  28.657  30.418  1.00  0.00     0.034 A 
ATOM     50  C   UNL A   1      39.740  33.022  35.810  1.00  0.00     0.034 A 
ATOM     51  C   UNL A   1      41.661  28.529  31.486  1.00  0.00     0.049 A 
ATOM     52  C   UNL A   1      40.833  31.987  35.807  1.00  0.00     0.074 A 
ATOM     53  C   UNL A   1      42.733  27.660  31.579  1.00  0.00     0.029 A 
ATOM     54  N   UNL A   1      41.660  29.289  32.644  1.00  0.00    -0.354 N 
ATOM     55  N   UNL A   1      41.188  31.163  34.852  1.00  0.00    -0.248 NA
ATOM     56  C   UNL A   1      41.656  31.886  37.022  1.00  0.00     0.031 C 
ATOM     57  C   UNL A   1      43.371  27.882  32.804  1.00  0.00     0.029 A 
ATOM     58  C   UNL A   1      42.709  28.906  33.462  1.00  0.00     0.049 A 
ATOM     59  H   UNL A   1      41.008  29.996  32.856  1.00  0.00     0.167 HD
ATOM     60  C   UNL A   1      42.293  30.472  35.335  1.00  0.00     0.074 A 
ATOM     61  C   UNL A   1      42.567  30.995  36.658  1.00  0.00     0.031 C 
ATOM     62  C   UNL A   1      43.005  29.480  34.747  1.00  0.00     0.034 A 
BRANCH  49  63
ATOM     63  C   UNL A   1      40.848  27.739  29.231  1.00  0.00     0.023 A 
ATOM     64  C   UNL A   1      40.048  26.580  29.159  1.00  0.00     0.012 A 
ATOM     65  C   UNL A   1      41.693  28.064  28.152  1.00  0.00     0.148 A 
ATOM     66  C   UNL A   1      40.103  25.746  28.044  1.00  0.00     0.002 A 
ATOM     67  C   UNL A   1      41.711  27.249  27.025  1.00  0.00     0.091 A 
ATOM     68  F   UNL A   1      42.456  29.162  28.246  1.00  0.00    -0.205 F 
ATOM     69  C   UNL A   1      40.925  26.086  26.974  1.00  0.00     0.022 A 
BRANCH  67  70
ATOM     70  S   UNL A   1      42.676  27.635  25.559  1.00  0.00     0.127 S 
ATOM     71  O   UNL A   1      44.025  27.749  26.115  1.00  0.00    -0.237 OA
ATOM     72  O   UNL A   1      42.457  26.450  24.729  1.00  0.00    -0.237 OA
ATOM     73  O   UNL A   1      42.122  28.870  25.023  1.00  0.00    -0.744 OA
ENDBRANCH  67  70
ENDBRANCH  49  63
BRANCH  50  74
ATOM     74  C   UNL A   1      39.521  33.894  37.000  1.00  0.00     0.023 A 
ATOM     75  C   UNL A   1      39.946  35.236  36.962  1.00  0.00     0.012 A 
ATOM     76  C   UNL A   1      38.905  33.403  38.167  1.00  0.00     0.148 A 
ATOM     77  C   UNL A   1      39.804  36.060  38.080  1.00  0.00     0.002 A 
ATOM     78  C   UNL A   1      38.714  34.246  39.257  1.00  0.00     0.091 A 
ATOM     79  F   UNL A   1      38.520  32.119  38.193  1.00  0.00    -0.205 F 
ATOM     80  C   UNL A   1      39.181  35.568  39.223  1.00  0.00     0.022 A 
BRANCH  78  81
ATOM     81  S   UNL A   1      37.804  33.727  40.716  1.00  0.00     0.127 S 
ATOM     82  O   UNL A   1      38.756  32.824  41.357  1.00  0.00    -0.237 OA
ATOM     83  O   UNL A   1      37.594  34.996  41.413  1.00  0.00    -0.237 OA
ATOM     84  O   UNL A   1      36.582  33.114  40.213  1.00  0.00    -0.744 OA
ENDBRANCH  78  81
ENDBRANCH  50  74
BRANCH  62  85
ATOM     85  C   UNL A   1      44.176  28.917  35.509  1.00  0.00     0.023 A 
ATOM     86  C   UNL A   1      45.452  29.497  35.360  1.00  0.00     0.012 A 
ATOM     87  C   UNL A   1      43.996  27.863  36.427  1.00  0.00     0.148 A 
ATOM     88  C   UNL A   1      46.538  29.014  36.090  1.00  0.00     0.002 A 
ATOM     89  C   UNL A   1      45.073  27.421  37.186  1.00  0.00     0.091 A 
ATOM     90  F   UNL A   1      42.779  27.315  36.541  1.00  0.00    -0.205 F 
ATOM     91  C   UNL A   1      46.346  27.987  37.010  1.00  0.00     0.022 A 
BRANCH  89  92
ATOM     92  S   UNL A   1      44.904  26.170  38.464  1.00  0.00     0.127 S 
ATOM     93  O   UNL A   1      44.578  24.983  37.676  1.00  0.00    -0.237 OA
ATOM     94  O   UNL A   1      46.239  26.158  39.063  1.00  0.00    -0.237 OA
ATOM     95  O   UNL A   1      43.848  26.639  39.350  1.00  0.00    -0.744 OA
ENDBRANCH  89  92
ENDBRANCH  62  85
ENDBRANCH  36  37
ENDBRANCH  28  31
ENDBRANCH  26  27
ENDBRANCH  25  26
ENDBRANCH  24  25
ENDBRANCH   3  24
TORSDOF 19
ENDMDL
MODEL 3
REMARK VINA RESULT:     -11.1      2.738      3.863
REMARK SMILES O=C(CCCNC(=O)N1CC[C@@H](C(=O)NCCCNC(=O)c2ccc(-c3c4nc(c(-c5cccc(S(=O)(=O)[O-])c5F)c5ccc([nH]5)c(-c5cccc(S(=O)(=O)[O-])c5F)c5nc(c(-c6cccc(S(=O)(=O)[O-])c6F)c6ccc3[nH]6)C=C5)C=C4)cc2)C1)NC1CC1
REMARK SMILES IDX 13 1 14 2 15 3 12 5 9 6 10 7 85 8 11 9 7 10 6 11 8 13 5 14
REMARK SMILES IDX 4 15 3 16 2 17 1 18 86 19 87 21 88 22 89 23 16 24 17 25
REMARK SMILES IDX 18 26 19 27 20 28 21 30 22 31 23 32 84 33 24 34 83 35 25 36
REMARK SMILES IDX 26 37 27 38 77 39 28 40 82 41 76 42 78 43 29 44 81 45 75 46
REMARK SMILES IDX 74 47 30 49 62 50 42 51 61 52 43 53 46 54 60 55 79 56 44 57
REMARK SMILES IDX 45 58 59 60 80 61 47 62 31 63 32 64 40 65 33 66 35 67 41 68
REMARK SMILES IDX 34 69 36 70 37 71 38 72 39 73 63 74 64 75 72 76 65 77 67 78
REMARK SMILES IDX 73 79 66 80 68 81 69 82 70 83 71 84 48 85 49 86 57 87 50 88
REMARK SMILES IDX 52 89 58 90 51 91 53 92 54 93 55 94 56 95
REMARK H PARENT 15 4 6 12 86 20 19 29 78 48 46 59
REMARK Flexibility Score: inf
ROOT
ATOM      1  C   UNL A   1      31.517  23.001  26.714  1.00  0.00     0.224 C 
ATOM      2  O   UNL A   1      30.678  23.031  27.625  1.00  0.00    -0.275 OA
ATOM      3  N   UNL A   1      32.254  21.870  26.639  1.00  0.00    -0.356 N 
ATOM      4  H   UNL A   1      31.973  21.181  27.283  1.00  0.00     0.163 HD
ENDROOT
BRANCH   1   5
ATOM      5  C   UNL A   1      31.538  24.151  25.717  1.00  0.00     0.100 C 
ATOM      6  N   UNL A   1      32.231  26.328  26.333  1.00  0.00    -0.324 N 
ATOM      7  C   UNL A   1      33.430  25.519  26.191  1.00  0.00     0.122 C 
ATOM      8  C   UNL A   1      31.036  25.535  26.091  1.00  0.00     0.134 C 
ATOM      9  C   UNL A   1      32.985  24.408  25.266  1.00  0.00     0.037 C 
BRANCH   6  10
ATOM     10  C   UNL A   1      32.173  27.539  26.948  1.00  0.00     0.317 C 
ATOM     11  N   UNL A   1      32.982  28.524  26.478  1.00  0.00    -0.338 N 
ATOM     12  H   UNL A   1      33.271  29.210  27.122  1.00  0.00     0.165 HD
ATOM     13  O   UNL A   1      31.406  27.791  27.872  1.00  0.00    -0.249 OA
BRANCH  11  14
ATOM     14  C   UNL A   1      33.460  28.655  25.112  1.00  0.00     0.118 C 
BRANCH  14  15
ATOM     15  C   UNL A   1      32.414  29.272  24.183  1.00  0.00     0.031 C 
BRANCH  15  16
ATOM     16  C   UNL A   1      31.212  28.386  23.864  1.00  0.00     0.102 C 
BRANCH  16  17
ATOM     17  C   UNL A   1      30.193  29.085  22.988  1.00  0.00     0.220 C 
ATOM     18  O   UNL A   1      29.786  28.581  21.946  1.00  0.00    -0.275 OA
ATOM     19  N   UNL A   1      29.810  30.323  23.462  1.00  0.00    -0.353 N 
ATOM     20  H   UNL A   1      30.184  30.625  24.321  1.00  0.00     0.163 HD
BRANCH  19  21
ATOM     21  C   UNL A   1      28.903  31.196  22.786  1.00  0.00     0.082 C 
ATOM     22  C   UNL A   1      27.663  31.668  23.502  1.00  0.00     0.027 C 
ATOM     23  C   UNL A   1      28.735  32.647  23.136  1.00  0.00     0.027 C 
ENDBRANCH  19  21
ENDBRANCH  16  17
ENDBRANCH  15  16
ENDBRANCH  14  15
ENDBRANCH  11  14
ENDBRANCH   6  10
ENDBRANCH   1   5
BRANCH   3  24
ATOM     24  C   UNL A   1      33.373  21.461  25.809  1.00  0.00     0.117 C 
BRANCH  24  25
ATOM     25  C   UNL A   1      34.700  21.552  26.555  1.00  0.00     0.042 C 
BRANCH  25  26
ATOM     26  C   UNL A   1      35.874  21.932  25.660  1.00  0.00     0.118 C 
BRANCH  26  27
ATOM     27  N   UNL A   1      36.859  20.863  25.560  1.00  0.00    -0.352 N 
ATOM     28  C   UNL A   1      38.228  20.918  25.645  1.00  0.00     0.251 C 
ATOM     29  H   UNL A   1      36.487  19.964  25.409  1.00  0.00     0.163 HD
ATOM     30  O   UNL A   1      38.892  19.940  25.306  1.00  0.00    -0.269 OA
BRANCH  28  31
ATOM     31  C   UNL A   1      38.905  22.139  26.133  1.00  0.00     0.039 A 
ATOM     32  C   UNL A   1      40.004  22.010  26.985  1.00  0.00     0.014 A 
ATOM     33  C   UNL A   1      38.440  23.410  25.780  1.00  0.00     0.014 A 
ATOM     34  C   UNL A   1      40.672  23.151  27.436  1.00  0.00     0.010 A 
ATOM     35  C   UNL A   1      39.152  24.542  26.166  1.00  0.00     0.010 A 
ATOM     36  C   UNL A   1      40.273  24.426  27.002  1.00  0.00    -0.014 A 
BRANCH  36  37
ATOM     37  C   UNL A   1      41.018  25.649  27.400  1.00  0.00     0.031 A 
ATOM     38  C   UNL A   1      40.322  26.750  28.154  1.00  0.00     0.074 A 
ATOM     39  C   UNL A   1      42.299  25.801  27.006  1.00  0.00     0.049 A 
ATOM     40  N   UNL A   1      40.781  27.922  28.511  1.00  0.00    -0.248 NA
ATOM     41  C   UNL A   1      38.918  26.517  28.536  1.00  0.00     0.031 C 
ATOM     42  C   UNL A   1      43.061  24.835  26.210  1.00  0.00     0.029 A 
ATOM     43  N   UNL A   1      43.177  26.840  27.194  1.00  0.00    -0.354 N 
ATOM     44  C   UNL A   1      39.722  28.573  29.134  1.00  0.00     0.074 A 
ATOM     45  C   UNL A   1      38.584  27.681  29.075  1.00  0.00     0.031 C 
ATOM     46  C   UNL A   1      44.287  25.328  25.974  1.00  0.00     0.029 A 
ATOM     47  C   UNL A   1      44.390  26.655  26.571  1.00  0.00     0.049 A 
ATOM     48  H   UNL A   1      42.959  27.640  27.724  1.00  0.00     0.167 HD
ATOM     49  C   UNL A   1      39.706  29.788  29.730  1.00  0.00     0.034 A 
ATOM     50  C   UNL A   1      45.460  27.470  26.479  1.00  0.00     0.034 A 
ATOM     51  C   UNL A   1      40.849  30.655  29.821  1.00  0.00     0.049 A 
ATOM     52  C   UNL A   1      45.417  28.808  27.167  1.00  0.00     0.074 A 
ATOM     53  C   UNL A   1      40.952  31.877  30.463  1.00  0.00     0.029 A 
ATOM     54  N   UNL A   1      42.087  30.396  29.255  1.00  0.00    -0.354 N 
ATOM     55  N   UNL A   1      44.454  29.341  27.878  1.00  0.00    -0.248 NA
ATOM     56  C   UNL A   1      46.623  29.645  27.071  1.00  0.00     0.031 C 
ATOM     57  C   UNL A   1      42.249  32.365  30.269  1.00  0.00     0.029 A 
ATOM     58  C   UNL A   1      42.959  31.436  29.527  1.00  0.00     0.049 A 
ATOM     59  H   UNL A   1      42.313  29.591  28.735  1.00  0.00     0.167 HD
ATOM     60  C   UNL A   1      44.948  30.554  28.343  1.00  0.00     0.074 A 
ATOM     61  C   UNL A   1      46.307  30.665  27.855  1.00  0.00     0.031 C 
ATOM     62  C   UNL A   1      44.328  31.501  29.088  1.00  0.00     0.034 A 
BRANCH  49  63
ATOM     63  C   UNL A   1      38.430  30.232  30.397  1.00  0.00     0.023 A 
ATOM     64  C   UNL A   1      38.213  29.909  31.753  1.00  0.00     0.012 A 
ATOM     65  C   UNL A   1      37.495  31.041  29.722  1.00  0.00     0.148 A 
ATOM     66  C   UNL A   1      37.077  30.362  32.419  1.00  0.00     0.002 A 
ATOM     67  C   UNL A   1      36.385  31.525  30.406  1.00  0.00     0.091 A 
ATOM     68  F   UNL A   1      37.711  31.326  28.430  1.00  0.00    -0.205 F 
ATOM     69  C   UNL A   1      36.170  31.179  31.750  1.00  0.00     0.022 A 
BRANCH  67  70
ATOM     70  S   UNL A   1      35.194  32.646  29.661  1.00  0.00     0.127 S 
ATOM     71  O   UNL A   1      36.054  33.748  29.232  1.00  0.00    -0.237 OA
ATOM     72  O   UNL A   1      34.652  31.835  28.571  1.00  0.00    -0.237 OA
ATOM     73  O   UNL A   1      34.240  32.978  30.710  1.00  0.00    -0.744 OA
ENDBRANCH  67  70
ENDBRANCH  49  63
BRANCH  50  74
ATOM     74  C   UNL A   1      46.681  27.033  25.742  1.00  0.00     0.023 A 
ATOM     75  C   UNL A   1      47.581  26.143  26.359  1.00  0.00     0.012 A 
ATOM     76  C   UNL A   1      46.960  27.497  24.442  1.00  0.00     0.148 A 
ATOM     77  C   UNL A   1      48.758  25.759  25.715  1.00  0.00     0.002 A 
ATOM     78  C   UNL A   1      48.106  27.066  23.783  1.00  0.00     0.091 A 
ATOM     79  F   UNL A   1      46.102  28.357  23.874  1.00  0.00    -0.205 F 
ATOM     80  C   UNL A   1      49.016  26.213  24.426  1.00  0.00     0.022 A 
BRANCH  78  81
ATOM     81  S   UNL A   1      48.445  27.501  22.074  1.00  0.00     0.127 S 
ATOM     82  O   UNL A   1      49.654  28.310  22.204  1.00  0.00    -0.237 OA
ATOM     83  O   UNL A   1      48.646  26.189  21.458  1.00  0.00    -0.237 OA
ATOM     84  O   UNL A   1      47.255  28.201  21.610  1.00  0.00    -0.744 OA
ENDBRANCH  78  81
ENDBRANCH  50  74
BRANCH  62  85
ATOM     85  C   UNL A   1      45.121  32.726  29.459  1.00  0.00     0.023 A 
ATOM     86  C   UNL A   1      45.936  32.711  30.609  1.00  0.00     0.012 A 
ATOM     87  C   UNL A   1      45.117  33.864  28.627  1.00  0.00     0.148 A 
ATOM     88  C   UNL A   1      46.709  33.822  30.943  1.00  0.00     0.002 A 
ATOM     89  C   UNL A   1      45.928  34.948  28.941  1.00  0.00     0.091 A 
ATOM     90  F   UNL A   1      44.323  33.864  27.548  1.00  0.00    -0.205 F 
ATOM     91  C   UNL A   1      46.714  34.934  30.104  1.00  0.00     0.022 A 
BRANCH  89  92
ATOM     92  S   UNL A   1      46.075  36.384  27.872  1.00  0.00     0.127 S 
ATOM     93  O   UNL A   1      47.429  36.843  28.175  1.00  0.00    -0.237 OA
ATOM     94  O   UNL A   1      45.912  35.798  26.542  1.00  0.00    -0.237 OA
ATOM     95  O   UNL A   1      45.007  37.292  28.269  1.00  0.00    -0.744 OA
ENDBRANCH  89  92
ENDBRANCH  62  85
ENDBRANCH  36  37
ENDBRANCH  28  31
ENDBRANCH  26  27
ENDBRANCH  25  26
ENDBRANCH  24  25
ENDBRANCH   3  24
TORSDOF 19
ENDMDL
