MODEL 1
REMARK VINA RESULT:     -12.9      0.000      0.000
REMARK SMILES O=C(NCCCNC(=O)c1ccc(C[N@H+]2CC[N@H+]3CCCC[C@@H]3C2)c(F)c1)c1ccc(-c2c3nc(c(-c4cccc(S(=O)(=O)[O-])c4F)c4ccc([nH]4)c(-c4cccc(S(=O)(=O)[O-])c4F)c4nc(c(-c5cccc(S(=O)(=O)[O-])c5F)c5ccc2[nH]5)C=C4)C=C3)cc1
REMARK SMILES IDX 4 1 3 2 1 3 2 4 28 6 29 7 90 8 30 9 89 10 31 11 32 12 33 13
REMARK SMILES IDX 83 14 34 15 88 16 82 17 84 18 35 19 87 20 81 21 80 22 36 24
REMARK SMILES IDX 68 25 48 26 67 27 49 28 52 29 66 30 85 31 50 32 51 33 65 35
REMARK SMILES IDX 86 36 53 37 37 38 38 39 46 40 39 41 41 42 47 43 40 44 42 45
REMARK SMILES IDX 43 46 44 47 45 48 69 49 70 50 78 51 71 52 73 53 79 54 72 55
REMARK SMILES IDX 74 56 75 57 76 58 77 59 54 60 55 61 63 62 56 63 58 64 64 65
REMARK SMILES IDX 57 66 59 67 60 68 61 69 62 70 5 71 6 72 7 73 8 74 9 76 10 77
REMARK SMILES IDX 11 78 27 79 12 80 25 81 13 82 26 83 14 84 15 85 16 86 24 87
REMARK SMILES IDX 17 89 23 90 18 91 22 92 19 93 21 95 20 96
REMARK H PARENT 3 5 84 23 52 34 7 75 15 88 18 94
REMARK Flexibility Score: inf
ROOT
ATOM      1  C   UNL A   1      33.016  29.157  25.191  1.00  0.00     0.118 C 
ENDROOT
BRANCH   1   2
ATOM      2  N   UNL A   1      32.468  30.406  25.711  1.00  0.00    -0.352 N 
ATOM      3  O   UNL A   1      32.143  32.100  27.150  1.00  0.00    -0.269 OA
ATOM      4  C   UNL A   1      32.877  31.195  26.761  1.00  0.00     0.251 C 
ATOM      5  H   UNL A   1      31.676  30.737  25.230  1.00  0.00     0.163 HD
BRANCH   4   6
ATOM      6  C   UNL A   1      34.172  30.940  27.431  1.00  0.00     0.039 A 
ATOM      7  C   UNL A   1      34.510  29.657  27.854  1.00  0.00     0.014 A 
ATOM      8  C   UNL A   1      35.071  31.994  27.624  1.00  0.00     0.014 A 
ATOM      9  C   UNL A   1      35.636  29.462  28.639  1.00  0.00     0.010 A 
ATOM     10  C   UNL A   1      36.273  31.769  28.307  1.00  0.00     0.010 A 
ATOM     11  C   UNL A   1      36.547  30.510  28.858  1.00  0.00    -0.014 A 
BRANCH  11  12
ATOM     12  C   UNL A   1      37.804  30.207  29.591  1.00  0.00     0.031 A 
ATOM     13  C   UNL A   1      38.032  30.666  31.002  1.00  0.00     0.074 A 
ATOM     14  C   UNL A   1      38.728  29.445  28.972  1.00  0.00     0.049 A 
ATOM     15  N   UNL A   1      39.014  30.356  31.810  1.00  0.00    -0.248 NA
ATOM     16  C   UNL A   1      37.052  31.595  31.585  1.00  0.00     0.031 C 
ATOM     17  C   UNL A   1      38.639  28.994  27.580  1.00  0.00     0.029 A 
ATOM     18  N   UNL A   1      39.894  28.885  29.426  1.00  0.00    -0.354 N 
ATOM     19  C   UNL A   1      38.797  31.082  32.975  1.00  0.00     0.074 A 
ATOM     20  C   UNL A   1      37.591  31.854  32.770  1.00  0.00     0.031 C 
ATOM     21  C   UNL A   1      39.657  28.165  27.319  1.00  0.00     0.029 A 
ATOM     22  C   UNL A   1      40.509  28.075  28.500  1.00  0.00     0.049 A 
ATOM     23  H   UNL A   1      40.256  29.047  30.327  1.00  0.00     0.167 HD
ATOM     24  C   UNL A   1      39.528  31.087  34.116  1.00  0.00     0.034 A 
ATOM     25  C   UNL A   1      41.630  27.332  28.584  1.00  0.00     0.034 A 
ATOM     26  C   UNL A   1      40.697  30.274  34.326  1.00  0.00     0.049 A 
ATOM     27  C   UNL A   1      42.386  27.308  29.878  1.00  0.00     0.074 A 
ATOM     28  C   UNL A   1      41.457  30.151  35.477  1.00  0.00     0.029 A 
ATOM     29  N   UNL A   1      41.279  29.454  33.372  1.00  0.00    -0.354 N 
ATOM     30  N   UNL A   1      42.089  27.898  31.010  1.00  0.00    -0.248 NA
ATOM     31  C   UNL A   1      43.618  26.508  29.918  1.00  0.00     0.031 C 
ATOM     32  C   UNL A   1      42.510  29.272  35.212  1.00  0.00     0.029 A 
ATOM     33  C   UNL A   1      42.396  28.830  33.902  1.00  0.00     0.049 A 
ATOM     34  H   UNL A   1      40.946  29.332  32.454  1.00  0.00     0.167 HD
ATOM     35  C   UNL A   1      43.091  27.537  31.902  1.00  0.00     0.074 A 
ATOM     36  C   UNL A   1      43.988  26.652  31.185  1.00  0.00     0.031 C 
ATOM     37  C   UNL A   1      43.259  27.922  33.190  1.00  0.00     0.034 A 
BRANCH  24  38
ATOM     38  C   UNL A   1      39.067  31.963  35.251  1.00  0.00     0.023 A 
ATOM     39  C   UNL A   1      38.160  31.451  36.200  1.00  0.00     0.012 A 
ATOM     40  C   UNL A   1      39.606  33.252  35.436  1.00  0.00     0.148 A 
ATOM     41  C   UNL A   1      37.779  32.214  37.303  1.00  0.00     0.002 A 
ATOM     42  C   UNL A   1      39.251  33.993  36.559  1.00  0.00     0.091 A 
ATOM     43  F   UNL A   1      40.448  33.733  34.511  1.00  0.00    -0.205 F 
ATOM     44  C   UNL A   1      38.333  33.478  37.489  1.00  0.00     0.022 A 
BRANCH  42  45
ATOM     45  S   UNL A   1      39.977  35.595  36.923  1.00  0.00     0.127 S 
ATOM     46  O   UNL A   1      39.315  35.940  38.180  1.00  0.00    -0.237 OA
ATOM     47  O   UNL A   1      41.399  35.273  37.053  1.00  0.00    -0.237 OA
ATOM     48  O   UNL A   1      39.653  36.447  35.787  1.00  0.00    -0.744 OA
ENDBRANCH  42  45
ENDBRANCH  24  38
BRANCH  25  49
ATOM     49  C   UNL A   1      42.031  26.502  27.413  1.00  0.00     0.023 A 
ATOM     50  C   UNL A   1      42.921  27.032  26.462  1.00  0.00     0.012 A 
ATOM     51  C   UNL A   1      41.645  25.149  27.318  1.00  0.00     0.148 A 
ATOM     52  C   UNL A   1      43.427  26.228  25.439  1.00  0.00     0.002 A 
ATOM     53  C   UNL A   1      42.204  24.338  26.338  1.00  0.00     0.091 A 
ATOM     54  F   UNL A   1      40.783  24.671  28.227  1.00  0.00    -0.205 F 
ATOM     55  C   UNL A   1      43.085  24.879  25.389  1.00  0.00     0.022 A 
BRANCH  53  56
ATOM     56  S   UNL A   1      41.962  22.558  26.313  1.00  0.00     0.127 S 
ATOM     57  O   UNL A   1      42.689  22.174  25.106  1.00  0.00    -0.237 OA
ATOM     58  O   UNL A   1      42.592  22.151  27.570  1.00  0.00    -0.237 OA
ATOM     59  O   UNL A   1      40.520  22.356  26.273  1.00  0.00    -0.744 OA
ENDBRANCH  53  56
ENDBRANCH  25  49
BRANCH  37  60
ATOM     60  C   UNL A   1      44.461  27.401  33.929  1.00  0.00     0.023 A 
ATOM     61  C   UNL A   1      45.638  28.174  33.962  1.00  0.00     0.012 A 
ATOM     62  C   UNL A   1      44.383  26.218  34.691  1.00  0.00     0.148 A 
ATOM     63  C   UNL A   1      46.725  27.773  34.738  1.00  0.00     0.002 A 
ATOM     64  C   UNL A   1      45.454  25.849  35.495  1.00  0.00     0.091 A 
ATOM     65  F   UNL A   1      43.258  25.492  34.629  1.00  0.00    -0.205 F 
ATOM     66  C   UNL A   1      46.627  26.620  35.514  1.00  0.00     0.022 A 
BRANCH  64  67
ATOM     67  S   UNL A   1      45.387  24.435  36.602  1.00  0.00     0.127 S 
ATOM     68  O   UNL A   1      46.737  24.432  37.163  1.00  0.00    -0.237 OA
ATOM     69  O   UNL A   1      44.336  24.826  37.541  1.00  0.00    -0.237 OA
ATOM     70  O   UNL A   1      45.058  23.286  35.768  1.00  0.00    -0.744 OA
ENDBRANCH  64  67
ENDBRANCH  37  60
ENDBRANCH  11  12
ENDBRANCH   4   6
ENDBRANCH   1   2
BRANCH   1  71
ATOM     71  C   UNL A   1      33.702  29.333  23.845  1.00  0.00     0.042 C 
BRANCH  71  72
ATOM     72  C   UNL A   1      33.200  28.366  22.785  1.00  0.00     0.118 C 
BRANCH  72  73
ATOM     73  N   UNL A   1      31.830  28.655  22.378  1.00  0.00    -0.352 N 
ATOM     74  C   UNL A   1      30.685  27.934  22.605  1.00  0.00     0.251 C 
ATOM     75  H   UNL A   1      31.708  29.487  21.866  1.00  0.00     0.163 HD
ATOM     76  O   UNL A   1      29.637  28.217  22.032  1.00  0.00    -0.269 OA
BRANCH  74  77
ATOM     77  C   UNL A   1      30.724  26.794  23.536  1.00  0.00     0.042 A 
ATOM     78  C   UNL A   1      30.455  26.982  24.895  1.00  0.00     0.014 A 
ATOM     79  C   UNL A   1      31.041  25.530  23.043  1.00  0.00     0.053 A 
ATOM     80  C   UNL A   1      30.628  25.927  25.787  1.00  0.00     0.013 A 
ATOM     81  C   UNL A   1      31.182  24.479  23.940  1.00  0.00     0.132 A 
ATOM     82  C   UNL A   1      31.028  24.666  25.320  1.00  0.00     0.042 A 
ATOM     83  F   UNL A   1      31.504  23.268  23.462  1.00  0.00    -0.206 F 
BRANCH  82  84
ATOM     84  C   UNL A   1      31.269  23.538  26.286  1.00  0.00     0.302 C 
BRANCH  84  85
ATOM     85  N   UNL A   1      32.597  23.428  26.884  1.00  0.00    -0.322 N 
ATOM     86  C   UNL A   1      32.928  22.134  27.493  1.00  0.00     0.324 C 
ATOM     87  C   UNL A   1      33.726  23.992  26.135  1.00  0.00     0.328 C 
ATOM     88  H   UNL A   1      32.467  24.076  27.661  1.00  0.00     0.348 HD
ATOM     89  C   UNL A   1      33.747  21.158  26.618  1.00  0.00     0.324 C 
ATOM     90  C   UNL A   1      34.550  22.994  25.268  1.00  0.00     0.239 C 
ATOM     91  N   UNL A   1      34.940  21.793  26.034  1.00  0.00    -0.323 N 
ATOM     92  C   UNL A   1      35.809  23.698  24.728  1.00  0.00     0.071 C 
ATOM     93  C   UNL A   1      35.691  20.838  25.209  1.00  0.00     0.262 C 
ATOM     94  H   UNL A   1      35.561  22.088  26.787  1.00  0.00     0.348 HD
ATOM     95  C   UNL A   1      36.670  22.754  23.895  1.00  0.00     0.012 C 
ATOM     96  C   UNL A   1      36.970  21.474  24.665  1.00  0.00     0.062 C 
ENDBRANCH  84  85
ENDBRANCH  82  84
ENDBRANCH  74  77
ENDBRANCH  72  73
ENDBRANCH  71  72
ENDBRANCH   1  71
TORSDOF 15
ENDMDL
MODEL 2
REMARK VINA RESULT:     -12.7      4.978     10.106
REMARK SMILES O=C(NCCCNC(=O)c1ccc(C[N@H+]2CC[N@H+]3CCCC[C@@H]3C2)c(F)c1)c1ccc(-c2c3nc(c(-c4cccc(S(=O)(=O)[O-])c4F)c4ccc([nH]4)c(-c4cccc(S(=O)(=O)[O-])c4F)c4nc(c(-c5cccc(S(=O)(=O)[O-])c5F)c5ccc2[nH]5)C=C4)C=C3)cc1
REMARK SMILES IDX 4 1 3 2 1 3 2 4 28 6 29 7 90 8 30 9 89 10 31 11 32 12 33 13
REMARK SMILES IDX 83 14 34 15 88 16 82 17 84 18 35 19 87 20 81 21 80 22 36 24
REMARK SMILES IDX 68 25 48 26 67 27 49 28 52 29 66 30 85 31 50 32 51 33 65 35
REMARK SMILES IDX 86 36 53 37 37 38 38 39 46 40 39 41 41 42 47 43 40 44 42 45
REMARK SMILES IDX 43 46 44 47 45 48 69 49 70 50 78 51 71 52 73 53 79 54 72 55
REMARK SMILES IDX 74 56 75 57 76 58 77 59 54 60 55 61 63 62 56 63 58 64 64 65
REMARK SMILES IDX 57 66 59 67 60 68 61 69 62 70 5 71 6 72 7 73 8 74 9 76 10 77
REMARK SMILES IDX 11 78 27 79 12 80 25 81 13 82 26 83 14 84 15 85 16 86 24 87
REMARK SMILES IDX 17 89 23 90 18 91 22 92 19 93 21 95 20 96
REMARK H PARENT 3 5 84 23 52 34 7 75 15 88 18 94
REMARK Flexibility Score: inf
ROOT
ATOM      1  C   UNL A   1      37.156  22.257  24.986  1.00  0.00     0.118 C 
ENDROOT
BRANCH   1   2
ATOM      2  N   UNL A   1      37.972  21.140  25.451  1.00  0.00    -0.352 N 
ATOM      3  O   UNL A   1      39.791  20.061  26.207  1.00  0.00    -0.269 OA
ATOM      4  C   UNL A   1      39.190  21.125  26.090  1.00  0.00     0.251 C 
ATOM      5  H   UNL A   1      37.586  20.251  25.280  1.00  0.00     0.163 HD
BRANCH   4   6
ATOM      6  C   UNL A   1      39.782  22.380  26.605  1.00  0.00     0.039 A 
ATOM      7  C   UNL A   1      39.350  23.615  26.126  1.00  0.00     0.014 A 
ATOM      8  C   UNL A   1      40.770  22.325  27.593  1.00  0.00     0.014 A 
ATOM      9  C   UNL A   1      40.034  24.770  26.478  1.00  0.00     0.010 A 
ATOM     10  C   UNL A   1      41.373  23.507  28.044  1.00  0.00     0.010 A 
ATOM     11  C   UNL A   1      41.040  24.736  27.458  1.00  0.00    -0.014 A 
BRANCH  11  12
ATOM     12  C   UNL A   1      41.641  26.024  27.893  1.00  0.00     0.031 A 
ATOM     13  C   UNL A   1      43.028  26.431  27.488  1.00  0.00     0.074 A 
ATOM     14  C   UNL A   1      40.877  26.864  28.622  1.00  0.00     0.049 A 
ATOM     15  N   UNL A   1      43.627  27.580  27.673  1.00  0.00    -0.248 NA
ATOM     16  C   UNL A   1      43.861  25.430  26.802  1.00  0.00     0.031 C 
ATOM     17  C   UNL A   1      39.537  26.547  29.123  1.00  0.00     0.029 A 
ATOM     18  N   UNL A   1      41.089  28.153  29.037  1.00  0.00    -0.354 N 
ATOM     19  C   UNL A   1      44.912  27.430  27.169  1.00  0.00     0.074 A 
ATOM     20  C   UNL A   1      45.013  26.075  26.674  1.00  0.00     0.031 C 
ATOM     21  C   UNL A   1      39.016  27.634  29.705  1.00  0.00     0.029 A 
ATOM     22  C   UNL A   1      40.006  28.706  29.678  1.00  0.00     0.049 A 
ATOM     23  H   UNL A   1      41.935  28.636  28.890  1.00  0.00     0.167 HD
ATOM     24  C   UNL A   1      45.909  28.346  27.111  1.00  0.00     0.034 A 
ATOM     25  C   UNL A   1      39.816  29.940  30.187  1.00  0.00     0.034 A 
ATOM     26  C   UNL A   1      45.779  29.708  27.560  1.00  0.00     0.049 A 
ATOM     27  C   UNL A   1      40.914  30.952  30.053  1.00  0.00     0.074 A 
ATOM     28  C   UNL A   1      46.706  30.731  27.468  1.00  0.00     0.029 A 
ATOM     29  N   UNL A   1      44.661  30.235  28.188  1.00  0.00    -0.354 N 
ATOM     30  N   UNL A   1      42.073  30.829  29.455  1.00  0.00    -0.248 NA
ATOM     31  C   UNL A   1      40.676  32.276  30.646  1.00  0.00     0.031 C 
ATOM     32  C   UNL A   1      46.157  31.872  28.059  1.00  0.00     0.029 A 
ATOM     33  C   UNL A   1      44.879  31.566  28.502  1.00  0.00     0.049 A 
ATOM     34  H   UNL A   1      43.834  29.737  28.382  1.00  0.00     0.167 HD
ATOM     35  C   UNL A   1      42.704  32.059  29.590  1.00  0.00     0.074 A 
ATOM     36  C   UNL A   1      41.785  32.923  30.302  1.00  0.00     0.031 C 
ATOM     37  C   UNL A   1      43.941  32.427  29.177  1.00  0.00     0.034 A 
BRANCH  24  38
ATOM     38  C   UNL A   1      47.221  27.930  26.498  1.00  0.00     0.023 A 
ATOM     39  C   UNL A   1      48.253  27.448  27.328  1.00  0.00     0.012 A 
ATOM     40  C   UNL A   1      47.398  27.922  25.100  1.00  0.00     0.148 A 
ATOM     41  C   UNL A   1      49.448  26.984  26.779  1.00  0.00     0.002 A 
ATOM     42  C   UNL A   1      48.577  27.422  24.557  1.00  0.00     0.091 A 
ATOM     43  F   UNL A   1      46.416  28.408  24.328  1.00  0.00    -0.205 F 
ATOM     44  C   UNL A   1      49.605  26.959  25.395  1.00  0.00     0.022 A 
BRANCH  42  45
ATOM     45  S   UNL A   1      48.834  27.276  22.785  1.00  0.00     0.127 S 
ATOM     46  O   UNL A   1      50.291  27.358  22.691  1.00  0.00    -0.237 OA
ATOM     47  O   UNL A   1      48.278  25.953  22.497  1.00  0.00    -0.237 OA
ATOM     48  O   UNL A   1      48.101  28.382  22.184  1.00  0.00    -0.744 OA
ENDBRANCH  42  45
ENDBRANCH  24  38
BRANCH  25  49
ATOM     49  C   UNL A   1      38.495  30.273  30.790  1.00  0.00     0.023 A 
ATOM     50  C   UNL A   1      38.266  29.993  32.150  1.00  0.00     0.012 A 
ATOM     51  C   UNL A   1      37.526  30.990  30.061  1.00  0.00     0.148 A 
ATOM     52  C   UNL A   1      37.097  30.427  32.776  1.00  0.00     0.002 A 
ATOM     53  C   UNL A   1      36.396  31.477  30.707  1.00  0.00     0.091 A 
ATOM     54  F   UNL A   1      37.759  31.231  28.763  1.00  0.00    -0.205 F 
ATOM     55  C   UNL A   1      36.173  31.185  32.061  1.00  0.00     0.022 A 
BRANCH  53  56
ATOM     56  S   UNL A   1      35.250  32.611  29.912  1.00  0.00     0.127 S 
ATOM     57  O   UNL A   1      34.306  32.887  30.991  1.00  0.00    -0.237 OA
ATOM     58  O   UNL A   1      36.128  33.727  29.559  1.00  0.00    -0.237 OA
ATOM     59  O   UNL A   1      34.710  31.888  28.768  1.00  0.00    -0.744 OA
ENDBRANCH  53  56
ENDBRANCH  25  49
BRANCH  37  60
ATOM     60  C   UNL A   1      44.396  33.827  29.482  1.00  0.00     0.023 A 
ATOM     61  C   UNL A   1      45.041  34.092  30.706  1.00  0.00     0.012 A 
ATOM     62  C   UNL A   1      44.303  34.844  28.511  1.00  0.00     0.148 A 
ATOM     63  C   UNL A   1      45.579  35.352  30.964  1.00  0.00     0.002 A 
ATOM     64  C   UNL A   1      44.880  36.084  28.758  1.00  0.00     0.091 A 
ATOM     65  F   UNL A   1      43.670  34.573  27.361  1.00  0.00    -0.205 F 
ATOM     66  C   UNL A   1      45.511  36.341  29.985  1.00  0.00     0.022 A 
BRANCH  64  67
ATOM     67  S   UNL A   1      44.928  37.389  27.524  1.00  0.00     0.127 S 
ATOM     68  O   UNL A   1      45.519  38.492  28.281  1.00  0.00    -0.237 OA
ATOM     69  O   UNL A   1      45.801  36.815  26.500  1.00  0.00    -0.237 OA
ATOM     70  O   UNL A   1      43.549  37.594  27.100  1.00  0.00    -0.744 OA
ENDBRANCH  64  67
ENDBRANCH  37  60
ENDBRANCH  11  12
ENDBRANCH   4   6
ENDBRANCH   1   2
BRANCH   1  71
ATOM     71  C   UNL A   1      35.713  21.856  24.717  1.00  0.00     0.042 C 
BRANCH  71  72
ATOM     72  C   UNL A   1      34.967  21.425  25.971  1.00  0.00     0.118 C 
BRANCH  72  73
ATOM     73  N   UNL A   1      34.155  20.235  25.748  1.00  0.00    -0.352 N 
ATOM     74  C   UNL A   1      32.850  20.138  25.332  1.00  0.00     0.251 C 
ATOM     75  H   UNL A   1      34.606  19.378  25.921  1.00  0.00     0.163 HD
ATOM     76  O   UNL A   1      32.253  19.067  25.377  1.00  0.00    -0.269 OA
BRANCH  74  77
ATOM     77  C   UNL A   1      32.158  21.342  24.845  1.00  0.00     0.042 A 
ATOM     78  C   UNL A   1      32.202  21.683  23.490  1.00  0.00     0.014 A 
ATOM     79  C   UNL A   1      31.466  22.138  25.755  1.00  0.00     0.053 A 
ATOM     80  C   UNL A   1      31.661  22.893  23.063  1.00  0.00     0.013 A 
ATOM     81  C   UNL A   1      30.906  23.329  25.310  1.00  0.00     0.132 A 
ATOM     82  C   UNL A   1      31.033  23.749  23.980  1.00  0.00     0.042 A 
ATOM     83  F   UNL A   1      30.257  24.100  26.194  1.00  0.00    -0.206 F 
BRANCH  82  84
ATOM     84  C   UNL A   1      30.496  25.081  23.533  1.00  0.00     0.302 C 
BRANCH  84  85
ATOM     85  N   UNL A   1      31.461  26.130  23.214  1.00  0.00    -0.322 N 
ATOM     86  C   UNL A   1      30.902  27.400  22.736  1.00  0.00     0.324 C 
ATOM     87  C   UNL A   1      32.575  26.332  24.147  1.00  0.00     0.328 C 
ATOM     88  H   UNL A   1      31.895  25.693  22.401  1.00  0.00     0.348 HD
ATOM     89  C   UNL A   1      30.737  28.514  23.795  1.00  0.00     0.324 C 
ATOM     90  C   UNL A   1      32.400  27.466  25.200  1.00  0.00     0.239 C 
ATOM     91  N   UNL A   1      31.965  28.733  24.576  1.00  0.00    -0.323 N 
ATOM     92  C   UNL A   1      33.728  27.685  25.948  1.00  0.00     0.071 C 
ATOM     93  C   UNL A   1      31.772  29.795  25.571  1.00  0.00     0.262 C 
ATOM     94  H   UNL A   1      32.706  29.044  23.949  1.00  0.00     0.348 HD
ATOM     95  C   UNL A   1      33.621  28.810  26.973  1.00  0.00     0.012 C 
ATOM     96  C   UNL A   1      33.067  30.076  26.330  1.00  0.00     0.062 C 
ENDBRANCH  84  85
ENDBRANCH  82  84
ENDBRANCH  74  77
ENDBRANCH  72  73
ENDBRANCH  71  72
ENDBRANCH   1  71
TORSDOF 15
ENDMDL
MODEL 3
REMARK VINA RESULT:     -12.6      1.465      1.722
REMARK SMILES O=C(NCCCNC(=O)c1ccc(C[N@H+]2CC[N@H+]3CCCC[C@@H]3C2)c(F)c1)c1ccc(-c2c3nc(c(-c4cccc(S(=O)(=O)[O-])c4F)c4ccc([nH]4)c(-c4cccc(S(=O)(=O)[O-])c4F)c4nc(c(-c5cccc(S(=O)(=O)[O-])c5F)c5ccc2[nH]5)C=C4)C=C3)cc1
REMARK SMILES IDX 4 1 3 2 1 3 2 4 28 6 29 7 90 8 30 9 89 10 31 11 32 12 33 13
REMARK SMILES IDX 83 14 34 15 88 16 82 17 84 18 35 19 87 20 81 21 80 22 36 24
REMARK SMILES IDX 68 25 48 26 67 27 49 28 52 29 66 30 85 31 50 32 51 33 65 35
REMARK SMILES IDX 86 36 53 37 37 38 38 39 46 40 39 41 41 42 47 43 40 44 42 45
REMARK SMILES IDX 43 46 44 47 45 48 69 49 70 50 78 51 71 52 73 53 79 54 72 55
REMARK SMILES IDX 74 56 75 57 76 58 77 59 54 60 55 61 63 62 56 63 58 64 64 65
REMARK SMILES IDX 57 66 59 67 60 68 61 69 62 70 5 71 6 72 7 73 8 74 9 76 10 77
REMARK SMILES IDX 11 78 27 79 12 80 25 81 13 82 26 83 14 84 15 85 16 86 24 87
REMARK SMILES IDX 17 89 23 90 18 91 22 92 19 93 21 95 20 96
REMARK H PARENT 3 5 84 23 52 34 7 75 15 88 18 94
REMARK Flexibility Score: inf
ROOT
ATOM      1  C   UNL A   1      32.847  29.163  25.321  1.00  0.00     0.118 C 
ENDROOT
BRANCH   1   2
ATOM      2  N   UNL A   1      32.325  30.439  25.800  1.00  0.00    -0.352 N 
ATOM      3  O   UNL A   1      32.043  32.191  27.178  1.00  0.00    -0.269 OA
ATOM      4  C   UNL A   1      32.757  31.260  26.815  1.00  0.00     0.251 C 
ATOM      5  H   UNL A   1      31.533  30.766  25.315  1.00  0.00     0.163 HD
BRANCH   4   6
ATOM      6  C   UNL A   1      34.056  31.009  27.480  1.00  0.00     0.039 A 
ATOM      7  C   UNL A   1      34.387  29.732  27.926  1.00  0.00     0.014 A 
ATOM      8  C   UNL A   1      34.964  32.060  27.647  1.00  0.00     0.014 A 
ATOM      9  C   UNL A   1      35.518  29.544  28.707  1.00  0.00     0.010 A 
ATOM     10  C   UNL A   1      36.169  31.840  28.325  1.00  0.00     0.010 A 
ATOM     11  C   UNL A   1      36.438  30.589  28.899  1.00  0.00    -0.014 A 
BRANCH  11  12
ATOM     12  C   UNL A   1      37.698  30.292  29.629  1.00  0.00     0.031 A 
ATOM     13  C   UNL A   1      37.920  30.734  31.046  1.00  0.00     0.074 A 
ATOM     14  C   UNL A   1      38.632  29.550  28.999  1.00  0.00     0.049 A 
ATOM     15  N   UNL A   1      38.905  30.425  31.850  1.00  0.00    -0.248 NA
ATOM     16  C   UNL A   1      36.928  31.643  31.641  1.00  0.00     0.031 C 
ATOM     17  C   UNL A   1      38.549  29.117  27.601  1.00  0.00     0.029 A 
ATOM     18  N   UNL A   1      39.804  28.998  29.446  1.00  0.00    -0.354 N 
ATOM     19  C   UNL A   1      38.678  31.131  33.025  1.00  0.00     0.074 A 
ATOM     20  C   UNL A   1      37.463  31.891  32.829  1.00  0.00     0.031 C 
ATOM     21  C   UNL A   1      39.577  28.305  27.330  1.00  0.00     0.029 A 
ATOM     22  C   UNL A   1      40.429  28.208  28.510  1.00  0.00     0.049 A 
ATOM     23  H   UNL A   1      40.164  29.152  30.350  1.00  0.00     0.167 HD
ATOM     24  C   UNL A   1      39.408  31.130  34.166  1.00  0.00     0.034 A 
ATOM     25  C   UNL A   1      41.560  27.477  28.584  1.00  0.00     0.034 A 
ATOM     26  C   UNL A   1      40.587  30.328  34.366  1.00  0.00     0.049 A 
ATOM     27  C   UNL A   1      42.315  27.445  29.878  1.00  0.00     0.074 A 
ATOM     28  C   UNL A   1      41.348  30.198  35.516  1.00  0.00     0.029 A 
ATOM     29  N   UNL A   1      41.180  29.528  33.401  1.00  0.00    -0.354 N 
ATOM     30  N   UNL A   1      42.011  28.016  31.018  1.00  0.00    -0.248 NA
ATOM     31  C   UNL A   1      43.557  26.659  29.908  1.00  0.00     0.031 C 
ATOM     32  C   UNL A   1      42.412  29.336  35.239  1.00  0.00     0.029 A 
ATOM     33  C   UNL A   1      42.304  28.911  33.923  1.00  0.00     0.049 A 
ATOM     34  H   UNL A   1      40.849  29.415  32.481  1.00  0.00     0.167 HD
ATOM     35  C   UNL A   1      43.016  27.654  31.906  1.00  0.00     0.074 A 
ATOM     36  C   UNL A   1      43.924  26.791  31.178  1.00  0.00     0.031 C 
ATOM     37  C   UNL A   1      43.178  28.023  33.199  1.00  0.00     0.034 A 
BRANCH  24  38
ATOM     38  C   UNL A   1      38.936  31.984  35.313  1.00  0.00     0.023 A 
ATOM     39  C   UNL A   1      39.029  33.387  35.218  1.00  0.00     0.012 A 
ATOM     40  C   UNL A   1      38.312  31.408  36.438  1.00  0.00     0.148 A 
ATOM     41  C   UNL A   1      38.528  34.202  36.233  1.00  0.00     0.002 A 
ATOM     42  C   UNL A   1      37.780  32.228  37.427  1.00  0.00     0.091 A 
ATOM     43  F   UNL A   1      38.254  30.071  36.522  1.00  0.00    -0.205 F 
ATOM     44  C   UNL A   1      37.893  33.624  37.329  1.00  0.00     0.022 A 
BRANCH  42  45
ATOM     45  S   UNL A   1      36.873  31.574  38.833  1.00  0.00     0.127 S 
ATOM     46  O   UNL A   1      37.833  31.766  39.919  1.00  0.00    -0.237 OA
ATOM     47  O   UNL A   1      35.705  32.456  38.890  1.00  0.00    -0.237 OA
ATOM     48  O   UNL A   1      36.567  30.190  38.501  1.00  0.00    -0.744 OA
ENDBRANCH  42  45
ENDBRANCH  24  38
BRANCH  25  49
ATOM     49  C   UNL A   1      41.971  26.669  27.402  1.00  0.00     0.023 A 
ATOM     50  C   UNL A   1      42.809  27.243  26.429  1.00  0.00     0.012 A 
ATOM     51  C   UNL A   1      41.652  25.299  27.315  1.00  0.00     0.148 A 
ATOM     52  C   UNL A   1      43.328  26.466  25.392  1.00  0.00     0.002 A 
ATOM     53  C   UNL A   1      42.226  24.517  26.320  1.00  0.00     0.091 A 
ATOM     54  F   UNL A   1      40.839  24.777  28.246  1.00  0.00    -0.205 F 
ATOM     55  C   UNL A   1      43.053  25.101  25.350  1.00  0.00     0.022 A 
BRANCH  53  56
ATOM     56  S   UNL A   1      42.073  22.726  26.299  1.00  0.00     0.127 S 
ATOM     57  O   UNL A   1      42.653  22.392  25.001  1.00  0.00    -0.237 OA
ATOM     58  O   UNL A   1      42.883  22.342  27.456  1.00  0.00    -0.237 OA
ATOM     59  O   UNL A   1      40.650  22.450  26.446  1.00  0.00    -0.744 OA
ENDBRANCH  53  56
ENDBRANCH  25  49
BRANCH  37  60
ATOM     60  C   UNL A   1      44.386  27.507  33.932  1.00  0.00     0.023 A 
ATOM     61  C   UNL A   1      45.561  28.283  33.958  1.00  0.00     0.012 A 
ATOM     62  C   UNL A   1      44.316  26.325  34.696  1.00  0.00     0.148 A 
ATOM     63  C   UNL A   1      46.654  27.886  34.728  1.00  0.00     0.002 A 
ATOM     64  C   UNL A   1      45.394  25.959  35.494  1.00  0.00     0.091 A 
ATOM     65  F   UNL A   1      43.194  25.595  34.641  1.00  0.00    -0.205 F 
ATOM     66  C   UNL A   1      46.564  26.734  35.505  1.00  0.00     0.022 A 
BRANCH  64  67
ATOM     67  S   UNL A   1      45.337  24.546  36.602  1.00  0.00     0.127 S 
ATOM     68  O   UNL A   1      44.893  23.482  35.705  1.00  0.00    -0.237 OA
ATOM     69  O   UNL A   1      46.730  24.438  37.037  1.00  0.00    -0.237 OA
ATOM     70  O   UNL A   1      44.399  24.900  37.660  1.00  0.00    -0.744 OA
ENDBRANCH  64  67
ENDBRANCH  37  60
ENDBRANCH  11  12
ENDBRANCH   4   6
ENDBRANCH   1   2
BRANCH   1  71
ATOM     71  C   UNL A   1      33.880  29.330  24.217  1.00  0.00     0.042 C 
BRANCH  71  72
ATOM     72  C   UNL A   1      33.393  28.840  22.862  1.00  0.00     0.118 C 
BRANCH  72  73
ATOM     73  N   UNL A   1      32.030  29.271  22.576  1.00  0.00    -0.352 N 
ATOM     74  C   UNL A   1      30.900  28.516  22.387  1.00  0.00     0.251 C 
ATOM     75  H   UNL A   1      31.901  30.245  22.507  1.00  0.00     0.163 HD
ATOM     76  O   UNL A   1      29.865  29.023  21.966  1.00  0.00    -0.269 OA
BRANCH  74  77
ATOM     77  C   UNL A   1      30.942  27.073  22.678  1.00  0.00     0.042 A 
ATOM     78  C   UNL A   1      30.117  26.528  23.667  1.00  0.00     0.014 A 
ATOM     79  C   UNL A   1      31.818  26.264  21.959  1.00  0.00     0.053 A 
ATOM     80  C   UNL A   1      30.261  25.191  24.029  1.00  0.00     0.013 A 
ATOM     81  C   UNL A   1      31.931  24.924  22.310  1.00  0.00     0.132 A 
ATOM     82  C   UNL A   1      31.198  24.379  23.372  1.00  0.00     0.042 A 
ATOM     83  F   UNL A   1      32.788  24.154  21.625  1.00  0.00    -0.206 F 
BRANCH  82  84
ATOM     84  C   UNL A   1      31.395  22.949  23.796  1.00  0.00     0.302 C 
BRANCH  84  85
ATOM     85  N   UNL A   1      32.142  22.702  25.026  1.00  0.00    -0.322 N 
ATOM     86  C   UNL A   1      32.374  21.295  25.371  1.00  0.00     0.324 C 
ATOM     87  C   UNL A   1      33.322  23.536  25.281  1.00  0.00     0.328 C 
ATOM     88  H   UNL A   1      31.450  23.042  25.694  1.00  0.00     0.348 HD
ATOM     89  C   UNL A   1      33.747  20.710  24.967  1.00  0.00     0.324 C 
ATOM     90  C   UNL A   1      34.700  22.929  24.880  1.00  0.00     0.239 C 
ATOM     91  N   UNL A   1      34.869  21.558  25.403  1.00  0.00    -0.323 N 
ATOM     92  C   UNL A   1      35.833  23.829  25.407  1.00  0.00     0.071 C 
ATOM     93  C   UNL A   1      36.154  20.974  25.001  1.00  0.00     0.262 C 
ATOM     94  H   UNL A   1      34.870  21.608  26.421  1.00  0.00     0.348 HD
ATOM     95  C   UNL A   1      37.208  23.263  25.067  1.00  0.00     0.012 C 
ATOM     96  C   UNL A   1      37.322  21.812  25.519  1.00  0.00     0.062 C 
ENDBRANCH  84  85
ENDBRANCH  82  84
ENDBRANCH  74  77
ENDBRANCH  72  73
ENDBRANCH  71  72
ENDBRANCH   1  71
TORSDOF 15
ENDMDL
