MODEL 1
REMARK VINA RESULT:     -12.7      0.000      0.000
REMARK SMILES Cc1cc2c(c(C)c1Cl)C=C(C(=O)NCCCNC(=O)c1ccc(-c3c4nc(c(-c5cccc(S(=O)(=O)[O-])c5F)c5ccc([nH]5)c(-c5cccc(S(=O)(=O)[O-])c5F)c5nc(c(-c6cccc(S(=O)(=O)[O-])c6F)c6ccc3[nH]6)C=C5)C=C4)cc1)[C@@H](C(F)(F)F)O2
REMARK SMILES IDX 17 1 16 2 15 3 14 4 12 5 13 6 11 8 1 9 2 10 3 11 8 12 4 13
REMARK SMILES IDX 6 14 9 15 5 16 89 17 7 18 10 19 84 20 85 21 86 22 87 23
REMARK SMILES IDX 88 24 18 25 19 26 20 28 21 29 22 30 83 31 23 32 82 33 24 34
REMARK SMILES IDX 25 35 26 36 76 37 27 38 81 39 75 40 77 41 28 42 80 43 74 44
REMARK SMILES IDX 73 45 29 47 61 48 41 49 60 50 42 51 45 52 59 53 78 54 43 55
REMARK SMILES IDX 44 56 58 58 79 59 46 60 30 61 31 62 39 63 32 64 34 65 40 66
REMARK SMILES IDX 33 67 35 68 36 69 37 70 38 71 62 72 63 73 71 74 64 75 66 76
REMARK SMILES IDX 72 77 65 78 67 79 68 80 69 81 70 82 47 83 48 84 56 85 49 86
REMARK SMILES IDX 51 87 57 88 50 89 52 90 53 91 54 92 55 93
REMARK H PARENT 14 7 18 27 77 46 45 57
REMARK Flexibility Score: inf
ROOT
ATOM      1  C   UNL A   1      32.777  32.246  27.191  1.00  0.00     0.118 C 
ENDROOT
BRANCH   1   2
ATOM      2  C   UNL A   1      31.472  31.640  26.693  1.00  0.00     0.042 C 
BRANCH   2   3
ATOM      3  C   UNL A   1      31.704  30.457  25.766  1.00  0.00     0.118 C 
BRANCH   3   4
ATOM      4  N   UNL A   1      30.794  30.463  24.630  1.00  0.00    -0.352 N 
ATOM      5  C   UNL A   1      30.417  29.603  23.656  1.00  0.00     0.251 C 
ATOM      6  O   UNL A   1      29.555  30.031  22.881  1.00  0.00    -0.270 OA
ATOM      7  H   UNL A   1      30.326  31.326  24.548  1.00  0.00     0.163 HD
BRANCH   5   8
ATOM      8  C   UNL A   1      30.951  28.221  23.477  1.00  0.00     0.067 C 
ATOM      9  C   UNL A   1      32.314  21.866  23.445  1.00  0.00     0.046 C 
ATOM     10  C   UNL A   1      31.824  23.248  23.780  1.00  0.00    -0.028 A 
ATOM     11  C   UNL A   1      32.152  24.268  22.881  1.00  0.00     0.052 A 
ATOM     12  C   UNL A   1      31.012  23.558  24.889  1.00  0.00     0.047 A 
ATOM     13  C   UNL A   1      31.710  25.567  23.091  1.00  0.00     0.128 A 
ATOM     14  C   UNL A   1      30.556  24.883  25.116  1.00  0.00    -0.021 A 
ATOM     15  Cl  UNL A   1      30.556  22.278  25.974  1.00  0.00    -0.084 Cl
ATOM     16  C   UNL A   1      30.909  25.893  24.189  1.00  0.00     0.022 A 
ATOM     17  O   UNL A   1      32.074  26.463  22.129  1.00  0.00    -0.475 OA
ATOM     18  C   UNL A   1      29.694  25.239  26.305  1.00  0.00     0.047 C 
ATOM     19  C   UNL A   1      30.431  27.277  24.284  1.00  0.00     0.026 C 
ATOM     20  C   UNL A   1      32.020  27.863  22.491  1.00  0.00     0.314 C 
BRANCH  20  21
ATOM     21  C   UNL A   1      33.418  28.323  22.947  1.00  0.00     0.429 C 
ATOM     22  F   UNL A   1      34.360  27.961  22.041  1.00  0.00    -0.167 F 
ATOM     23  F   UNL A   1      33.511  29.670  23.076  1.00  0.00    -0.167 F 
ATOM     24  F   UNL A   1      33.779  27.796  24.139  1.00  0.00    -0.167 F 
ENDBRANCH  20  21
ENDBRANCH   5   8
ENDBRANCH   3   4
ENDBRANCH   2   3
ENDBRANCH   1   2
BRANCH   1  25
ATOM     25  N   UNL A   1      32.638  33.674  27.477  1.00  0.00    -0.352 N 
ATOM     26  C   UNL A   1      33.175  34.427  28.489  1.00  0.00     0.251 C 
ATOM     27  H   UNL A   1      32.070  34.170  26.844  1.00  0.00     0.163 HD
ATOM     28  O   UNL A   1      32.716  35.544  28.726  1.00  0.00    -0.269 OA
BRANCH  26  29
ATOM     29  C   UNL A   1      34.300  33.899  29.284  1.00  0.00     0.039 A 
ATOM     30  C   UNL A   1      34.043  33.044  30.359  1.00  0.00     0.014 A 
ATOM     31  C   UNL A   1      35.609  34.269  28.975  1.00  0.00     0.014 A 
ATOM     32  C   UNL A   1      35.112  32.511  31.081  1.00  0.00     0.010 A 
ATOM     33  C   UNL A   1      36.671  33.659  29.626  1.00  0.00     0.010 A 
ATOM     34  C   UNL A   1      36.435  32.789  30.699  1.00  0.00    -0.014 A 
BRANCH  34  35
ATOM     35  C   UNL A   1      37.592  32.206  31.418  1.00  0.00     0.031 A 
ATOM     36  C   UNL A   1      38.355  31.064  30.801  1.00  0.00     0.074 A 
ATOM     37  C   UNL A   1      37.905  32.654  32.651  1.00  0.00     0.049 A 
ATOM     38  N   UNL A   1      39.348  30.376  31.298  1.00  0.00    -0.248 NA
ATOM     39  C   UNL A   1      37.930  30.615  29.463  1.00  0.00     0.031 C 
ATOM     40  C   UNL A   1      37.192  33.709  33.374  1.00  0.00     0.029 A 
ATOM     41  N   UNL A   1      38.892  32.267  33.520  1.00  0.00    -0.354 N 
ATOM     42  C   UNL A   1      39.649  29.406  30.350  1.00  0.00     0.074 A 
ATOM     43  C   UNL A   1      38.701  29.555  29.270  1.00  0.00     0.031 C 
ATOM     44  C   UNL A   1      37.780  33.901  34.566  1.00  0.00     0.029 A 
ATOM     45  C   UNL A   1      38.887  32.962  34.708  1.00  0.00     0.049 A 
ATOM     46  H   UNL A   1      39.544  31.557  33.314  1.00  0.00     0.167 HD
ATOM     47  C   UNL A   1      40.655  28.501  30.356  1.00  0.00     0.034 A 
ATOM     48  C   UNL A   1      39.688  32.854  35.787  1.00  0.00     0.034 A 
ATOM     49  C   UNL A   1      41.627  28.397  31.408  1.00  0.00     0.049 A 
ATOM     50  C   UNL A   1      40.809  31.848  35.756  1.00  0.00     0.074 A 
ATOM     51  C   UNL A   1      42.722  27.556  31.481  1.00  0.00     0.029 A 
ATOM     52  N   UNL A   1      41.627  29.161  32.564  1.00  0.00    -0.354 N 
ATOM     53  N   UNL A   1      41.157  31.029  34.793  1.00  0.00    -0.248 NA
ATOM     54  C   UNL A   1      41.667  31.770  36.948  1.00  0.00     0.031 C 
ATOM     55  C   UNL A   1      43.376  27.799  32.690  1.00  0.00     0.029 A 
ATOM     56  C   UNL A   1      42.702  28.810  33.359  1.00  0.00     0.049 A 
ATOM     57  H   UNL A   1      40.961  29.850  32.786  1.00  0.00     0.167 HD
ATOM     58  C   UNL A   1      42.292  30.367  35.246  1.00  0.00     0.074 A 
ATOM     59  C   UNL A   1      42.588  30.897  36.561  1.00  0.00     0.031 C 
ATOM     60  C   UNL A   1      43.014  29.393  34.638  1.00  0.00     0.034 A 
BRANCH  47  61
ATOM     61  C   UNL A   1      40.814  27.608  29.155  1.00  0.00     0.023 A 
ATOM     62  C   UNL A   1      39.997  26.465  29.035  1.00  0.00     0.012 A 
ATOM     63  C   UNL A   1      41.684  27.949  28.101  1.00  0.00     0.148 A 
ATOM     64  C   UNL A   1      40.054  25.666  27.894  1.00  0.00     0.002 A 
ATOM     65  C   UNL A   1      41.701  27.175  26.946  1.00  0.00     0.091 A 
ATOM     66  F   UNL A   1      42.466  29.029  28.242  1.00  0.00    -0.205 F 
ATOM     67  C   UNL A   1      40.894  26.029  26.846  1.00  0.00     0.022 A 
BRANCH  65  68
ATOM     68  S   UNL A   1      42.680  27.599  25.502  1.00  0.00     0.127 S 
ATOM     69  O   UNL A   1      44.017  27.736  26.081  1.00  0.00    -0.237 OA
ATOM     70  O   UNL A   1      42.501  26.421  24.655  1.00  0.00    -0.237 OA
ATOM     71  O   UNL A   1      42.109  28.830  24.972  1.00  0.00    -0.744 OA
ENDBRANCH  65  68
ENDBRANCH  47  61
BRANCH  48  72
ATOM     72  C   UNL A   1      39.516  33.779  36.945  1.00  0.00     0.023 A 
ATOM     73  C   UNL A   1      39.931  35.120  36.818  1.00  0.00     0.012 A 
ATOM     74  C   UNL A   1      38.923  33.357  38.150  1.00  0.00     0.148 A 
ATOM     75  C   UNL A   1      39.789  36.014  37.881  1.00  0.00     0.002 A 
ATOM     76  C   UNL A   1      38.730  34.268  39.183  1.00  0.00     0.091 A 
ATOM     77  F   UNL A   1      38.545  32.076  38.258  1.00  0.00    -0.205 F 
ATOM     78  C   UNL A   1      39.180  35.591  39.058  1.00  0.00     0.022 A 
BRANCH  76  79
ATOM     79  S   UNL A   1      37.829  33.850  40.681  1.00  0.00     0.127 S 
ATOM     80  O   UNL A   1      36.639  33.196  40.143  1.00  0.00    -0.237 OA
ATOM     81  O   UNL A   1      38.770  32.956  41.359  1.00  0.00    -0.237 OA
ATOM     82  O   UNL A   1      37.604  35.114  41.369  1.00  0.00    -0.744 OA
ENDBRANCH  76  79
ENDBRANCH  48  72
BRANCH  60  83
ATOM     83  C   UNL A   1      44.213  28.843  35.364  1.00  0.00     0.023 A 
ATOM     84  C   UNL A   1      45.469  29.458  35.197  1.00  0.00     0.012 A 
ATOM     85  C   UNL A   1      44.069  27.804  36.306  1.00  0.00     0.148 A 
ATOM     86  C   UNL A   1      46.569  29.034  35.940  1.00  0.00     0.002 A 
ATOM     87  C   UNL A   1      45.156  27.424  37.083  1.00  0.00     0.091 A 
ATOM     88  F   UNL A   1      42.866  27.226  36.440  1.00  0.00    -0.205 F 
ATOM     89  C   UNL A   1      46.409  28.030  36.892  1.00  0.00     0.022 A 
BRANCH  87  90
ATOM     90  S   UNL A   1      45.022  26.222  38.411  1.00  0.00     0.127 S 
ATOM     91  O   UNL A   1      44.035  26.854  39.285  1.00  0.00    -0.237 OA
ATOM     92  O   UNL A   1      44.540  25.035  37.704  1.00  0.00    -0.237 OA
ATOM     93  O   UNL A   1      46.358  26.091  38.974  1.00  0.00    -0.744 OA
ENDBRANCH  87  90
ENDBRANCH  60  83
ENDBRANCH  34  35
ENDBRANCH  26  29
ENDBRANCH   1  25
TORSDOF 14
ENDMDL
MODEL 2
REMARK VINA RESULT:     -12.7      3.894      8.709
REMARK SMILES Cc1cc2c(c(C)c1Cl)C=C(C(=O)NCCCNC(=O)c1ccc(-c3c4nc(c(-c5cccc(S(=O)(=O)[O-])c5F)c5ccc([nH]5)c(-c5cccc(S(=O)(=O)[O-])c5F)c5nc(c(-c6cccc(S(=O)(=O)[O-])c6F)c6ccc3[nH]6)C=C5)C=C4)cc1)[C@@H](C(F)(F)F)O2
REMARK SMILES IDX 17 1 16 2 15 3 14 4 12 5 13 6 11 8 1 9 2 10 3 11 8 12 4 13
REMARK SMILES IDX 6 14 9 15 5 16 89 17 7 18 10 19 84 20 85 21 86 22 87 23
REMARK SMILES IDX 88 24 18 25 19 26 20 28 21 29 22 30 83 31 23 32 82 33 24 34
REMARK SMILES IDX 25 35 26 36 76 37 27 38 81 39 75 40 77 41 28 42 80 43 74 44
REMARK SMILES IDX 73 45 29 47 61 48 41 49 60 50 42 51 45 52 59 53 78 54 43 55
REMARK SMILES IDX 44 56 58 58 79 59 46 60 30 61 31 62 39 63 32 64 34 65 40 66
REMARK SMILES IDX 33 67 35 68 36 69 37 70 38 71 62 72 63 73 71 74 64 75 66 76
REMARK SMILES IDX 72 77 65 78 67 79 68 80 69 81 70 82 47 83 48 84 56 85 49 86
REMARK SMILES IDX 51 87 57 88 50 89 52 90 53 91 54 92 55 93
REMARK H PARENT 14 7 18 27 77 46 45 57
REMARK Flexibility Score: inf
ROOT
ATOM      1  C   UNL A   1      34.223  28.794  26.055  1.00  0.00     0.118 C 
ENDROOT
BRANCH   1   2
ATOM      2  C   UNL A   1      33.953  28.645  24.564  1.00  0.00     0.042 C 
BRANCH   2   3
ATOM      3  C   UNL A   1      32.557  28.113  24.282  1.00  0.00     0.118 C 
BRANCH   3   4
ATOM      4  N   UNL A   1      31.822  27.828  25.506  1.00  0.00    -0.352 N 
ATOM      5  C   UNL A   1      31.438  26.731  26.200  1.00  0.00     0.251 C 
ATOM      6  O   UNL A   1      30.828  26.960  27.250  1.00  0.00    -0.270 OA
ATOM      7  H   UNL A   1      31.524  28.655  25.948  1.00  0.00     0.163 HD
BRANCH   5   8
ATOM      8  C   UNL A   1      31.706  25.321  25.794  1.00  0.00     0.067 C 
ATOM      9  C   UNL A   1      33.972  19.341  24.630  1.00  0.00     0.046 C 
ATOM     10  C   UNL A   1      33.818  20.806  24.935  1.00  0.00    -0.028 A 
ATOM     11  C   UNL A   1      32.514  21.310  24.967  1.00  0.00     0.052 A 
ATOM     12  C   UNL A   1      34.886  21.669  25.251  1.00  0.00     0.047 A 
ATOM     13  C   UNL A   1      32.276  22.642  25.277  1.00  0.00     0.128 A 
ATOM     14  C   UNL A   1      34.656  23.034  25.567  1.00  0.00    -0.021 A 
ATOM     15  Cl  UNL A   1      36.502  21.027  25.269  1.00  0.00    -0.084 Cl
ATOM     16  C   UNL A   1      33.324  23.514  25.588  1.00  0.00     0.022 A 
ATOM     17  O   UNL A   1      30.961  23.003  25.301  1.00  0.00    -0.475 OA
ATOM     18  C   UNL A   1      35.788  23.979  25.898  1.00  0.00     0.047 C 
ATOM     19  C   UNL A   1      32.966  24.883  25.974  1.00  0.00     0.026 C 
ATOM     20  C   UNL A   1      30.673  24.417  25.193  1.00  0.00     0.314 C 
BRANCH  20  21
ATOM     21  C   UNL A   1      30.374  24.762  23.722  1.00  0.00     0.429 C 
ATOM     22  F   UNL A   1      31.499  25.174  23.088  1.00  0.00    -0.167 F 
ATOM     23  F   UNL A   1      29.906  23.702  23.019  1.00  0.00    -0.167 F 
ATOM     24  F   UNL A   1      29.454  25.746  23.594  1.00  0.00    -0.167 F 
ENDBRANCH  20  21
ENDBRANCH   5   8
ENDBRANCH   3   4
ENDBRANCH   2   3
ENDBRANCH   1   2
BRANCH   1  25
ATOM     25  N   UNL A   1      34.025  30.170  26.508  1.00  0.00    -0.352 N 
ATOM     26  C   UNL A   1      34.631  30.860  27.526  1.00  0.00     0.251 C 
ATOM     27  H   UNL A   1      33.351  30.680  26.003  1.00  0.00     0.163 HD
ATOM     28  O   UNL A   1      34.132  31.907  27.934  1.00  0.00    -0.269 OA
BRANCH  26  29
ATOM     29  C   UNL A   1      35.880  30.346  28.122  1.00  0.00     0.039 A 
ATOM     30  C   UNL A   1      35.827  29.625  29.317  1.00  0.00     0.014 A 
ATOM     31  C   UNL A   1      37.106  30.599  27.505  1.00  0.00     0.014 A 
ATOM     32  C   UNL A   1      37.004  29.103  29.855  1.00  0.00     0.010 A 
ATOM     33  C   UNL A   1      38.258  29.994  27.984  1.00  0.00     0.010 A 
ATOM     34  C   UNL A   1      38.224  29.256  29.174  1.00  0.00    -0.014 A 
BRANCH  34  35
ATOM     35  C   UNL A   1      39.485  28.679  29.697  1.00  0.00     0.031 A 
ATOM     36  C   UNL A   1      40.134  29.284  30.912  1.00  0.00     0.074 A 
ATOM     37  C   UNL A   1      40.078  27.664  29.035  1.00  0.00     0.049 A 
ATOM     38  N   UNL A   1      41.268  28.969  31.481  1.00  0.00    -0.248 NA
ATOM     39  C   UNL A   1      39.436  30.409  31.560  1.00  0.00     0.031 C 
ATOM     40  C   UNL A   1      39.573  27.045  27.808  1.00  0.00     0.029 A 
ATOM     41  N   UNL A   1      41.243  26.987  29.292  1.00  0.00    -0.354 N 
ATOM     42  C   UNL A   1      41.428  29.866  32.531  1.00  0.00     0.074 A 
ATOM     43  C   UNL A   1      40.305  30.774  32.491  1.00  0.00     0.031 C 
ATOM     44  C   UNL A   1      40.410  26.064  27.433  1.00  0.00     0.029 A 
ATOM     45  C   UNL A   1      41.527  26.006  28.369  1.00  0.00     0.049 A 
ATOM     46  H   UNL A   1      41.821  27.184  30.064  1.00  0.00     0.167 HD
ATOM     47  C   UNL A   1      42.398  29.901  33.472  1.00  0.00     0.034 A 
ATOM     48  C   UNL A   1      42.570  25.156  28.292  1.00  0.00     0.034 A 
ATOM     49  C   UNL A   1      43.481  28.960  33.536  1.00  0.00     0.049 A 
ATOM     50  C   UNL A   1      43.627  25.211  29.364  1.00  0.00     0.074 A 
ATOM     51  C   UNL A   1      44.482  28.870  34.486  1.00  0.00     0.029 A 
ATOM     52  N   UNL A   1      43.700  27.942  32.622  1.00  0.00    -0.354 N 
ATOM     53  N   UNL A   1      43.690  25.981  30.424  1.00  0.00    -0.248 NA
ATOM     54  C   UNL A   1      44.742  24.258  29.250  1.00  0.00     0.031 C 
ATOM     55  C   UNL A   1      45.318  27.808  34.136  1.00  0.00     0.029 A 
ATOM     56  C   UNL A   1      44.822  27.219  32.982  1.00  0.00     0.049 A 
ATOM     57  H   UNL A   1      43.141  27.760  31.833  1.00  0.00     0.167 HD
ATOM     58  C   UNL A   1      44.826  25.584  31.118  1.00  0.00     0.074 A 
ATOM     59  C   UNL A   1      45.409  24.487  30.373  1.00  0.00     0.031 C 
ATOM     60  C   UNL A   1      45.352  26.092  32.260  1.00  0.00     0.034 A 
BRANCH  47  61
ATOM     61  C   UNL A   1      42.294  30.934  34.563  1.00  0.00     0.023 A 
ATOM     62  C   UNL A   1      41.687  30.583  35.786  1.00  0.00     0.012 A 
ATOM     63  C   UNL A   1      42.886  32.205  34.424  1.00  0.00     0.148 A 
ATOM     64  C   UNL A   1      41.654  31.485  36.848  1.00  0.00     0.002 A 
ATOM     65  C   UNL A   1      42.892  33.081  35.504  1.00  0.00     0.091 A 
ATOM     66  F   UNL A   1      43.442  32.525  33.247  1.00  0.00    -0.205 F 
ATOM     67  C   UNL A   1      42.269  32.725  36.712  1.00  0.00     0.022 A 
BRANCH  65  68
ATOM     68  S   UNL A   1      43.730  34.669  35.465  1.00  0.00     0.127 S 
ATOM     69  O   UNL A   1      43.000  35.362  34.403  1.00  0.00    -0.237 OA
ATOM     70  O   UNL A   1      43.477  35.179  36.812  1.00  0.00    -0.237 OA
ATOM     71  O   UNL A   1      45.127  34.384  35.169  1.00  0.00    -0.744 OA
ENDBRANCH  65  68
ENDBRANCH  47  61
BRANCH  48  72
ATOM     72  C   UNL A   1      42.621  24.127  27.213  1.00  0.00     0.023 A 
ATOM     73  C   UNL A   1      43.358  24.397  26.043  1.00  0.00     0.012 A 
ATOM     74  C   UNL A   1      41.978  22.882  27.344  1.00  0.00     0.148 A 
ATOM     75  C   UNL A   1      43.425  23.460  25.010  1.00  0.00     0.002 A 
ATOM     76  C   UNL A   1      42.099  21.930  26.338  1.00  0.00     0.091 A 
ATOM     77  F   UNL A   1      41.272  22.645  28.459  1.00  0.00    -0.205 F 
ATOM     78  C   UNL A   1      42.805  22.224  25.162  1.00  0.00     0.022 A 
BRANCH  76  79
ATOM     79  S   UNL A   1      41.453  20.261  26.506  1.00  0.00     0.127 S 
ATOM     80  O   UNL A   1      40.016  20.480  26.371  1.00  0.00    -0.237 OA
ATOM     81  O   UNL A   1      42.082  19.578  25.375  1.00  0.00    -0.237 OA
ATOM     82  O   UNL A   1      41.904  19.796  27.812  1.00  0.00    -0.744 OA
ENDBRANCH  76  79
ENDBRANCH  48  72
BRANCH  60  83
ATOM     83  C   UNL A   1      46.610  25.465  32.801  1.00  0.00     0.023 A 
ATOM     84  C   UNL A   1      47.862  25.995  32.435  1.00  0.00     0.012 A 
ATOM     85  C   UNL A   1      46.545  24.441  33.767  1.00  0.00     0.148 A 
ATOM     86  C   UNL A   1      49.033  25.501  33.007  1.00  0.00     0.002 A 
ATOM     87  C   UNL A   1      47.711  23.992  34.373  1.00  0.00     0.091 A 
ATOM     88  F   UNL A   1      45.341  23.945  34.091  1.00  0.00    -0.205 F 
ATOM     89  C   UNL A   1      48.956  24.513  33.985  1.00  0.00     0.022 A 
BRANCH  87  90
ATOM     90  S   UNL A   1      47.705  22.805  35.721  1.00  0.00     0.127 S 
ATOM     91  O   UNL A   1      47.226  21.597  35.050  1.00  0.00    -0.237 OA
ATOM     92  O   UNL A   1      49.116  22.770  36.107  1.00  0.00    -0.237 OA
ATOM     93  O   UNL A   1      46.812  23.348  36.734  1.00  0.00    -0.744 OA
ENDBRANCH  87  90
ENDBRANCH  60  83
ENDBRANCH  34  35
ENDBRANCH  26  29
ENDBRANCH   1  25
TORSDOF 14
ENDMDL
MODEL 3
REMARK VINA RESULT:     -12.6      2.095      7.979
REMARK SMILES Cc1cc2c(c(C)c1Cl)C=C(C(=O)NCCCNC(=O)c1ccc(-c3c4nc(c(-c5cccc(S(=O)(=O)[O-])c5F)c5ccc([nH]5)c(-c5cccc(S(=O)(=O)[O-])c5F)c5nc(c(-c6cccc(S(=O)(=O)[O-])c6F)c6ccc3[nH]6)C=C5)C=C4)cc1)[C@@H](C(F)(F)F)O2
REMARK SMILES IDX 17 1 16 2 15 3 14 4 12 5 13 6 11 8 1 9 2 10 3 11 8 12 4 13
REMARK SMILES IDX 6 14 9 15 5 16 89 17 7 18 10 19 84 20 85 21 86 22 87 23
REMARK SMILES IDX 88 24 18 25 19 26 20 28 21 29 22 30 83 31 23 32 82 33 24 34
REMARK SMILES IDX 25 35 26 36 76 37 27 38 81 39 75 40 77 41 28 42 80 43 74 44
REMARK SMILES IDX 73 45 29 47 61 48 41 49 60 50 42 51 45 52 59 53 78 54 43 55
REMARK SMILES IDX 44 56 58 58 79 59 46 60 30 61 31 62 39 63 32 64 34 65 40 66
REMARK SMILES IDX 33 67 35 68 36 69 37 70 38 71 62 72 63 73 71 74 64 75 66 76
REMARK SMILES IDX 72 77 65 78 67 79 68 80 69 81 70 82 47 83 48 84 56 85 49 86
REMARK SMILES IDX 51 87 57 88 50 89 52 90 53 91 54 92 55 93
REMARK H PARENT 14 7 18 27 77 46 45 57
REMARK Flexibility Score: inf
ROOT
ATOM      1  C   UNL A   1      32.251  31.890  27.227  1.00  0.00     0.118 C 
ENDROOT
BRANCH   1   2
ATOM      2  C   UNL A   1      33.378  31.192  26.478  1.00  0.00     0.042 C 
BRANCH   2   3
ATOM      3  C   UNL A   1      33.756  29.864  27.115  1.00  0.00     0.118 C 
BRANCH   3   4
ATOM      4  N   UNL A   1      32.599  29.172  27.667  1.00  0.00    -0.352 N 
ATOM      5  C   UNL A   1      31.788  28.151  27.305  1.00  0.00     0.251 C 
ATOM      6  O   UNL A   1      30.909  27.862  28.124  1.00  0.00    -0.270 OA
ATOM      7  H   UNL A   1      32.336  29.549  28.537  1.00  0.00     0.163 HD
BRANCH   5   8
ATOM      8  C   UNL A   1      31.895  27.378  26.034  1.00  0.00     0.067 C 
ATOM      9  C   UNL A   1      33.137  23.262  21.158  1.00  0.00     0.046 C 
ATOM     10  C   UNL A   1      33.183  24.084  22.417  1.00  0.00    -0.028 A 
ATOM     11  C   UNL A   1      32.112  24.954  22.642  1.00  0.00     0.052 A 
ATOM     12  C   UNL A   1      34.190  23.982  23.398  1.00  0.00     0.047 A 
ATOM     13  C   UNL A   1      32.053  25.724  23.796  1.00  0.00     0.128 A 
ATOM     14  C   UNL A   1      34.143  24.765  24.581  1.00  0.00    -0.021 A 
ATOM     15  Cl  UNL A   1      35.490  22.856  23.146  1.00  0.00    -0.084 Cl
ATOM     16  C   UNL A   1      33.045  25.639  24.777  1.00  0.00     0.022 A 
ATOM     17  O   UNL A   1      30.945  26.512  23.908  1.00  0.00    -0.475 OA
ATOM     18  C   UNL A   1      35.217  24.678  25.641  1.00  0.00     0.047 C 
ATOM     19  C   UNL A   1      32.857  26.436  25.994  1.00  0.00     0.026 C 
ATOM     20  C   UNL A   1      31.026  27.618  24.837  1.00  0.00     0.314 C 
BRANCH  20  21
ATOM     21  C   UNL A   1      31.420  28.896  24.071  1.00  0.00     0.429 C 
ATOM     22  F   UNL A   1      30.961  28.849  22.796  1.00  0.00    -0.167 F 
ATOM     23  F   UNL A   1      30.899  30.020  24.622  1.00  0.00    -0.167 F 
ATOM     24  F   UNL A   1      32.759  29.078  24.014  1.00  0.00    -0.167 F 
ENDBRANCH  20  21
ENDBRANCH   5   8
ENDBRANCH   3   4
ENDBRANCH   2   3
ENDBRANCH   1   2
BRANCH   1  25
ATOM     25  N   UNL A   1      32.502  33.323  27.371  1.00  0.00    -0.352 N 
ATOM     26  C   UNL A   1      33.436  33.984  28.127  1.00  0.00     0.251 C 
ATOM     27  H   UNL A   1      31.906  33.904  26.845  1.00  0.00     0.163 HD
ATOM     28  O   UNL A   1      33.307  35.189  28.339  1.00  0.00    -0.269 OA
BRANCH  26  29
ATOM     29  C   UNL A   1      34.592  33.250  28.676  1.00  0.00     0.039 A 
ATOM     30  C   UNL A   1      35.860  33.447  28.124  1.00  0.00     0.014 A 
ATOM     31  C   UNL A   1      34.413  32.349  29.728  1.00  0.00     0.014 A 
ATOM     32  C   UNL A   1      36.958  32.785  28.675  1.00  0.00     0.010 A 
ATOM     33  C   UNL A   1      35.517  31.773  30.338  1.00  0.00     0.010 A 
ATOM     34  C   UNL A   1      36.799  31.968  29.807  1.00  0.00    -0.014 A 
BRANCH  34  35
ATOM     35  C   UNL A   1      37.950  31.284  30.441  1.00  0.00     0.031 A 
ATOM     36  C   UNL A   1      38.351  31.647  31.846  1.00  0.00     0.074 A 
ATOM     37  C   UNL A   1      38.673  30.396  29.729  1.00  0.00     0.049 A 
ATOM     38  N   UNL A   1      39.364  31.215  32.549  1.00  0.00    -0.248 NA
ATOM     39  C   UNL A   1      37.525  32.648  32.545  1.00  0.00     0.031 C 
ATOM     40  C   UNL A   1      38.417  30.018  28.338  1.00  0.00     0.029 A 
ATOM     41  N   UNL A   1      39.781  29.664  30.071  1.00  0.00    -0.354 N 
ATOM     42  C   UNL A   1      39.310  31.903  33.755  1.00  0.00     0.074 A 
ATOM     43  C   UNL A   1      38.199  32.823  33.673  1.00  0.00     0.031 C 
ATOM     44  C   UNL A   1      39.325  29.107  27.954  1.00  0.00     0.029 A 
ATOM     45  C   UNL A   1      40.249  28.862  29.055  1.00  0.00     0.049 A 
ATOM     46  H   UNL A   1      40.202  29.707  30.960  1.00  0.00     0.167 HD
ATOM     47  C   UNL A   1      40.088  31.750  34.851  1.00  0.00     0.034 A 
ATOM     48  C   UNL A   1      41.303  28.022  29.021  1.00  0.00     0.034 A 
ATOM     49  C   UNL A   1      41.156  30.795  34.944  1.00  0.00     0.049 A 
ATOM     50  C   UNL A   1      42.141  27.863  30.263  1.00  0.00     0.074 A 
ATOM     51  C   UNL A   1      41.964  30.517  36.031  1.00  0.00     0.029 A 
ATOM     52  N   UNL A   1      41.559  29.956  33.917  1.00  0.00    -0.354 N 
ATOM     53  N   UNL A   1      41.992  28.427  31.437  1.00  0.00    -0.248 NA
ATOM     54  C   UNL A   1      43.273  26.928  30.187  1.00  0.00     0.031 C 
ATOM     55  C   UNL A   1      42.869  29.522  35.657  1.00  0.00     0.029 A 
ATOM     56  C   UNL A   1      42.607  29.161  34.343  1.00  0.00     0.049 A 
ATOM     57  H   UNL A   1      41.159  29.931  33.018  1.00  0.00     0.167 HD
ATOM     58  C   UNL A   1      42.986  27.891  32.248  1.00  0.00     0.074 A 
ATOM     59  C   UNL A   1      43.716  26.938  31.437  1.00  0.00     0.031 C 
ATOM     60  C   UNL A   1      43.281  28.175  33.540  1.00  0.00     0.034 A 
BRANCH  47  61
ATOM     61  C   UNL A   1      39.765  32.571  36.072  1.00  0.00     0.023 A 
ATOM     62  C   UNL A   1      40.338  33.851  36.211  1.00  0.00     0.012 A 
ATOM     63  C   UNL A   1      38.820  32.130  37.019  1.00  0.00     0.148 A 
ATOM     64  C   UNL A   1      39.992  34.674  37.282  1.00  0.00     0.002 A 
ATOM     65  C   UNL A   1      38.443  32.974  38.057  1.00  0.00     0.091 A 
ATOM     66  F   UNL A   1      38.300  30.902  36.878  1.00  0.00    -0.205 F 
ATOM     67  C   UNL A   1      39.035  34.241  38.194  1.00  0.00     0.022 A 
BRANCH  65  68
ATOM     68  S   UNL A   1      37.157  32.553  39.239  1.00  0.00     0.127 S 
ATOM     69  O   UNL A   1      37.393  33.538  40.295  1.00  0.00    -0.237 OA
ATOM     70  O   UNL A   1      35.941  32.775  38.457  1.00  0.00    -0.237 OA
ATOM     71  O   UNL A   1      37.397  31.168  39.622  1.00  0.00    -0.744 OA
ENDBRANCH  65  68
ENDBRANCH  47  61
BRANCH  48  72
ATOM     72  C   UNL A   1      41.572  27.205  27.802  1.00  0.00     0.023 A 
ATOM     73  C   UNL A   1      42.140  27.826  26.672  1.00  0.00     0.012 A 
ATOM     74  C   UNL A   1      41.301  25.824  27.759  1.00  0.00     0.148 A 
ATOM     75  C   UNL A   1      42.402  27.095  25.511  1.00  0.00     0.002 A 
ATOM     76  C   UNL A   1      41.620  25.090  26.621  1.00  0.00     0.091 A 
ATOM     77  F   UNL A   1      40.750  25.251  28.838  1.00  0.00    -0.205 F 
ATOM     78  C   UNL A   1      42.152  25.727  25.491  1.00  0.00     0.022 A 
BRANCH  76  79
ATOM     79  S   UNL A   1      41.463  23.301  26.554  1.00  0.00     0.127 S 
ATOM     80  O   UNL A   1      42.230  22.978  25.353  1.00  0.00    -0.237 OA
ATOM     81  O   UNL A   1      42.090  22.895  27.813  1.00  0.00    -0.237 OA
ATOM     82  O   UNL A   1      40.033  23.035  26.484  1.00  0.00    -0.744 OA
ENDBRANCH  76  79
ENDBRANCH  48  72
BRANCH  60  83
ATOM     83  C   UNL A   1      44.426  27.439  34.183  1.00  0.00     0.023 A 
ATOM     84  C   UNL A   1      45.716  28.004  34.157  1.00  0.00     0.012 A 
ATOM     85  C   UNL A   1      44.200  26.259  34.920  1.00  0.00     0.148 A 
ATOM     86  C   UNL A   1      46.769  27.394  34.837  1.00  0.00     0.002 A 
ATOM     87  C   UNL A   1      45.241  25.687  35.640  1.00  0.00     0.091 A 
ATOM     88  F   UNL A   1      42.966  25.733  34.920  1.00  0.00    -0.205 F 
ATOM     89  C   UNL A   1      46.528  26.247  35.590  1.00  0.00     0.022 A 
BRANCH  87  90
ATOM     90  S   UNL A   1      45.004  24.278  36.728  1.00  0.00     0.127 S 
ATOM     91  O   UNL A   1      46.368  24.027  37.191  1.00  0.00    -0.237 OA
ATOM     92  O   UNL A   1      44.103  24.821  37.745  1.00  0.00    -0.237 OA
ATOM     93  O   UNL A   1      44.424  23.225  35.905  1.00  0.00    -0.744 OA
ENDBRANCH  87  90
ENDBRANCH  60  83
ENDBRANCH  34  35
ENDBRANCH  26  29
ENDBRANCH   1  25
TORSDOF 14
ENDMDL
