MODEL 1
REMARK VINA RESULT:     -12.9      0.000      0.000
REMARK SMILES O=C(NCCCNC(=O)[C@H]1Cc2ccc(Cl)cc2C[N@@H+]1Cc1ccc(Cl)cc1)c1ccc(-c2c3nc(c(-c4cccc(S(=O)(=O)[O-])c4F)c4ccc([nH]4)c(-c4cccc(S(=O)(=O)[O-])c4F)c4nc(c(-c5cccc(S(=O)(=O)[O-])c5F)c5ccc2[nH]5)C=C4)C=C3)cc1
REMARK SMILES IDX 4 1 3 2 1 3 2 4 29 6 30 7 91 8 31 9 90 10 32 11 33 12 34 13
REMARK SMILES IDX 84 14 35 15 89 16 83 17 85 18 36 19 88 20 82 21 81 22 37 24
REMARK SMILES IDX 69 25 49 26 68 27 50 28 53 29 67 30 86 31 51 32 52 33 66 35
REMARK SMILES IDX 87 36 54 37 38 38 39 39 47 40 40 41 42 42 48 43 41 44 43 45
REMARK SMILES IDX 44 46 45 47 46 48 70 49 71 50 79 51 72 52 74 53 80 54 73 55
REMARK SMILES IDX 75 56 76 57 77 58 78 59 55 60 56 61 64 62 57 63 59 64 65 65
REMARK SMILES IDX 58 66 60 67 61 68 62 69 63 70 5 71 6 72 7 73 8 74 9 76 10 77
REMARK SMILES IDX 11 78 20 79 12 80 19 81 13 83 18 84 14 85 17 86 15 87 16 88
REMARK SMILES IDX 21 89 22 90 23 91 28 92 24 93 27 94 25 95 26 96
REMARK H PARENT 3 5 85 23 53 34 7 75 20 82
REMARK Flexibility Score: inf
ROOT
ATOM      1  C   UNL A   1      37.491  21.709  24.736  1.00  0.00     0.118 C 
ENDROOT
BRANCH   1   2
ATOM      2  N   UNL A   1      38.307  20.717  25.412  1.00  0.00    -0.352 N 
ATOM      3  O   UNL A   1      40.114  19.868  26.417  1.00  0.00    -0.269 OA
ATOM      4  C   UNL A   1      39.444  20.869  26.166  1.00  0.00     0.251 C 
ATOM      5  H   UNL A   1      37.995  19.788  25.314  1.00  0.00     0.163 HD
BRANCH   4   6
ATOM      6  C   UNL A   1      39.879  22.191  26.689  1.00  0.00     0.039 A 
ATOM      7  C   UNL A   1      39.347  23.343  26.098  1.00  0.00     0.014 A 
ATOM      8  C   UNL A   1      40.880  22.319  27.656  1.00  0.00     0.014 A 
ATOM      9  C   UNL A   1      39.811  24.610  26.472  1.00  0.00     0.010 A 
ATOM     10  C   UNL A   1      41.300  23.587  28.073  1.00  0.00     0.010 A 
ATOM     11  C   UNL A   1      40.794  24.746  27.463  1.00  0.00    -0.014 A 
BRANCH  11  12
ATOM     12  C   UNL A   1      41.359  26.078  27.816  1.00  0.00     0.031 A 
ATOM     13  C   UNL A   1      42.774  26.423  27.420  1.00  0.00     0.074 A 
ATOM     14  C   UNL A   1      40.624  26.973  28.506  1.00  0.00     0.049 A 
ATOM     15  N   UNL A   1      43.473  27.491  27.704  1.00  0.00    -0.248 NA
ATOM     16  C   UNL A   1      43.505  25.435  26.606  1.00  0.00     0.031 C 
ATOM     17  C   UNL A   1      39.248  26.768  28.963  1.00  0.00     0.029 A 
ATOM     18  N   UNL A   1      40.936  28.234  28.954  1.00  0.00    -0.354 N 
ATOM     19  C   UNL A   1      44.729  27.289  27.143  1.00  0.00     0.074 A 
ATOM     20  C   UNL A   1      44.706  25.990  26.509  1.00  0.00     0.031 C 
ATOM     21  C   UNL A   1      38.830  27.870  29.610  1.00  0.00     0.029 A 
ATOM     22  C   UNL A   1      39.915  28.847  29.644  1.00  0.00     0.049 A 
ATOM     23  H   UNL A   1      41.810  28.660  28.796  1.00  0.00     0.167 HD
ATOM     24  C   UNL A   1      45.796  28.120  27.130  1.00  0.00     0.034 A 
ATOM     25  C   UNL A   1      39.859  30.056  30.239  1.00  0.00     0.034 A 
ATOM     26  C   UNL A   1      45.805  29.442  27.691  1.00  0.00     0.049 A 
ATOM     27  C   UNL A   1      41.056  30.966  30.188  1.00  0.00     0.074 A 
ATOM     28  C   UNL A   1      46.835  30.366  27.687  1.00  0.00     0.029 A 
ATOM     29  N   UNL A   1      44.733  30.036  28.332  1.00  0.00    -0.354 N 
ATOM     30  N   UNL A   1      42.212  30.772  29.603  1.00  0.00    -0.248 NA
ATOM     31  C   UNL A   1      40.934  32.271  30.857  1.00  0.00     0.031 C 
ATOM     32  C   UNL A   1      46.384  31.526  28.320  1.00  0.00     0.029 A 
ATOM     33  C   UNL A   1      45.071  31.322  28.712  1.00  0.00     0.049 A 
ATOM     34  H   UNL A   1      43.861  29.609  28.494  1.00  0.00     0.167 HD
ATOM     35  C   UNL A   1      42.937  31.942  29.796  1.00  0.00     0.074 A 
ATOM     36  C   UNL A   1      42.092  32.843  30.552  1.00  0.00     0.031 C 
ATOM     37  C   UNL A   1      44.194  32.237  29.393  1.00  0.00     0.034 A 
BRANCH  24  38
ATOM     38  C   UNL A   1      47.045  27.674  26.419  1.00  0.00     0.023 A 
ATOM     39  C   UNL A   1      47.960  26.850  27.102  1.00  0.00     0.012 A 
ATOM     40  C   UNL A   1      47.230  27.938  25.049  1.00  0.00     0.148 A 
ATOM     41  C   UNL A   1      49.043  26.289  26.429  1.00  0.00     0.002 A 
ATOM     42  C   UNL A   1      48.297  27.351  24.377  1.00  0.00     0.091 A 
ATOM     43  F   UNL A   1      46.344  28.728  24.426  1.00  0.00    -0.205 F 
ATOM     44  C   UNL A   1      49.205  26.530  25.066  1.00  0.00     0.022 A 
BRANCH  42  45
ATOM     45  S   UNL A   1      48.562  27.544  22.611  1.00  0.00     0.127 S 
ATOM     46  O   UNL A   1      49.831  28.270  22.580  1.00  0.00    -0.237 OA
ATOM     47  O   UNL A   1      48.642  26.154  22.163  1.00  0.00    -0.237 OA
ATOM     48  O   UNL A   1      47.418  28.291  22.108  1.00  0.00    -0.744 OA
ENDBRANCH  42  45
ENDBRANCH  24  38
BRANCH  25  49
ATOM     49  C   UNL A   1      38.591  30.515  30.869  1.00  0.00     0.023 A 
ATOM     50  C   UNL A   1      38.374  30.253  32.236  1.00  0.00     0.012 A 
ATOM     51  C   UNL A   1      37.615  31.220  30.139  1.00  0.00     0.148 A 
ATOM     52  C   UNL A   1      37.199  30.667  32.862  1.00  0.00     0.002 A 
ATOM     53  C   UNL A   1      36.463  31.665  30.779  1.00  0.00     0.091 A 
ATOM     54  F   UNL A   1      37.837  31.445  28.836  1.00  0.00    -0.205 F 
ATOM     55  C   UNL A   1      36.248  31.380  32.136  1.00  0.00     0.022 A 
BRANCH  53  56
ATOM     56  S   UNL A   1      35.227  32.671  29.949  1.00  0.00     0.127 S 
ATOM     57  O   UNL A   1      34.735  31.752  28.924  1.00  0.00    -0.237 OA
ATOM     58  O   UNL A   1      34.282  32.943  31.035  1.00  0.00    -0.237 OA
ATOM     59  O   UNL A   1      35.935  33.842  29.461  1.00  0.00    -0.744 OA
ENDBRANCH  53  56
ENDBRANCH  25  49
BRANCH  37  60
ATOM     60  C   UNL A   1      44.742  33.603  29.698  1.00  0.00     0.023 A 
ATOM     61  C   UNL A   1      45.487  33.806  30.874  1.00  0.00     0.012 A 
ATOM     62  C   UNL A   1      44.635  34.640  28.750  1.00  0.00     0.148 A 
ATOM     63  C   UNL A   1      46.113  35.029  31.108  1.00  0.00     0.002 A 
ATOM     64  C   UNL A   1      45.290  35.844  28.974  1.00  0.00     0.091 A 
ATOM     65  F   UNL A   1      43.912  34.421  27.642  1.00  0.00    -0.205 F 
ATOM     66  C   UNL A   1      46.025  36.041  30.156  1.00  0.00     0.022 A 
BRANCH  64  67
ATOM     67  S   UNL A   1      45.301  37.178  27.771  1.00  0.00     0.127 S 
ATOM     68  O   UNL A   1      46.184  38.151  28.415  1.00  0.00    -0.237 OA
ATOM     69  O   UNL A   1      45.869  36.526  26.592  1.00  0.00    -0.237 OA
ATOM     70  O   UNL A   1      43.915  37.600  27.624  1.00  0.00    -0.744 OA
ENDBRANCH  64  67
ENDBRANCH  37  60
ENDBRANCH  11  12
ENDBRANCH   4   6
ENDBRANCH   1   2
BRANCH   1  71
ATOM     71  C   UNL A   1      36.030  21.618  25.165  1.00  0.00     0.042 C 
BRANCH  71  72
ATOM     72  C   UNL A   1      35.534  22.784  26.012  1.00  0.00     0.118 C 
BRANCH  72  73
ATOM     73  N   UNL A   1      34.652  22.324  27.074  1.00  0.00    -0.351 N 
ATOM     74  C   UNL A   1      33.413  22.766  27.459  1.00  0.00     0.278 C 
ATOM     75  H   UNL A   1      35.002  21.572  27.604  1.00  0.00     0.163 HD
ATOM     76  O   UNL A   1      32.944  22.274  28.487  1.00  0.00    -0.268 OA
BRANCH  74  77
ATOM     77  C   UNL A   1      32.623  23.743  26.558  1.00  0.00     0.279 C 
ATOM     78  C   UNL A   1      33.582  24.951  26.386  1.00  0.00     0.111 C 
ATOM     79  N   UNL A   1      32.281  23.160  25.234  1.00  0.00    -0.317 N 
ATOM     80  C   UNL A   1      33.135  25.941  25.344  1.00  0.00    -0.033 A 
ATOM     81  C   UNL A   1      31.659  24.144  24.343  1.00  0.00     0.300 C 
ATOM     82  H   UNL A   1      33.187  22.899  24.846  1.00  0.00     0.349 HD
ATOM     83  C   UNL A   1      33.606  27.261  25.352  1.00  0.00     0.006 A 
ATOM     84  C   UNL A   1      32.271  25.522  24.328  1.00  0.00     0.011 A 
ATOM     85  C   UNL A   1      33.173  28.172  24.385  1.00  0.00     0.021 A 
ATOM     86  C   UNL A   1      31.840  26.443  23.358  1.00  0.00     0.030 A 
ATOM     87  C   UNL A   1      32.286  27.760  23.396  1.00  0.00     0.041 A 
ATOM     88  Cl  UNL A   1      31.715  28.888  22.229  1.00  0.00    -0.084 Cl
BRANCH  79  89
ATOM     89  C   UNL A   1      31.521  21.887  25.266  1.00  0.00     0.299 C 
BRANCH  89  90
ATOM     90  C   UNL A   1      32.186  20.641  24.698  1.00  0.00     0.006 A 
ATOM     91  C   UNL A   1      32.201  20.347  23.325  1.00  0.00     0.011 A 
ATOM     92  C   UNL A   1      32.850  19.750  25.554  1.00  0.00     0.011 A 
ATOM     93  C   UNL A   1      32.671  19.121  22.848  1.00  0.00     0.021 A 
ATOM     94  C   UNL A   1      33.370  18.539  25.075  1.00  0.00     0.021 A 
ATOM     95  C   UNL A   1      33.226  18.206  23.733  1.00  0.00     0.041 A 
ATOM     96  Cl  UNL A   1      33.709  16.656  23.170  1.00  0.00    -0.084 Cl
ENDBRANCH  89  90
ENDBRANCH  79  89
ENDBRANCH  74  77
ENDBRANCH  72  73
ENDBRANCH  71  72
ENDBRANCH   1  71
TORSDOF 15
ENDMDL
MODEL 2
REMARK VINA RESULT:     -12.8      1.249      1.708
REMARK SMILES O=C(NCCCNC(=O)[C@H]1Cc2ccc(Cl)cc2C[N@@H+]1Cc1ccc(Cl)cc1)c1ccc(-c2c3nc(c(-c4cccc(S(=O)(=O)[O-])c4F)c4ccc([nH]4)c(-c4cccc(S(=O)(=O)[O-])c4F)c4nc(c(-c5cccc(S(=O)(=O)[O-])c5F)c5ccc2[nH]5)C=C4)C=C3)cc1
REMARK SMILES IDX 4 1 3 2 1 3 2 4 29 6 30 7 91 8 31 9 90 10 32 11 33 12 34 13
REMARK SMILES IDX 84 14 35 15 89 16 83 17 85 18 36 19 88 20 82 21 81 22 37 24
REMARK SMILES IDX 69 25 49 26 68 27 50 28 53 29 67 30 86 31 51 32 52 33 66 35
REMARK SMILES IDX 87 36 54 37 38 38 39 39 47 40 40 41 42 42 48 43 41 44 43 45
REMARK SMILES IDX 44 46 45 47 46 48 70 49 71 50 79 51 72 52 74 53 80 54 73 55
REMARK SMILES IDX 75 56 76 57 77 58 78 59 55 60 56 61 64 62 57 63 59 64 65 65
REMARK SMILES IDX 58 66 60 67 61 68 62 69 63 70 5 71 6 72 7 73 8 74 9 76 10 77
REMARK SMILES IDX 11 78 20 79 12 80 19 81 13 83 18 84 14 85 17 86 15 87 16 88
REMARK SMILES IDX 21 89 22 90 23 91 28 92 24 93 27 94 25 95 26 96
REMARK H PARENT 3 5 85 23 53 34 7 75 20 82
REMARK Flexibility Score: inf
ROOT
ATOM      1  C   UNL A   1      37.400  21.227  25.731  1.00  0.00     0.118 C 
ENDROOT
BRANCH   1   2
ATOM      2  N   UNL A   1      38.530  20.358  26.003  1.00  0.00    -0.352 N 
ATOM      3  O   UNL A   1      40.671  19.781  26.278  1.00  0.00    -0.269 OA
ATOM      4  C   UNL A   1      39.819  20.665  26.359  1.00  0.00     0.251 C 
ATOM      5  H   UNL A   1      38.341  19.395  25.920  1.00  0.00     0.163 HD
BRANCH   4   6
ATOM      6  C   UNL A   1      40.209  22.016  26.843  1.00  0.00     0.039 A 
ATOM      7  C   UNL A   1      39.674  23.132  26.189  1.00  0.00     0.014 A 
ATOM      8  C   UNL A   1      41.174  22.204  27.836  1.00  0.00     0.014 A 
ATOM      9  C   UNL A   1      40.099  24.423  26.526  1.00  0.00     0.010 A 
ATOM     10  C   UNL A   1      41.554  23.496  28.216  1.00  0.00     0.010 A 
ATOM     11  C   UNL A   1      41.045  24.619  27.543  1.00  0.00    -0.014 A 
BRANCH  11  12
ATOM     12  C   UNL A   1      41.570  25.976  27.860  1.00  0.00     0.031 A 
ATOM     13  C   UNL A   1      42.966  26.360  27.433  1.00  0.00     0.074 A 
ATOM     14  C   UNL A   1      40.817  26.858  28.546  1.00  0.00     0.049 A 
ATOM     15  N   UNL A   1      43.634  27.457  27.685  1.00  0.00    -0.248 NA
ATOM     16  C   UNL A   1      43.716  25.381  26.625  1.00  0.00     0.031 C 
ATOM     17  C   UNL A   1      39.457  26.617  29.031  1.00  0.00     0.029 A 
ATOM     18  N   UNL A   1      41.094  28.138  28.965  1.00  0.00    -0.354 N 
ATOM     19  C   UNL A   1      44.885  27.285  27.105  1.00  0.00     0.074 A 
ATOM     20  C   UNL A   1      44.896  25.974  26.496  1.00  0.00     0.031 C 
ATOM     21  C   UNL A   1      39.013  27.717  29.664  1.00  0.00     0.029 A 
ATOM     22  C   UNL A   1      40.065  28.730  29.661  1.00  0.00     0.049 A 
ATOM     23  H   UNL A   1      41.950  28.590  28.783  1.00  0.00     0.167 HD
ATOM     24  C   UNL A   1      45.924  28.151  27.057  1.00  0.00     0.034 A 
ATOM     25  C   UNL A   1      39.978  29.948  30.234  1.00  0.00     0.034 A 
ATOM     26  C   UNL A   1      45.897  29.484  27.593  1.00  0.00     0.049 A 
ATOM     27  C   UNL A   1      41.143  30.896  30.144  1.00  0.00     0.074 A 
ATOM     28  C   UNL A   1      46.895  30.441  27.554  1.00  0.00     0.029 A 
ATOM     29  N   UNL A   1      44.817  30.054  28.242  1.00  0.00    -0.354 N 
ATOM     30  N   UNL A   1      42.294  30.730  29.543  1.00  0.00    -0.248 NA
ATOM     31  C   UNL A   1      40.988  32.210  30.790  1.00  0.00     0.031 C 
ATOM     32  C   UNL A   1      46.416  31.598  28.172  1.00  0.00     0.029 A 
ATOM     33  C   UNL A   1      45.117  31.358  28.591  1.00  0.00     0.049 A 
ATOM     34  H   UNL A   1      43.963  29.601  28.427  1.00  0.00     0.167 HD
ATOM     35  C   UNL A   1      42.982  31.927  29.701  1.00  0.00     0.074 A 
ATOM     36  C   UNL A   1      42.120  32.814  30.454  1.00  0.00     0.031 C 
ATOM     37  C   UNL A   1      44.222  32.256  29.270  1.00  0.00     0.034 A 
BRANCH  24  38
ATOM     38  C   UNL A   1      47.175  27.734  26.333  1.00  0.00     0.023 A 
ATOM     39  C   UNL A   1      48.138  26.972  27.021  1.00  0.00     0.012 A 
ATOM     40  C   UNL A   1      47.319  27.958  24.951  1.00  0.00     0.148 A 
ATOM     41  C   UNL A   1      49.229  26.434  26.343  1.00  0.00     0.002 A 
ATOM     42  C   UNL A   1      48.394  27.394  24.275  1.00  0.00     0.091 A 
ATOM     43  F   UNL A   1      46.387  28.690  24.323  1.00  0.00    -0.205 F 
ATOM     44  C   UNL A   1      49.351  26.635  24.970  1.00  0.00     0.022 A 
BRANCH  42  45
ATOM     45  S   UNL A   1      48.613  27.537  22.498  1.00  0.00     0.127 S 
ATOM     46  O   UNL A   1      49.893  28.241  22.413  1.00  0.00    -0.237 OA
ATOM     47  O   UNL A   1      48.659  26.135  22.083  1.00  0.00    -0.237 OA
ATOM     48  O   UNL A   1      47.468  28.290  22.007  1.00  0.00    -0.744 OA
ENDBRANCH  42  45
ENDBRANCH  24  38
BRANCH  25  49
ATOM     49  C   UNL A   1      38.706  30.377  30.877  1.00  0.00     0.023 A 
ATOM     50  C   UNL A   1      38.508  30.105  32.245  1.00  0.00     0.012 A 
ATOM     51  C   UNL A   1      37.708  31.062  30.158  1.00  0.00     0.148 A 
ATOM     52  C   UNL A   1      37.330  30.491  32.884  1.00  0.00     0.002 A 
ATOM     53  C   UNL A   1      36.552  31.478  30.810  1.00  0.00     0.091 A 
ATOM     54  F   UNL A   1      37.912  31.295  28.854  1.00  0.00    -0.205 F 
ATOM     55  C   UNL A   1      36.357  31.185  32.169  1.00  0.00     0.022 A 
BRANCH  53  56
ATOM     56  S   UNL A   1      35.287  32.460  29.996  1.00  0.00     0.127 S 
ATOM     57  O   UNL A   1      36.054  33.620  29.546  1.00  0.00    -0.237 OA
ATOM     58  O   UNL A   1      34.851  31.560  28.925  1.00  0.00    -0.237 OA
ATOM     59  O   UNL A   1      34.279  32.722  31.009  1.00  0.00    -0.744 OA
ENDBRANCH  53  56
ENDBRANCH  25  49
BRANCH  37  60
ATOM     60  C   UNL A   1      44.729  33.645  29.539  1.00  0.00     0.023 A 
ATOM     61  C   UNL A   1      45.480  33.897  30.701  1.00  0.00     0.012 A 
ATOM     62  C   UNL A   1      44.576  34.658  28.571  1.00  0.00     0.148 A 
ATOM     63  C   UNL A   1      46.069  35.145  30.902  1.00  0.00     0.002 A 
ATOM     64  C   UNL A   1      45.194  35.887  28.761  1.00  0.00     0.091 A 
ATOM     65  F   UNL A   1      43.848  34.391  27.477  1.00  0.00    -0.205 F 
ATOM     66  C   UNL A   1      45.937  36.133  29.929  1.00  0.00     0.022 A 
BRANCH  64  67
ATOM     67  S   UNL A   1      45.148  37.194  27.531  1.00  0.00     0.127 S 
ATOM     68  O   UNL A   1      43.727  37.225  27.182  1.00  0.00    -0.237 OA
ATOM     69  O   UNL A   1      45.614  38.352  28.291  1.00  0.00    -0.237 OA
ATOM     70  O   UNL A   1      46.040  36.771  26.459  1.00  0.00    -0.744 OA
ENDBRANCH  64  67
ENDBRANCH  37  60
ENDBRANCH  11  12
ENDBRANCH   4   6
ENDBRANCH   1   2
BRANCH   1  71
ATOM     71  C   UNL A   1      37.172  21.397  24.232  1.00  0.00     0.042 C 
BRANCH  71  72
ATOM     72  C   UNL A   1      37.000  22.837  23.766  1.00  0.00     0.118 C 
BRANCH  72  73
ATOM     73  N   UNL A   1      35.905  22.954  22.814  1.00  0.00    -0.351 N 
ATOM     74  C   UNL A   1      34.709  23.616  22.907  1.00  0.00     0.278 C 
ATOM     75  H   UNL A   1      36.047  22.481  21.962  1.00  0.00     0.163 HD
ATOM     76  O   UNL A   1      33.904  23.437  21.990  1.00  0.00    -0.268 OA
BRANCH  74  77
ATOM     77  C   UNL A   1      34.465  24.622  24.055  1.00  0.00     0.279 C 
ATOM     78  C   UNL A   1      33.902  25.877  23.339  1.00  0.00     0.111 C 
ATOM     79  N   UNL A   1      33.492  24.122  25.063  1.00  0.00    -0.317 N 
ATOM     80  C   UNL A   1      33.355  26.921  24.275  1.00  0.00    -0.033 A 
ATOM     81  C   UNL A   1      33.164  25.140  26.065  1.00  0.00     0.300 C 
ATOM     82  H   UNL A   1      32.656  23.927  24.513  1.00  0.00     0.349 HD
ATOM     83  C   UNL A   1      33.217  28.256  23.870  1.00  0.00     0.006 A 
ATOM     84  C   UNL A   1      32.936  26.540  25.554  1.00  0.00     0.011 A 
ATOM     85  C   UNL A   1      32.718  29.215  24.754  1.00  0.00     0.021 A 
ATOM     86  C   UNL A   1      32.434  27.510  26.438  1.00  0.00     0.030 A 
ATOM     87  C   UNL A   1      32.334  28.838  26.038  1.00  0.00     0.041 A 
ATOM     88  Cl  UNL A   1      31.761  30.023  27.146  1.00  0.00    -0.084 Cl
BRANCH  79  89
ATOM     89  C   UNL A   1      33.823  22.818  25.689  1.00  0.00     0.299 C 
BRANCH  89  90
ATOM     90  C   UNL A   1      33.357  21.549  24.991  1.00  0.00     0.006 A 
ATOM     91  C   UNL A   1      33.849  20.276  25.321  1.00  0.00     0.011 A 
ATOM     92  C   UNL A   1      32.370  21.619  23.996  1.00  0.00     0.011 A 
ATOM     93  C   UNL A   1      33.529  19.151  24.556  1.00  0.00     0.021 A 
ATOM     94  C   UNL A   1      32.006  20.484  23.258  1.00  0.00     0.021 A 
ATOM     95  C   UNL A   1      32.630  19.267  23.505  1.00  0.00     0.041 A 
ATOM     96  Cl  UNL A   1      32.314  17.912  22.497  1.00  0.00    -0.084 Cl
ENDBRANCH  89  90
ENDBRANCH  79  89
ENDBRANCH  74  77
ENDBRANCH  72  73
ENDBRANCH  71  72
ENDBRANCH   1  71
TORSDOF 15
ENDMDL
MODEL 3
REMARK VINA RESULT:     -12.8      5.193      8.130
REMARK SMILES O=C(NCCCNC(=O)[C@H]1Cc2ccc(Cl)cc2C[N@@H+]1Cc1ccc(Cl)cc1)c1ccc(-c2c3nc(c(-c4cccc(S(=O)(=O)[O-])c4F)c4ccc([nH]4)c(-c4cccc(S(=O)(=O)[O-])c4F)c4nc(c(-c5cccc(S(=O)(=O)[O-])c5F)c5ccc2[nH]5)C=C4)C=C3)cc1
REMARK SMILES IDX 4 1 3 2 1 3 2 4 29 6 30 7 91 8 31 9 90 10 32 11 33 12 34 13
REMARK SMILES IDX 84 14 35 15 89 16 83 17 85 18 36 19 88 20 82 21 81 22 37 24
REMARK SMILES IDX 69 25 49 26 68 27 50 28 53 29 67 30 86 31 51 32 52 33 66 35
REMARK SMILES IDX 87 36 54 37 38 38 39 39 47 40 40 41 42 42 48 43 41 44 43 45
REMARK SMILES IDX 44 46 45 47 46 48 70 49 71 50 79 51 72 52 74 53 80 54 73 55
REMARK SMILES IDX 75 56 76 57 77 58 78 59 55 60 56 61 64 62 57 63 59 64 65 65
REMARK SMILES IDX 58 66 60 67 61 68 62 69 63 70 5 71 6 72 7 73 8 74 9 76 10 77
REMARK SMILES IDX 11 78 20 79 12 80 19 81 13 83 18 84 14 85 17 86 15 87 16 88
REMARK SMILES IDX 21 89 22 90 23 91 28 92 24 93 27 94 25 95 26 96
REMARK H PARENT 3 5 85 23 53 34 7 75 20 82
REMARK Flexibility Score: inf
ROOT
ATOM      1  C   UNL A   1      32.570  30.746  26.202  1.00  0.00     0.118 C 
ENDROOT
BRANCH   1   2
ATOM      2  N   UNL A   1      32.512  32.128  26.642  1.00  0.00    -0.352 N 
ATOM      3  O   UNL A   1      32.878  33.889  27.969  1.00  0.00    -0.269 OA
ATOM      4  C   UNL A   1      33.278  32.799  27.563  1.00  0.00     0.251 C 
ATOM      5  H   UNL A   1      31.811  32.670  26.212  1.00  0.00     0.163 HD
BRANCH   4   6
ATOM      6  C   UNL A   1      34.566  32.256  28.070  1.00  0.00     0.039 A 
ATOM      7  C   UNL A   1      34.569  30.970  28.625  1.00  0.00     0.014 A 
ATOM      8  C   UNL A   1      35.732  33.024  28.120  1.00  0.00     0.014 A 
ATOM      9  C   UNL A   1      35.727  30.460  29.224  1.00  0.00     0.010 A 
ATOM     10  C   UNL A   1      36.906  32.490  28.664  1.00  0.00     0.010 A 
ATOM     11  C   UNL A   1      36.908  31.215  29.251  1.00  0.00    -0.014 A 
BRANCH  11  12
ATOM     12  C   UNL A   1      38.125  30.723  29.954  1.00  0.00     0.031 A 
ATOM     13  C   UNL A   1      39.038  29.733  29.273  1.00  0.00     0.074 A 
ATOM     14  C   UNL A   1      38.408  31.138  31.205  1.00  0.00     0.049 A 
ATOM     15  N   UNL A   1      40.095  29.124  29.746  1.00  0.00    -0.248 NA
ATOM     16  C   UNL A   1      38.717  29.370  27.880  1.00  0.00     0.031 C 
ATOM     17  C   UNL A   1      37.608  32.083  31.987  1.00  0.00     0.029 A 
ATOM     18  N   UNL A   1      39.445  30.809  32.045  1.00  0.00    -0.354 N 
ATOM     19  C   UNL A   1      40.539  28.283  28.732  1.00  0.00     0.074 A 
ATOM     20  C   UNL A   1      39.633  28.447  27.617  1.00  0.00     0.031 C 
ATOM     21  C   UNL A   1      38.193  32.269  33.183  1.00  0.00     0.029 A 
ATOM     22  C   UNL A   1      39.388  31.436  33.269  1.00  0.00     0.049 A 
ATOM     23  H   UNL A   1      40.163  30.182  31.795  1.00  0.00     0.167 HD
ATOM     24  C   UNL A   1      41.620  27.470  28.717  1.00  0.00     0.034 A 
ATOM     25  C   UNL A   1      40.205  31.348  34.339  1.00  0.00     0.034 A 
ATOM     26  C   UNL A   1      42.568  27.357  29.790  1.00  0.00     0.049 A 
ATOM     27  C   UNL A   1      41.411  30.451  34.283  1.00  0.00     0.074 A 
ATOM     28  C   UNL A   1      43.714  26.582  29.841  1.00  0.00     0.029 A 
ATOM     29  N   UNL A   1      42.496  28.049  30.985  1.00  0.00    -0.354 N 
ATOM     30  N   UNL A   1      41.838  29.709  33.292  1.00  0.00    -0.248 NA
ATOM     31  C   UNL A   1      42.261  30.397  35.483  1.00  0.00     0.031 C 
ATOM     32  C   UNL A   1      44.343  26.813  31.066  1.00  0.00     0.029 A 
ATOM     33  C   UNL A   1      43.588  27.734  31.773  1.00  0.00     0.049 A 
ATOM     34  H   UNL A   1      41.777  28.672  31.237  1.00  0.00     0.167 HD
ATOM     35  C   UNL A   1      43.025  29.135  33.732  1.00  0.00     0.074 A 
ATOM     36  C   UNL A   1      43.253  29.614  35.078  1.00  0.00     0.031 C 
ATOM     37  C   UNL A   1      43.845  28.278  33.079  1.00  0.00     0.034 A 
BRANCH  24  38
ATOM     38  C   UNL A   1      41.905  26.676  27.471  1.00  0.00     0.023 A 
ATOM     39  C   UNL A   1      42.535  27.315  26.386  1.00  0.00     0.012 A 
ATOM     40  C   UNL A   1      41.696  25.285  27.436  1.00  0.00     0.148 A 
ATOM     41  C   UNL A   1      42.958  26.579  25.281  1.00  0.00     0.002 A 
ATOM     42  C   UNL A   1      42.147  24.552  26.344  1.00  0.00     0.091 A 
ATOM     43  F   UNL A   1      41.091  24.704  28.482  1.00  0.00    -0.205 F 
ATOM     44  C   UNL A   1      42.775  25.198  25.265  1.00  0.00     0.022 A 
BRANCH  42  45
ATOM     45  S   UNL A   1      42.018  22.763  26.249  1.00  0.00     0.127 S 
ATOM     46  O   UNL A   1      42.642  22.489  24.954  1.00  0.00    -0.237 OA
ATOM     47  O   UNL A   1      42.803  22.340  27.407  1.00  0.00    -0.237 OA
ATOM     48  O   UNL A   1      40.596  22.454  26.318  1.00  0.00    -0.744 OA
ENDBRANCH  42  45
ENDBRANCH  24  38
BRANCH  25  49
ATOM     49  C   UNL A   1      39.955  32.200  35.535  1.00  0.00     0.023 A 
ATOM     50  C   UNL A   1      40.716  33.372  35.709  1.00  0.00     0.012 A 
ATOM     51  C   UNL A   1      38.966  31.873  36.482  1.00  0.00     0.148 A 
ATOM     52  C   UNL A   1      40.512  34.195  36.816  1.00  0.00     0.002 A 
ATOM     53  C   UNL A   1      38.740  32.719  37.563  1.00  0.00     0.091 A 
ATOM     54  F   UNL A   1      38.264  30.745  36.304  1.00  0.00    -0.205 F 
ATOM     55  C   UNL A   1      39.519  33.874  37.737  1.00  0.00     0.022 A 
BRANCH  53  56
ATOM     56  S   UNL A   1      37.420  32.437  38.749  1.00  0.00     0.127 S 
ATOM     57  O   UNL A   1      37.570  31.008  39.025  1.00  0.00    -0.237 OA
ATOM     58  O   UNL A   1      37.812  33.319  39.851  1.00  0.00    -0.237 OA
ATOM     59  O   UNL A   1      36.194  32.824  38.073  1.00  0.00    -0.744 OA
ENDBRANCH  53  56
ENDBRANCH  25  49
BRANCH  37  60
ATOM     60  C   UNL A   1      45.103  27.828  33.767  1.00  0.00     0.023 A 
ATOM     61  C   UNL A   1      46.264  28.617  33.676  1.00  0.00     0.012 A 
ATOM     62  C   UNL A   1      45.088  26.701  34.612  1.00  0.00     0.148 A 
ATOM     63  C   UNL A   1      47.400  28.285  34.413  1.00  0.00     0.002 A 
ATOM     64  C   UNL A   1      46.211  26.396  35.370  1.00  0.00     0.091 A 
ATOM     65  F   UNL A   1      43.970  25.963  34.673  1.00  0.00    -0.205 F 
ATOM     66  C   UNL A   1      47.370  27.185  35.267  1.00  0.00     0.022 A 
BRANCH  64  67
ATOM     67  S   UNL A   1      46.242  25.048  36.556  1.00  0.00     0.127 S 
ATOM     68  O   UNL A   1      46.206  23.879  35.679  1.00  0.00    -0.237 OA
ATOM     69  O   UNL A   1      47.520  25.262  37.235  1.00  0.00    -0.237 OA
ATOM     70  O   UNL A   1      45.069  25.226  37.401  1.00  0.00    -0.744 OA
ENDBRANCH  64  67
ENDBRANCH  37  60
ENDBRANCH  11  12
ENDBRANCH   4   6
ENDBRANCH   1   2
BRANCH   1  71
ATOM     71  C   UNL A   1      31.599  29.867  26.985  1.00  0.00     0.042 C 
BRANCH  71  72
ATOM     72  C   UNL A   1      32.182  28.551  27.486  1.00  0.00     0.118 C 
BRANCH  72  73
ATOM     73  N   UNL A   1      31.229  27.462  27.331  1.00  0.00    -0.351 N 
ATOM     74  C   UNL A   1      31.350  26.256  26.690  1.00  0.00     0.278 C 
ATOM     75  H   UNL A   1      30.355  27.615  27.755  1.00  0.00     0.163 HD
ATOM     76  O   UNL A   1      30.328  25.571  26.603  1.00  0.00    -0.268 OA
BRANCH  74  77
ATOM     77  C   UNL A   1      32.737  25.760  26.222  1.00  0.00     0.279 C 
ATOM     78  C   UNL A   1      32.757  24.264  26.632  1.00  0.00     0.111 C 
ATOM     79  N   UNL A   1      32.933  25.898  24.754  1.00  0.00    -0.317 N 
ATOM     80  C   UNL A   1      33.917  23.491  26.065  1.00  0.00    -0.033 A 
ATOM     81  C   UNL A   1      34.193  25.294  24.308  1.00  0.00     0.300 C 
ATOM     82  H   UNL A   1      32.160  25.364  24.358  1.00  0.00     0.349 HD
ATOM     83  C   UNL A   1      34.342  22.291  26.651  1.00  0.00     0.006 A 
ATOM     84  C   UNL A   1      34.549  23.958  24.907  1.00  0.00     0.011 A 
ATOM     85  C   UNL A   1      35.428  21.590  26.119  1.00  0.00     0.021 A 
ATOM     86  C   UNL A   1      35.639  23.247  24.377  1.00  0.00     0.030 A 
ATOM     87  C   UNL A   1      36.076  22.076  24.988  1.00  0.00     0.041 A 
ATOM     88  Cl  UNL A   1      37.441  21.242  24.355  1.00  0.00    -0.084 Cl
BRANCH  79  89
ATOM     89  C   UNL A   1      32.750  27.263  24.203  1.00  0.00     0.299 C 
BRANCH  89  90
ATOM     90  C   UNL A   1      31.353  27.675  23.760  1.00  0.00     0.006 A 
ATOM     91  C   UNL A   1      31.012  29.005  23.464  1.00  0.00     0.011 A 
ATOM     92  C   UNL A   1      30.355  26.703  23.598  1.00  0.00     0.011 A 
ATOM     93  C   UNL A   1      29.689  29.379  23.222  1.00  0.00     0.021 A 
ATOM     94  C   UNL A   1      29.034  27.067  23.304  1.00  0.00     0.021 A 
ATOM     95  C   UNL A   1      28.697  28.410  23.174  1.00  0.00     0.041 A 
ATOM     96  Cl  UNL A   1      27.054  28.875  22.980  1.00  0.00    -0.084 Cl
ENDBRANCH  89  90
ENDBRANCH  79  89
ENDBRANCH  74  77
ENDBRANCH  72  73
ENDBRANCH  71  72
ENDBRANCH   1  71
TORSDOF 15
ENDMDL
