MODEL 1
REMARK VINA RESULT:     -13.7      0.000      0.000
REMARK SMILES C[C@@H]1CCC[C@H](C)[N@H+]1Cc1cc2c(cc1Cl)C=C(C(=O)NCCCNC(=O)c1ccc(-c3c4nc(c(-c5cccc(S(=O)(=O)[O-])c5F)c5ccc([nH]5)c(-c5cccc(S(=O)(=O)[O-])c5F)c5nc(c(-c6cccc(S(=O)(=O)[O-])c6F)c6ccc3[nH]6)C=C5)C=C4)cc1)[C@@H](C(F)(F)F)O2
REMARK SMILES IDX 23 1 22 2 21 3 19 4 20 5 18 7 10 8 11 9 15 10 12 11 14 12
REMARK SMILES IDX 16 13 13 14 96 15 17 16 91 17 9 18 8 19 7 20 6 21 5 22 4 23
REMARK SMILES IDX 2 24 3 26 1 27 92 28 93 29 94 30 95 31 24 32 25 33 26 34
REMARK SMILES IDX 27 36 28 37 29 38 90 39 30 40 89 41 31 42 32 43 33 44 83 45
REMARK SMILES IDX 34 46 88 47 82 48 84 49 35 50 87 51 81 52 80 53 36 55 68 56
REMARK SMILES IDX 48 57 67 58 49 59 52 60 66 61 85 62 50 63 51 64 65 66 86 67
REMARK SMILES IDX 53 68 37 69 38 70 46 71 39 72 41 73 47 74 40 75 42 76 43 77
REMARK SMILES IDX 44 78 45 79 69 80 70 81 78 82 71 83 73 84 79 85 72 86 74 87
REMARK SMILES IDX 75 88 76 89 77 90 54 91 55 92 63 93 56 94 58 95 64 96 57 97
REMARK SMILES IDX 59 98 60 99 61 100 62 101
REMARK H PARENT 21 6 8 25 25 35 84 54 52 65
REMARK Flexibility Score: inf
ROOT
ATOM      1  C   UNL A   1      32.317  29.704  25.156  1.00  0.00     0.042 C 
ENDROOT
BRANCH   1   2
ATOM      2  C   UNL A   1      32.513  28.210  24.964  1.00  0.00     0.118 C 
BRANCH   2   3
ATOM      3  N   UNL A   1      31.475  27.437  25.625  1.00  0.00    -0.352 N 
ATOM      4  C   UNL A   1      31.205  26.127  25.817  1.00  0.00     0.251 C 
ATOM      5  O   UNL A   1      30.229  25.883  26.534  1.00  0.00    -0.270 OA
ATOM      6  H   UNL A   1      30.795  28.016  26.039  1.00  0.00     0.163 HD
BRANCH   4   7
ATOM      7  C   UNL A   1      31.978  25.005  25.220  1.00  0.00     0.067 C 
ATOM      8  C   UNL A   1      34.952  20.959  24.896  1.00  0.00     0.029 A 
ATOM      9  C   UNL A   1      33.707  21.310  24.348  1.00  0.00     0.058 A 
ATOM     10  C   UNL A   1      35.710  21.971  25.511  1.00  0.00     0.050 A 
ATOM     11  C   UNL A   1      33.160  22.564  24.593  1.00  0.00     0.128 A 
ATOM     12  C   UNL A   1      35.139  23.217  25.794  1.00  0.00     0.033 A 
ATOM     13  Cl  UNL A   1      37.356  21.743  25.988  1.00  0.00    -0.084 Cl
ATOM     14  C   UNL A   1      33.836  23.490  25.389  1.00  0.00     0.019 A 
ATOM     15  O   UNL A   1      31.908  22.804  24.100  1.00  0.00    -0.475 OA
ATOM     16  C   UNL A   1      33.116  24.668  25.855  1.00  0.00     0.025 C 
ATOM     17  C   UNL A   1      31.559  24.215  24.013  1.00  0.00     0.314 C 
BRANCH   8  18
ATOM     18  C   UNL A   1      35.341  19.495  24.907  1.00  0.00     0.301 C 
BRANCH  18  19
ATOM     19  N   UNL A   1      34.363  18.552  24.314  1.00  0.00    -0.327 N 
ATOM     20  C   UNL A   1      31.974  18.545  23.648  1.00  0.00     0.075 C 
ATOM     21  C   UNL A   1      32.978  18.679  24.804  1.00  0.00     0.181 C 
ATOM     22  C   UNL A   1      32.602  17.709  25.939  1.00  0.00     0.065 C 
ATOM     23  C   UNL A   1      33.038  16.274  25.678  1.00  0.00     0.012 C 
ATOM     24  C   UNL A   1      34.861  17.181  24.130  1.00  0.00     0.181 C 
ATOM     25  H   UNL A   1      34.267  18.883  23.354  1.00  0.00     0.348 HD
ATOM     26  C   UNL A   1      34.503  16.212  25.268  1.00  0.00     0.065 C 
ATOM     27  C   UNL A   1      34.430  16.610  22.772  1.00  0.00     0.075 C 
ENDBRANCH  18  19
ENDBRANCH   8  18
BRANCH  17  28
ATOM     28  C   UNL A   1      32.119  24.827  22.710  1.00  0.00     0.429 C 
ATOM     29  F   UNL A   1      31.161  25.529  22.058  1.00  0.00    -0.167 F 
ATOM     30  F   UNL A   1      33.139  25.690  22.945  1.00  0.00    -0.167 F 
ATOM     31  F   UNL A   1      32.596  23.900  21.848  1.00  0.00    -0.167 F 
ENDBRANCH  17  28
ENDBRANCH   4   7
ENDBRANCH   2   3
ENDBRANCH   1   2
BRANCH   1  32
ATOM     32  C   UNL A   1      32.129  30.081  26.617  1.00  0.00     0.118 C 
BRANCH  32  33
ATOM     33  N   UNL A   1      32.001  31.526  26.805  1.00  0.00    -0.352 N 
ATOM     34  C   UNL A   1      32.865  32.419  27.396  1.00  0.00     0.251 C 
ATOM     35  H   UNL A   1      31.170  31.919  26.456  1.00  0.00     0.163 HD
ATOM     36  O   UNL A   1      32.488  33.564  27.634  1.00  0.00    -0.269 OA
BRANCH  34  37
ATOM     37  C   UNL A   1      34.223  31.980  27.767  1.00  0.00     0.039 A 
ATOM     38  C   UNL A   1      34.466  30.636  28.043  1.00  0.00     0.014 A 
ATOM     39  C   UNL A   1      35.247  32.922  27.899  1.00  0.00     0.014 A 
ATOM     40  C   UNL A   1      35.645  30.274  28.676  1.00  0.00     0.010 A 
ATOM     41  C   UNL A   1      36.482  32.527  28.422  1.00  0.00     0.010 A 
ATOM     42  C   UNL A   1      36.666  31.216  28.883  1.00  0.00    -0.014 A 
BRANCH  42  43
ATOM     43  C   UNL A   1      37.894  30.789  29.604  1.00  0.00     0.031 A 
ATOM     44  C   UNL A   1      38.126  31.176  31.041  1.00  0.00     0.074 A 
ATOM     45  C   UNL A   1      38.768  29.977  28.978  1.00  0.00     0.049 A 
ATOM     46  N   UNL A   1      39.105  30.821  31.834  1.00  0.00    -0.248 NA
ATOM     47  C   UNL A   1      37.149  32.078  31.674  1.00  0.00     0.031 C 
ATOM     48  C   UNL A   1      38.665  29.554  27.579  1.00  0.00     0.029 A 
ATOM     49  N   UNL A   1      39.891  29.336  29.435  1.00  0.00    -0.354 N 
ATOM     50  C   UNL A   1      38.895  31.499  33.029  1.00  0.00     0.074 A 
ATOM     51  C   UNL A   1      37.694  32.285  32.865  1.00  0.00     0.031 C 
ATOM     52  C   UNL A   1      39.637  28.671  27.313  1.00  0.00     0.029 A 
ATOM     53  C   UNL A   1      40.472  28.514  28.499  1.00  0.00     0.049 A 
ATOM     54  H   UNL A   1      40.246  29.454  30.346  1.00  0.00     0.167 HD
ATOM     55  C   UNL A   1      39.626  31.454  34.167  1.00  0.00     0.034 A 
ATOM     56  C   UNL A   1      41.558  27.722  28.576  1.00  0.00     0.034 A 
ATOM     57  C   UNL A   1      40.773  30.610  34.358  1.00  0.00     0.049 A 
ATOM     58  C   UNL A   1      42.325  27.655  29.861  1.00  0.00     0.074 A 
ATOM     59  C   UNL A   1      41.529  30.441  35.503  1.00  0.00     0.029 A 
ATOM     60  N   UNL A   1      41.326  29.794  33.386  1.00  0.00    -0.354 N 
ATOM     61  N   UNL A   1      42.057  28.238  31.005  1.00  0.00    -0.248 NA
ATOM     62  C   UNL A   1      43.536  26.824  29.877  1.00  0.00     0.031 C 
ATOM     63  C   UNL A   1      42.546  29.526  35.222  1.00  0.00     0.029 A 
ATOM     64  C   UNL A   1      42.418  29.122  33.902  1.00  0.00     0.049 A 
ATOM     65  H   UNL A   1      40.991  29.704  32.464  1.00  0.00     0.167 HD
ATOM     66  C   UNL A   1      43.063  27.844  31.877  1.00  0.00     0.074 A 
ATOM     67  C   UNL A   1      43.935  26.954  31.137  1.00  0.00     0.031 C 
ATOM     68  C   UNL A   1      43.252  28.207  33.167  1.00  0.00     0.034 A 
BRANCH  55  69
ATOM     69  C   UNL A   1      39.188  32.308  35.324  1.00  0.00     0.023 A 
ATOM     70  C   UNL A   1      38.283  31.785  36.268  1.00  0.00     0.012 A 
ATOM     71  C   UNL A   1      39.745  33.586  35.528  1.00  0.00     0.148 A 
ATOM     72  C   UNL A   1      37.925  32.528  37.392  1.00  0.00     0.002 A 
ATOM     73  C   UNL A   1      39.406  34.310  36.665  1.00  0.00     0.091 A 
ATOM     74  F   UNL A   1      40.592  34.067  34.608  1.00  0.00    -0.205 F 
ATOM     75  C   UNL A   1      38.493  33.783  37.595  1.00  0.00     0.022 A 
BRANCH  73  76
ATOM     76  S   UNL A   1      40.123  35.911  37.050  1.00  0.00     0.127 S 
ATOM     77  O   UNL A   1      39.740  36.692  35.875  1.00  0.00    -0.237 OA
ATOM     78  O   UNL A   1      39.421  36.275  38.280  1.00  0.00    -0.237 OA
ATOM     79  O   UNL A   1      41.552  35.684  37.207  1.00  0.00    -0.744 OA
ENDBRANCH  73  76
ENDBRANCH  55  69
BRANCH  56  80
ATOM     80  C   UNL A   1      41.931  26.902  27.393  1.00  0.00     0.023 A 
ATOM     81  C   UNL A   1      42.675  27.490  26.354  1.00  0.00     0.012 A 
ATOM     82  C   UNL A   1      41.665  25.519  27.360  1.00  0.00     0.148 A 
ATOM     83  C   UNL A   1      43.155  26.710  25.300  1.00  0.00     0.002 A 
ATOM     84  C   UNL A   1      42.186  24.742  26.333  1.00  0.00     0.091 A 
ATOM     85  F   UNL A   1      40.957  24.988  28.366  1.00  0.00    -0.205 F 
ATOM     86  C   UNL A   1      42.924  25.336  25.297  1.00  0.00     0.022 A 
BRANCH  84  87
ATOM     87  S   UNL A   1      42.054  22.950  26.314  1.00  0.00     0.127 S 
ATOM     88  O   UNL A   1      42.662  22.621  25.027  1.00  0.00    -0.237 OA
ATOM     89  O   UNL A   1      42.851  22.583  27.485  1.00  0.00    -0.237 OA
ATOM     90  O   UNL A   1      40.634  22.654  26.428  1.00  0.00    -0.744 OA
ENDBRANCH  84  87
ENDBRANCH  56  80
BRANCH  68  91
ATOM     91  C   UNL A   1      44.448  27.657  33.890  1.00  0.00     0.023 A 
ATOM     92  C   UNL A   1      45.652  28.386  33.873  1.00  0.00     0.012 A 
ATOM     93  C   UNL A   1      44.330  26.520  34.711  1.00  0.00     0.148 A 
ATOM     94  C   UNL A   1      46.726  27.991  34.669  1.00  0.00     0.002 A 
ATOM     95  C   UNL A   1      45.393  26.151  35.527  1.00  0.00     0.091 A 
ATOM     96  F   UNL A   1      43.171  25.847  34.703  1.00  0.00    -0.205 F 
ATOM     97  C   UNL A   1      46.592  26.884  35.504  1.00  0.00     0.022 A 
BRANCH  95  98
ATOM     98  S   UNL A   1      45.292  24.791  36.695  1.00  0.00     0.127 S 
ATOM     99  O   UNL A   1      45.780  23.671  35.890  1.00  0.00    -0.237 OA
ATOM    100  O   UNL A   1      46.203  25.227  37.753  1.00  0.00    -0.237 OA
ATOM    101  O   UNL A   1      43.893  24.699  37.092  1.00  0.00    -0.744 OA
ENDBRANCH  95  98
ENDBRANCH  68  91
ENDBRANCH  42  43
ENDBRANCH  34  37
ENDBRANCH  32  33
ENDBRANCH   1  32
TORSDOF 16
ENDMDL
MODEL 2
REMARK VINA RESULT:     -13.4      2.164      2.971
REMARK SMILES C[C@@H]1CCC[C@H](C)[N@H+]1Cc1cc2c(cc1Cl)C=C(C(=O)NCCCNC(=O)c1ccc(-c3c4nc(c(-c5cccc(S(=O)(=O)[O-])c5F)c5ccc([nH]5)c(-c5cccc(S(=O)(=O)[O-])c5F)c5nc(c(-c6cccc(S(=O)(=O)[O-])c6F)c6ccc3[nH]6)C=C5)C=C4)cc1)[C@@H](C(F)(F)F)O2
REMARK SMILES IDX 23 1 22 2 21 3 19 4 20 5 18 7 10 8 11 9 15 10 12 11 14 12
REMARK SMILES IDX 16 13 13 14 96 15 17 16 91 17 9 18 8 19 7 20 6 21 5 22 4 23
REMARK SMILES IDX 2 24 3 26 1 27 92 28 93 29 94 30 95 31 24 32 25 33 26 34
REMARK SMILES IDX 27 36 28 37 29 38 90 39 30 40 89 41 31 42 32 43 33 44 83 45
REMARK SMILES IDX 34 46 88 47 82 48 84 49 35 50 87 51 81 52 80 53 36 55 68 56
REMARK SMILES IDX 48 57 67 58 49 59 52 60 66 61 85 62 50 63 51 64 65 66 86 67
REMARK SMILES IDX 53 68 37 69 38 70 46 71 39 72 41 73 47 74 40 75 42 76 43 77
REMARK SMILES IDX 44 78 45 79 69 80 70 81 78 82 71 83 73 84 79 85 72 86 74 87
REMARK SMILES IDX 75 88 76 89 77 90 54 91 55 92 63 93 56 94 58 95 64 96 57 97
REMARK SMILES IDX 59 98 60 99 61 100 62 101
REMARK H PARENT 21 6 8 25 25 35 84 54 52 65
REMARK Flexibility Score: inf
ROOT
ATOM      1  C   UNL A   1      31.305  32.283  26.577  1.00  0.00     0.042 C 
ENDROOT
BRANCH   1   2
ATOM      2  C   UNL A   1      31.404  30.809  26.222  1.00  0.00     0.118 C 
BRANCH   2   3
ATOM      3  N   UNL A   1      30.874  30.532  24.898  1.00  0.00    -0.352 N 
ATOM      4  C   UNL A   1      30.837  29.470  24.063  1.00  0.00     0.251 C 
ATOM      5  O   UNL A   1      30.190  29.631  23.023  1.00  0.00    -0.270 OA
ATOM      6  H   UNL A   1      30.427  31.318  24.510  1.00  0.00     0.163 HD
BRANCH   4   7
ATOM      7  C   UNL A   1      31.520  28.172  24.310  1.00  0.00     0.067 C 
ATOM      8  C   UNL A   1      34.093  23.940  23.421  1.00  0.00     0.029 A 
ATOM      9  C   UNL A   1      34.187  24.965  24.377  1.00  0.00     0.058 A 
ATOM     10  C   UNL A   1      32.933  23.883  22.628  1.00  0.00     0.050 A 
ATOM     11  C   UNL A   1      33.262  26.002  24.388  1.00  0.00     0.128 A 
ATOM     12  C   UNL A   1      32.029  24.951  22.611  1.00  0.00     0.033 A 
ATOM     13  Cl  UNL A   1      32.567  22.538  21.606  1.00  0.00    -0.084 Cl
ATOM     14  C   UNL A   1      32.230  26.043  23.450  1.00  0.00     0.019 A 
ATOM     15  O   UNL A   1      33.467  27.008  25.291  1.00  0.00    -0.475 OA
ATOM     16  C   UNL A   1      31.462  27.273  23.310  1.00  0.00     0.025 C 
ATOM     17  C   UNL A   1      32.291  27.826  25.553  1.00  0.00     0.314 C 
BRANCH   8  18
ATOM     18  C   UNL A   1      35.295  23.042  23.214  1.00  0.00     0.301 C 
BRANCH  18  19
ATOM     19  N   UNL A   1      35.414  21.883  24.132  1.00  0.00    -0.327 N 
ATOM     20  C   UNL A   1      34.266  19.723  24.537  1.00  0.00     0.075 C 
ATOM     21  C   UNL A   1      34.141  21.255  24.532  1.00  0.00     0.181 C 
ATOM     22  C   UNL A   1      33.578  21.739  25.881  1.00  0.00     0.065 C 
ATOM     23  C   UNL A   1      34.620  21.791  26.989  1.00  0.00     0.012 C 
ATOM     24  C   UNL A   1      36.423  22.037  25.191  1.00  0.00     0.181 C 
ATOM     25  H   UNL A   1      35.820  21.156  23.543  1.00  0.00     0.348 HD
ATOM     26  C   UNL A   1      35.867  22.536  26.535  1.00  0.00     0.065 C 
ATOM     27  C   UNL A   1      37.230  20.746  25.381  1.00  0.00     0.075 C 
ENDBRANCH  18  19
ENDBRANCH   8  18
BRANCH  17  28
ATOM     28  C   UNL A   1      31.391  27.149  26.610  1.00  0.00     0.429 C 
ATOM     29  F   UNL A   1      30.178  26.848  26.087  1.00  0.00    -0.167 F 
ATOM     30  F   UNL A   1      31.919  25.983  27.062  1.00  0.00    -0.167 F 
ATOM     31  F   UNL A   1      31.180  27.919  27.702  1.00  0.00    -0.167 F 
ENDBRANCH  17  28
ENDBRANCH   4   7
ENDBRANCH   2   3
ENDBRANCH   1   2
BRANCH   1  32
ATOM     32  C   UNL A   1      32.666  32.908  26.839  1.00  0.00     0.118 C 
BRANCH  32  33
ATOM     33  N   UNL A   1      32.589  34.037  27.765  1.00  0.00    -0.352 N 
ATOM     34  C   UNL A   1      33.371  34.340  28.856  1.00  0.00     0.251 C 
ATOM     35  H   UNL A   1      31.866  34.679  27.579  1.00  0.00     0.163 HD
ATOM     36  O   UNL A   1      33.023  35.231  29.626  1.00  0.00    -0.269 OA
BRANCH  34  37
ATOM     37  C   UNL A   1      34.602  33.566  29.104  1.00  0.00     0.039 A 
ATOM     38  C   UNL A   1      34.526  32.327  29.736  1.00  0.00     0.014 A 
ATOM     39  C   UNL A   1      35.844  34.106  28.759  1.00  0.00     0.014 A 
ATOM     40  C   UNL A   1      35.682  31.747  30.237  1.00  0.00     0.010 A 
ATOM     41  C   UNL A   1      37.014  33.451  29.156  1.00  0.00     0.010 A 
ATOM     42  C   UNL A   1      36.941  32.305  29.962  1.00  0.00    -0.014 A 
BRANCH  42  43
ATOM     43  C   UNL A   1      38.147  31.670  30.556  1.00  0.00     0.031 A 
ATOM     44  C   UNL A   1      38.573  31.979  31.968  1.00  0.00     0.074 A 
ATOM     45  C   UNL A   1      38.817  30.746  29.839  1.00  0.00     0.049 A 
ATOM     46  N   UNL A   1      39.552  31.453  32.658  1.00  0.00    -0.248 NA
ATOM     47  C   UNL A   1      37.817  33.009  32.701  1.00  0.00     0.031 C 
ATOM     48  C   UNL A   1      38.515  30.380  28.453  1.00  0.00     0.029 A 
ATOM     49  N   UNL A   1      39.860  29.924  30.179  1.00  0.00    -0.354 N 
ATOM     50  C   UNL A   1      39.567  32.125  33.875  1.00  0.00     0.074 A 
ATOM     51  C   UNL A   1      38.498  33.096  33.836  1.00  0.00     0.031 C 
ATOM     52  C   UNL A   1      39.304  29.362  28.085  1.00  0.00     0.029 A 
ATOM     53  C   UNL A   1      40.211  29.044  29.183  1.00  0.00     0.049 A 
ATOM     54  H   UNL A   1      40.314  29.960  31.052  1.00  0.00     0.167 HD
ATOM     55  C   UNL A   1      40.386  31.936  34.935  1.00  0.00     0.034 A 
ATOM     56  C   UNL A   1      41.158  28.087  29.147  1.00  0.00     0.034 A 
ATOM     57  C   UNL A   1      41.395  30.916  35.006  1.00  0.00     0.049 A 
ATOM     58  C   UNL A   1      42.022  27.867  30.350  1.00  0.00     0.074 A 
ATOM     59  C   UNL A   1      42.219  30.600  36.071  1.00  0.00     0.029 A 
ATOM     60  N   UNL A   1      41.715  30.047  33.976  1.00  0.00    -0.354 N 
ATOM     61  N   UNL A   1      41.960  28.456  31.520  1.00  0.00    -0.248 NA
ATOM     62  C   UNL A   1      43.079  26.854  30.240  1.00  0.00     0.031 C 
ATOM     63  C   UNL A   1      43.045  29.543  35.682  1.00  0.00     0.029 A 
ATOM     64  C   UNL A   1      42.730  29.198  34.377  1.00  0.00     0.049 A 
ATOM     65  H   UNL A   1      41.285  30.035  33.091  1.00  0.00     0.167 HD
ATOM     66  C   UNL A   1      42.967  27.885  32.287  1.00  0.00     0.074 A 
ATOM     67  C   UNL A   1      43.611  26.887  31.457  1.00  0.00     0.031 C 
ATOM     68  C   UNL A   1      43.333  28.181  33.556  1.00  0.00     0.034 A 
BRANCH  55  69
ATOM     69  C   UNL A   1      40.202  32.819  36.138  1.00  0.00     0.023 A 
ATOM     70  C   UNL A   1      40.873  34.056  36.198  1.00  0.00     0.012 A 
ATOM     71  C   UNL A   1      39.294  32.469  37.158  1.00  0.00     0.148 A 
ATOM     72  C   UNL A   1      40.656  34.927  37.265  1.00  0.00     0.002 A 
ATOM     73  C   UNL A   1      39.061  33.356  38.203  1.00  0.00     0.091 A 
ATOM     74  F   UNL A   1      38.680  31.281  37.084  1.00  0.00    -0.205 F 
ATOM     75  C   UNL A   1      39.745  34.582  38.260  1.00  0.00     0.022 A 
BRANCH  73  76
ATOM     76  S   UNL A   1      37.865  33.032  39.503  1.00  0.00     0.127 S 
ATOM     77  O   UNL A   1      36.620  32.946  38.741  1.00  0.00    -0.237 OA
ATOM     78  O   UNL A   1      38.338  31.759  40.046  1.00  0.00    -0.237 OA
ATOM     79  O   UNL A   1      37.955  34.158  40.422  1.00  0.00    -0.744 OA
ENDBRANCH  73  76
ENDBRANCH  55  69
BRANCH  56  80
ATOM     80  C   UNL A   1      41.281  27.249  27.924  1.00  0.00     0.023 A 
ATOM     81  C   UNL A   1      41.941  27.768  26.796  1.00  0.00     0.012 A 
ATOM     82  C   UNL A   1      40.865  25.904  27.927  1.00  0.00     0.148 A 
ATOM     83  C   UNL A   1      42.191  26.956  25.689  1.00  0.00     0.002 A 
ATOM     84  C   UNL A   1      41.159  25.089  26.841  1.00  0.00     0.091 A 
ATOM     85  F   UNL A   1      40.241  25.437  29.018  1.00  0.00    -0.205 F 
ATOM     86  C   UNL A   1      41.814  25.616  25.717  1.00  0.00     0.022 A 
BRANCH  84  87
ATOM     87  S   UNL A   1      40.832  23.322  26.839  1.00  0.00     0.127 S 
ATOM     88  O   UNL A   1      39.381  23.288  26.674  1.00  0.00    -0.237 OA
ATOM     89  O   UNL A   1      41.597  22.882  25.672  1.00  0.00    -0.237 OA
ATOM     90  O   UNL A   1      41.327  22.824  28.114  1.00  0.00    -0.744 OA
ENDBRANCH  84  87
ENDBRANCH  56  80
BRANCH  68  91
ATOM     91  C   UNL A   1      44.488  27.430  34.154  1.00  0.00     0.023 A 
ATOM     92  C   UNL A   1      45.780  27.980  34.066  1.00  0.00     0.012 A 
ATOM     93  C   UNL A   1      44.268  26.279  34.935  1.00  0.00     0.148 A 
ATOM     94  C   UNL A   1      46.842  27.396  34.753  1.00  0.00     0.002 A 
ATOM     95  C   UNL A   1      45.325  25.721  35.644  1.00  0.00     0.091 A 
ATOM     96  F   UNL A   1      43.026  25.779  34.997  1.00  0.00    -0.205 F 
ATOM     97  C   UNL A   1      46.613  26.276  35.551  1.00  0.00     0.022 A 
BRANCH  95  98
ATOM     98  S   UNL A   1      45.117  24.330  36.760  1.00  0.00     0.127 S 
ATOM     99  O   UNL A   1      44.470  23.346  35.892  1.00  0.00    -0.237 OA
ATOM    100  O   UNL A   1      46.500  24.015  37.118  1.00  0.00    -0.237 OA
ATOM    101  O   UNL A   1      44.295  24.813  37.861  1.00  0.00    -0.744 OA
ENDBRANCH  95  98
ENDBRANCH  68  91
ENDBRANCH  42  43
ENDBRANCH  34  37
ENDBRANCH  32  33
ENDBRANCH   1  32
TORSDOF 16
ENDMDL
MODEL 3
REMARK VINA RESULT:     -13.3      5.054      8.913
REMARK SMILES C[C@@H]1CCC[C@H](C)[N@H+]1Cc1cc2c(cc1Cl)C=C(C(=O)NCCCNC(=O)c1ccc(-c3c4nc(c(-c5cccc(S(=O)(=O)[O-])c5F)c5ccc([nH]5)c(-c5cccc(S(=O)(=O)[O-])c5F)c5nc(c(-c6cccc(S(=O)(=O)[O-])c6F)c6ccc3[nH]6)C=C5)C=C4)cc1)[C@@H](C(F)(F)F)O2
REMARK SMILES IDX 23 1 22 2 21 3 19 4 20 5 18 7 10 8 11 9 15 10 12 11 14 12
REMARK SMILES IDX 16 13 13 14 96 15 17 16 91 17 9 18 8 19 7 20 6 21 5 22 4 23
REMARK SMILES IDX 2 24 3 26 1 27 92 28 93 29 94 30 95 31 24 32 25 33 26 34
REMARK SMILES IDX 27 36 28 37 29 38 90 39 30 40 89 41 31 42 32 43 33 44 83 45
REMARK SMILES IDX 34 46 88 47 82 48 84 49 35 50 87 51 81 52 80 53 36 55 68 56
REMARK SMILES IDX 48 57 67 58 49 59 52 60 66 61 85 62 50 63 51 64 65 66 86 67
REMARK SMILES IDX 53 68 37 69 38 70 46 71 39 72 41 73 47 74 40 75 42 76 43 77
REMARK SMILES IDX 44 78 45 79 69 80 70 81 78 82 71 83 73 84 79 85 72 86 74 87
REMARK SMILES IDX 75 88 76 89 77 90 54 91 55 92 63 93 56 94 58 95 64 96 57 97
REMARK SMILES IDX 59 98 60 99 61 100 62 101
REMARK H PARENT 21 6 8 25 25 35 84 54 52 65
REMARK Flexibility Score: inf
ROOT
ATOM      1  C   UNL A   1      37.395  18.697  25.252  1.00  0.00     0.042 C 
ENDROOT
BRANCH   1   2
ATOM      2  C   UNL A   1      36.279  19.348  24.453  1.00  0.00     0.118 C 
BRANCH   2   3
ATOM      3  N   UNL A   1      35.100  19.593  25.266  1.00  0.00    -0.352 N 
ATOM      4  C   UNL A   1      34.268  20.634  25.491  1.00  0.00     0.251 C 
ATOM      5  O   UNL A   1      33.299  20.395  26.219  1.00  0.00    -0.270 OA
ATOM      6  H   UNL A   1      34.842  18.799  25.786  1.00  0.00     0.163 HD
BRANCH   4   7
ATOM      7  C   UNL A   1      34.456  22.004  24.944  1.00  0.00     0.067 C 
ATOM      8  C   UNL A   1      33.405  26.387  22.707  1.00  0.00     0.029 A 
ATOM      9  C   UNL A   1      34.052  26.023  23.899  1.00  0.00     0.058 A 
ATOM     10  C   UNL A   1      33.147  25.378  21.762  1.00  0.00     0.050 A 
ATOM     11  C   UNL A   1      34.236  24.682  24.216  1.00  0.00     0.128 A 
ATOM     12  C   UNL A   1      33.293  24.028  22.104  1.00  0.00     0.033 A 
ATOM     13  Cl  UNL A   1      32.603  25.720  20.158  1.00  0.00    -0.084 Cl
ATOM     14  C   UNL A   1      33.780  23.680  23.360  1.00  0.00     0.019 A 
ATOM     15  O   UNL A   1      34.795  24.403  25.433  1.00  0.00    -0.475 OA
ATOM     16  C   UNL A   1      33.733  22.309  23.850  1.00  0.00     0.025 C 
ATOM     17  C   UNL A   1      35.343  23.058  25.545  1.00  0.00     0.314 C 
BRANCH   8  18
ATOM     18  C   UNL A   1      32.911  27.812  22.567  1.00  0.00     0.301 C 
BRANCH  18  19
ATOM     19  N   UNL A   1      31.727  28.179  23.381  1.00  0.00    -0.327 N 
ATOM     20  C   UNL A   1      31.101  29.886  25.066  1.00  0.00     0.075 C 
ATOM     21  C   UNL A   1      32.017  28.699  24.729  1.00  0.00     0.181 C 
ATOM     22  C   UNL A   1      31.950  27.650  25.855  1.00  0.00     0.065 C 
ATOM     23  C   UNL A   1      30.715  26.765  25.784  1.00  0.00     0.012 C 
ATOM     24  C   UNL A   1      30.594  27.247  23.275  1.00  0.00     0.181 C 
ATOM     25  H   UNL A   1      31.370  29.015  22.916  1.00  0.00     0.348 HD
ATOM     26  C   UNL A   1      30.532  26.187  24.387  1.00  0.00     0.065 C 
ATOM     27  C   UNL A   1      29.262  28.002  23.167  1.00  0.00     0.075 C 
ENDBRANCH  18  19
ENDBRANCH   8  18
BRANCH  17  28
ATOM     28  C   UNL A   1      36.769  23.008  24.951  1.00  0.00     0.429 C 
ATOM     29  F   UNL A   1      37.612  22.348  25.781  1.00  0.00    -0.167 F 
ATOM     30  F   UNL A   1      36.806  22.357  23.762  1.00  0.00    -0.167 F 
ATOM     31  F   UNL A   1      37.297  24.234  24.730  1.00  0.00    -0.167 F 
ENDBRANCH  17  28
ENDBRANCH   4   7
ENDBRANCH   2   3
ENDBRANCH   1   2
BRANCH   1  32
ATOM     32  C   UNL A   1      38.597  19.613  25.421  1.00  0.00     0.118 C 
BRANCH  32  33
ATOM     33  N   UNL A   1      39.823  18.872  25.714  1.00  0.00    -0.352 N 
ATOM     34  C   UNL A   1      41.053  19.328  26.126  1.00  0.00     0.251 C 
ATOM     35  H   UNL A   1      39.757  17.897  25.599  1.00  0.00     0.163 HD
ATOM     36  O   UNL A   1      42.016  18.566  26.129  1.00  0.00    -0.269 OA
BRANCH  34  37
ATOM     37  C   UNL A   1      41.208  20.739  26.528  1.00  0.00     0.039 A 
ATOM     38  C   UNL A   1      40.701  21.751  25.715  1.00  0.00     0.014 A 
ATOM     39  C   UNL A   1      41.914  21.058  27.692  1.00  0.00     0.014 A 
ATOM     40  C   UNL A   1      41.103  23.060  25.929  1.00  0.00     0.010 A 
ATOM     41  C   UNL A   1      42.210  22.395  27.972  1.00  0.00     0.010 A 
ATOM     42  C   UNL A   1      41.870  23.400  27.055  1.00  0.00    -0.014 A 
BRANCH  42  43
ATOM     43  C   UNL A   1      42.312  24.811  27.218  1.00  0.00     0.031 A 
ATOM     44  C   UNL A   1      41.447  25.818  27.929  1.00  0.00     0.074 A 
ATOM     45  C   UNL A   1      43.539  25.163  26.789  1.00  0.00     0.049 A 
ATOM     46  N   UNL A   1      41.718  27.064  28.222  1.00  0.00    -0.248 NA
ATOM     47  C   UNL A   1      40.107  25.386  28.363  1.00  0.00     0.031 C 
ATOM     48  C   UNL A   1      44.459  24.282  26.065  1.00  0.00     0.029 A 
ATOM     49  N   UNL A   1      44.241  26.333  26.926  1.00  0.00    -0.354 N 
ATOM     50  C   UNL A   1      40.571  27.578  28.815  1.00  0.00     0.074 A 
ATOM     51  C   UNL A   1      39.598  26.511  28.847  1.00  0.00     0.031 C 
ATOM     52  C   UNL A   1      45.625  24.916  25.884  1.00  0.00     0.029 A 
ATOM     53  C   UNL A   1      45.517  26.269  26.420  1.00  0.00     0.049 A 
ATOM     54  H   UNL A   1      43.867  27.141  27.346  1.00  0.00     0.167 HD
ATOM     55  C   UNL A   1      40.356  28.820  29.306  1.00  0.00     0.034 A 
ATOM     56  C   UNL A   1      46.497  27.191  26.383  1.00  0.00     0.034 A 
ATOM     57  C   UNL A   1      41.351  29.856  29.349  1.00  0.00     0.049 A 
ATOM     58  C   UNL A   1      46.250  28.546  26.974  1.00  0.00     0.074 A 
ATOM     59  C   UNL A   1      41.246  31.120  29.899  1.00  0.00     0.029 A 
ATOM     60  N   UNL A   1      42.629  29.748  28.827  1.00  0.00    -0.354 N 
ATOM     61  N   UNL A   1      45.187  28.979  27.607  1.00  0.00    -0.248 NA
ATOM     62  C   UNL A   1      47.328  29.536  26.855  1.00  0.00     0.031 C 
ATOM     63  C   UNL A   1      42.460  31.782  29.703  1.00  0.00     0.029 A 
ATOM     64  C   UNL A   1      43.322  30.925  29.035  1.00  0.00     0.049 A 
ATOM     65  H   UNL A   1      42.990  28.951  28.375  1.00  0.00     0.167 HD
ATOM     66  C   UNL A   1      45.467  30.291  27.964  1.00  0.00     0.074 A 
ATOM     67  C   UNL A   1      46.809  30.577  27.497  1.00  0.00     0.031 C 
ATOM     68  C   UNL A   1      44.671  31.181  28.603  1.00  0.00     0.034 A 
BRANCH  55  69
ATOM     69  C   UNL A   1      39.003  29.128  29.886  1.00  0.00     0.023 A 
ATOM     70  C   UNL A   1      38.703  28.715  31.199  1.00  0.00     0.012 A 
ATOM     71  C   UNL A   1      38.072  29.905  29.170  1.00  0.00     0.148 A 
ATOM     72  C   UNL A   1      37.486  29.059  31.787  1.00  0.00     0.002 A 
ATOM     73  C   UNL A   1      36.873  30.268  29.773  1.00  0.00     0.091 A 
ATOM     74  F   UNL A   1      38.376  30.271  27.917  1.00  0.00    -0.205 F 
ATOM     75  C   UNL A   1      36.577  29.842  31.079  1.00  0.00     0.022 A 
BRANCH  73  76
ATOM     76  S   UNL A   1      35.660  31.321  28.969  1.00  0.00     0.127 S 
ATOM     77  O   UNL A   1      34.878  31.792  30.112  1.00  0.00    -0.237 OA
ATOM     78  O   UNL A   1      36.503  32.340  28.345  1.00  0.00    -0.237 OA
ATOM     79  O   UNL A   1      34.942  30.466  28.034  1.00  0.00    -0.744 OA
ENDBRANCH  73  76
ENDBRANCH  55  69
BRANCH  56  80
ATOM     80  C   UNL A   1      47.812  26.816  25.796  1.00  0.00     0.023 A 
ATOM     81  C   UNL A   1      48.091  27.152  24.460  1.00  0.00     0.012 A 
ATOM     82  C   UNL A   1      48.824  26.250  26.596  1.00  0.00     0.148 A 
ATOM     83  C   UNL A   1      49.364  26.935  23.928  1.00  0.00     0.002 A 
ATOM     84  C   UNL A   1      50.100  26.081  26.075  1.00  0.00     0.091 A 
ATOM     85  F   UNL A   1      48.528  25.943  27.867  1.00  0.00    -0.205 F 
ATOM     86  C   UNL A   1      50.370  26.415  24.738  1.00  0.00     0.022 A 
BRANCH  84  87
ATOM     87  S   UNL A   1      51.491  25.543  27.076  1.00  0.00     0.127 S 
ATOM     88  O   UNL A   1      52.035  26.817  27.540  1.00  0.00    -0.237 OA
ATOM     89  O   UNL A   1      50.823  24.746  28.106  1.00  0.00    -0.237 OA
ATOM     90  O   UNL A   1      52.354  24.783  26.184  1.00  0.00    -0.744 OA
ENDBRANCH  84  87
ENDBRANCH  56  80
BRANCH  68  91
ATOM     91  C   UNL A   1      45.206  32.563  28.847  1.00  0.00     0.023 A 
ATOM     92  C   UNL A   1      45.971  32.806  30.003  1.00  0.00     0.012 A 
ATOM     93  C   UNL A   1      45.091  33.561  27.861  1.00  0.00     0.148 A 
ATOM     94  C   UNL A   1      46.620  34.027  30.174  1.00  0.00     0.002 A 
ATOM     95  C   UNL A   1      45.768  34.764  28.023  1.00  0.00     0.091 A 
ATOM     96  F   UNL A   1      44.354  33.299  26.773  1.00  0.00    -0.205 F 
ATOM     97  C   UNL A   1      46.530  34.999  29.180  1.00  0.00     0.022 A 
BRANCH  95  98
ATOM     98  S   UNL A   1      45.780  36.046  26.765  1.00  0.00     0.127 S 
ATOM     99  O   UNL A   1      44.414  36.562  26.852  1.00  0.00    -0.237 OA
ATOM    100  O   UNL A   1      46.811  36.956  27.266  1.00  0.00    -0.237 OA
ATOM    101  O   UNL A   1      46.108  35.381  25.511  1.00  0.00    -0.744 OA
ENDBRANCH  95  98
ENDBRANCH  68  91
ENDBRANCH  42  43
ENDBRANCH  34  37
ENDBRANCH  32  33
ENDBRANCH   1  32
TORSDOF 16
ENDMDL
