MODEL 1
REMARK VINA RESULT:     -14.4      0.000      0.000
REMARK SMILES Cc1ccc(-c2csc(NC(=O)[C@H]3[C@@H](C(=O)NCCCNC(=O)c4ccc(-c5c6nc(c(-c7cccc(S(=O)(=O)[O-])c7F)c7ccc([nH]7)c(-c7cccc(S(=O)(=O)[O-])c7F)c7nc(c(-c8cccc(S(=O)(=O)[O-])c8F)c8ccc5[nH]8)C=C7)C=C6)cc4)[C@H]4C=C[C@@H]3C4)c2C(=O)NC2CC2)cc1
REMARK SMILES IDX 18 1 17 2 15 3 16 4 14 6 13 7 90 8 87 9 89 10 91 11 88 12
REMARK SMILES IDX 11 13 10 14 12 16 9 17 6 18 7 19 92 20 8 21 5 22 1 23 2 24
REMARK SMILES IDX 3 25 100 26 4 27 99 28 93 29 94 30 95 31 96 33 97 34 98 35
REMARK SMILES IDX 19 36 20 37 21 38 22 39 23 41 24 42 25 43 86 44 26 45 85 46
REMARK SMILES IDX 27 47 28 48 29 49 79 50 30 51 84 52 78 53 80 54 31 55 83 56
REMARK SMILES IDX 77 57 76 58 32 60 64 61 44 62 63 63 45 64 48 65 62 66 81 67
REMARK SMILES IDX 46 68 47 69 61 71 82 72 49 73 33 74 34 75 42 76 35 77 37 78
REMARK SMILES IDX 43 79 36 80 38 81 39 82 40 83 41 84 65 85 66 86 74 87 67 88
REMARK SMILES IDX 69 89 75 90 68 91 70 92 71 93 72 94 73 95 50 96 51 97 59 98
REMARK SMILES IDX 52 99 54 100 60 101 53 102 55 103 56 104 57 105 58 106
REMARK H PARENT 17 5 10 15 95 32 21 40 80 59 48 70
REMARK Flexibility Score: inf
ROOT
ATOM      1  C   UNL A   1      31.781  30.293  26.387  1.00  0.00     0.117 C 
ENDROOT
BRANCH   1   2
ATOM      2  N   UNL A   1      32.213  30.108  25.012  1.00  0.00    -0.356 N 
ATOM      3  C   UNL A   1      31.997  29.039  24.181  1.00  0.00     0.224 C 
ATOM      4  O   UNL A   1      32.468  29.070  23.047  1.00  0.00    -0.275 OA
ATOM      5  H   UNL A   1      32.732  30.849  24.625  1.00  0.00     0.163 HD
BRANCH   3   6
ATOM      6  C   UNL A   1      31.048  27.942  24.666  1.00  0.00     0.098 C 
ATOM      7  C   UNL A   1      31.619  26.549  25.148  1.00  0.00     0.099 C 
ATOM      8  C   UNL A   1      30.991  25.585  24.105  1.00  0.00     0.025 C 
ATOM      9  C   UNL A   1      30.117  27.540  23.482  1.00  0.00     0.025 C 
ATOM     10  C   UNL A   1      31.509  25.875  22.723  1.00  0.00    -0.027 C 
ATOM     11  C   UNL A   1      29.586  26.197  23.971  1.00  0.00     0.017 C 
ATOM     12  C   UNL A   1      30.955  27.030  22.330  1.00  0.00    -0.027 C 
BRANCH   7  13
ATOM     13  C   UNL A   1      33.120  26.524  25.438  1.00  0.00     0.229 C 
ATOM     14  N   UNL A   1      33.875  25.397  25.282  1.00  0.00    -0.317 N 
ATOM     15  H   UNL A   1      34.819  25.554  25.049  1.00  0.00     0.170 HD
ATOM     16  O   UNL A   1      33.676  27.522  25.907  1.00  0.00    -0.274 OA
BRANCH  14  17
ATOM     17  C   UNL A   1      33.514  24.068  25.404  1.00  0.00     0.108 A 
ATOM     18  C   UNL A   1      33.242  21.782  25.070  1.00  0.00     0.007 A 
ATOM     19  C   UNL A   1      32.355  22.050  26.100  1.00  0.00     0.076 A 
ATOM     20  C   UNL A   1      34.005  22.969  24.690  1.00  0.00     0.082 A 
ATOM     21  S   UNL A   1      32.509  23.624  26.703  1.00  0.00    -0.125 S 
BRANCH  18  22
ATOM     22  C   UNL A   1      33.287  20.403  24.598  1.00  0.00    -0.017 A 
ATOM     23  C   UNL A   1      34.010  16.568  22.801  1.00  0.00     0.044 C 
ATOM     24  C   UNL A   1      33.664  17.826  23.540  1.00  0.00    -0.051 A 
ATOM     25  C   UNL A   1      34.568  18.338  24.473  1.00  0.00     0.004 A 
ATOM     26  C   UNL A   1      32.519  18.574  23.215  1.00  0.00     0.004 A 
ATOM     27  C   UNL A   1      34.363  19.600  25.017  1.00  0.00     0.009 A 
ATOM     28  C   UNL A   1      32.328  19.861  23.742  1.00  0.00     0.009 A 
ENDBRANCH  18  22
BRANCH  20  29
ATOM     29  C   UNL A   1      34.949  23.218  23.594  1.00  0.00     0.255 C 
ATOM     30  O   UNL A   1      34.564  23.847  22.601  1.00  0.00    -0.269 OA
ATOM     31  N   UNL A   1      36.293  22.924  23.581  1.00  0.00    -0.349 N 
ATOM     32  H   UNL A   1      36.718  23.294  22.774  1.00  0.00     0.164 HD
BRANCH  31  33
ATOM     33  C   UNL A   1      37.249  22.249  24.385  1.00  0.00     0.082 C 
ATOM     34  C   UNL A   1      37.988  22.733  25.579  1.00  0.00     0.027 C 
ATOM     35  C   UNL A   1      36.817  21.806  25.752  1.00  0.00     0.027 C 
ENDBRANCH  31  33
ENDBRANCH  20  29
ENDBRANCH  14  17
ENDBRANCH   7  13
ENDBRANCH   3   6
ENDBRANCH   1   2
BRANCH   1  36
ATOM     36  C   UNL A   1      32.640  31.325  27.108  1.00  0.00     0.042 C 
BRANCH  36  37
ATOM     37  C   UNL A   1      34.019  30.781  27.452  1.00  0.00     0.118 C 
BRANCH  37  38
ATOM     38  N   UNL A   1      34.978  31.823  27.805  1.00  0.00    -0.352 N 
ATOM     39  C   UNL A   1      36.240  31.711  28.358  1.00  0.00     0.251 C 
ATOM     40  H   UNL A   1      34.682  32.744  27.621  1.00  0.00     0.163 HD
ATOM     41  O   UNL A   1      36.804  32.732  28.753  1.00  0.00    -0.269 OA
BRANCH  39  42
ATOM     42  C   UNL A   1      36.942  30.408  28.339  1.00  0.00     0.039 A 
ATOM     43  C   UNL A   1      36.998  29.678  29.534  1.00  0.00     0.014 A 
ATOM     44  C   UNL A   1      37.737  30.040  27.257  1.00  0.00     0.014 A 
ATOM     45  C   UNL A   1      38.030  28.766  29.737  1.00  0.00     0.010 A 
ATOM     46  C   UNL A   1      38.813  29.214  27.484  1.00  0.00     0.010 A 
ATOM     47  C   UNL A   1      38.997  28.637  28.747  1.00  0.00    -0.014 A 
BRANCH  47  48
ATOM     48  C   UNL A   1      40.283  27.985  28.923  1.00  0.00     0.031 A 
ATOM     49  C   UNL A   1      40.413  26.537  28.687  1.00  0.00     0.074 A 
ATOM     50  C   UNL A   1      41.373  28.775  29.039  1.00  0.00     0.049 A 
ATOM     51  N   UNL A   1      41.438  25.831  29.018  1.00  0.00    -0.248 NA
ATOM     52  C   UNL A   1      39.345  25.762  28.071  1.00  0.00     0.031 C 
ATOM     53  C   UNL A   1      42.754  28.423  28.740  1.00  0.00     0.029 A 
ATOM     54  N   UNL A   1      41.459  30.030  29.652  1.00  0.00    -0.354 N 
ATOM     55  C   UNL A   1      41.297  24.595  28.420  1.00  0.00     0.074 A 
ATOM     56  C   UNL A   1      39.943  24.578  27.922  1.00  0.00     0.031 C 
ATOM     57  C   UNL A   1      43.563  29.275  29.387  1.00  0.00     0.029 A 
ATOM     58  C   UNL A   1      42.723  30.074  30.264  1.00  0.00     0.049 A 
ATOM     59  H   UNL A   1      40.775  30.737  29.653  1.00  0.00     0.167 HD
ATOM     60  C   UNL A   1      42.396  23.797  28.286  1.00  0.00     0.034 A 
ATOM     61  C   UNL A   1      42.907  30.223  31.609  1.00  0.00     0.034 A 
ATOM     62  C   UNL A   1      43.561  24.404  28.949  1.00  0.00     0.049 A 
ATOM     63  C   UNL A   1      43.678  29.073  32.230  1.00  0.00     0.074 A 
ATOM     64  C   UNL A   1      44.609  25.177  28.475  1.00  0.00     0.029 A 
ATOM     65  N   UNL A   1      43.595  24.504  30.336  1.00  0.00    -0.354 N 
ATOM     66  N   UNL A   1      43.955  27.960  31.609  1.00  0.00    -0.248 NA
ATOM     67  C   UNL A   1      44.171  29.071  33.605  1.00  0.00     0.031 C 
ATOM     68  C   UNL A   1      45.212  25.826  29.585  1.00  0.00     0.029 A 
ATOM     69  C   UNL A   1      44.553  25.423  30.735  1.00  0.00     0.049 A 
ATOM     70  H   UNL A   1      43.019  23.992  30.949  1.00  0.00     0.167 HD
ATOM     71  C   UNL A   1      44.517  27.066  32.481  1.00  0.00     0.074 A 
ATOM     72  C   UNL A   1      44.701  27.838  33.698  1.00  0.00     0.031 C 
ATOM     73  C   UNL A   1      44.722  25.755  32.147  1.00  0.00     0.034 A 
BRANCH  60  74
ATOM     74  C   UNL A   1      42.531  22.643  27.299  1.00  0.00     0.023 A 
ATOM     75  C   UNL A   1      41.712  21.509  27.520  1.00  0.00     0.012 A 
ATOM     76  C   UNL A   1      43.439  22.534  26.221  1.00  0.00     0.148 A 
ATOM     77  C   UNL A   1      41.859  20.315  26.803  1.00  0.00     0.002 A 
ATOM     78  C   UNL A   1      43.635  21.323  25.546  1.00  0.00     0.091 A 
ATOM     79  F   UNL A   1      44.064  23.621  25.764  1.00  0.00    -0.205 F 
ATOM     80  C   UNL A   1      42.850  20.208  25.840  1.00  0.00     0.022 A 
BRANCH  78  81
ATOM     81  S   UNL A   1      44.942  21.095  24.323  1.00  0.00     0.127 S 
ATOM     82  O   UNL A   1      44.759  19.696  23.933  1.00  0.00    -0.237 OA
ATOM     83  O   UNL A   1      44.579  22.065  23.293  1.00  0.00    -0.237 OA
ATOM     84  O   UNL A   1      46.197  21.360  25.016  1.00  0.00    -0.744 OA
ENDBRANCH  78  81
ENDBRANCH  60  74
BRANCH  61  85
ATOM     85  C   UNL A   1      41.834  31.013  32.281  1.00  0.00     0.023 A 
ATOM     86  C   UNL A   1      41.675  32.353  31.858  1.00  0.00     0.012 A 
ATOM     87  C   UNL A   1      40.780  30.387  32.970  1.00  0.00     0.148 A 
ATOM     88  C   UNL A   1      40.452  33.010  31.999  1.00  0.00     0.002 A 
ATOM     89  C   UNL A   1      39.559  31.049  33.102  1.00  0.00     0.091 A 
ATOM     90  F   UNL A   1      40.953  29.132  33.404  1.00  0.00    -0.205 F 
ATOM     91  C   UNL A   1      39.384  32.345  32.588  1.00  0.00     0.022 A 
BRANCH  89  92
ATOM     92  S   UNL A   1      38.110  30.237  33.793  1.00  0.00     0.127 S 
ATOM     93  O   UNL A   1      37.031  31.073  33.276  1.00  0.00    -0.237 OA
ATOM     94  O   UNL A   1      38.190  28.901  33.202  1.00  0.00    -0.237 OA
ATOM     95  O   UNL A   1      38.316  30.263  35.233  1.00  0.00    -0.744 OA
ENDBRANCH  89  92
ENDBRANCH  61  85
BRANCH  73  96
ATOM     96  C   UNL A   1      45.090  24.663  33.128  1.00  0.00     0.023 A 
ATOM     97  C   UNL A   1      44.220  23.593  33.411  1.00  0.00     0.012 A 
ATOM     98  C   UNL A   1      46.396  24.589  33.677  1.00  0.00     0.148 A 
ATOM     99  C   UNL A   1      44.594  22.537  34.248  1.00  0.00     0.002 A 
ATOM    100  C   UNL A   1      46.798  23.484  34.425  1.00  0.00     0.091 A 
ATOM    101  F   UNL A   1      47.256  25.602  33.491  1.00  0.00    -0.205 F 
ATOM    102  C   UNL A   1      45.890  22.470  34.739  1.00  0.00     0.022 A 
BRANCH 100 103
ATOM    103  S   UNL A   1      48.524  23.256  34.877  1.00  0.00     0.127 S 
ATOM    104  O   UNL A   1      48.605  21.809  35.057  1.00  0.00    -0.237 OA
ATOM    105  O   UNL A   1      49.233  23.762  33.699  1.00  0.00    -0.237 OA
ATOM    106  O   UNL A   1      48.707  24.068  36.073  1.00  0.00    -0.744 OA
ENDBRANCH 100 103
ENDBRANCH  73  96
ENDBRANCH  47  48
ENDBRANCH  39  42
ENDBRANCH  37  38
ENDBRANCH  36  37
ENDBRANCH   1  36
TORSDOF 18
ENDMDL
MODEL 2
REMARK VINA RESULT:     -14.3      3.811     10.239
REMARK SMILES Cc1ccc(-c2csc(NC(=O)[C@H]3[C@@H](C(=O)NCCCNC(=O)c4ccc(-c5c6nc(c(-c7cccc(S(=O)(=O)[O-])c7F)c7ccc([nH]7)c(-c7cccc(S(=O)(=O)[O-])c7F)c7nc(c(-c8cccc(S(=O)(=O)[O-])c8F)c8ccc5[nH]8)C=C7)C=C6)cc4)[C@H]4C=C[C@@H]3C4)c2C(=O)NC2CC2)cc1
REMARK SMILES IDX 18 1 17 2 15 3 16 4 14 6 13 7 90 8 87 9 89 10 91 11 88 12
REMARK SMILES IDX 11 13 10 14 12 16 9 17 6 18 7 19 92 20 8 21 5 22 1 23 2 24
REMARK SMILES IDX 3 25 100 26 4 27 99 28 93 29 94 30 95 31 96 33 97 34 98 35
REMARK SMILES IDX 19 36 20 37 21 38 22 39 23 41 24 42 25 43 86 44 26 45 85 46
REMARK SMILES IDX 27 47 28 48 29 49 79 50 30 51 84 52 78 53 80 54 31 55 83 56
REMARK SMILES IDX 77 57 76 58 32 60 64 61 44 62 63 63 45 64 48 65 62 66 81 67
REMARK SMILES IDX 46 68 47 69 61 71 82 72 49 73 33 74 34 75 42 76 35 77 37 78
REMARK SMILES IDX 43 79 36 80 38 81 39 82 40 83 41 84 65 85 66 86 74 87 67 88
REMARK SMILES IDX 69 89 75 90 68 91 70 92 71 93 72 94 73 95 50 96 51 97 59 98
REMARK SMILES IDX 52 99 54 100 60 101 53 102 55 103 56 104 57 105 58 106
REMARK H PARENT 17 5 10 15 95 32 21 40 80 59 48 70
REMARK Flexibility Score: inf
ROOT
ATOM      1  C   UNL A   1      36.974  20.963  24.732  1.00  0.00     0.117 C 
ENDROOT
BRANCH   1   2
ATOM      2  N   UNL A   1      35.931  20.830  25.736  1.00  0.00    -0.356 N 
ATOM      3  C   UNL A   1      34.614  21.204  25.659  1.00  0.00     0.224 C 
ATOM      4  O   UNL A   1      33.892  21.020  26.637  1.00  0.00    -0.275 OA
ATOM      5  H   UNL A   1      36.207  20.416  26.585  1.00  0.00     0.163 HD
BRANCH   3   6
ATOM      6  C   UNL A   1      34.089  21.684  24.306  1.00  0.00     0.098 C 
ATOM      7  C   UNL A   1      33.777  23.216  24.069  1.00  0.00     0.099 C 
ATOM      8  C   UNL A   1      32.248  23.177  23.802  1.00  0.00     0.025 C 
ATOM      9  C   UNL A   1      32.707  21.009  24.049  1.00  0.00     0.025 C 
ATOM     10  C   UNL A   1      31.500  22.708  25.020  1.00  0.00    -0.027 C 
ATOM     11  C   UNL A   1      32.146  21.901  22.948  1.00  0.00     0.017 C 
ATOM     12  C   UNL A   1      31.743  21.397  25.148  1.00  0.00    -0.027 C 
BRANCH   7  13
ATOM     13  C   UNL A   1      34.370  24.170  25.105  1.00  0.00     0.229 C 
ATOM     14  N   UNL A   1      33.813  25.386  25.380  1.00  0.00    -0.317 N 
ATOM     15  H   UNL A   1      33.951  25.711  26.300  1.00  0.00     0.170 HD
ATOM     16  O   UNL A   1      35.435  23.891  25.666  1.00  0.00    -0.274 OA
BRANCH  14  17
ATOM     17  C   UNL A   1      33.084  26.230  24.563  1.00  0.00     0.108 A 
ATOM     18  C   UNL A   1      31.468  27.656  23.690  1.00  0.00     0.007 A 
ATOM     19  C   UNL A   1      32.263  27.383  22.589  1.00  0.00     0.076 A 
ATOM     20  C   UNL A   1      31.991  27.033  24.904  1.00  0.00     0.082 A 
ATOM     21  S   UNL A   1      33.668  26.530  22.994  1.00  0.00    -0.125 S 
BRANCH  18  22
ATOM     22  C   UNL A   1      30.319  28.524  23.458  1.00  0.00    -0.017 A 
ATOM     23  C   UNL A   1      26.960  31.203  23.514  1.00  0.00     0.044 C 
ATOM     24  C   UNL A   1      28.137  30.291  23.330  1.00  0.00    -0.051 A 
ATOM     25  C   UNL A   1      29.422  30.784  23.565  1.00  0.00     0.004 A 
ATOM     26  C   UNL A   1      27.967  28.922  23.062  1.00  0.00     0.004 A 
ATOM     27  C   UNL A   1      30.504  29.911  23.598  1.00  0.00     0.009 A 
ATOM     28  C   UNL A   1      29.054  28.037  23.125  1.00  0.00     0.009 A 
ENDBRANCH  18  22
BRANCH  20  29
ATOM     29  C   UNL A   1      31.447  26.927  26.263  1.00  0.00     0.255 C 
ATOM     30  O   UNL A   1      30.702  25.979  26.539  1.00  0.00    -0.269 OA
ATOM     31  N   UNL A   1      31.764  27.719  27.343  1.00  0.00    -0.349 N 
ATOM     32  H   UNL A   1      31.346  27.368  28.162  1.00  0.00     0.164 HD
BRANCH  31  33
ATOM     33  C   UNL A   1      32.514  28.890  27.628  1.00  0.00     0.082 C 
ATOM     34  C   UNL A   1      33.576  29.549  26.824  1.00  0.00     0.027 C 
ATOM     35  C   UNL A   1      32.189  30.130  26.845  1.00  0.00     0.027 C 
ENDBRANCH  31  33
ENDBRANCH  20  29
ENDBRANCH  14  17
ENDBRANCH   7  13
ENDBRANCH   3   6
ENDBRANCH   1   2
BRANCH   1  36
ATOM     36  C   UNL A   1      38.360  20.983  25.367  1.00  0.00     0.042 C 
BRANCH  36  37
ATOM     37  C   UNL A   1      38.617  22.271  26.135  1.00  0.00     0.118 C 
BRANCH  37  38
ATOM     38  N   UNL A   1      39.878  22.261  26.870  1.00  0.00    -0.352 N 
ATOM     39  C   UNL A   1      40.631  23.318  27.345  1.00  0.00     0.251 C 
ATOM     40  H   UNL A   1      40.247  21.368  27.056  1.00  0.00     0.163 HD
ATOM     41  O   UNL A   1      41.763  23.091  27.774  1.00  0.00    -0.269 OA
BRANCH  39  42
ATOM     42  C   UNL A   1      40.025  24.664  27.463  1.00  0.00     0.039 A 
ATOM     43  C   UNL A   1      40.476  25.663  26.589  1.00  0.00     0.014 A 
ATOM     44  C   UNL A   1      39.233  24.999  28.558  1.00  0.00     0.014 A 
ATOM     45  C   UNL A   1      40.367  27.001  26.957  1.00  0.00     0.010 A 
ATOM     46  C   UNL A   1      39.208  26.310  28.974  1.00  0.00     0.010 A 
ATOM     47  C   UNL A   1      39.840  27.298  28.208  1.00  0.00    -0.014 A 
BRANCH  47  48
ATOM     48  C   UNL A   1      39.944  28.588  28.869  1.00  0.00     0.031 A 
ATOM     49  C   UNL A   1      38.949  29.638  28.595  1.00  0.00     0.074 A 
ATOM     50  C   UNL A   1      40.798  28.688  29.911  1.00  0.00     0.049 A 
ATOM     51  N   UNL A   1      39.067  30.869  28.952  1.00  0.00    -0.248 NA
ATOM     52  C   UNL A   1      37.730  29.362  27.846  1.00  0.00     0.031 C 
ATOM     53  C   UNL A   1      40.744  29.645  31.006  1.00  0.00     0.029 A 
ATOM     54  N   UNL A   1      42.026  28.038  30.078  1.00  0.00    -0.354 N 
ATOM     55  C   UNL A   1      37.847  31.478  28.742  1.00  0.00     0.074 A 
ATOM     56  C   UNL A   1      37.084  30.524  27.974  1.00  0.00     0.031 C 
ATOM     57  C   UNL A   1      41.961  29.725  31.566  1.00  0.00     0.029 A 
ATOM     58  C   UNL A   1      42.866  28.961  30.723  1.00  0.00     0.049 A 
ATOM     59  H   UNL A   1      42.255  27.122  29.799  1.00  0.00     0.167 HD
ATOM     60  C   UNL A   1      37.578  32.656  29.379  1.00  0.00     0.034 A 
ATOM     61  C   UNL A   1      44.027  29.435  30.183  1.00  0.00     0.034 A 
ATOM     62  C   UNL A   1      38.761  33.127  30.117  1.00  0.00     0.049 A 
ATOM     63  C   UNL A   1      44.034  30.946  30.034  1.00  0.00     0.074 A 
ATOM     64  C   UNL A   1      39.144  33.007  31.443  1.00  0.00     0.029 A 
ATOM     65  N   UNL A   1      39.883  33.565  29.422  1.00  0.00    -0.354 N 
ATOM     66  N   UNL A   1      42.984  31.701  30.199  1.00  0.00    -0.248 NA
ATOM     67  C   UNL A   1      45.214  31.722  29.661  1.00  0.00     0.031 C 
ATOM     68  C   UNL A   1      40.536  33.277  31.523  1.00  0.00     0.029 A 
ATOM     69  C   UNL A   1      40.991  33.594  30.253  1.00  0.00     0.049 A 
ATOM     70  H   UNL A   1      39.889  33.820  28.470  1.00  0.00     0.167 HD
ATOM     71  C   UNL A   1      43.275  32.990  29.843  1.00  0.00     0.074 A 
ATOM     72  C   UNL A   1      44.705  32.965  29.587  1.00  0.00     0.031 C 
ATOM     73  C   UNL A   1      42.306  33.949  29.728  1.00  0.00     0.034 A 
BRANCH  60  74
ATOM     74  C   UNL A   1      36.186  33.228  29.620  1.00  0.00     0.023 A 
ATOM     75  C   UNL A   1      35.476  33.691  28.486  1.00  0.00     0.012 A 
ATOM     76  C   UNL A   1      35.540  33.426  30.862  1.00  0.00     0.148 A 
ATOM     77  C   UNL A   1      34.271  34.399  28.581  1.00  0.00     0.002 A 
ATOM     78  C   UNL A   1      34.371  34.189  30.968  1.00  0.00     0.091 A 
ATOM     79  F   UNL A   1      35.990  32.803  31.953  1.00  0.00    -0.205 F 
ATOM     80  C   UNL A   1      33.737  34.683  29.827  1.00  0.00     0.022 A 
BRANCH  78  81
ATOM     81  S   UNL A   1      33.652  34.646  32.558  1.00  0.00     0.127 S 
ATOM     82  O   UNL A   1      34.718  35.451  33.158  1.00  0.00    -0.237 OA
ATOM     83  O   UNL A   1      32.469  35.405  32.160  1.00  0.00    -0.237 OA
ATOM     84  O   UNL A   1      33.386  33.395  33.259  1.00  0.00    -0.744 OA
ENDBRANCH  78  81
ENDBRANCH  60  74
BRANCH  61  85
ATOM     85  C   UNL A   1      44.706  28.470  29.271  1.00  0.00     0.023 A 
ATOM     86  C   UNL A   1      45.191  27.278  29.858  1.00  0.00     0.012 A 
ATOM     87  C   UNL A   1      44.518  28.514  27.878  1.00  0.00     0.148 A 
ATOM     88  C   UNL A   1      45.360  26.119  29.098  1.00  0.00     0.002 A 
ATOM     89  C   UNL A   1      44.684  27.350  27.126  1.00  0.00     0.091 A 
ATOM     90  F   UNL A   1      44.098  29.658  27.323  1.00  0.00    -0.205 F 
ATOM     91  C   UNL A   1      45.071  26.147  27.739  1.00  0.00     0.022 A 
BRANCH  89  92
ATOM     92  S   UNL A   1      44.269  27.284  25.376  1.00  0.00     0.127 S 
ATOM     93  O   UNL A   1      44.025  25.858  25.187  1.00  0.00    -0.237 OA
ATOM     94  O   UNL A   1      43.075  28.127  25.308  1.00  0.00    -0.237 OA
ATOM     95  O   UNL A   1      45.429  27.839  24.695  1.00  0.00    -0.744 OA
ENDBRANCH  89  92
ENDBRANCH  61  85
BRANCH  73  96
ATOM     96  C   UNL A   1      42.511  35.309  29.096  1.00  0.00     0.023 A 
ATOM     97  C   UNL A   1      41.787  35.719  27.959  1.00  0.00     0.012 A 
ATOM     98  C   UNL A   1      43.323  36.289  29.723  1.00  0.00     0.148 A 
ATOM     99  C   UNL A   1      41.909  37.006  27.428  1.00  0.00     0.002 A 
ATOM    100  C   UNL A   1      43.362  37.598  29.252  1.00  0.00     0.091 A 
ATOM    101  F   UNL A   1      44.082  35.950  30.777  1.00  0.00    -0.205 F 
ATOM    102  C   UNL A   1      42.680  37.954  28.086  1.00  0.00     0.022 A 
BRANCH 100 103
ATOM    103  S   UNL A   1      44.159  38.899  30.205  1.00  0.00     0.127 S 
ATOM    104  O   UNL A   1      43.754  40.101  29.483  1.00  0.00    -0.237 OA
ATOM    105  O   UNL A   1      43.545  38.748  31.527  1.00  0.00    -0.237 OA
ATOM    106  O   UNL A   1      45.578  38.570  30.170  1.00  0.00    -0.744 OA
ENDBRANCH 100 103
ENDBRANCH  73  96
ENDBRANCH  47  48
ENDBRANCH  39  42
ENDBRANCH  37  38
ENDBRANCH  36  37
ENDBRANCH   1  36
TORSDOF 18
ENDMDL
MODEL 3
REMARK VINA RESULT:     -13.9      1.954      2.284
REMARK SMILES Cc1ccc(-c2csc(NC(=O)[C@H]3[C@@H](C(=O)NCCCNC(=O)c4ccc(-c5c6nc(c(-c7cccc(S(=O)(=O)[O-])c7F)c7ccc([nH]7)c(-c7cccc(S(=O)(=O)[O-])c7F)c7nc(c(-c8cccc(S(=O)(=O)[O-])c8F)c8ccc5[nH]8)C=C7)C=C6)cc4)[C@H]4C=C[C@@H]3C4)c2C(=O)NC2CC2)cc1
REMARK SMILES IDX 18 1 17 2 15 3 16 4 14 6 13 7 90 8 87 9 89 10 91 11 88 12
REMARK SMILES IDX 11 13 10 14 12 16 9 17 6 18 7 19 92 20 8 21 5 22 1 23 2 24
REMARK SMILES IDX 3 25 100 26 4 27 99 28 93 29 94 30 95 31 96 33 97 34 98 35
REMARK SMILES IDX 19 36 20 37 21 38 22 39 23 41 24 42 25 43 86 44 26 45 85 46
REMARK SMILES IDX 27 47 28 48 29 49 79 50 30 51 84 52 78 53 80 54 31 55 83 56
REMARK SMILES IDX 77 57 76 58 32 60 64 61 44 62 63 63 45 64 48 65 62 66 81 67
REMARK SMILES IDX 46 68 47 69 61 71 82 72 49 73 33 74 34 75 42 76 35 77 37 78
REMARK SMILES IDX 43 79 36 80 38 81 39 82 40 83 41 84 65 85 66 86 74 87 67 88
REMARK SMILES IDX 69 89 75 90 68 91 70 92 71 93 72 94 73 95 50 96 51 97 59 98
REMARK SMILES IDX 52 99 54 100 60 101 53 102 55 103 56 104 57 105 58 106
REMARK H PARENT 17 5 10 15 95 32 21 40 80 59 48 70
REMARK Flexibility Score: inf
ROOT
ATOM      1  C   UNL A   1      31.627  30.187  26.148  1.00  0.00     0.117 C 
ENDROOT
BRANCH   1   2
ATOM      2  N   UNL A   1      32.083  30.007  24.780  1.00  0.00    -0.356 N 
ATOM      3  C   UNL A   1      31.892  28.936  23.945  1.00  0.00     0.224 C 
ATOM      4  O   UNL A   1      32.382  28.973  22.819  1.00  0.00    -0.275 OA
ATOM      5  H   UNL A   1      32.601  30.754  24.402  1.00  0.00     0.163 HD
BRANCH   3   6
ATOM      6  C   UNL A   1      30.947  27.829  24.415  1.00  0.00     0.098 C 
ATOM      7  C   UNL A   1      31.527  26.464  24.962  1.00  0.00     0.099 C 
ATOM      8  C   UNL A   1      30.974  25.458  23.916  1.00  0.00     0.025 C 
ATOM      9  C   UNL A   1      30.085  27.373  23.198  1.00  0.00     0.025 C 
ATOM     10  C   UNL A   1      31.552  25.724  22.554  1.00  0.00    -0.027 C 
ATOM     11  C   UNL A   1      29.563  26.031  23.698  1.00  0.00     0.017 C 
ATOM     12  C   UNL A   1      30.990  26.854  22.103  1.00  0.00    -0.027 C 
BRANCH   7  13
ATOM     13  C   UNL A   1      33.012  26.485  25.324  1.00  0.00     0.229 C 
ATOM     14  N   UNL A   1      33.801  25.374  25.232  1.00  0.00    -0.317 N 
ATOM     15  H   UNL A   1      34.751  25.551  25.041  1.00  0.00     0.170 HD
ATOM     16  O   UNL A   1      33.520  27.508  25.796  1.00  0.00    -0.274 OA
BRANCH  14  17
ATOM     17  C   UNL A   1      33.468  24.040  25.368  1.00  0.00     0.108 A 
ATOM     18  C   UNL A   1      33.211  21.752  25.039  1.00  0.00     0.007 A 
ATOM     19  C   UNL A   1      32.382  22.001  26.120  1.00  0.00     0.076 A 
ATOM     20  C   UNL A   1      33.933  22.952  24.621  1.00  0.00     0.082 A 
ATOM     21  S   UNL A   1      32.548  23.575  26.721  1.00  0.00    -0.125 S 
BRANCH  18  22
ATOM     22  C   UNL A   1      33.249  20.375  24.558  1.00  0.00    -0.017 A 
ATOM     23  C   UNL A   1      34.000  16.526  22.802  1.00  0.00     0.044 C 
ATOM     24  C   UNL A   1      33.630  17.793  23.515  1.00  0.00    -0.051 A 
ATOM     25  C   UNL A   1      34.451  18.259  24.544  1.00  0.00     0.004 A 
ATOM     26  C   UNL A   1      32.557  18.590  23.082  1.00  0.00     0.004 A 
ATOM     27  C   UNL A   1      34.241  19.525  25.078  1.00  0.00     0.009 A 
ATOM     28  C   UNL A   1      32.364  19.880  23.600  1.00  0.00     0.009 A 
ENDBRANCH  18  22
BRANCH  20  29
ATOM     29  C   UNL A   1      34.808  23.219  23.473  1.00  0.00     0.255 C 
ATOM     30  O   UNL A   1      34.314  23.678  22.436  1.00  0.00    -0.269 OA
ATOM     31  N   UNL A   1      36.180  23.125  23.443  1.00  0.00    -0.349 N 
ATOM     32  H   UNL A   1      36.530  23.466  22.589  1.00  0.00     0.164 HD
BRANCH  31  33
ATOM     33  C   UNL A   1      37.242  22.684  24.277  1.00  0.00     0.082 C 
ATOM     34  C   UNL A   1      37.198  22.189  25.677  1.00  0.00     0.027 C 
ATOM     35  C   UNL A   1      37.347  21.211  24.544  1.00  0.00     0.027 C 
ENDBRANCH  31  33
ENDBRANCH  20  29
ENDBRANCH  14  17
ENDBRANCH   7  13
ENDBRANCH   3   6
ENDBRANCH   1   2
BRANCH   1  36
ATOM     36  C   UNL A   1      32.423  31.271  26.865  1.00  0.00     0.042 C 
BRANCH  36  37
ATOM     37  C   UNL A   1      33.646  30.708  27.575  1.00  0.00     0.118 C 
BRANCH  37  38
ATOM     38  N   UNL A   1      34.296  31.674  28.455  1.00  0.00    -0.352 N 
ATOM     39  C   UNL A   1      35.409  31.523  29.262  1.00  0.00     0.251 C 
ATOM     40  H   UNL A   1      33.882  32.566  28.476  1.00  0.00     0.163 HD
ATOM     41  O   UNL A   1      35.676  32.412  30.070  1.00  0.00    -0.269 OA
BRANCH  39  42
ATOM     42  C   UNL A   1      36.328  30.382  29.048  1.00  0.00     0.039 A 
ATOM     43  C   UNL A   1      36.594  29.543  30.140  1.00  0.00     0.014 A 
ATOM     44  C   UNL A   1      37.099  30.291  27.893  1.00  0.00     0.014 A 
ATOM     45  C   UNL A   1      37.782  28.820  30.179  1.00  0.00     0.010 A 
ATOM     46  C   UNL A   1      38.318  29.657  27.965  1.00  0.00     0.010 A 
ATOM     47  C   UNL A   1      38.686  28.984  29.137  1.00  0.00    -0.014 A 
BRANCH  47  48
ATOM     48  C   UNL A   1      40.077  28.564  29.170  1.00  0.00     0.031 A 
ATOM     49  C   UNL A   1      40.433  27.170  28.855  1.00  0.00     0.074 A 
ATOM     50  C   UNL A   1      41.019  29.530  29.230  1.00  0.00     0.049 A 
ATOM     51  N   UNL A   1      41.590  26.646  29.062  1.00  0.00    -0.248 NA
ATOM     52  C   UNL A   1      39.462  26.239  28.297  1.00  0.00     0.031 C 
ATOM     53  C   UNL A   1      42.407  29.437  28.798  1.00  0.00     0.029 A 
ATOM     54  N   UNL A   1      40.944  30.760  29.893  1.00  0.00    -0.354 N 
ATOM     55  C   UNL A   1      41.610  25.424  28.421  1.00  0.00     0.074 A 
ATOM     56  C   UNL A   1      40.239  25.184  28.040  1.00  0.00     0.031 C 
ATOM     57  C   UNL A   1      43.113  30.397  29.413  1.00  0.00     0.029 A 
ATOM     58  C   UNL A   1      42.232  31.007  30.397  1.00  0.00     0.049 A 
ATOM     59  H   UNL A   1      40.151  31.335  29.987  1.00  0.00     0.167 HD
ATOM     60  C   UNL A   1      42.814  24.838  28.154  1.00  0.00     0.034 A 
ATOM     61  C   UNL A   1      42.512  31.143  31.726  1.00  0.00     0.034 A 
ATOM     62  C   UNL A   1      43.913  25.619  28.744  1.00  0.00     0.049 A 
ATOM     63  C   UNL A   1      43.524  30.127  32.223  1.00  0.00     0.074 A 
ATOM     64  C   UNL A   1      44.762  26.580  28.219  1.00  0.00     0.029 A 
ATOM     65  N   UNL A   1      44.058  25.679  30.125  1.00  0.00    -0.354 N 
ATOM     66  N   UNL A   1      43.931  29.101  31.528  1.00  0.00    -0.248 NA
ATOM     67  C   UNL A   1      44.136  30.168  33.549  1.00  0.00     0.031 C 
ATOM     68  C   UNL A   1      45.344  27.289  29.303  1.00  0.00     0.029 A 
ATOM     69  C   UNL A   1      44.875  26.739  30.485  1.00  0.00     0.049 A 
ATOM     70  H   UNL A   1      43.639  25.054  30.760  1.00  0.00     0.167 HD
ATOM     71  C   UNL A   1      44.717  28.293  32.304  1.00  0.00     0.074 A 
ATOM     72  C   UNL A   1      44.878  29.045  33.537  1.00  0.00     0.031 C 
ATOM     73  C   UNL A   1      45.114  27.050  31.891  1.00  0.00     0.034 A 
BRANCH  60  74
ATOM     74  C   UNL A   1      43.054  23.758  27.105  1.00  0.00     0.023 A 
ATOM     75  C   UNL A   1      43.427  24.192  25.810  1.00  0.00     0.012 A 
ATOM     76  C   UNL A   1      42.873  22.363  27.248  1.00  0.00     0.148 A 
ATOM     77  C   UNL A   1      43.503  23.327  24.712  1.00  0.00     0.002 A 
ATOM     78  C   UNL A   1      42.884  21.505  26.142  1.00  0.00     0.091 A 
ATOM     79  F   UNL A   1      42.780  21.826  28.465  1.00  0.00    -0.205 F 
ATOM     80  C   UNL A   1      43.193  21.986  24.869  1.00  0.00     0.022 A 
BRANCH  78  81
ATOM     81  S   UNL A   1      42.435  19.762  26.264  1.00  0.00     0.127 S 
ATOM     82  O   UNL A   1      41.228  19.697  25.438  1.00  0.00    -0.237 OA
ATOM     83  O   UNL A   1      43.601  19.097  25.687  1.00  0.00    -0.237 OA
ATOM     84  O   UNL A   1      42.202  19.500  27.679  1.00  0.00    -0.744 OA
ENDBRANCH  78  81
ENDBRANCH  60  74
BRANCH  61  85
ATOM     85  C   UNL A   1      41.386  31.708  32.525  1.00  0.00     0.023 A 
ATOM     86  C   UNL A   1      40.537  30.778  33.170  1.00  0.00     0.012 A 
ATOM     87  C   UNL A   1      41.392  33.043  32.967  1.00  0.00     0.148 A 
ATOM     88  C   UNL A   1      39.814  31.134  34.309  1.00  0.00     0.002 A 
ATOM     89  C   UNL A   1      40.670  33.391  34.109  1.00  0.00     0.091 A 
ATOM     90  F   UNL A   1      42.166  33.927  32.325  1.00  0.00    -0.205 F 
ATOM     91  C   UNL A   1      39.910  32.431  34.799  1.00  0.00     0.022 A 
BRANCH  89  92
ATOM     92  S   UNL A   1      40.790  35.028  34.845  1.00  0.00     0.127 S 
ATOM     93  O   UNL A   1      39.388  35.436  34.881  1.00  0.00    -0.237 OA
ATOM     94  O   UNL A   1      41.380  34.739  36.152  1.00  0.00    -0.237 OA
ATOM     95  O   UNL A   1      41.660  35.778  33.952  1.00  0.00    -0.744 OA
ENDBRANCH  89  92
ENDBRANCH  61  85
BRANCH  73  96
ATOM     96  C   UNL A   1      45.755  26.009  32.783  1.00  0.00     0.023 A 
ATOM     97  C   UNL A   1      47.137  26.011  33.055  1.00  0.00     0.012 A 
ATOM     98  C   UNL A   1      44.961  25.087  33.512  1.00  0.00     0.148 A 
ATOM     99  C   UNL A   1      47.716  25.105  33.949  1.00  0.00     0.002 A 
ATOM    100  C   UNL A   1      45.528  24.258  34.477  1.00  0.00     0.091 A 
ATOM    101  F   UNL A   1      43.646  24.995  33.261  1.00  0.00    -0.205 F 
ATOM    102  C   UNL A   1      46.910  24.242  34.678  1.00  0.00     0.022 A 
BRANCH 100 103
ATOM    103  S   UNL A   1      44.492  23.301  35.594  1.00  0.00     0.127 S 
ATOM    104  O   UNL A   1      44.018  22.226  34.727  1.00  0.00    -0.237 OA
ATOM    105  O   UNL A   1      45.442  22.875  36.625  1.00  0.00    -0.237 OA
ATOM    106  O   UNL A   1      43.485  24.242  36.067  1.00  0.00    -0.744 OA
ENDBRANCH 100 103
ENDBRANCH  73  96
ENDBRANCH  47  48
ENDBRANCH  39  42
ENDBRANCH  37  38
ENDBRANCH  36  37
ENDBRANCH   1  36
TORSDOF 18
ENDMDL
