MODEL 1
REMARK VINA RESULT:     -11.4      0.000      0.000
REMARK SMILES C[C@@H](C(=O)NCCCNC(=O)c1ccc(-c2c3nc(c(-c4cccc(S(=O)(=O)[O-])c4F)c4ccc([nH]4)c(-c4cccc(S(=O)(=O)[O-])c4F)c4nc(c(-c5cccc(S(=O)(=O)[O-])c5F)c5ccc2[nH]5)C=C4)C=C3)cc1)[C@@H](C)C(=O)c1ccc(Br)cc1
REMARK SMILES IDX 7 1 6 2 5 3 3 4 4 5 2 7 1 8 75 9 76 10 77 11 78 12 79 13
REMARK SMILES IDX 80 14 85 15 81 16 84 17 82 18 83 19 8 20 9 21 10 22 11 24
REMARK SMILES IDX 12 25 13 26 74 27 14 28 73 29 15 30 16 31 17 32 67 33 18 34
REMARK SMILES IDX 72 35 66 36 68 37 19 38 71 39 65 40 64 41 20 43 52 44 32 45
REMARK SMILES IDX 51 46 33 47 36 48 50 49 69 50 34 51 35 52 49 54 70 55 37 56
REMARK SMILES IDX 21 57 22 58 30 59 23 60 25 61 31 62 24 63 26 64 27 65 28 66
REMARK SMILES IDX 29 67 53 68 54 69 62 70 55 71 57 72 63 73 56 74 58 75 59 76
REMARK SMILES IDX 60 77 61 78 38 79 39 80 47 81 40 82 42 83 48 84 41 85 43 86
REMARK SMILES IDX 44 87 45 88 46 89
REMARK H PARENT 5 6 9 23 68 42 36 53
REMARK Flexibility Score: inf
ROOT
ATOM      1  C   UNL A   1      31.365  32.078  26.490  1.00  0.00     0.042 C 
ENDROOT
BRANCH   1   2
ATOM      2  C   UNL A   1      31.521  30.675  25.907  1.00  0.00     0.117 C 
BRANCH   2   3
ATOM      3  N   UNL A   1      30.757  30.503  24.683  1.00  0.00    -0.356 N 
ATOM      4  C   UNL A   1      30.681  29.449  23.825  1.00  0.00     0.223 C 
ATOM      5  O   UNL A   1      30.011  29.593  22.806  1.00  0.00    -0.275 OA
ATOM      6  H   UNL A   1      30.201  31.276  24.434  1.00  0.00     0.163 HD
BRANCH   4   7
ATOM      7  C   UNL A   1      31.402  28.143  24.153  1.00  0.00     0.086 C 
ATOM      8  C   UNL A   1      31.888  27.509  22.845  1.00  0.00     0.019 C 
BRANCH   7   9
ATOM      9  C   UNL A   1      30.478  27.188  24.945  1.00  0.00     0.070 C 
ATOM     10  C   UNL A   1      29.643  26.283  24.033  1.00  0.00     0.017 C 
BRANCH   9  11
ATOM     11  C   UNL A   1      31.152  26.304  26.009  1.00  0.00     0.166 C 
ATOM     12  O   UNL A   1      31.214  26.660  27.187  1.00  0.00    -0.294 OA
BRANCH  11  13
ATOM     13  C   UNL A   1      31.528  24.894  25.711  1.00  0.00     0.018 A 
ATOM     14  C   UNL A   1      30.666  23.891  26.181  1.00  0.00     0.013 A 
ATOM     15  C   UNL A   1      32.693  24.533  25.031  1.00  0.00     0.013 A 
ATOM     16  C   UNL A   1      30.941  22.545  25.929  1.00  0.00     0.016 A 
ATOM     17  C   UNL A   1      32.965  23.186  24.771  1.00  0.00     0.016 A 
ATOM     18  C   UNL A   1      32.086  22.200  25.214  1.00  0.00     0.018 A 
ATOM     19  Br  UNL A   1      32.456  20.382  24.855  1.00  0.00    -0.051 Br
ENDBRANCH  11  13
ENDBRANCH   9  11
ENDBRANCH   7   9
ENDBRANCH   4   7
ENDBRANCH   2   3
ENDBRANCH   1   2
BRANCH   1  20
ATOM     20  C   UNL A   1      32.585  32.590  27.249  1.00  0.00     0.118 C 
BRANCH  20  21
ATOM     21  N   UNL A   1      32.470  33.992  27.619  1.00  0.00    -0.352 N 
ATOM     22  C   UNL A   1      33.134  34.713  28.582  1.00  0.00     0.251 C 
ATOM     23  H   UNL A   1      31.812  34.505  27.098  1.00  0.00     0.163 HD
ATOM     24  O   UNL A   1      32.746  35.850  28.841  1.00  0.00    -0.269 OA
BRANCH  22  25
ATOM     25  C   UNL A   1      34.287  34.139  29.315  1.00  0.00     0.039 A 
ATOM     26  C   UNL A   1      34.032  33.345  30.437  1.00  0.00     0.014 A 
ATOM     27  C   UNL A   1      35.608  34.408  28.945  1.00  0.00     0.014 A 
ATOM     28  C   UNL A   1      35.093  32.781  31.150  1.00  0.00     0.010 A 
ATOM     29  C   UNL A   1      36.663  33.780  29.609  1.00  0.00     0.010 A 
ATOM     30  C   UNL A   1      36.419  32.969  30.726  1.00  0.00    -0.014 A 
BRANCH  30  31
ATOM     31  C   UNL A   1      37.545  32.305  31.437  1.00  0.00     0.031 A 
ATOM     32  C   UNL A   1      38.282  31.150  30.813  1.00  0.00     0.074 A 
ATOM     33  C   UNL A   1      37.871  32.711  32.680  1.00  0.00     0.049 A 
ATOM     34  N   UNL A   1      39.300  30.473  31.282  1.00  0.00    -0.248 NA
ATOM     35  C   UNL A   1      37.803  30.674  29.505  1.00  0.00     0.031 C 
ATOM     36  C   UNL A   1      37.176  33.755  33.438  1.00  0.00     0.029 A 
ATOM     37  N   UNL A   1      38.860  32.288  33.534  1.00  0.00    -0.354 N 
ATOM     38  C   UNL A   1      39.567  29.482  30.344  1.00  0.00     0.074 A 
ATOM     39  C   UNL A   1      38.577  29.619  29.298  1.00  0.00     0.031 C 
ATOM     40  C   UNL A   1      37.766  33.899  34.634  1.00  0.00     0.029 A 
ATOM     41  C   UNL A   1      38.868  32.947  34.740  1.00  0.00     0.049 A 
ATOM     42  H   UNL A   1      39.504  31.580  33.302  1.00  0.00     0.167 HD
ATOM     43  C   UNL A   1      40.562  28.564  30.335  1.00  0.00     0.034 A 
ATOM     44  C   UNL A   1      39.673  32.807  35.812  1.00  0.00     0.034 A 
ATOM     45  C   UNL A   1      41.569  28.452  31.358  1.00  0.00     0.049 A 
ATOM     46  C   UNL A   1      40.807  31.821  35.752  1.00  0.00     0.074 A 
ATOM     47  C   UNL A   1      42.668  27.612  31.397  1.00  0.00     0.029 A 
ATOM     48  N   UNL A   1      41.597  29.198  32.525  1.00  0.00    -0.354 N 
ATOM     49  N   UNL A   1      41.146  31.012  34.777  1.00  0.00    -0.248 NA
ATOM     50  C   UNL A   1      41.696  31.760  36.921  1.00  0.00     0.031 C 
ATOM     51  C   UNL A   1      43.349  27.836  32.598  1.00  0.00     0.029 A 
ATOM     52  C   UNL A   1      42.689  28.834  33.296  1.00  0.00     0.049 A 
ATOM     53  H   UNL A   1      40.938  29.886  32.772  1.00  0.00     0.167 HD
ATOM     54  C   UNL A   1      42.303  30.369  35.202  1.00  0.00     0.074 A 
ATOM     55  C   UNL A   1      42.623  30.905  36.508  1.00  0.00     0.031 C 
ATOM     56  C   UNL A   1      43.024  29.407  34.574  1.00  0.00     0.034 A 
BRANCH  43  57
ATOM     57  C   UNL A   1      40.653  27.642  29.143  1.00  0.00     0.023 A 
ATOM     58  C   UNL A   1      39.804  26.518  29.072  1.00  0.00     0.012 A 
ATOM     59  C   UNL A   1      41.524  27.916  28.071  1.00  0.00     0.148 A 
ATOM     60  C   UNL A   1      39.846  25.662  27.973  1.00  0.00     0.002 A 
ATOM     61  C   UNL A   1      41.529  27.082  26.958  1.00  0.00     0.091 A 
ATOM     62  F   UNL A   1      42.338  28.978  28.163  1.00  0.00    -0.205 F 
ATOM     63  C   UNL A   1      40.701  25.949  26.913  1.00  0.00     0.022 A 
BRANCH  61  64
ATOM     64  S   UNL A   1      42.534  27.410  25.506  1.00  0.00     0.127 S 
ATOM     65  O   UNL A   1      43.866  27.552  26.096  1.00  0.00    -0.237 OA
ATOM     66  O   UNL A   1      42.345  26.190  24.719  1.00  0.00    -0.237 OA
ATOM     67  O   UNL A   1      41.986  28.614  24.900  1.00  0.00    -0.744 OA
ENDBRANCH  61  64
ENDBRANCH  43  57
BRANCH  44  68
ATOM     68  C   UNL A   1      39.478  33.680  37.005  1.00  0.00     0.023 A 
ATOM     69  C   UNL A   1      39.886  35.028  36.951  1.00  0.00     0.012 A 
ATOM     70  C   UNL A   1      38.862  33.195  38.175  1.00  0.00     0.148 A 
ATOM     71  C   UNL A   1      39.715  35.867  38.052  1.00  0.00     0.002 A 
ATOM     72  C   UNL A   1      38.641  34.052  39.246  1.00  0.00     0.091 A 
ATOM     73  F   UNL A   1      38.491  31.908  38.210  1.00  0.00    -0.205 F 
ATOM     74  C   UNL A   1      39.083  35.383  39.195  1.00  0.00     0.022 A 
BRANCH  72  75
ATOM     75  S   UNL A   1      37.709  33.550  40.698  1.00  0.00     0.127 S 
ATOM     76  O   UNL A   1      37.600  34.809  41.432  1.00  0.00    -0.237 OA
ATOM     77  O   UNL A   1      36.457  33.075  40.103  1.00  0.00    -0.237 OA
ATOM     78  O   UNL A   1      38.500  32.509  41.333  1.00  0.00    -0.744 OA
ENDBRANCH  72  75
ENDBRANCH  44  68
BRANCH  56  79
ATOM     79  C   UNL A   1      44.249  28.886  35.282  1.00  0.00     0.023 A 
ATOM     80  C   UNL A   1      45.512  29.444  34.998  1.00  0.00     0.012 A 
ATOM     81  C   UNL A   1      44.144  27.882  36.264  1.00  0.00     0.148 A 
ATOM     82  C   UNL A   1      46.654  28.981  35.649  1.00  0.00     0.002 A 
ATOM     83  C   UNL A   1      45.280  27.460  36.945  1.00  0.00     0.091 A 
ATOM     84  F   UNL A   1      42.938  27.348  36.508  1.00  0.00    -0.205 F 
ATOM     85  C   UNL A   1      46.537  27.999  36.629  1.00  0.00     0.022 A 
BRANCH  83  86
ATOM     86  S   UNL A   1      45.208  26.267  38.285  1.00  0.00     0.127 S 
ATOM     87  O   UNL A   1      44.711  25.076  37.599  1.00  0.00    -0.237 OA
ATOM     88  O   UNL A   1      46.606  26.189  38.711  1.00  0.00    -0.237 OA
ATOM     89  O   UNL A   1      44.310  26.840  39.279  1.00  0.00    -0.744 OA
ENDBRANCH  83  86
ENDBRANCH  56  79
ENDBRANCH  30  31
ENDBRANCH  22  25
ENDBRANCH  20  21
ENDBRANCH   1  20
TORSDOF 16
ENDMDL
MODEL 2
REMARK VINA RESULT:     -11.4      6.271     12.064
REMARK SMILES C[C@@H](C(=O)NCCCNC(=O)c1ccc(-c2c3nc(c(-c4cccc(S(=O)(=O)[O-])c4F)c4ccc([nH]4)c(-c4cccc(S(=O)(=O)[O-])c4F)c4nc(c(-c5cccc(S(=O)(=O)[O-])c5F)c5ccc2[nH]5)C=C4)C=C3)cc1)[C@@H](C)C(=O)c1ccc(Br)cc1
REMARK SMILES IDX 7 1 6 2 5 3 3 4 4 5 2 7 1 8 75 9 76 10 77 11 78 12 79 13
REMARK SMILES IDX 80 14 85 15 81 16 84 17 82 18 83 19 8 20 9 21 10 22 11 24
REMARK SMILES IDX 12 25 13 26 74 27 14 28 73 29 15 30 16 31 17 32 67 33 18 34
REMARK SMILES IDX 72 35 66 36 68 37 19 38 71 39 65 40 64 41 20 43 52 44 32 45
REMARK SMILES IDX 51 46 33 47 36 48 50 49 69 50 34 51 35 52 49 54 70 55 37 56
REMARK SMILES IDX 21 57 22 58 30 59 23 60 25 61 31 62 24 63 26 64 27 65 28 66
REMARK SMILES IDX 29 67 53 68 54 69 62 70 55 71 57 72 63 73 56 74 58 75 59 76
REMARK SMILES IDX 60 77 61 78 38 79 39 80 47 81 40 82 42 83 48 84 41 85 43 86
REMARK SMILES IDX 44 87 45 88 46 89
REMARK H PARENT 5 6 9 23 68 42 36 53
REMARK Flexibility Score: inf
ROOT
ATOM      1  C   UNL A   1      37.955  19.718  24.954  1.00  0.00     0.042 C 
ENDROOT
BRANCH   1   2
ATOM      2  C   UNL A   1      36.683  20.555  25.060  1.00  0.00     0.117 C 
BRANCH   2   3
ATOM      3  N   UNL A   1      35.483  19.740  24.981  1.00  0.00    -0.356 N 
ATOM      4  C   UNL A   1      34.168  20.089  25.017  1.00  0.00     0.223 C 
ATOM      5  O   UNL A   1      33.338  19.183  25.013  1.00  0.00    -0.275 OA
ATOM      6  H   UNL A   1      35.648  18.774  24.885  1.00  0.00     0.163 HD
BRANCH   4   7
ATOM      7  C   UNL A   1      33.770  21.564  25.049  1.00  0.00     0.086 C 
ATOM      8  C   UNL A   1      32.400  21.688  25.724  1.00  0.00     0.019 C 
BRANCH   7   9
ATOM      9  C   UNL A   1      33.763  22.162  23.622  1.00  0.00     0.070 C 
ATOM     10  C   UNL A   1      32.355  22.539  23.147  1.00  0.00     0.017 C 
BRANCH   9  11
ATOM     11  C   UNL A   1      34.689  23.365  23.376  1.00  0.00     0.166 C 
ATOM     12  O   UNL A   1      35.725  23.247  22.719  1.00  0.00    -0.294 OA
BRANCH  11  13
ATOM     13  C   UNL A   1      34.253  24.751  23.703  1.00  0.00     0.018 A 
ATOM     14  C   UNL A   1      34.327  25.143  25.048  1.00  0.00     0.013 A 
ATOM     15  C   UNL A   1      33.753  25.646  22.755  1.00  0.00     0.013 A 
ATOM     16  C   UNL A   1      33.951  26.432  25.432  1.00  0.00     0.016 A 
ATOM     17  C   UNL A   1      33.385  26.940  23.137  1.00  0.00     0.016 A 
ATOM     18  C   UNL A   1      33.492  27.329  24.471  1.00  0.00     0.018 A 
ATOM     19  Br  UNL A   1      32.997  29.080  24.981  1.00  0.00    -0.051 Br
ENDBRANCH  11  13
ENDBRANCH   9  11
ENDBRANCH   7   9
ENDBRANCH   4   7
ENDBRANCH   2   3
ENDBRANCH   1   2
BRANCH   1  20
ATOM     20  C   UNL A   1      39.138  20.255  25.752  1.00  0.00     0.118 C 
BRANCH  20  21
ATOM     21  N   UNL A   1      40.196  19.271  25.923  1.00  0.00    -0.352 N 
ATOM     22  C   UNL A   1      41.542  19.443  26.139  1.00  0.00     0.251 C 
ATOM     23  H   UNL A   1      39.900  18.334  25.877  1.00  0.00     0.163 HD
ATOM     24  O   UNL A   1      42.280  18.462  26.075  1.00  0.00    -0.269 OA
BRANCH  22  25
ATOM     25  C   UNL A   1      42.110  20.781  26.426  1.00  0.00     0.039 A 
ATOM     26  C   UNL A   1      42.390  21.629  25.351  1.00  0.00     0.014 A 
ATOM     27  C   UNL A   1      42.416  21.192  27.727  1.00  0.00     0.014 A 
ATOM     28  C   UNL A   1      42.920  22.901  25.583  1.00  0.00     0.010 A 
ATOM     29  C   UNL A   1      42.870  22.490  27.964  1.00  0.00     0.010 A 
ATOM     30  C   UNL A   1      43.139  23.356  26.894  1.00  0.00    -0.014 A 
BRANCH  30  31
ATOM     31  C   UNL A   1      43.629  24.738  27.146  1.00  0.00     0.031 A 
ATOM     32  C   UNL A   1      42.701  25.809  27.653  1.00  0.00     0.074 A 
ATOM     33  C   UNL A   1      44.912  25.045  26.865  1.00  0.00     0.049 A 
ATOM     34  N   UNL A   1      42.966  27.057  27.949  1.00  0.00    -0.248 NA
ATOM     35  C   UNL A   1      41.286  25.444  27.829  1.00  0.00     0.031 C 
ATOM     36  C   UNL A   1      45.891  24.126  26.279  1.00  0.00     0.029 A 
ATOM     37  N   UNL A   1      45.610  26.217  27.018  1.00  0.00    -0.354 N 
ATOM     38  C   UNL A   1      41.755  27.629  28.321  1.00  0.00     0.074 A 
ATOM     39  C   UNL A   1      40.745  26.604  28.173  1.00  0.00     0.031 C 
ATOM     40  C   UNL A   1      47.063  24.763  26.136  1.00  0.00     0.029 A 
ATOM     41  C   UNL A   1      46.917  26.140  26.597  1.00  0.00     0.049 A 
ATOM     42  H   UNL A   1      45.211  27.035  27.394  1.00  0.00     0.167 HD
ATOM     43  C   UNL A   1      41.509  28.881  28.775  1.00  0.00     0.034 A 
ATOM     44  C   UNL A   1      47.892  27.070  26.588  1.00  0.00     0.034 A 
ATOM     45  C   UNL A   1      42.521  29.889  28.957  1.00  0.00     0.049 A 
ATOM     46  C   UNL A   1      47.607  28.434  27.154  1.00  0.00     0.074 A 
ATOM     47  C   UNL A   1      42.386  31.159  29.491  1.00  0.00     0.029 A 
ATOM     48  N   UNL A   1      43.853  29.746  28.604  1.00  0.00    -0.354 N 
ATOM     49  N   UNL A   1      46.493  28.901  27.663  1.00  0.00    -0.248 NA
ATOM     50  C   UNL A   1      48.726  29.388  27.184  1.00  0.00     0.031 C 
ATOM     51  C   UNL A   1      43.634  31.790  29.443  1.00  0.00     0.029 A 
ATOM     52  C   UNL A   1      44.551  30.905  28.901  1.00  0.00     0.049 A 
ATOM     53  H   UNL A   1      44.247  28.939  28.200  1.00  0.00     0.167 HD
ATOM     54  C   UNL A   1      46.783  30.188  28.101  1.00  0.00     0.074 A 
ATOM     55  C   UNL A   1      48.187  30.415  27.825  1.00  0.00     0.031 C 
ATOM     56  C   UNL A   1      45.958  31.105  28.664  1.00  0.00     0.034 A 
BRANCH  43  57
ATOM     57  C   UNL A   1      40.092  29.215  29.172  1.00  0.00     0.023 A 
ATOM     58  C   UNL A   1      39.156  29.557  28.174  1.00  0.00     0.012 A 
ATOM     59  C   UNL A   1      39.669  29.132  30.513  1.00  0.00     0.148 A 
ATOM     60  C   UNL A   1      37.834  29.847  28.506  1.00  0.00     0.002 A 
ATOM     61  C   UNL A   1      38.338  29.379  30.831  1.00  0.00     0.091 A 
ATOM     62  F   UNL A   1      40.576  28.825  31.452  1.00  0.00    -0.205 F 
ATOM     63  C   UNL A   1      37.423  29.748  29.832  1.00  0.00     0.022 A 
BRANCH  61  64
ATOM     64  S   UNL A   1      37.690  29.200  32.497  1.00  0.00     0.127 S 
ATOM     65  O   UNL A   1      38.579  30.081  33.255  1.00  0.00    -0.237 OA
ATOM     66  O   UNL A   1      36.322  29.697  32.350  1.00  0.00    -0.237 OA
ATOM     67  O   UNL A   1      37.791  27.784  32.818  1.00  0.00    -0.744 OA
ENDBRANCH  61  64
ENDBRANCH  43  57
BRANCH  44  68
ATOM     68  C   UNL A   1      49.252  26.713  26.094  1.00  0.00     0.023 A 
ATOM     69  C   UNL A   1      50.075  25.875  26.873  1.00  0.00     0.012 A 
ATOM     70  C   UNL A   1      49.721  27.168  24.846  1.00  0.00     0.148 A 
ATOM     71  C   UNL A   1      51.352  25.525  26.434  1.00  0.00     0.002 A 
ATOM     72  C   UNL A   1      50.971  26.768  24.389  1.00  0.00     0.091 A 
ATOM     73  F   UNL A   1      48.928  27.974  24.126  1.00  0.00    -0.205 F 
ATOM     74  C   UNL A   1      51.795  25.961  25.188  1.00  0.00     0.022 A 
BRANCH  72  75
ATOM     75  S   UNL A   1      51.559  27.166  22.739  1.00  0.00     0.127 S 
ATOM     76  O   UNL A   1      51.800  28.603  22.847  1.00  0.00    -0.237 OA
ATOM     77  O   UNL A   1      52.768  26.345  22.643  1.00  0.00    -0.237 OA
ATOM     78  O   UNL A   1      50.494  26.766  21.834  1.00  0.00    -0.744 OA
ENDBRANCH  72  75
ENDBRANCH  44  68
BRANCH  56  79
ATOM     79  C   UNL A   1      46.556  32.436  29.044  1.00  0.00     0.023 A 
ATOM     80  C   UNL A   1      47.133  32.606  30.318  1.00  0.00     0.012 A 
ATOM     81  C   UNL A   1      46.592  33.500  28.122  1.00  0.00     0.148 A 
ATOM     82  C   UNL A   1      47.699  33.827  30.683  1.00  0.00     0.002 A 
ATOM     83  C   UNL A   1      47.202  34.698  28.475  1.00  0.00     0.091 A 
ATOM     84  F   UNL A   1      46.021  33.328  26.921  1.00  0.00    -0.205 F 
ATOM     85  C   UNL A   1      47.743  34.868  29.760  1.00  0.00     0.022 A 
BRANCH  83  86
ATOM     86  S   UNL A   1      47.387  36.059  27.318  1.00  0.00     0.127 S 
ATOM     87  O   UNL A   1      46.102  36.742  27.452  1.00  0.00    -0.237 OA
ATOM     88  O   UNL A   1      48.528  36.789  27.871  1.00  0.00    -0.237 OA
ATOM     89  O   UNL A   1      47.640  35.445  26.021  1.00  0.00    -0.744 OA
ENDBRANCH  83  86
ENDBRANCH  56  79
ENDBRANCH  30  31
ENDBRANCH  22  25
ENDBRANCH  20  21
ENDBRANCH   1  20
TORSDOF 16
ENDMDL
MODEL 3
REMARK VINA RESULT:     -11.4      2.849      8.495
REMARK SMILES C[C@@H](C(=O)NCCCNC(=O)c1ccc(-c2c3nc(c(-c4cccc(S(=O)(=O)[O-])c4F)c4ccc([nH]4)c(-c4cccc(S(=O)(=O)[O-])c4F)c4nc(c(-c5cccc(S(=O)(=O)[O-])c5F)c5ccc2[nH]5)C=C4)C=C3)cc1)[C@@H](C)C(=O)c1ccc(Br)cc1
REMARK SMILES IDX 7 1 6 2 5 3 3 4 4 5 2 7 1 8 75 9 76 10 77 11 78 12 79 13
REMARK SMILES IDX 80 14 85 15 81 16 84 17 82 18 83 19 8 20 9 21 10 22 11 24
REMARK SMILES IDX 12 25 13 26 74 27 14 28 73 29 15 30 16 31 17 32 67 33 18 34
REMARK SMILES IDX 72 35 66 36 68 37 19 38 71 39 65 40 64 41 20 43 52 44 32 45
REMARK SMILES IDX 51 46 33 47 36 48 50 49 69 50 34 51 35 52 49 54 70 55 37 56
REMARK SMILES IDX 21 57 22 58 30 59 23 60 25 61 31 62 24 63 26 64 27 65 28 66
REMARK SMILES IDX 29 67 53 68 54 69 62 70 55 71 57 72 63 73 56 74 58 75 59 76
REMARK SMILES IDX 60 77 61 78 38 79 39 80 47 81 40 82 42 83 48 84 41 85 43 86
REMARK SMILES IDX 44 87 45 88 46 89
REMARK H PARENT 5 6 9 23 68 42 36 53
REMARK Flexibility Score: inf
ROOT
ATOM      1  C   UNL A   1      31.634  28.647  27.062  1.00  0.00     0.042 C 
ENDROOT
BRANCH   1   2
ATOM      2  C   UNL A   1      31.717  27.135  26.870  1.00  0.00     0.117 C 
BRANCH   2   3
ATOM      3  N   UNL A   1      32.983  26.725  26.288  1.00  0.00    -0.356 N 
ATOM      4  C   UNL A   1      33.257  25.852  25.280  1.00  0.00     0.223 C 
ATOM      5  O   UNL A   1      34.438  25.622  25.032  1.00  0.00    -0.275 OA
ATOM      6  H   UNL A   1      33.775  27.151  26.688  1.00  0.00     0.163 HD
BRANCH   4   7
ATOM      7  C   UNL A   1      32.115  25.209  24.496  1.00  0.00     0.086 C 
ATOM      8  C   UNL A   1      32.598  23.867  23.937  1.00  0.00     0.019 C 
BRANCH   7   9
ATOM      9  C   UNL A   1      31.619  26.152  23.374  1.00  0.00     0.070 C 
ATOM     10  C   UNL A   1      31.848  25.576  21.973  1.00  0.00     0.017 C 
BRANCH   9  11
ATOM     11  C   UNL A   1      30.156  26.621  23.465  1.00  0.00     0.166 C 
ATOM     12  O   UNL A   1      29.331  26.006  24.144  1.00  0.00    -0.294 OA
BRANCH  11  13
ATOM     13  C   UNL A   1      29.742  27.954  22.948  1.00  0.00     0.018 A 
ATOM     14  C   UNL A   1      28.383  28.285  23.051  1.00  0.00     0.013 A 
ATOM     15  C   UNL A   1      30.623  28.856  22.346  1.00  0.00     0.013 A 
ATOM     16  C   UNL A   1      27.918  29.523  22.602  1.00  0.00     0.016 A 
ATOM     17  C   UNL A   1      30.161  30.100  21.905  1.00  0.00     0.016 A 
ATOM     18  C   UNL A   1      28.814  30.431  22.041  1.00  0.00     0.018 A 
ATOM     19  Br  UNL A   1      28.196  32.115  21.447  1.00  0.00    -0.051 Br
ENDBRANCH  11  13
ENDBRANCH   9  11
ENDBRANCH   7   9
ENDBRANCH   4   7
ENDBRANCH   2   3
ENDBRANCH   1   2
BRANCH   1  20
ATOM     20  C   UNL A   1      32.487  29.459  26.094  1.00  0.00     0.118 C 
BRANCH  20  21
ATOM     21  N   UNL A   1      32.370  30.893  26.306  1.00  0.00    -0.352 N 
ATOM     22  C   UNL A   1      33.113  31.738  27.095  1.00  0.00     0.251 C 
ATOM     23  H   UNL A   1      31.643  31.328  25.804  1.00  0.00     0.163 HD
ATOM     24  O   UNL A   1      32.720  32.891  27.259  1.00  0.00    -0.269 OA
BRANCH  22  25
ATOM     25  C   UNL A   1      34.356  31.277  27.757  1.00  0.00     0.039 A 
ATOM     26  C   UNL A   1      35.358  32.217  28.016  1.00  0.00     0.014 A 
ATOM     27  C   UNL A   1      34.568  29.934  28.082  1.00  0.00     0.014 A 
ATOM     28  C   UNL A   1      36.541  31.821  28.646  1.00  0.00     0.010 A 
ATOM     29  C   UNL A   1      35.715  29.555  28.781  1.00  0.00     0.010 A 
ATOM     30  C   UNL A   1      36.720  30.491  29.061  1.00  0.00    -0.014 A 
BRANCH  30  31
ATOM     31  C   UNL A   1      37.945  30.086  29.802  1.00  0.00     0.031 A 
ATOM     32  C   UNL A   1      38.220  30.605  31.188  1.00  0.00     0.074 A 
ATOM     33  C   UNL A   1      38.846  29.283  29.198  1.00  0.00     0.049 A 
ATOM     34  N   UNL A   1      39.224  30.335  31.984  1.00  0.00    -0.248 NA
ATOM     35  C   UNL A   1      37.260  31.570  31.747  1.00  0.00     0.031 C 
ATOM     36  C   UNL A   1      38.747  28.787  27.823  1.00  0.00     0.029 A 
ATOM     37  N   UNL A   1      40.028  28.756  29.656  1.00  0.00    -0.354 N 
ATOM     38  C   UNL A   1      39.031  31.110  33.122  1.00  0.00     0.074 A 
ATOM     39  C   UNL A   1      37.836  31.893  32.896  1.00  0.00     0.031 C 
ATOM     40  C   UNL A   1      39.814  28.019  27.555  1.00  0.00     0.029 A 
ATOM     41  C   UNL A   1      40.683  27.983  28.726  1.00  0.00     0.049 A 
ATOM     42  H   UNL A   1      40.372  28.915  30.564  1.00  0.00     0.167 HD
ATOM     43  C   UNL A   1      39.760  31.144  34.263  1.00  0.00     0.034 A 
ATOM     44  C   UNL A   1      41.851  27.314  28.807  1.00  0.00     0.034 A 
ATOM     45  C   UNL A   1      40.928  30.337  34.501  1.00  0.00     0.049 A 
ATOM     46  C   UNL A   1      42.609  27.321  30.106  1.00  0.00     0.074 A 
ATOM     47  C   UNL A   1      41.685  30.237  35.655  1.00  0.00     0.029 A 
ATOM     48  N   UNL A   1      41.513  29.496  33.567  1.00  0.00    -0.354 N 
ATOM     49  N   UNL A   1      42.315  27.926  31.231  1.00  0.00    -0.248 NA
ATOM     50  C   UNL A   1      43.840  26.518  30.160  1.00  0.00     0.031 C 
ATOM     51  C   UNL A   1      42.740  29.350  35.412  1.00  0.00     0.029 A 
ATOM     52  C   UNL A   1      42.626  28.879  34.115  1.00  0.00     0.049 A 
ATOM     53  H   UNL A   1      41.187  29.358  32.649  1.00  0.00     0.167 HD
ATOM     54  C   UNL A   1      43.303  27.553  32.135  1.00  0.00     0.074 A 
ATOM     55  C   UNL A   1      44.187  26.646  31.433  1.00  0.00     0.031 C 
ATOM     56  C   UNL A   1      43.473  27.942  33.423  1.00  0.00     0.034 A 
BRANCH  43  57
ATOM     57  C   UNL A   1      39.277  32.042  35.375  1.00  0.00     0.023 A 
ATOM     58  C   UNL A   1      38.329  31.552  36.297  1.00  0.00     0.012 A 
ATOM     59  C   UNL A   1      39.799  33.339  35.548  1.00  0.00     0.148 A 
ATOM     60  C   UNL A   1      37.881  32.348  37.350  1.00  0.00     0.002 A 
ATOM     61  C   UNL A   1      39.380  34.111  36.627  1.00  0.00     0.091 A 
ATOM     62  F   UNL A   1      40.684  33.797  34.651  1.00  0.00    -0.205 F 
ATOM     63  C   UNL A   1      38.414  33.622  37.520  1.00  0.00     0.022 A 
BRANCH  61  64
ATOM     64  S   UNL A   1      40.065  35.734  36.980  1.00  0.00     0.127 S 
ATOM     65  O   UNL A   1      39.616  36.502  35.818  1.00  0.00    -0.237 OA
ATOM     66  O   UNL A   1      39.397  36.083  38.235  1.00  0.00    -0.237 OA
ATOM     67  O   UNL A   1      41.504  35.548  37.089  1.00  0.00    -0.744 OA
ENDBRANCH  61  64
ENDBRANCH  43  57
BRANCH  44  68
ATOM     68  C   UNL A   1      42.331  26.518  27.643  1.00  0.00     0.023 A 
ATOM     69  C   UNL A   1      43.194  27.116  26.702  1.00  0.00     0.012 A 
ATOM     70  C   UNL A   1      41.969  25.166  27.480  1.00  0.00     0.148 A 
ATOM     71  C   UNL A   1      43.658  26.393  25.603  1.00  0.00     0.002 A 
ATOM     72  C   UNL A   1      42.483  24.436  26.416  1.00  0.00     0.091 A 
ATOM     73  F   UNL A   1      41.139  24.619  28.379  1.00  0.00    -0.205 F 
ATOM     74  C   UNL A   1      43.313  25.051  25.466  1.00  0.00     0.022 A 
BRANCH  72  75
ATOM     75  S   UNL A   1      42.205  22.669  26.244  1.00  0.00     0.127 S 
ATOM     76  O   UNL A   1      42.808  22.151  27.469  1.00  0.00    -0.237 OA
ATOM     77  O   UNL A   1      40.743  22.596  26.199  1.00  0.00    -0.237 OA
ATOM     78  O   UNL A   1      42.859  22.288  25.002  1.00  0.00    -0.744 OA
ENDBRANCH  72  75
ENDBRANCH  44  68
BRANCH  56  79
ATOM     79  C   UNL A   1      44.650  27.369  34.171  1.00  0.00     0.023 A 
ATOM     80  C   UNL A   1      45.879  28.059  34.178  1.00  0.00     0.012 A 
ATOM     81  C   UNL A   1      44.525  26.174  34.907  1.00  0.00     0.148 A 
ATOM     82  C   UNL A   1      46.975  27.548  34.872  1.00  0.00     0.002 A 
ATOM     83  C   UNL A   1      45.608  25.697  35.637  1.00  0.00     0.091 A 
ATOM     84  F   UNL A   1      43.355  25.520  34.873  1.00  0.00    -0.205 F 
ATOM     85  C   UNL A   1      46.837  26.375  35.608  1.00  0.00     0.022 A 
BRANCH  83  86
ATOM     86  S   UNL A   1      45.492  24.245  36.687  1.00  0.00     0.127 S 
ATOM     87  O   UNL A   1      46.898  23.974  36.979  1.00  0.00    -0.237 OA
ATOM     88  O   UNL A   1      44.716  24.742  37.825  1.00  0.00    -0.237 OA
ATOM     89  O   UNL A   1      44.808  23.233  35.892  1.00  0.00    -0.744 OA
ENDBRANCH  83  86
ENDBRANCH  56  79
ENDBRANCH  30  31
ENDBRANCH  22  25
ENDBRANCH  20  21
ENDBRANCH   1  20
TORSDOF 16
ENDMDL
