MODEL 1
REMARK VINA RESULT:     -12.7      0.000      0.000
REMARK SMILES O=C(NCCCNC(=O)[C@H]1CCCN(C(=O)c2cc(Br)ccc2Cl)C1)c1ccc(-c2c3nc(c(-c4cccc(S(=O)(=O)[O-])c4F)c4ccc([nH]4)c(-c4cccc(S(=O)(=O)[O-])c4F)c4nc(c(-c5cccc(S(=O)(=O)[O-])c5F)c5ccc2[nH]5)C=C4)C=C3)cc1
REMARK SMILES IDX 4 1 3 2 1 3 2 4 26 6 27 7 88 8 28 9 87 10 29 11 30 12 31 13
REMARK SMILES IDX 81 14 32 15 86 16 80 17 82 18 33 19 85 20 79 21 78 22 34 24
REMARK SMILES IDX 66 25 46 26 65 27 47 28 50 29 64 30 83 31 48 32 49 33 63 35
REMARK SMILES IDX 84 36 51 37 35 38 36 39 44 40 37 41 39 42 45 43 38 44 40 45
REMARK SMILES IDX 41 46 42 47 43 48 67 49 68 50 76 51 69 52 71 53 77 54 70 55
REMARK SMILES IDX 72 56 73 57 74 58 75 59 52 60 53 61 61 62 54 63 56 64 62 65
REMARK SMILES IDX 55 66 57 67 58 68 59 69 60 70 5 71 6 72 7 73 8 74 9 76 10 77
REMARK SMILES IDX 11 78 25 79 12 80 14 81 13 82 15 83 16 84 17 85 18 86 23 87
REMARK SMILES IDX 19 88 22 89 24 90 20 91 21 92
REMARK H PARENT 3 5 82 23 50 34 7 75
REMARK Flexibility Score: inf
ROOT
ATOM      1  C   UNL A   1      37.668  21.920  25.006  1.00  0.00     0.118 C 
ENDROOT
BRANCH   1   2
ATOM      2  N   UNL A   1      38.530  20.904  25.588  1.00  0.00    -0.352 N 
ATOM      3  O   UNL A   1      40.364  20.041  26.556  1.00  0.00    -0.269 OA
ATOM      4  C   UNL A   1      39.691  21.041  26.314  1.00  0.00     0.251 C 
ATOM      5  H   UNL A   1      38.239  19.976  25.440  1.00  0.00     0.163 HD
BRANCH   4   6
ATOM      6  C   UNL A   1      40.146  22.374  26.776  1.00  0.00     0.039 A 
ATOM      7  C   UNL A   1      39.664  23.548  26.195  1.00  0.00     0.014 A 
ATOM      8  C   UNL A   1      41.059  22.451  27.833  1.00  0.00     0.014 A 
ATOM      9  C   UNL A   1      40.215  24.777  26.548  1.00  0.00     0.010 A 
ATOM     10  C   UNL A   1      41.541  23.697  28.252  1.00  0.00     0.010 A 
ATOM     11  C   UNL A   1      41.159  24.870  27.583  1.00  0.00    -0.014 A 
BRANCH  11  12
ATOM     12  C   UNL A   1      41.697  26.203  27.969  1.00  0.00     0.031 A 
ATOM     13  C   UNL A   1      43.095  26.619  27.596  1.00  0.00     0.074 A 
ATOM     14  C   UNL A   1      40.906  27.052  28.655  1.00  0.00     0.049 A 
ATOM     15  N   UNL A   1      43.694  27.765  27.804  1.00  0.00    -0.248 NA
ATOM     16  C   UNL A   1      43.937  25.624  26.913  1.00  0.00     0.031 C 
ATOM     17  C   UNL A   1      39.551  26.750  29.121  1.00  0.00     0.029 A 
ATOM     18  N   UNL A   1      41.119  28.342  29.074  1.00  0.00    -0.354 N 
ATOM     19  C   UNL A   1      44.991  27.615  27.324  1.00  0.00     0.074 A 
ATOM     20  C   UNL A   1      45.096  26.262  26.820  1.00  0.00     0.031 C 
ATOM     21  C   UNL A   1      39.040  27.832  29.725  1.00  0.00     0.029 A 
ATOM     22  C   UNL A   1      40.042  28.893  29.728  1.00  0.00     0.049 A 
ATOM     23  H   UNL A   1      41.962  28.826  28.919  1.00  0.00     0.167 HD
ATOM     24  C   UNL A   1      45.996  28.524  27.288  1.00  0.00     0.034 A 
ATOM     25  C   UNL A   1      39.874  30.115  30.270  1.00  0.00     0.034 A 
ATOM     26  C   UNL A   1      45.872  29.886  27.737  1.00  0.00     0.049 A 
ATOM     27  C   UNL A   1      40.986  31.119  30.162  1.00  0.00     0.074 A 
ATOM     28  C   UNL A   1      46.808  30.903  27.668  1.00  0.00     0.029 A 
ATOM     29  N   UNL A   1      44.745  30.423  28.339  1.00  0.00    -0.354 N 
ATOM     30  N   UNL A   1      42.152  31.000  29.575  1.00  0.00    -0.248 NA
ATOM     31  C   UNL A   1      40.747  32.439  30.763  1.00  0.00     0.031 C 
ATOM     32  C   UNL A   1      46.251  32.052  28.241  1.00  0.00     0.029 A 
ATOM     33  C   UNL A   1      44.962  31.755  28.651  1.00  0.00     0.049 A 
ATOM     34  H   UNL A   1      43.911  29.930  28.518  1.00  0.00     0.167 HD
ATOM     35  C   UNL A   1      42.771  32.237  29.705  1.00  0.00     0.074 A 
ATOM     36  C   UNL A   1      41.841  33.097  30.407  1.00  0.00     0.031 C 
ATOM     37  C   UNL A   1      44.005  32.620  29.294  1.00  0.00     0.034 A 
BRANCH  24  38
ATOM     38  C   UNL A   1      47.315  28.092  26.700  1.00  0.00     0.023 A 
ATOM     39  C   UNL A   1      48.373  27.728  27.558  1.00  0.00     0.012 A 
ATOM     40  C   UNL A   1      47.487  27.979  25.307  1.00  0.00     0.148 A 
ATOM     41  C   UNL A   1      49.591  27.289  27.039  1.00  0.00     0.002 A 
ATOM     42  C   UNL A   1      48.691  27.503  24.797  1.00  0.00     0.091 A 
ATOM     43  F   UNL A   1      46.479  28.349  24.504  1.00  0.00    -0.205 F 
ATOM     44  C   UNL A   1      49.746  27.166  25.660  1.00  0.00     0.022 A 
BRANCH  42  45
ATOM     45  S   UNL A   1      48.954  27.237  23.039  1.00  0.00     0.127 S 
ATOM     46  O   UNL A   1      50.412  27.170  22.964  1.00  0.00    -0.237 OA
ATOM     47  O   UNL A   1      48.274  25.961  22.810  1.00  0.00    -0.237 OA
ATOM     48  O   UNL A   1      48.339  28.375  22.370  1.00  0.00    -0.744 OA
ENDBRANCH  42  45
ENDBRANCH  24  38
BRANCH  25  49
ATOM     49  C   UNL A   1      38.568  30.476  30.887  1.00  0.00     0.023 A 
ATOM     50  C   UNL A   1      38.349  30.190  32.249  1.00  0.00     0.012 A 
ATOM     51  C   UNL A   1      37.566  31.138  30.155  1.00  0.00     0.148 A 
ATOM     52  C   UNL A   1      37.146  30.538  32.864  1.00  0.00     0.002 A 
ATOM     53  C   UNL A   1      36.393  31.532  30.787  1.00  0.00     0.091 A 
ATOM     54  F   UNL A   1      37.786  31.387  28.856  1.00  0.00    -0.205 F 
ATOM     55  C   UNL A   1      36.173  31.220  32.138  1.00  0.00     0.022 A 
BRANCH  53  56
ATOM     56  S   UNL A   1      35.151  32.535  29.962  1.00  0.00     0.127 S 
ATOM     57  O   UNL A   1      34.200  32.784  31.043  1.00  0.00    -0.237 OA
ATOM     58  O   UNL A   1      35.929  33.702  29.544  1.00  0.00    -0.237 OA
ATOM     59  O   UNL A   1      34.662  31.718  28.859  1.00  0.00    -0.744 OA
ENDBRANCH  53  56
ENDBRANCH  25  49
BRANCH  37  60
ATOM     60  C   UNL A   1      44.415  34.044  29.558  1.00  0.00     0.023 A 
ATOM     61  C   UNL A   1      45.105  34.364  30.743  1.00  0.00     0.012 A 
ATOM     62  C   UNL A   1      44.170  35.052  28.605  1.00  0.00     0.148 A 
ATOM     63  C   UNL A   1      45.517  35.674  30.991  1.00  0.00     0.002 A 
ATOM     64  C   UNL A   1      44.624  36.345  28.838  1.00  0.00     0.091 A 
ATOM     65  F   UNL A   1      43.490  34.733  27.493  1.00  0.00    -0.205 F 
ATOM     66  C   UNL A   1      45.286  36.661  30.035  1.00  0.00     0.022 A 
BRANCH  64  67
ATOM     67  S   UNL A   1      44.447  37.649  27.615  1.00  0.00     0.127 S 
ATOM     68  O   UNL A   1      44.836  38.832  28.379  1.00  0.00    -0.237 OA
ATOM     69  O   UNL A   1      45.405  37.247  26.583  1.00  0.00    -0.237 OA
ATOM     70  O   UNL A   1      43.055  37.601  27.188  1.00  0.00    -0.744 OA
ENDBRANCH  64  67
ENDBRANCH  37  60
ENDBRANCH  11  12
ENDBRANCH   4   6
ENDBRANCH   1   2
BRANCH   1  71
ATOM     71  C   UNL A   1      36.244  21.431  24.780  1.00  0.00     0.042 C 
BRANCH  71  72
ATOM     72  C   UNL A   1      35.383  21.395  26.041  1.00  0.00     0.117 C 
BRANCH  72  73
ATOM     73  N   UNL A   1      34.245  20.496  25.912  1.00  0.00    -0.356 N 
ATOM     74  C   UNL A   1      33.005  20.708  25.387  1.00  0.00     0.224 C 
ATOM     75  H   UNL A   1      34.395  19.588  26.260  1.00  0.00     0.163 HD
ATOM     76  O   UNL A   1      32.209  19.768  25.394  1.00  0.00    -0.275 OA
BRANCH  74  77
ATOM     77  C   UNL A   1      32.649  22.064  24.798  1.00  0.00     0.098 C 
ATOM     78  C   UNL A   1      32.590  22.012  23.258  1.00  0.00     0.017 C 
ATOM     79  C   UNL A   1      31.296  22.542  25.315  1.00  0.00     0.133 C 
ATOM     80  C   UNL A   1      32.164  23.360  22.666  1.00  0.00     0.022 C 
ATOM     81  N   UNL A   1      30.984  23.851  24.753  1.00  0.00    -0.338 N 
ATOM     82  C   UNL A   1      30.868  23.877  23.297  1.00  0.00     0.120 C 
BRANCH  81  83
ATOM     83  C   UNL A   1      30.991  24.957  25.596  1.00  0.00     0.255 C 
ATOM     84  O   UNL A   1      30.596  24.925  26.759  1.00  0.00    -0.269 OA
BRANCH  83  85
ATOM     85  C   UNL A   1      31.549  26.229  25.109  1.00  0.00     0.059 A 
ATOM     86  C   UNL A   1      30.645  27.171  24.599  1.00  0.00     0.031 A 
ATOM     87  C   UNL A   1      32.925  26.485  25.095  1.00  0.00     0.053 A 
ATOM     88  C   UNL A   1      31.123  28.387  24.119  1.00  0.00     0.018 A 
ATOM     89  C   UNL A   1      33.390  27.712  24.613  1.00  0.00     0.022 A 
ATOM     90  Cl  UNL A   1      34.094  25.337  25.638  1.00  0.00    -0.083 Cl
ATOM     91  Br  UNL A   1      29.911  29.673  23.448  1.00  0.00    -0.051 Br
ATOM     92  C   UNL A   1      32.489  28.666  24.131  1.00  0.00     0.017 A 
ENDBRANCH  83  85
ENDBRANCH  81  83
ENDBRANCH  74  77
ENDBRANCH  72  73
ENDBRANCH  71  72
ENDBRANCH   1  71
TORSDOF 15
ENDMDL
MODEL 2
REMARK VINA RESULT:     -12.5      1.227      7.671
REMARK SMILES O=C(NCCCNC(=O)[C@H]1CCCN(C(=O)c2cc(Br)ccc2Cl)C1)c1ccc(-c2c3nc(c(-c4cccc(S(=O)(=O)[O-])c4F)c4ccc([nH]4)c(-c4cccc(S(=O)(=O)[O-])c4F)c4nc(c(-c5cccc(S(=O)(=O)[O-])c5F)c5ccc2[nH]5)C=C4)C=C3)cc1
REMARK SMILES IDX 4 1 3 2 1 3 2 4 26 6 27 7 88 8 28 9 87 10 29 11 30 12 31 13
REMARK SMILES IDX 81 14 32 15 86 16 80 17 82 18 33 19 85 20 79 21 78 22 34 24
REMARK SMILES IDX 66 25 46 26 65 27 47 28 50 29 64 30 83 31 48 32 49 33 63 35
REMARK SMILES IDX 84 36 51 37 35 38 36 39 44 40 37 41 39 42 45 43 38 44 40 45
REMARK SMILES IDX 41 46 42 47 43 48 67 49 68 50 76 51 69 52 71 53 77 54 70 55
REMARK SMILES IDX 72 56 73 57 74 58 75 59 52 60 53 61 61 62 54 63 56 64 62 65
REMARK SMILES IDX 55 66 57 67 58 68 59 69 60 70 5 71 6 72 7 73 8 74 9 76 10 77
REMARK SMILES IDX 11 78 25 79 12 80 14 81 13 82 15 83 16 84 17 85 18 86 23 87
REMARK SMILES IDX 19 88 22 89 24 90 20 91 21 92
REMARK H PARENT 3 5 82 23 50 34 7 75
REMARK Flexibility Score: inf
ROOT
ATOM      1  C   UNL A   1      38.313  20.292  25.356  1.00  0.00     0.118 C 
ENDROOT
BRANCH   1   2
ATOM      2  N   UNL A   1      39.369  19.428  25.856  1.00  0.00    -0.352 N 
ATOM      3  O   UNL A   1      41.423  18.849  26.558  1.00  0.00    -0.269 OA
ATOM      4  C   UNL A   1      40.609  19.748  26.360  1.00  0.00     0.251 C 
ATOM      5  H   UNL A   1      39.167  18.465  25.830  1.00  0.00     0.163 HD
BRANCH   4   6
ATOM      6  C   UNL A   1      40.975  21.158  26.637  1.00  0.00     0.039 A 
ATOM      7  C   UNL A   1      40.543  22.197  25.810  1.00  0.00     0.014 A 
ATOM      8  C   UNL A   1      41.749  21.451  27.764  1.00  0.00     0.014 A 
ATOM      9  C   UNL A   1      41.021  23.490  26.008  1.00  0.00     0.010 A 
ATOM     10  C   UNL A   1      42.149  22.768  28.017  1.00  0.00     0.010 A 
ATOM     11  C   UNL A   1      41.828  23.795  27.116  1.00  0.00    -0.014 A 
BRANCH  11  12
ATOM     12  C   UNL A   1      42.286  25.195  27.327  1.00  0.00     0.031 A 
ATOM     13  C   UNL A   1      41.423  26.199  28.045  1.00  0.00     0.074 A 
ATOM     14  C   UNL A   1      43.502  25.560  26.874  1.00  0.00     0.049 A 
ATOM     15  N   UNL A   1      41.697  27.440  28.362  1.00  0.00    -0.248 NA
ATOM     16  C   UNL A   1      40.076  25.766  28.451  1.00  0.00     0.031 C 
ATOM     17  C   UNL A   1      44.412  24.697  26.118  1.00  0.00     0.029 A 
ATOM     18  N   UNL A   1      44.187  26.744  26.987  1.00  0.00    -0.354 N 
ATOM     19  C   UNL A   1      40.548  27.948  28.958  1.00  0.00     0.074 A 
ATOM     20  C   UNL A   1      39.568  26.884  28.953  1.00  0.00     0.031 C 
ATOM     21  C   UNL A   1      45.549  25.363  25.869  1.00  0.00     0.029 A 
ATOM     22  C   UNL A   1      45.435  26.714  26.410  1.00  0.00     0.049 A 
ATOM     23  H   UNL A   1      43.820  27.537  27.439  1.00  0.00     0.167 HD
ATOM     24  C   UNL A   1      40.334  29.181  29.480  1.00  0.00     0.034 A 
ATOM     25  C   UNL A   1      46.386  27.664  26.324  1.00  0.00     0.034 A 
ATOM     26  C   UNL A   1      41.328  30.220  29.537  1.00  0.00     0.049 A 
ATOM     27  C   UNL A   1      46.141  29.001  26.963  1.00  0.00     0.074 A 
ATOM     28  C   UNL A   1      41.231  31.473  30.117  1.00  0.00     0.029 A 
ATOM     29  N   UNL A   1      42.601  30.130  28.995  1.00  0.00    -0.354 N 
ATOM     30  N   UNL A   1      45.101  29.410  27.647  1.00  0.00    -0.248 NA
ATOM     31  C   UNL A   1      47.215  29.998  26.846  1.00  0.00     0.031 C 
ATOM     32  C   UNL A   1      42.442  32.146  29.913  1.00  0.00     0.029 A 
ATOM     33  C   UNL A   1      43.298  31.305  29.222  1.00  0.00     0.049 A 
ATOM     34  H   UNL A   1      42.958  29.345  28.519  1.00  0.00     0.167 HD
ATOM     35  C   UNL A   1      45.408  30.697  28.072  1.00  0.00     0.074 A 
ATOM     36  C   UNL A   1      46.740  30.990  27.586  1.00  0.00     0.031 C 
ATOM     37  C   UNL A   1      44.647  31.563  28.787  1.00  0.00     0.034 A 
BRANCH  24  38
ATOM     38  C   UNL A   1      38.980  29.467  30.078  1.00  0.00     0.023 A 
ATOM     39  C   UNL A   1      38.691  29.031  31.387  1.00  0.00     0.012 A 
ATOM     40  C   UNL A   1      38.021  30.223  29.375  1.00  0.00     0.148 A 
ATOM     41  C   UNL A   1      37.459  29.316  31.976  1.00  0.00     0.002 A 
ATOM     42  C   UNL A   1      36.810  30.537  29.984  1.00  0.00     0.091 A 
ATOM     43  F   UNL A   1      38.302  30.611  28.124  1.00  0.00    -0.205 F 
ATOM     44  C   UNL A   1      36.524  30.077  31.280  1.00  0.00     0.022 A 
BRANCH  42  45
ATOM     45  S   UNL A   1      35.577  31.579  29.194  1.00  0.00     0.127 S 
ATOM     46  O   UNL A   1      34.781  32.017  30.339  1.00  0.00    -0.237 OA
ATOM     47  O   UNL A   1      36.397  32.628  28.586  1.00  0.00    -0.237 OA
ATOM     48  O   UNL A   1      34.889  30.723  28.238  1.00  0.00    -0.744 OA
ENDBRANCH  42  45
ENDBRANCH  24  38
BRANCH  25  49
ATOM     49  C   UNL A   1      47.689  27.348  25.675  1.00  0.00     0.023 A 
ATOM     50  C   UNL A   1      48.721  26.778  26.446  1.00  0.00     0.012 A 
ATOM     51  C   UNL A   1      47.897  27.562  24.300  1.00  0.00     0.148 A 
ATOM     52  C   UNL A   1      49.945  26.447  25.863  1.00  0.00     0.002 A 
ATOM     53  C   UNL A   1      49.098  27.179  23.714  1.00  0.00     0.091 A 
ATOM     54  F   UNL A   1      46.910  28.121  23.586  1.00  0.00    -0.205 F 
ATOM     55  C   UNL A   1      50.129  26.636  24.496  1.00  0.00     0.022 A 
BRANCH  53  56
ATOM     56  S   UNL A   1      49.365  27.258  21.939  1.00  0.00     0.127 S 
ATOM     57  O   UNL A   1      50.791  26.956  21.837  1.00  0.00    -0.237 OA
ATOM     58  O   UNL A   1      48.476  26.203  21.450  1.00  0.00    -0.237 OA
ATOM     59  O   UNL A   1      48.968  28.603  21.546  1.00  0.00    -0.744 OA
ENDBRANCH  53  56
ENDBRANCH  25  49
BRANCH  37  60
ATOM     60  C   UNL A   1      45.248  32.902  29.122  1.00  0.00     0.023 A 
ATOM     61  C   UNL A   1      45.997  33.057  30.305  1.00  0.00     0.012 A 
ATOM     62  C   UNL A   1      45.122  33.990  28.235  1.00  0.00     0.148 A 
ATOM     63  C   UNL A   1      46.584  34.283  30.616  1.00  0.00     0.002 A 
ATOM     64  C   UNL A   1      45.748  35.194  28.529  1.00  0.00     0.091 A 
ATOM     65  F   UNL A   1      44.386  33.831  27.125  1.00  0.00    -0.205 F 
ATOM     66  C   UNL A   1      46.469  35.348  29.725  1.00  0.00     0.022 A 
BRANCH  64  67
ATOM     67  S   UNL A   1      45.725  36.582  27.388  1.00  0.00     0.127 S 
ATOM     68  O   UNL A   1      46.534  37.569  28.099  1.00  0.00    -0.237 OA
ATOM     69  O   UNL A   1      46.358  36.020  26.194  1.00  0.00    -0.237 OA
ATOM     70  O   UNL A   1      44.319  36.924  27.214  1.00  0.00    -0.744 OA
ENDBRANCH  64  67
ENDBRANCH  37  60
ENDBRANCH  11  12
ENDBRANCH   4   6
ENDBRANCH   1   2
BRANCH   1  71
ATOM     71  C   UNL A   1      37.050  19.527  24.979  1.00  0.00     0.042 C 
BRANCH  71  72
ATOM     72  C   UNL A   1      35.782  20.377  24.960  1.00  0.00     0.117 C 
BRANCH  72  73
ATOM     73  N   UNL A   1      34.575  19.578  25.120  1.00  0.00    -0.356 N 
ATOM     74  C   UNL A   1      33.261  19.933  25.034  1.00  0.00     0.224 C 
ATOM     75  H   UNL A   1      34.733  18.628  25.322  1.00  0.00     0.163 HD
ATOM     76  O   UNL A   1      32.416  19.055  25.210  1.00  0.00    -0.275 OA
BRANCH  74  77
ATOM     77  C   UNL A   1      32.880  21.368  24.707  1.00  0.00     0.098 C 
ATOM     78  C   UNL A   1      32.660  21.562  23.193  1.00  0.00     0.017 C 
ATOM     79  C   UNL A   1      31.601  21.768  25.435  1.00  0.00     0.133 C 
ATOM     80  C   UNL A   1      32.208  22.991  22.870  1.00  0.00     0.022 C 
ATOM     81  N   UNL A   1      31.264  23.153  25.122  1.00  0.00    -0.338 N 
ATOM     82  C   UNL A   1      30.998  23.411  23.709  1.00  0.00     0.120 C 
BRANCH  81  83
ATOM     83  C   UNL A   1      31.387  24.110  26.123  1.00  0.00     0.255 C 
ATOM     84  O   UNL A   1      30.914  23.978  27.250  1.00  0.00    -0.269 OA
BRANCH  83  85
ATOM     85  C   UNL A   1      32.168  25.329  25.860  1.00  0.00     0.059 A 
ATOM     86  C   UNL A   1      31.454  26.486  25.516  1.00  0.00     0.031 A 
ATOM     87  C   UNL A   1      33.567  25.343  25.891  1.00  0.00     0.053 A 
ATOM     88  C   UNL A   1      32.146  27.664  25.250  1.00  0.00     0.018 A 
ATOM     89  C   UNL A   1      34.249  26.534  25.624  1.00  0.00     0.022 A 
ATOM     90  Cl  UNL A   1      34.507  23.936  26.233  1.00  0.00    -0.083 Cl
ATOM     91  Br  UNL A   1      31.191  29.233  24.805  1.00  0.00    -0.051 Br
ATOM     92  C   UNL A   1      33.539  27.696  25.311  1.00  0.00     0.017 A 
ENDBRANCH  83  85
ENDBRANCH  81  83
ENDBRANCH  74  77
ENDBRANCH  72  73
ENDBRANCH  71  72
ENDBRANCH   1  71
TORSDOF 15
ENDMDL
MODEL 3
REMARK VINA RESULT:     -12.5      5.266     10.443
REMARK SMILES O=C(NCCCNC(=O)[C@H]1CCCN(C(=O)c2cc(Br)ccc2Cl)C1)c1ccc(-c2c3nc(c(-c4cccc(S(=O)(=O)[O-])c4F)c4ccc([nH]4)c(-c4cccc(S(=O)(=O)[O-])c4F)c4nc(c(-c5cccc(S(=O)(=O)[O-])c5F)c5ccc2[nH]5)C=C4)C=C3)cc1
REMARK SMILES IDX 4 1 3 2 1 3 2 4 26 6 27 7 88 8 28 9 87 10 29 11 30 12 31 13
REMARK SMILES IDX 81 14 32 15 86 16 80 17 82 18 33 19 85 20 79 21 78 22 34 24
REMARK SMILES IDX 66 25 46 26 65 27 47 28 50 29 64 30 83 31 48 32 49 33 63 35
REMARK SMILES IDX 84 36 51 37 35 38 36 39 44 40 37 41 39 42 45 43 38 44 40 45
REMARK SMILES IDX 41 46 42 47 43 48 67 49 68 50 76 51 69 52 71 53 77 54 70 55
REMARK SMILES IDX 72 56 73 57 74 58 75 59 52 60 53 61 61 62 54 63 56 64 62 65
REMARK SMILES IDX 55 66 57 67 58 68 59 69 60 70 5 71 6 72 7 73 8 74 9 76 10 77
REMARK SMILES IDX 11 78 25 79 12 80 14 81 13 82 15 83 16 84 17 85 18 86 23 87
REMARK SMILES IDX 19 88 22 89 24 90 20 91 21 92
REMARK H PARENT 3 5 82 23 50 34 7 75
REMARK Flexibility Score: inf
ROOT
ATOM      1  C   UNL A   1      32.651  30.183  27.057  1.00  0.00     0.118 C 
ENDROOT
BRANCH   1   2
ATOM      2  N   UNL A   1      32.742  31.634  27.070  1.00  0.00    -0.352 N 
ATOM      3  O   UNL A   1      33.483  33.664  27.682  1.00  0.00    -0.269 OA
ATOM      4  C   UNL A   1      33.695  32.455  27.628  1.00  0.00     0.251 C 
ATOM      5  H   UNL A   1      32.008  32.101  26.610  1.00  0.00     0.163 HD
BRANCH   4   6
ATOM      6  C   UNL A   1      34.949  31.894  28.185  1.00  0.00     0.039 A 
ATOM      7  C   UNL A   1      35.024  30.568  28.617  1.00  0.00     0.014 A 
ATOM      8  C   UNL A   1      36.086  32.706  28.253  1.00  0.00     0.014 A 
ATOM      9  C   UNL A   1      36.167  30.111  29.268  1.00  0.00     0.010 A 
ATOM     10  C   UNL A   1      37.266  32.214  28.821  1.00  0.00     0.010 A 
ATOM     11  C   UNL A   1      37.305  30.925  29.376  1.00  0.00    -0.014 A 
BRANCH  11  12
ATOM     12  C   UNL A   1      38.528  30.393  30.037  1.00  0.00     0.031 A 
ATOM     13  C   UNL A   1      38.883  30.777  31.450  1.00  0.00     0.074 A 
ATOM     14  C   UNL A   1      39.321  29.542  29.355  1.00  0.00     0.049 A 
ATOM     15  N   UNL A   1      39.879  30.357  32.189  1.00  0.00    -0.248 NA
ATOM     16  C   UNL A   1      38.023  31.767  32.118  1.00  0.00     0.031 C 
ATOM     17  C   UNL A   1      39.115  29.132  27.964  1.00  0.00     0.029 A 
ATOM     18  N   UNL A   1      40.451  28.863  29.736  1.00  0.00    -0.354 N 
ATOM     19  C   UNL A   1      39.794  31.061  33.385  1.00  0.00     0.074 A 
ATOM     20  C   UNL A   1      38.653  31.944  33.271  1.00  0.00     0.031 C 
ATOM     21  C   UNL A   1      40.060  28.244  27.621  1.00  0.00     0.029 A 
ATOM     22  C   UNL A   1      40.964  28.053  28.750  1.00  0.00     0.049 A 
ATOM     23  H   UNL A   1      40.854  28.947  30.630  1.00  0.00     0.167 HD
ATOM     24  C   UNL A   1      40.582  30.969  34.485  1.00  0.00     0.034 A 
ATOM     25  C   UNL A   1      42.041  27.243  28.751  1.00  0.00     0.034 A 
ATOM     26  C   UNL A   1      41.682  30.050  34.619  1.00  0.00     0.049 A 
ATOM     27  C   UNL A   1      42.859  27.118  30.004  1.00  0.00     0.074 A 
ATOM     28  C   UNL A   1      42.487  29.827  35.721  1.00  0.00     0.029 A 
ATOM     29  N   UNL A   1      42.133  29.203  33.618  1.00  0.00    -0.354 N 
ATOM     30  N   UNL A   1      42.674  27.687  31.170  1.00  0.00    -0.248 NA
ATOM     31  C   UNL A   1      44.018  26.216  29.952  1.00  0.00     0.031 C 
ATOM     32  C   UNL A   1      43.434  28.853  35.383  1.00  0.00     0.029 A 
ATOM     33  C   UNL A   1      43.207  28.459  34.075  1.00  0.00     0.049 A 
ATOM     34  H   UNL A   1      41.745  29.139  32.715  1.00  0.00     0.167 HD
ATOM     35  C   UNL A   1      43.669  27.185  32.000  1.00  0.00     0.074 A 
ATOM     36  C   UNL A   1      44.441  26.250  31.208  1.00  0.00     0.031 C 
ATOM     37  C   UNL A   1      43.929  27.484  33.297  1.00  0.00     0.034 A 
BRANCH  24  38
ATOM     38  C   UNL A   1      40.257  31.857  35.659  1.00  0.00     0.023 A 
ATOM     39  C   UNL A   1      41.036  33.007  35.898  1.00  0.00     0.012 A 
ATOM     40  C   UNL A   1      39.145  31.592  36.483  1.00  0.00     0.148 A 
ATOM     41  C   UNL A   1      40.732  33.865  36.956  1.00  0.00     0.002 A 
ATOM     42  C   UNL A   1      38.825  32.473  37.512  1.00  0.00     0.091 A 
ATOM     43  F   UNL A   1      38.428  30.483  36.257  1.00  0.00    -0.205 F 
ATOM     44  C   UNL A   1      39.622  33.604  37.755  1.00  0.00     0.022 A 
BRANCH  42  45
ATOM     45  S   UNL A   1      37.368  32.261  38.543  1.00  0.00     0.127 S 
ATOM     46  O   UNL A   1      36.362  33.011  37.793  1.00  0.00    -0.237 OA
ATOM     47  O   UNL A   1      37.182  30.809  38.525  1.00  0.00    -0.237 OA
ATOM     48  O   UNL A   1      37.721  32.807  39.846  1.00  0.00    -0.744 OA
ENDBRANCH  42  45
ENDBRANCH  24  38
BRANCH  25  49
ATOM     49  C   UNL A   1      42.350  26.426  27.545  1.00  0.00     0.023 A 
ATOM     50  C   UNL A   1      43.077  27.007  26.488  1.00  0.00     0.012 A 
ATOM     51  C   UNL A   1      41.976  25.072  27.457  1.00  0.00     0.148 A 
ATOM     52  C   UNL A   1      43.405  26.262  25.355  1.00  0.00     0.002 A 
ATOM     53  C   UNL A   1      42.354  24.320  26.352  1.00  0.00     0.091 A 
ATOM     54  F   UNL A   1      41.270  24.540  28.466  1.00  0.00    -0.205 F 
ATOM     55  C   UNL A   1      43.055  24.916  25.292  1.00  0.00     0.022 A 
BRANCH  53  56
ATOM     56  S   UNL A   1      42.065  22.549  26.255  1.00  0.00     0.127 S 
ATOM     57  O   UNL A   1      42.710  22.073  27.477  1.00  0.00    -0.237 OA
ATOM     58  O   UNL A   1      40.603  22.478  26.261  1.00  0.00    -0.237 OA
ATOM     59  O   UNL A   1      42.677  22.123  25.004  1.00  0.00    -0.744 OA
ENDBRANCH  53  56
ENDBRANCH  25  49
BRANCH  37  60
ATOM     60  C   UNL A   1      45.076  26.769  33.958  1.00  0.00     0.023 A 
ATOM     61  C   UNL A   1      46.368  27.326  33.913  1.00  0.00     0.012 A 
ATOM     62  C   UNL A   1      44.862  25.575  34.677  1.00  0.00     0.148 A 
ATOM     63  C   UNL A   1      47.437  26.691  34.545  1.00  0.00     0.002 A 
ATOM     64  C   UNL A   1      45.922  24.973  35.342  1.00  0.00     0.091 A 
ATOM     65  F   UNL A   1      43.629  25.046  34.690  1.00  0.00    -0.205 F 
ATOM     66  C   UNL A   1      47.213  25.521  35.268  1.00  0.00     0.022 A 
BRANCH  64  67
ATOM     67  S   UNL A   1      45.695  23.517  36.370  1.00  0.00     0.127 S 
ATOM     68  O   UNL A   1      47.075  23.123  36.644  1.00  0.00    -0.237 OA
ATOM     69  O   UNL A   1      44.974  24.054  37.525  1.00  0.00    -0.237 OA
ATOM     70  O   UNL A   1      44.919  22.583  35.564  1.00  0.00    -0.744 OA
ENDBRANCH  64  67
ENDBRANCH  37  60
ENDBRANCH  11  12
ENDBRANCH   4   6
ENDBRANCH   1   2
BRANCH   1  71
ATOM     71  C   UNL A   1      31.774  29.654  25.930  1.00  0.00     0.042 C 
BRANCH  71  72
ATOM     72  C   UNL A   1      32.507  29.447  24.606  1.00  0.00     0.117 C 
BRANCH  72  73
ATOM     73  N   UNL A   1      31.597  29.384  23.471  1.00  0.00    -0.356 N 
ATOM     74  C   UNL A   1      30.989  28.314  22.884  1.00  0.00     0.224 C 
ATOM     75  H   UNL A   1      31.387  30.253  23.061  1.00  0.00     0.163 HD
ATOM     76  O   UNL A   1      30.249  28.530  21.922  1.00  0.00    -0.275 OA
BRANCH  74  77
ATOM     77  C   UNL A   1      31.213  26.914  23.433  1.00  0.00     0.098 C 
ATOM     78  C   UNL A   1      29.959  26.384  24.155  1.00  0.00     0.017 C 
ATOM     79  C   UNL A   1      31.570  25.944  22.312  1.00  0.00     0.133 C 
ATOM     80  C   UNL A   1      30.160  24.946  24.648  1.00  0.00     0.022 C 
ATOM     81  N   UNL A   1      31.800  24.612  22.862  1.00  0.00    -0.338 N 
ATOM     82  C   UNL A   1      30.642  24.020  23.528  1.00  0.00     0.120 C 
BRANCH  81  83
ATOM     83  C   UNL A   1      33.095  24.106  22.862  1.00  0.00     0.255 C 
ATOM     84  O   UNL A   1      33.916  24.345  21.979  1.00  0.00    -0.269 OA
BRANCH  83  85
ATOM     85  C   UNL A   1      33.545  23.283  23.996  1.00  0.00     0.059 A 
ATOM     86  C   UNL A   1      33.471  21.891  23.847  1.00  0.00     0.031 A 
ATOM     87  C   UNL A   1      33.982  23.845  25.201  1.00  0.00     0.053 A 
ATOM     88  C   UNL A   1      33.879  21.068  24.893  1.00  0.00     0.018 A 
ATOM     89  C   UNL A   1      34.390  23.007  26.243  1.00  0.00     0.022 A 
ATOM     90  Cl  UNL A   1      34.024  25.549  25.475  1.00  0.00    -0.083 Cl
ATOM     91  Br  UNL A   1      33.801  19.190  24.695  1.00  0.00    -0.051 Br
ATOM     92  C   UNL A   1      34.345  21.618  26.087  1.00  0.00     0.017 A 
ENDBRANCH  83  85
ENDBRANCH  81  83
ENDBRANCH  74  77
ENDBRANCH  72  73
ENDBRANCH  71  72
ENDBRANCH   1  71
TORSDOF 15
ENDMDL
