MODEL 1
REMARK VINA RESULT:     -11.2      0.000      0.000
REMARK SMILES O=C(NCCCNC(=O)[C@@H]1CCCN(C(=O)CCCc2ccc(Br)s2)C1)c1ccc(-c2c3nc(c(-c4cccc(S(=O)(=O)[O-])c4F)c4ccc([nH]4)c(-c4cccc(S(=O)(=O)[O-])c4F)c4nc(c(-c5cccc(S(=O)(=O)[O-])c5F)c5ccc2[nH]5)C=C4)C=C3)cc1
REMARK SMILES IDX 6 1 5 2 4 3 3 4 1 5 2 6 27 8 28 9 89 10 29 11 88 12 30 13
REMARK SMILES IDX 31 14 32 15 82 16 33 17 87 18 81 19 83 20 34 21 86 22 80 23
REMARK SMILES IDX 79 24 35 26 67 27 47 28 66 29 48 30 51 31 65 32 84 33 49 34
REMARK SMILES IDX 50 35 64 37 85 38 52 39 36 40 37 41 45 42 38 43 40 44 46 45
REMARK SMILES IDX 39 46 41 47 42 48 43 49 44 50 68 51 69 52 77 53 70 54 72 55
REMARK SMILES IDX 78 56 71 57 73 58 74 59 75 60 76 61 53 62 54 63 62 64 55 65
REMARK SMILES IDX 57 66 63 67 56 68 58 69 59 70 60 71 61 72 7 73 8 74 9 76
REMARK SMILES IDX 10 77 11 78 26 79 12 80 14 81 13 82 15 83 16 84 17 85 18 86
REMARK SMILES IDX 19 87 20 88 21 89 25 90 22 91 23 92 24 93
REMARK H PARENT 3 7 83 25 51 36 7 75
REMARK Flexibility Score: inf
ROOT
ATOM      1  C   UNL A   1      31.664  30.605  26.440  1.00  0.00     0.117 C 
ENDROOT
BRANCH   1   2
ATOM      2  C   UNL A   1      31.440  32.081  26.722  1.00  0.00     0.042 C 
BRANCH   2   3
ATOM      3  C   UNL A   1      32.721  32.895  26.806  1.00  0.00     0.118 C 
BRANCH   3   4
ATOM      4  N   UNL A   1      32.555  34.131  27.556  1.00  0.00    -0.352 N 
ATOM      5  O   UNL A   1      32.754  35.565  29.272  1.00  0.00    -0.269 OA
ATOM      6  C   UNL A   1      33.191  34.579  28.690  1.00  0.00     0.251 C 
ATOM      7  H   UNL A   1      31.877  34.745  27.194  1.00  0.00     0.163 HD
BRANCH   6   8
ATOM      8  C   UNL A   1      34.378  33.866  29.208  1.00  0.00     0.039 A 
ATOM      9  C   UNL A   1      35.665  34.332  28.935  1.00  0.00     0.014 A 
ATOM     10  C   UNL A   1      34.199  32.738  30.013  1.00  0.00     0.014 A 
ATOM     11  C   UNL A   1      36.771  33.594  29.339  1.00  0.00     0.010 A 
ATOM     12  C   UNL A   1      35.314  32.054  30.506  1.00  0.00     0.010 A 
ATOM     13  C   UNL A   1      36.610  32.466  30.156  1.00  0.00    -0.014 A 
BRANCH  13  14
ATOM     14  C   UNL A   1      37.808  31.813  30.738  1.00  0.00     0.031 A 
ATOM     15  C   UNL A   1      38.587  30.779  29.976  1.00  0.00     0.074 A 
ATOM     16  C   UNL A   1      38.166  32.149  31.994  1.00  0.00     0.049 A 
ATOM     17  N   UNL A   1      39.638  30.102  30.359  1.00  0.00    -0.248 NA
ATOM     18  C   UNL A   1      38.129  30.454  28.616  1.00  0.00     0.031 C 
ATOM     19  C   UNL A   1      37.452  33.108  32.844  1.00  0.00     0.029 A 
ATOM     20  N   UNL A   1      39.197  31.712  32.784  1.00  0.00    -0.354 N 
ATOM     21  C   UNL A   1      39.940  29.239  29.316  1.00  0.00     0.074 A 
ATOM     22  C   UNL A   1      38.967  29.482  28.272  1.00  0.00     0.031 C 
ATOM     23  C   UNL A   1      38.065  33.187  34.032  1.00  0.00     0.029 A 
ATOM     24  C   UNL A   1      39.172  32.240  34.054  1.00  0.00     0.049 A 
ATOM     25  H   UNL A   1      39.888  31.082  32.474  1.00  0.00     0.167 HD
ATOM     26  C   UNL A   1      40.941  28.329  29.239  1.00  0.00     0.034 A 
ATOM     27  C   UNL A   1      39.923  31.961  35.136  1.00  0.00     0.034 A 
ATOM     28  C   UNL A   1      41.921  28.117  30.271  1.00  0.00     0.049 A 
ATOM     29  C   UNL A   1      41.022  30.947  35.013  1.00  0.00     0.074 A 
ATOM     30  C   UNL A   1      43.033  27.293  30.241  1.00  0.00     0.029 A 
ATOM     31  N   UNL A   1      41.892  28.703  31.526  1.00  0.00    -0.354 N 
ATOM     32  N   UNL A   1      41.397  30.266  33.959  1.00  0.00    -0.248 NA
ATOM     33  C   UNL A   1      41.815  30.677  36.220  1.00  0.00     0.031 C 
ATOM     34  C   UNL A   1      43.649  27.345  31.495  1.00  0.00     0.029 A 
ATOM     35  C   UNL A   1      42.945  28.231  32.293  1.00  0.00     0.049 A 
ATOM     36  H   UNL A   1      41.223  29.359  31.829  1.00  0.00     0.167 HD
ATOM     37  C   UNL A   1      42.482  29.501  34.368  1.00  0.00     0.074 A 
ATOM     38  C   UNL A   1      42.723  29.829  35.758  1.00  0.00     0.031 C 
ATOM     39  C   UNL A   1      43.200  28.595  33.662  1.00  0.00     0.034 A 
BRANCH  26  40
ATOM     40  C   UNL A   1      41.051  27.488  27.993  1.00  0.00     0.023 A 
ATOM     41  C   UNL A   1      41.653  28.019  26.836  1.00  0.00     0.012 A 
ATOM     42  C   UNL A   1      40.663  26.132  28.011  1.00  0.00     0.148 A 
ATOM     43  C   UNL A   1      41.849  27.220  25.709  1.00  0.00     0.002 A 
ATOM     44  C   UNL A   1      40.900  25.333  26.901  1.00  0.00     0.091 A 
ATOM     45  F   UNL A   1      40.078  25.652  29.118  1.00  0.00    -0.205 F 
ATOM     46  C   UNL A   1      41.485  25.877  25.745  1.00  0.00     0.022 A 
BRANCH  44  47
ATOM     47  S   UNL A   1      40.543  23.572  26.877  1.00  0.00     0.127 S 
ATOM     48  O   UNL A   1      39.112  23.566  26.573  1.00  0.00    -0.237 OA
ATOM     49  O   UNL A   1      41.399  23.101  25.787  1.00  0.00    -0.237 OA
ATOM     50  O   UNL A   1      40.901  23.069  28.195  1.00  0.00    -0.744 OA
ENDBRANCH  44  47
ENDBRANCH  26  40
BRANCH  27  51
ATOM     51  C   UNL A   1      39.649  32.650  36.428  1.00  0.00     0.023 A 
ATOM     52  C   UNL A   1      40.366  33.812  36.768  1.00  0.00     0.012 A 
ATOM     53  C   UNL A   1      38.663  32.167  37.312  1.00  0.00     0.148 A 
ATOM     54  C   UNL A   1      40.133  34.459  37.982  1.00  0.00     0.002 A 
ATOM     55  C   UNL A   1      38.391  32.853  38.489  1.00  0.00     0.091 A 
ATOM     56  F   UNL A   1      37.999  31.051  36.977  1.00  0.00    -0.205 F 
ATOM     57  C   UNL A   1      39.139  33.987  38.836  1.00  0.00     0.022 A 
BRANCH  55  58
ATOM     58  S   UNL A   1      37.035  32.394  39.573  1.00  0.00     0.127 S 
ATOM     59  O   UNL A   1      37.155  33.386  40.638  1.00  0.00    -0.237 OA
ATOM     60  O   UNL A   1      35.875  32.565  38.697  1.00  0.00    -0.237 OA
ATOM     61  O   UNL A   1      37.293  31.012  39.958  1.00  0.00    -0.744 OA
ENDBRANCH  55  58
ENDBRANCH  27  51
BRANCH  39  62
ATOM     62  C   UNL A   1      44.334  27.903  34.371  1.00  0.00     0.023 A 
ATOM     63  C   UNL A   1      45.605  28.508  34.411  1.00  0.00     0.012 A 
ATOM     64  C   UNL A   1      44.117  26.695  35.062  1.00  0.00     0.148 A 
ATOM     65  C   UNL A   1      46.653  27.906  35.107  1.00  0.00     0.002 A 
ATOM     66  C   UNL A   1      45.151  26.128  35.797  1.00  0.00     0.091 A 
ATOM     67  F   UNL A   1      42.903  26.131  34.997  1.00  0.00    -0.205 F 
ATOM     68  C   UNL A   1      46.422  26.725  35.810  1.00  0.00     0.022 A 
BRANCH  66  69
ATOM     69  S   UNL A   1      44.926  24.663  36.810  1.00  0.00     0.127 S 
ATOM     70  O   UNL A   1      46.265  24.479  37.369  1.00  0.00    -0.237 OA
ATOM     71  O   UNL A   1      43.918  25.106  37.773  1.00  0.00    -0.237 OA
ATOM     72  O   UNL A   1      44.482  23.610  35.907  1.00  0.00    -0.744 OA
ENDBRANCH  66  69
ENDBRANCH  39  62
ENDBRANCH  13  14
ENDBRANCH   6   8
ENDBRANCH   3   4
ENDBRANCH   2   3
ENDBRANCH   1   2
BRANCH   1  73
ATOM     73  N   UNL A   1      31.242  30.199  25.111  1.00  0.00    -0.356 N 
ATOM     74  C   UNL A   1      31.770  29.309  24.227  1.00  0.00     0.224 C 
ATOM     75  H   UNL A   1      30.428  30.650  24.790  1.00  0.00     0.163 HD
ATOM     76  O   UNL A   1      31.190  29.177  23.147  1.00  0.00    -0.275 OA
BRANCH  74  77
ATOM     77  C   UNL A   1      33.062  28.567  24.555  1.00  0.00     0.098 C 
ATOM     78  C   UNL A   1      33.958  28.419  23.304  1.00  0.00     0.017 C 
ATOM     79  C   UNL A   1      32.816  27.200  25.202  1.00  0.00     0.132 C 
ATOM     80  C   UNL A   1      33.504  27.286  22.378  1.00  0.00     0.022 C 
ATOM     81  N   UNL A   1      32.412  26.171  24.253  1.00  0.00    -0.342 N 
ATOM     82  C   UNL A   1      33.345  25.982  23.152  1.00  0.00     0.119 C 
BRANCH  81  83
ATOM     83  C   UNL A   1      31.231  25.483  24.477  1.00  0.00     0.222 C 
ATOM     84  O   UNL A   1      30.482  25.755  25.420  1.00  0.00    -0.275 OA
BRANCH  83  85
ATOM     85  C   UNL A   1      30.864  24.319  23.577  1.00  0.00     0.100 C 
BRANCH  85  86
ATOM     86  C   UNL A   1      31.359  22.953  24.064  1.00  0.00     0.015 C 
BRANCH  86  87
ATOM     87  C   UNL A   1      31.887  22.873  25.501  1.00  0.00     0.047 C 
BRANCH  87  88
ATOM     88  C   UNL A   1      33.384  22.755  25.638  1.00  0.00     0.006 A 
ATOM     89  C   UNL A   1      34.323  23.671  26.081  1.00  0.00     0.016 A 
ATOM     90  S   UNL A   1      34.148  21.289  25.150  1.00  0.00    -0.133 S 
ATOM     91  C   UNL A   1      35.664  23.230  25.862  1.00  0.00     0.028 A 
ATOM     92  C   UNL A   1      35.688  21.959  25.349  1.00  0.00     0.070 A 
ATOM     93  Br  UNL A   1      37.267  21.055  24.903  1.00  0.00    -0.039 Br
ENDBRANCH  87  88
ENDBRANCH  86  87
ENDBRANCH  85  86
ENDBRANCH  83  85
ENDBRANCH  81  83
ENDBRANCH  74  77
ENDBRANCH   1  73
TORSDOF 18
ENDMDL
MODEL 2
REMARK VINA RESULT:     -11.2      3.589      8.782
REMARK SMILES O=C(NCCCNC(=O)[C@@H]1CCCN(C(=O)CCCc2ccc(Br)s2)C1)c1ccc(-c2c3nc(c(-c4cccc(S(=O)(=O)[O-])c4F)c4ccc([nH]4)c(-c4cccc(S(=O)(=O)[O-])c4F)c4nc(c(-c5cccc(S(=O)(=O)[O-])c5F)c5ccc2[nH]5)C=C4)C=C3)cc1
REMARK SMILES IDX 6 1 5 2 4 3 3 4 1 5 2 6 27 8 28 9 89 10 29 11 88 12 30 13
REMARK SMILES IDX 31 14 32 15 82 16 33 17 87 18 81 19 83 20 34 21 86 22 80 23
REMARK SMILES IDX 79 24 35 26 67 27 47 28 66 29 48 30 51 31 65 32 84 33 49 34
REMARK SMILES IDX 50 35 64 37 85 38 52 39 36 40 37 41 45 42 38 43 40 44 46 45
REMARK SMILES IDX 39 46 41 47 42 48 43 49 44 50 68 51 69 52 77 53 70 54 72 55
REMARK SMILES IDX 78 56 71 57 73 58 74 59 75 60 76 61 53 62 54 63 62 64 55 65
REMARK SMILES IDX 57 66 63 67 56 68 58 69 59 70 60 71 61 72 7 73 8 74 9 76
REMARK SMILES IDX 10 77 11 78 26 79 12 80 14 81 13 82 15 83 16 84 17 85 18 86
REMARK SMILES IDX 19 87 20 88 21 89 25 90 22 91 23 92 24 93
REMARK H PARENT 3 7 83 25 51 36 7 75
REMARK Flexibility Score: inf
ROOT
ATOM      1  C   UNL A   1      33.654  26.241  26.013  1.00  0.00     0.117 C 
ENDROOT
BRANCH   1   2
ATOM      2  C   UNL A   1      33.639  27.758  25.923  1.00  0.00     0.042 C 
BRANCH   2   3
ATOM      3  C   UNL A   1      33.398  28.452  27.254  1.00  0.00     0.118 C 
BRANCH   3   4
ATOM      4  N   UNL A   1      33.503  29.900  27.160  1.00  0.00    -0.352 N 
ATOM      5  O   UNL A   1      34.271  31.963  27.604  1.00  0.00    -0.269 OA
ATOM      6  C   UNL A   1      34.480  30.756  27.612  1.00  0.00     0.251 C 
ATOM      7  H   UNL A   1      32.752  30.340  26.700  1.00  0.00     0.163 HD
BRANCH   6   8
ATOM      8  C   UNL A   1      35.762  30.219  28.119  1.00  0.00     0.039 A 
ATOM      9  C   UNL A   1      36.912  30.257  27.329  1.00  0.00     0.014 A 
ATOM     10  C   UNL A   1      35.822  29.708  29.418  1.00  0.00     0.014 A 
ATOM     11  C   UNL A   1      38.081  29.655  27.777  1.00  0.00     0.010 A 
ATOM     12  C   UNL A   1      37.026  29.195  29.906  1.00  0.00     0.010 A 
ATOM     13  C   UNL A   1      38.162  29.146  29.081  1.00  0.00    -0.014 A 
BRANCH  13  14
ATOM     14  C   UNL A   1      39.474  28.692  29.603  1.00  0.00     0.031 A 
ATOM     15  C   UNL A   1      40.172  29.421  30.715  1.00  0.00     0.074 A 
ATOM     16  C   UNL A   1      40.047  27.616  29.026  1.00  0.00     0.049 A 
ATOM     17  N   UNL A   1      41.332  29.162  31.260  1.00  0.00    -0.248 NA
ATOM     18  C   UNL A   1      39.492  30.595  31.286  1.00  0.00     0.031 C 
ATOM     19  C   UNL A   1      39.479  26.858  27.906  1.00  0.00     0.029 A 
ATOM     20  N   UNL A   1      41.238  26.985  29.279  1.00  0.00    -0.354 N 
ATOM     21  C   UNL A   1      41.547  30.160  32.200  1.00  0.00     0.074 A 
ATOM     22  C   UNL A   1      40.390  31.030  32.162  1.00  0.00     0.031 C 
ATOM     23  C   UNL A   1      40.317  25.869  27.571  1.00  0.00     0.029 A 
ATOM     24  C   UNL A   1      41.509  25.960  28.404  1.00  0.00     0.049 A 
ATOM     25  H   UNL A   1      41.840  27.240  30.016  1.00  0.00     0.167 HD
ATOM     26  C   UNL A   1      42.612  30.331  33.018  1.00  0.00     0.034 A 
ATOM     27  C   UNL A   1      42.612  25.204  28.250  1.00  0.00     0.034 A 
ATOM     28  C   UNL A   1      43.743  29.441  33.068  1.00  0.00     0.049 A 
ATOM     29  C   UNL A   1      43.773  25.422  29.176  1.00  0.00     0.074 A 
ATOM     30  C   UNL A   1      44.821  29.473  33.937  1.00  0.00     0.029 A 
ATOM     31  N   UNL A   1      43.963  28.386  32.197  1.00  0.00    -0.354 N 
ATOM     32  N   UNL A   1      43.882  26.264  30.174  1.00  0.00    -0.248 NA
ATOM     33  C   UNL A   1      44.955  24.573  28.971  1.00  0.00     0.031 C 
ATOM     34  C   UNL A   1      45.714  28.465  33.560  1.00  0.00     0.029 A 
ATOM     35  C   UNL A   1      45.176  27.781  32.483  1.00  0.00     0.049 A 
ATOM     36  H   UNL A   1      43.347  28.106  31.481  1.00  0.00     0.167 HD
ATOM     37  C   UNL A   1      45.134  26.035  30.728  1.00  0.00     0.074 A 
ATOM     38  C   UNL A   1      45.732  24.951  29.976  1.00  0.00     0.031 C 
ATOM     39  C   UNL A   1      45.742  26.677  31.755  1.00  0.00     0.034 A 
BRANCH  26  40
ATOM     40  C   UNL A   1      42.620  31.515  33.949  1.00  0.00     0.023 A 
ATOM     41  C   UNL A   1      43.115  32.757  33.506  1.00  0.00     0.012 A 
ATOM     42  C   UNL A   1      42.027  31.423  35.225  1.00  0.00     0.148 A 
ATOM     43  C   UNL A   1      43.038  33.884  34.325  1.00  0.00     0.002 A 
ATOM     44  C   UNL A   1      41.916  32.558  36.018  1.00  0.00     0.091 A 
ATOM     45  F   UNL A   1      41.577  30.227  35.634  1.00  0.00    -0.205 F 
ATOM     46  C   UNL A   1      42.428  33.788  35.573  1.00  0.00     0.022 A 
BRANCH  44  47
ATOM     47  S   UNL A   1      41.074  32.556  37.605  1.00  0.00     0.127 S 
ATOM     48  O   UNL A   1      41.904  31.632  38.377  1.00  0.00    -0.237 OA
ATOM     49  O   UNL A   1      41.185  33.958  38.011  1.00  0.00    -0.237 OA
ATOM     50  O   UNL A   1      39.717  32.103  37.343  1.00  0.00    -0.744 OA
ENDBRANCH  44  47
ENDBRANCH  26  40
BRANCH  27  51
ATOM     51  C   UNL A   1      42.667  24.180  27.170  1.00  0.00     0.023 A 
ATOM     52  C   UNL A   1      43.386  24.445  25.990  1.00  0.00     0.012 A 
ATOM     53  C   UNL A   1      42.025  22.934  27.319  1.00  0.00     0.148 A 
ATOM     54  C   UNL A   1      43.434  23.503  24.962  1.00  0.00     0.002 A 
ATOM     55  C   UNL A   1      42.130  21.976  26.319  1.00  0.00     0.091 A 
ATOM     56  F   UNL A   1      41.333  22.705  28.445  1.00  0.00    -0.205 F 
ATOM     57  C   UNL A   1      42.817  22.266  25.131  1.00  0.00     0.022 A 
BRANCH  55  58
ATOM     58  S   UNL A   1      41.486  20.311  26.517  1.00  0.00     0.127 S 
ATOM     59  O   UNL A   1      40.046  20.535  26.418  1.00  0.00    -0.237 OA
ATOM     60  O   UNL A   1      42.084  19.617  25.376  1.00  0.00    -0.237 OA
ATOM     61  O   UNL A   1      41.972  19.856  27.814  1.00  0.00    -0.744 OA
ENDBRANCH  55  58
ENDBRANCH  27  51
BRANCH  39  62
ATOM     62  C   UNL A   1      47.121  26.214  32.145  1.00  0.00     0.023 A 
ATOM     63  C   UNL A   1      47.269  25.193  33.104  1.00  0.00     0.012 A 
ATOM     64  C   UNL A   1      48.261  26.735  31.504  1.00  0.00     0.148 A 
ATOM     65  C   UNL A   1      48.536  24.716  33.439  1.00  0.00     0.002 A 
ATOM     66  C   UNL A   1      49.515  26.219  31.804  1.00  0.00     0.091 A 
ATOM     67  F   UNL A   1      48.096  27.717  30.605  1.00  0.00    -0.205 F 
ATOM     68  C   UNL A   1      49.656  25.219  32.780  1.00  0.00     0.022 A 
BRANCH  66  69
ATOM     69  S   UNL A   1      51.004  26.734  30.942  1.00  0.00     0.127 S 
ATOM     70  O   UNL A   1      50.474  27.113  29.632  1.00  0.00    -0.237 OA
ATOM     71  O   UNL A   1      51.462  27.855  31.763  1.00  0.00    -0.237 OA
ATOM     72  O   UNL A   1      51.891  25.580  30.940  1.00  0.00    -0.744 OA
ENDBRANCH  66  69
ENDBRANCH  39  62
ENDBRANCH  13  14
ENDBRANCH   6   8
ENDBRANCH   3   4
ENDBRANCH   2   3
ENDBRANCH   1   2
BRANCH   1  73
ATOM     73  N   UNL A   1      33.965  25.590  24.753  1.00  0.00    -0.356 N 
ATOM     74  C   UNL A   1      34.784  24.544  24.454  1.00  0.00     0.224 C 
ATOM     75  H   UNL A   1      33.501  25.973  23.973  1.00  0.00     0.163 HD
ATOM     76  O   UNL A   1      34.859  24.210  23.269  1.00  0.00    -0.275 OA
BRANCH  74  77
ATOM     77  C   UNL A   1      35.613  23.874  25.545  1.00  0.00     0.098 C 
ATOM     78  C   UNL A   1      36.995  23.435  25.010  1.00  0.00     0.017 C 
ATOM     79  C   UNL A   1      34.891  22.692  26.200  1.00  0.00     0.132 C 
ATOM     80  C   UNL A   1      36.935  22.131  24.210  1.00  0.00     0.022 C 
ATOM     81  N   UNL A   1      34.900  21.483  25.388  1.00  0.00    -0.342 N 
ATOM     82  C   UNL A   1      36.231  21.036  25.005  1.00  0.00     0.119 C 
BRANCH  81  83
ATOM     83  C   UNL A   1      33.692  20.881  25.073  1.00  0.00     0.222 C 
ATOM     84  O   UNL A   1      33.272  19.895  25.685  1.00  0.00    -0.275 OA
BRANCH  83  85
ATOM     85  C   UNL A   1      32.878  21.406  23.906  1.00  0.00     0.100 C 
BRANCH  85  86
ATOM     86  C   UNL A   1      31.799  22.425  24.287  1.00  0.00     0.015 C 
BRANCH  86  87
ATOM     87  C   UNL A   1      31.217  23.282  23.158  1.00  0.00     0.047 C 
BRANCH  87  88
ATOM     88  C   UNL A   1      30.936  24.721  23.513  1.00  0.00     0.006 A 
ATOM     89  C   UNL A   1      30.306  25.270  24.617  1.00  0.00     0.016 A 
ATOM     90  S   UNL A   1      31.406  25.955  22.404  1.00  0.00    -0.133 S 
ATOM     91  C   UNL A   1      30.065  26.670  24.469  1.00  0.00     0.028 A 
ATOM     92  C   UNL A   1      30.604  27.144  23.302  1.00  0.00     0.070 A 
ATOM     93  Br  UNL A   1      30.465  28.928  22.749  1.00  0.00    -0.039 Br
ENDBRANCH  87  88
ENDBRANCH  86  87
ENDBRANCH  85  86
ENDBRANCH  83  85
ENDBRANCH  81  83
ENDBRANCH  74  77
ENDBRANCH   1  73
TORSDOF 18
ENDMDL
MODEL 3
REMARK VINA RESULT:     -11.0      5.987     11.268
REMARK SMILES O=C(NCCCNC(=O)[C@@H]1CCCN(C(=O)CCCc2ccc(Br)s2)C1)c1ccc(-c2c3nc(c(-c4cccc(S(=O)(=O)[O-])c4F)c4ccc([nH]4)c(-c4cccc(S(=O)(=O)[O-])c4F)c4nc(c(-c5cccc(S(=O)(=O)[O-])c5F)c5ccc2[nH]5)C=C4)C=C3)cc1
REMARK SMILES IDX 6 1 5 2 4 3 3 4 1 5 2 6 27 8 28 9 89 10 29 11 88 12 30 13
REMARK SMILES IDX 31 14 32 15 82 16 33 17 87 18 81 19 83 20 34 21 86 22 80 23
REMARK SMILES IDX 79 24 35 26 67 27 47 28 66 29 48 30 51 31 65 32 84 33 49 34
REMARK SMILES IDX 50 35 64 37 85 38 52 39 36 40 37 41 45 42 38 43 40 44 46 45
REMARK SMILES IDX 39 46 41 47 42 48 43 49 44 50 68 51 69 52 77 53 70 54 72 55
REMARK SMILES IDX 78 56 71 57 73 58 74 59 75 60 76 61 53 62 54 63 62 64 55 65
REMARK SMILES IDX 57 66 63 67 56 68 58 69 59 70 60 71 61 72 7 73 8 74 9 76
REMARK SMILES IDX 10 77 11 78 26 79 12 80 14 81 13 82 15 83 16 84 17 85 18 86
REMARK SMILES IDX 19 87 20 88 21 89 25 90 22 91 23 92 24 93
REMARK H PARENT 3 7 83 25 51 36 7 75
REMARK Flexibility Score: inf
ROOT
ATOM      1  C   UNL A   1      38.100  21.941  25.273  1.00  0.00     0.117 C 
ENDROOT
BRANCH   1   2
ATOM      2  C   UNL A   1      38.614  20.537  25.001  1.00  0.00     0.042 C 
BRANCH   2   3
ATOM      3  C   UNL A   1      39.036  19.782  26.252  1.00  0.00     0.118 C 
BRANCH   3   4
ATOM      4  N   UNL A   1      40.285  19.057  26.077  1.00  0.00    -0.352 N 
ATOM      5  O   UNL A   1      42.472  18.749  25.672  1.00  0.00    -0.269 OA
ATOM      6  C   UNL A   1      41.582  19.511  26.030  1.00  0.00     0.251 C 
ATOM      7  H   UNL A   1      40.187  18.083  25.975  1.00  0.00     0.163 HD
BRANCH   6   8
ATOM      8  C   UNL A   1      41.893  20.911  26.390  1.00  0.00     0.039 A 
ATOM      9  C   UNL A   1      42.147  21.267  27.716  1.00  0.00     0.014 A 
ATOM     10  C   UNL A   1      41.973  21.875  25.381  1.00  0.00     0.014 A 
ATOM     11  C   UNL A   1      42.333  22.601  28.054  1.00  0.00     0.010 A 
ATOM     12  C   UNL A   1      42.263  23.201  25.710  1.00  0.00     0.010 A 
ATOM     13  C   UNL A   1      42.426  23.578  27.053  1.00  0.00    -0.014 A 
BRANCH  13  14
ATOM     14  C   UNL A   1      42.824  24.960  27.421  1.00  0.00     0.031 A 
ATOM     15  C   UNL A   1      41.855  25.911  28.064  1.00  0.00     0.074 A 
ATOM     16  C   UNL A   1      44.079  25.357  27.130  1.00  0.00     0.049 A 
ATOM     17  N   UNL A   1      42.045  27.155  28.420  1.00  0.00    -0.248 NA
ATOM     18  C   UNL A   1      40.498  25.411  28.339  1.00  0.00     0.031 C 
ATOM     19  C   UNL A   1      45.090  24.530  26.463  1.00  0.00     0.029 A 
ATOM     20  N   UNL A   1      44.715  26.554  27.333  1.00  0.00    -0.354 N 
ATOM     21  C   UNL A   1      40.828  27.604  28.912  1.00  0.00     0.074 A 
ATOM     22  C   UNL A   1      39.902  26.495  28.822  1.00  0.00     0.031 C 
ATOM     23  C   UNL A   1      46.214  25.241  26.313  1.00  0.00     0.029 A 
ATOM     24  C   UNL A   1      45.987  26.591  26.811  1.00  0.00     0.049 A 
ATOM     25  H   UNL A   1      44.303  27.313  27.807  1.00  0.00     0.167 HD
ATOM     26  C   UNL A   1      40.517  28.830  29.396  1.00  0.00     0.034 A 
ATOM     27  C   UNL A   1      46.861  27.609  26.699  1.00  0.00     0.034 A 
ATOM     28  C   UNL A   1      41.455  29.915  29.510  1.00  0.00     0.049 A 
ATOM     29  C   UNL A   1      46.481  28.953  27.247  1.00  0.00     0.074 A 
ATOM     30  C   UNL A   1      41.260  31.160  30.084  1.00  0.00     0.029 A 
ATOM     31  N   UNL A   1      42.748  29.903  29.012  1.00  0.00    -0.354 N 
ATOM     32  N   UNL A   1      45.382  29.308  27.865  1.00  0.00    -0.248 NA
ATOM     33  C   UNL A   1      47.467  30.033  27.101  1.00  0.00     0.031 C 
ATOM     34  C   UNL A   1      42.421  31.916  29.890  1.00  0.00     0.029 A 
ATOM     35  C   UNL A   1      43.352  31.130  29.232  1.00  0.00     0.049 A 
ATOM     36  H   UNL A   1      43.176  29.135  28.568  1.00  0.00     0.167 HD
ATOM     37  C   UNL A   1      45.550  30.645  28.201  1.00  0.00     0.074 A 
ATOM     38  C   UNL A   1      46.871  31.027  27.746  1.00  0.00     0.031 C 
ATOM     39  C   UNL A   1      44.682  31.486  28.813  1.00  0.00     0.034 A 
BRANCH  26  40
ATOM     40  C   UNL A   1      39.106  29.081  29.861  1.00  0.00     0.023 A 
ATOM     41  C   UNL A   1      38.723  28.733  31.171  1.00  0.00     0.012 A 
ATOM     42  C   UNL A   1      38.195  29.769  29.033  1.00  0.00     0.148 A 
ATOM     43  C   UNL A   1      37.448  29.048  31.643  1.00  0.00     0.002 A 
ATOM     44  C   UNL A   1      36.943  30.116  29.525  1.00  0.00     0.091 A 
ATOM     45  F   UNL A   1      38.575  30.076  27.784  1.00  0.00    -0.205 F 
ATOM     46  C   UNL A   1      36.565  29.750  30.827  1.00  0.00     0.022 A 
BRANCH  44  47
ATOM     47  S   UNL A   1      35.764  31.091  28.582  1.00  0.00     0.127 S 
ATOM     48  O   UNL A   1      34.882  31.587  29.638  1.00  0.00    -0.237 OA
ATOM     49  O   UNL A   1      36.624  32.110  27.978  1.00  0.00    -0.237 OA
ATOM     50  O   UNL A   1      35.148  30.173  27.635  1.00  0.00    -0.744 OA
ENDBRANCH  44  47
ENDBRANCH  26  40
BRANCH  27  51
ATOM     51  C   UNL A   1      48.174  27.390  26.031  1.00  0.00     0.023 A 
ATOM     52  C   UNL A   1      49.294  27.014  26.795  1.00  0.00     0.012 A 
ATOM     53  C   UNL A   1      48.311  27.535  24.635  1.00  0.00     0.148 A 
ATOM     54  C   UNL A   1      50.535  26.821  26.188  1.00  0.00     0.002 A 
ATOM     55  C   UNL A   1      49.534  27.279  24.029  1.00  0.00     0.091 A 
ATOM     56  F   UNL A   1      47.236  27.907  23.926  1.00  0.00    -0.205 F 
ATOM     57  C   UNL A   1      50.652  26.942  24.805  1.00  0.00     0.022 A 
BRANCH  55  58
ATOM     58  S   UNL A   1      49.734  27.274  22.244  1.00  0.00     0.127 S 
ATOM     59  O   UNL A   1      48.747  26.277  21.836  1.00  0.00    -0.237 OA
ATOM     60  O   UNL A   1      49.398  28.655  21.897  1.00  0.00    -0.237 OA
ATOM     61  O   UNL A   1      51.129  26.922  22.008  1.00  0.00    -0.744 OA
ENDBRANCH  55  58
ENDBRANCH  27  51
BRANCH  39  62
ATOM     62  C   UNL A   1      45.135  32.902  29.049  1.00  0.00     0.023 A 
ATOM     63  C   UNL A   1      45.824  33.226  30.234  1.00  0.00     0.012 A 
ATOM     64  C   UNL A   1      44.949  33.889  28.062  1.00  0.00     0.148 A 
ATOM     65  C   UNL A   1      46.297  34.521  30.446  1.00  0.00     0.002 A 
ATOM     66  C   UNL A   1      45.468  35.163  28.256  1.00  0.00     0.091 A 
ATOM     67  F   UNL A   1      44.277  33.561  26.949  1.00  0.00    -0.205 F 
ATOM     68  C   UNL A   1      46.130  35.484  29.452  1.00  0.00     0.022 A 
BRANCH  66  69
ATOM     69  S   UNL A   1      45.389  36.441  26.998  1.00  0.00     0.127 S 
ATOM     70  O   UNL A   1      46.057  35.792  25.871  1.00  0.00    -0.237 OA
ATOM     71  O   UNL A   1      43.946  36.619  26.831  1.00  0.00    -0.237 OA
ATOM     72  O   UNL A   1      46.084  37.595  27.548  1.00  0.00    -0.744 OA
ENDBRANCH  66  69
ENDBRANCH  39  62
ENDBRANCH  13  14
ENDBRANCH   6   8
ENDBRANCH   3   4
ENDBRANCH   2   3
ENDBRANCH   1   2
BRANCH   1  73
ATOM     73  N   UNL A   1      37.068  22.368  24.345  1.00  0.00    -0.356 N 
ATOM     74  C   UNL A   1      35.718  22.192  24.351  1.00  0.00     0.224 C 
ATOM     75  H   UNL A   1      37.404  22.878  23.572  1.00  0.00     0.163 HD
ATOM     76  O   UNL A   1      35.085  22.668  23.405  1.00  0.00    -0.275 OA
BRANCH  74  77
ATOM     77  C   UNL A   1      35.049  21.380  25.454  1.00  0.00     0.098 C 
ATOM     78  C   UNL A   1      34.418  20.084  24.894  1.00  0.00     0.017 C 
ATOM     79  C   UNL A   1      34.009  22.185  26.240  1.00  0.00     0.132 C 
ATOM     80  C   UNL A   1      33.070  20.327  24.210  1.00  0.00     0.022 C 
ATOM     81  N   UNL A   1      32.746  22.351  25.532  1.00  0.00    -0.342 N 
ATOM     82  C   UNL A   1      32.126  21.098  25.126  1.00  0.00     0.119 C 
BRANCH  81  83
ATOM     83  C   UNL A   1      32.258  23.631  25.327  1.00  0.00     0.222 C 
ATOM     84  O   UNL A   1      31.334  23.863  24.543  1.00  0.00    -0.275 OA
BRANCH  83  85
ATOM     85  C   UNL A   1      32.910  24.801  26.039  1.00  0.00     0.100 C 
BRANCH  85  86
ATOM     86  C   UNL A   1      34.018  25.497  25.243  1.00  0.00     0.015 C 
BRANCH  86  87
ATOM     87  C   UNL A   1      33.644  26.051  23.863  1.00  0.00     0.047 C 
BRANCH  87  88
ATOM     88  C   UNL A   1      32.610  27.149  23.863  1.00  0.00     0.006 A 
ATOM     89  C   UNL A   1      32.444  28.231  24.712  1.00  0.00     0.016 A 
ATOM     90  S   UNL A   1      31.366  27.116  22.670  1.00  0.00    -0.133 S 
ATOM     91  C   UNL A   1      31.215  28.922  24.484  1.00  0.00     0.028 A 
ATOM     92  C   UNL A   1      30.543  28.395  23.411  1.00  0.00     0.070 A 
ATOM     93  Br  UNL A   1      28.878  29.020  22.826  1.00  0.00    -0.039 Br
ENDBRANCH  87  88
ENDBRANCH  86  87
ENDBRANCH  85  86
ENDBRANCH  83  85
ENDBRANCH  81  83
ENDBRANCH  74  77
ENDBRANCH   1  73
TORSDOF 18
ENDMDL
