MODEL 1
REMARK VINA RESULT:     -12.0      0.000      0.000
REMARK SMILES NC(=O)c1ccc(N(CC(=O)NCCCNC(=O)c2ccc(-c3c4nc(c(-c5cccc(S(=O)(=O)[O-])c5F)c5ccc([nH]5)c(-c5cccc(S(=O)(=O)[O-])c5F)c5nc(c(-c6cccc(S(=O)(=O)[O-])c6F)c6ccc3[nH]6)C=C5)C=C4)cc2)C2CCCC2)nn1
REMARK SMILES IDX 14 1 13 2 12 3 10 4 11 5 9 7 8 8 7 9 4 10 5 11 88 12 6 13
REMARK SMILES IDX 87 14 2 15 1 16 3 19 82 20 83 21 86 22 84 23 85 24 15 25
REMARK SMILES IDX 16 26 17 27 18 29 19 30 20 31 81 32 21 33 80 34 22 35 23 36
REMARK SMILES IDX 24 37 74 38 25 39 79 40 73 41 75 42 26 43 78 44 72 45 71 46
REMARK SMILES IDX 27 48 59 49 39 50 58 51 40 52 43 53 57 54 76 55 41 56 42 57
REMARK SMILES IDX 56 59 77 60 44 61 28 62 29 63 37 64 30 65 32 66 38 67 31 68
REMARK SMILES IDX 33 69 34 70 35 71 36 72 60 73 61 74 69 75 62 76 64 77 70 78
REMARK SMILES IDX 63 79 65 80 66 81 67 82 68 83 45 84 46 85 54 86 47 87 49 88
REMARK SMILES IDX 55 89 48 90 50 91 51 92 52 93 53 94
REMARK H PARENT 12 6 1 17 1 18 16 28 75 47 43 58
REMARK Flexibility Score: inf
ROOT
ATOM      1  C   UNL A   1      37.772  19.582  24.658  1.00  0.00     0.042 C 
ENDROOT
BRANCH   1   2
ATOM      2  C   UNL A   1      36.281  19.656  24.967  1.00  0.00     0.117 C 
BRANCH   2   3
ATOM      3  N   UNL A   1      35.927  20.862  25.693  1.00  0.00    -0.354 N 
ATOM      4  C   UNL A   1      35.001  21.812  25.366  1.00  0.00     0.239 C 
ATOM      5  O   UNL A   1      34.870  22.779  26.121  1.00  0.00    -0.273 OA
ATOM      6  H   UNL A   1      36.420  21.015  26.533  1.00  0.00     0.163 HD
BRANCH   4   7
ATOM      7  C   UNL A   1      34.141  21.658  24.103  1.00  0.00     0.218 C 
BRANCH   7   8
ATOM      8  N   UNL A   1      32.818  21.054  24.388  1.00  0.00    -0.343 N 
BRANCH   8   9
ATOM      9  C   UNL A   1      32.768  19.674  24.508  1.00  0.00     0.151 A 
ATOM     10  C   UNL A   1      32.831  16.919  24.945  1.00  0.00     0.150 A 
ATOM     11  C   UNL A   1      33.126  17.407  23.689  1.00  0.00     0.040 A 
ATOM     12  N   UNL A   1      32.466  17.751  25.934  1.00  0.00    -0.143 NA
ATOM     13  C   UNL A   1      33.081  18.791  23.479  1.00  0.00     0.051 A 
ATOM     14  N   UNL A   1      32.441  19.122  25.700  1.00  0.00    -0.132 NA
BRANCH  10  15
ATOM     15  C   UNL A   1      32.910  15.472  25.284  1.00  0.00     0.269 C 
ATOM     16  N   UNL A   1      31.738  14.835  25.612  1.00  0.00    -0.364 N 
ATOM     17  H   UNL A   1      31.745  13.879  25.844  1.00  0.00     0.160 HD
ATOM     18  H   UNL A   1      30.890  15.336  25.617  1.00  0.00     0.160 HD
ATOM     19  O   UNL A   1      33.966  14.846  25.257  1.00  0.00    -0.268 OA
ENDBRANCH  10  15
ENDBRANCH   8   9
BRANCH   8  20
ATOM     20  C   UNL A   1      31.729  22.004  24.657  1.00  0.00     0.084 C 
ATOM     21  C   UNL A   1      31.575  22.404  26.121  1.00  0.00     0.025 C 
ATOM     22  C   UNL A   1      31.819  23.300  23.856  1.00  0.00     0.025 C 
ATOM     23  C   UNL A   1      30.845  23.736  26.072  1.00  0.00     0.002 C 
ATOM     24  C   UNL A   1      31.207  24.384  24.740  1.00  0.00     0.002 C 
ENDBRANCH   8  20
ENDBRANCH   7   8
ENDBRANCH   4   7
ENDBRANCH   2   3
ENDBRANCH   1   2
BRANCH   1  25
ATOM     25  C   UNL A   1      38.654  20.211  25.733  1.00  0.00     0.118 C 
BRANCH  25  26
ATOM     26  N   UNL A   1      39.780  19.358  26.087  1.00  0.00    -0.352 N 
ATOM     27  C   UNL A   1      41.072  19.688  26.412  1.00  0.00     0.251 C 
ATOM     28  H   UNL A   1      39.584  18.394  26.096  1.00  0.00     0.163 HD
ATOM     29  O   UNL A   1      41.923  18.802  26.463  1.00  0.00    -0.269 OA
BRANCH  27  30
ATOM     30  C   UNL A   1      41.450  21.090  26.692  1.00  0.00     0.039 A 
ATOM     31  C   UNL A   1      41.918  21.417  27.969  1.00  0.00     0.014 A 
ATOM     32  C   UNL A   1      41.304  22.090  25.729  1.00  0.00     0.014 A 
ATOM     33  C   UNL A   1      42.285  22.732  28.261  1.00  0.00     0.010 A 
ATOM     34  C   UNL A   1      41.741  23.386  25.997  1.00  0.00     0.010 A 
ATOM     35  C   UNL A   1      42.228  23.725  27.268  1.00  0.00    -0.014 A 
BRANCH  35  36
ATOM     36  C   UNL A   1      42.686  25.112  27.545  1.00  0.00     0.031 A 
ATOM     37  C   UNL A   1      41.756  26.114  28.177  1.00  0.00     0.074 A 
ATOM     38  C   UNL A   1      43.920  25.492  27.157  1.00  0.00     0.049 A 
ATOM     39  N   UNL A   1      41.970  27.374  28.453  1.00  0.00    -0.248 NA
ATOM     40  C   UNL A   1      40.402  25.649  28.522  1.00  0.00     0.031 C 
ATOM     41  C   UNL A   1      44.889  24.639  26.465  1.00  0.00     0.029 A 
ATOM     42  N   UNL A   1      44.564  26.700  27.265  1.00  0.00    -0.354 N 
ATOM     43  C   UNL A   1      40.775  27.861  28.967  1.00  0.00     0.074 A 
ATOM     44  C   UNL A   1      39.827  26.768  28.941  1.00  0.00     0.031 C 
ATOM     45  C   UNL A   1      45.999  25.348  26.211  1.00  0.00     0.029 A 
ATOM     46  C   UNL A   1      45.812  26.714  26.688  1.00  0.00     0.049 A 
ATOM     47  H   UNL A   1      44.168  27.483  27.715  1.00  0.00     0.167 HD
ATOM     48  C   UNL A   1      40.495  29.100  29.439  1.00  0.00     0.034 A 
ATOM     49  C   UNL A   1      46.701  27.717  26.542  1.00  0.00     0.034 A 
ATOM     50  C   UNL A   1      41.449  30.174  29.502  1.00  0.00     0.049 A 
ATOM     51  C   UNL A   1      46.377  29.071  27.113  1.00  0.00     0.074 A 
ATOM     52  C   UNL A   1      41.289  31.433  30.054  1.00  0.00     0.029 A 
ATOM     53  N   UNL A   1      42.733  30.125  28.985  1.00  0.00    -0.354 N 
ATOM     54  N   UNL A   1      45.299  29.463  27.746  1.00  0.00    -0.248 NA
ATOM     55  C   UNL A   1      47.408  30.112  26.984  1.00  0.00     0.031 C 
ATOM     56  C   UNL A   1      42.463  32.160  29.835  1.00  0.00     0.029 A 
ATOM     57  C   UNL A   1      43.371  31.338  29.188  1.00  0.00     0.049 A 
ATOM     58  H   UNL A   1      43.133  29.344  28.539  1.00  0.00     0.167 HD
ATOM     59  C   UNL A   1      45.535  30.780  28.122  1.00  0.00     0.074 A 
ATOM     60  C   UNL A   1      46.869  31.112  27.668  1.00  0.00     0.031 C 
ATOM     61  C   UNL A   1      44.716  31.641  28.775  1.00  0.00     0.034 A 
BRANCH  48  62
ATOM     62  C   UNL A   1      39.108  29.362  29.965  1.00  0.00     0.023 A 
ATOM     63  C   UNL A   1      38.770  28.976  31.279  1.00  0.00     0.012 A 
ATOM     64  C   UNL A   1      38.167  30.072  29.191  1.00  0.00     0.148 A 
ATOM     65  C   UNL A   1      37.511  29.265  31.803  1.00  0.00     0.002 A 
ATOM     66  C   UNL A   1      36.933  30.399  29.739  1.00  0.00     0.091 A 
ATOM     67  F   UNL A   1      38.501  30.415  27.939  1.00  0.00    -0.205 F 
ATOM     68  C   UNL A   1      36.599  29.988  31.039  1.00  0.00     0.022 A 
BRANCH  66  69
ATOM     69  S   UNL A   1      35.720  31.401  28.869  1.00  0.00     0.127 S 
ATOM     70  O   UNL A   1      35.189  30.442  27.900  1.00  0.00    -0.237 OA
ATOM     71  O   UNL A   1      34.794  31.760  29.942  1.00  0.00    -0.237 OA
ATOM     72  O   UNL A   1      36.456  32.519  28.296  1.00  0.00    -0.744 OA
ENDBRANCH  66  69
ENDBRANCH  48  62
BRANCH  49  73
ATOM     73  C   UNL A   1      48.002  27.470  25.855  1.00  0.00     0.023 A 
ATOM     74  C   UNL A   1      49.132  27.101  26.610  1.00  0.00     0.012 A 
ATOM     75  C   UNL A   1      48.120  27.588  24.457  1.00  0.00     0.148 A 
ATOM     76  C   UNL A   1      50.366  26.900  25.990  1.00  0.00     0.002 A 
ATOM     77  C   UNL A   1      49.335  27.322  23.839  1.00  0.00     0.091 A 
ATOM     78  F   UNL A   1      47.035  27.949  23.756  1.00  0.00    -0.205 F 
ATOM     79  C   UNL A   1      50.466  27.001  24.605  1.00  0.00     0.022 A 
BRANCH  77  80
ATOM     80  S   UNL A   1      49.512  27.281  22.052  1.00  0.00     0.127 S 
ATOM     81  O   UNL A   1      49.089  28.626  21.676  1.00  0.00    -0.237 OA
ATOM     82  O   UNL A   1      50.943  27.017  21.895  1.00  0.00    -0.237 OA
ATOM     83  O   UNL A   1      48.655  26.194  21.595  1.00  0.00    -0.744 OA
ENDBRANCH  77  80
ENDBRANCH  49  73
BRANCH  61  84
ATOM     84  C   UNL A   1      45.249  33.017  29.084  1.00  0.00     0.023 A 
ATOM     85  C   UNL A   1      45.913  33.261  30.301  1.00  0.00     0.012 A 
ATOM     86  C   UNL A   1      45.148  34.051  28.131  1.00  0.00     0.148 A 
ATOM     87  C   UNL A   1      46.434  34.523  30.584  1.00  0.00     0.002 A 
ATOM     88  C   UNL A   1      45.718  35.290  28.397  1.00  0.00     0.091 A 
ATOM     89  F   UNL A   1      44.497  33.805  26.985  1.00  0.00    -0.205 F 
ATOM     90  C   UNL A   1      46.347  35.533  29.628  1.00  0.00     0.022 A 
BRANCH  88  91
ATOM     91  S   UNL A   1      45.743  36.618  27.187  1.00  0.00     0.127 S 
ATOM     92  O   UNL A   1      44.318  36.921  27.050  1.00  0.00    -0.237 OA
ATOM     93  O   UNL A   1      46.523  37.647  27.875  1.00  0.00    -0.237 OA
ATOM     94  O   UNL A   1      46.380  36.068  25.998  1.00  0.00    -0.744 OA
ENDBRANCH  88  91
ENDBRANCH  61  84
ENDBRANCH  35  36
ENDBRANCH  27  30
ENDBRANCH  25  26
ENDBRANCH   1  25
TORSDOF 17
ENDMDL
MODEL 2
REMARK VINA RESULT:     -11.9      1.519      1.855
REMARK SMILES NC(=O)c1ccc(N(CC(=O)NCCCNC(=O)c2ccc(-c3c4nc(c(-c5cccc(S(=O)(=O)[O-])c5F)c5ccc([nH]5)c(-c5cccc(S(=O)(=O)[O-])c5F)c5nc(c(-c6cccc(S(=O)(=O)[O-])c6F)c6ccc3[nH]6)C=C5)C=C4)cc2)C2CCCC2)nn1
REMARK SMILES IDX 14 1 13 2 12 3 10 4 11 5 9 7 8 8 7 9 4 10 5 11 88 12 6 13
REMARK SMILES IDX 87 14 2 15 1 16 3 19 82 20 83 21 86 22 84 23 85 24 15 25
REMARK SMILES IDX 16 26 17 27 18 29 19 30 20 31 81 32 21 33 80 34 22 35 23 36
REMARK SMILES IDX 24 37 74 38 25 39 79 40 73 41 75 42 26 43 78 44 72 45 71 46
REMARK SMILES IDX 27 48 59 49 39 50 58 51 40 52 43 53 57 54 76 55 41 56 42 57
REMARK SMILES IDX 56 59 77 60 44 61 28 62 29 63 37 64 30 65 32 66 38 67 31 68
REMARK SMILES IDX 33 69 34 70 35 71 36 72 60 73 61 74 69 75 62 76 64 77 70 78
REMARK SMILES IDX 63 79 65 80 66 81 67 82 68 83 45 84 46 85 54 86 47 87 49 88
REMARK SMILES IDX 55 89 48 90 50 91 51 92 52 93 53 94
REMARK H PARENT 12 6 1 17 1 18 16 28 75 47 43 58
REMARK Flexibility Score: inf
ROOT
ATOM      1  C   UNL A   1      38.249  19.637  24.968  1.00  0.00     0.042 C 
ENDROOT
BRANCH   1   2
ATOM      2  C   UNL A   1      37.196  20.704  24.691  1.00  0.00     0.117 C 
BRANCH   2   3
ATOM      3  N   UNL A   1      36.416  21.027  25.871  1.00  0.00    -0.354 N 
ATOM      4  C   UNL A   1      35.132  21.490  25.942  1.00  0.00     0.239 C 
ATOM      5  O   UNL A   1      34.659  21.721  27.058  1.00  0.00    -0.273 OA
ATOM      6  H   UNL A   1      36.871  20.895  26.734  1.00  0.00     0.163 HD
BRANCH   4   7
ATOM      7  C   UNL A   1      34.306  21.694  24.663  1.00  0.00     0.218 C 
BRANCH   7   8
ATOM      8  N   UNL A   1      33.019  20.959  24.697  1.00  0.00    -0.343 N 
BRANCH   8   9
ATOM      9  C   UNL A   1      33.083  19.574  24.726  1.00  0.00     0.151 A 
ATOM     10  C   UNL A   1      33.188  16.805  25.040  1.00  0.00     0.150 A 
ATOM     11  C   UNL A   1      34.212  17.444  24.373  1.00  0.00     0.040 A 
ATOM     12  N   UNL A   1      32.127  17.495  25.488  1.00  0.00    -0.143 NA
ATOM     13  C   UNL A   1      34.143  18.834  24.213  1.00  0.00     0.051 A 
ATOM     14  N   UNL A   1      32.091  18.875  25.325  1.00  0.00    -0.132 NA
BRANCH  10  15
ATOM     15  C   UNL A   1      33.198  15.341  25.314  1.00  0.00     0.269 C 
ATOM     16  N   UNL A   1      31.985  14.725  25.497  1.00  0.00    -0.364 N 
ATOM     17  H   UNL A   1      31.946  13.759  25.681  1.00  0.00     0.160 HD
ATOM     18  H   UNL A   1      31.153  15.249  25.444  1.00  0.00     0.160 HD
ATOM     19  O   UNL A   1      34.236  14.687  25.359  1.00  0.00    -0.268 OA
ENDBRANCH  10  15
ENDBRANCH   8   9
BRANCH   8  20
ATOM     20  C   UNL A   1      31.815  21.790  24.843  1.00  0.00     0.084 C 
ATOM     21  C   UNL A   1      31.585  22.342  26.247  1.00  0.00     0.025 C 
ATOM     22  C   UNL A   1      31.759  22.981  23.890  1.00  0.00     0.025 C 
ATOM     23  C   UNL A   1      30.695  23.556  26.033  1.00  0.00     0.002 C 
ATOM     24  C   UNL A   1      31.000  24.078  24.632  1.00  0.00     0.002 C 
ENDBRANCH   8  20
ENDBRANCH   7   8
ENDBRANCH   4   7
ENDBRANCH   2   3
ENDBRANCH   1   2
BRANCH   1  25
ATOM     25  C   UNL A   1      39.252  20.028  26.050  1.00  0.00     0.118 C 
BRANCH  25  26
ATOM     26  N   UNL A   1      40.433  19.177  26.038  1.00  0.00    -0.352 N 
ATOM     27  C   UNL A   1      41.764  19.510  26.053  1.00  0.00     0.251 C 
ATOM     28  H   UNL A   1      40.249  18.210  26.017  1.00  0.00     0.163 HD
ATOM     29  O   UNL A   1      42.603  18.644  25.815  1.00  0.00    -0.269 OA
BRANCH  27  30
ATOM     30  C   UNL A   1      42.196  20.895  26.343  1.00  0.00     0.039 A 
ATOM     31  C   UNL A   1      42.448  21.255  27.670  1.00  0.00     0.014 A 
ATOM     32  C   UNL A   1      42.309  21.850  25.330  1.00  0.00     0.014 A 
ATOM     33  C   UNL A   1      42.860  22.554  27.973  1.00  0.00     0.010 A 
ATOM     34  C   UNL A   1      42.793  23.124  25.624  1.00  0.00     0.010 A 
ATOM     35  C   UNL A   1      43.066  23.494  26.948  1.00  0.00    -0.014 A 
BRANCH  35  36
ATOM     36  C   UNL A   1      43.575  24.858  27.251  1.00  0.00     0.031 A 
ATOM     37  C   UNL A   1      42.653  25.917  27.793  1.00  0.00     0.074 A 
ATOM     38  C   UNL A   1      44.857  25.164  26.966  1.00  0.00     0.049 A 
ATOM     39  N   UNL A   1      42.913  27.167  28.076  1.00  0.00    -0.248 NA
ATOM     40  C   UNL A   1      41.251  25.532  28.027  1.00  0.00     0.031 C 
ATOM     41  C   UNL A   1      45.831  24.250  26.366  1.00  0.00     0.029 A 
ATOM     42  N   UNL A   1      45.556  26.337  27.118  1.00  0.00    -0.354 N 
ATOM     43  C   UNL A   1      41.708  27.727  28.482  1.00  0.00     0.074 A 
ATOM     44  C   UNL A   1      40.707  26.687  28.386  1.00  0.00     0.031 C 
ATOM     45  C   UNL A   1      46.997  24.893  26.201  1.00  0.00     0.029 A 
ATOM     46  C   UNL A   1      46.847  26.274  26.648  1.00  0.00     0.049 A 
ATOM     47  H   UNL A   1      45.169  27.146  27.525  1.00  0.00     0.167 HD
ATOM     48  C   UNL A   1      41.459  28.985  28.918  1.00  0.00     0.034 A 
ATOM     49  C   UNL A   1      47.800  27.224  26.569  1.00  0.00     0.034 A 
ATOM     50  C   UNL A   1      42.463  30.006  29.052  1.00  0.00     0.049 A 
ATOM     51  C   UNL A   1      47.505  28.602  27.098  1.00  0.00     0.074 A 
ATOM     52  C   UNL A   1      42.328  31.279  29.577  1.00  0.00     0.029 A 
ATOM     53  N   UNL A   1      43.781  29.880  28.646  1.00  0.00    -0.354 N 
ATOM     54  N   UNL A   1      46.401  29.061  27.634  1.00  0.00    -0.248 NA
ATOM     55  C   UNL A   1      48.599  29.583  27.047  1.00  0.00     0.031 C 
ATOM     56  C   UNL A   1      43.555  31.937  29.452  1.00  0.00     0.029 A 
ATOM     57  C   UNL A   1      44.466  31.059  28.891  1.00  0.00     0.049 A 
ATOM     58  H   UNL A   1      44.173  29.072  28.242  1.00  0.00     0.167 HD
ATOM     59  C   UNL A   1      46.678  30.368  28.018  1.00  0.00     0.074 A 
ATOM     60  C   UNL A   1      48.061  30.620  27.675  1.00  0.00     0.031 C 
ATOM     61  C   UNL A   1      45.857  31.282  28.591  1.00  0.00     0.034 A 
BRANCH  48  62
ATOM     62  C   UNL A   1      40.049  29.330  29.322  1.00  0.00     0.023 A 
ATOM     63  C   UNL A   1      39.092  29.642  28.334  1.00  0.00     0.012 A 
ATOM     64  C   UNL A   1      39.650  29.257  30.672  1.00  0.00     0.148 A 
ATOM     65  C   UNL A   1      37.768  29.903  28.685  1.00  0.00     0.002 A 
ATOM     66  C   UNL A   1      38.318  29.471  31.008  1.00  0.00     0.091 A 
ATOM     67  F   UNL A   1      40.578  28.976  31.597  1.00  0.00    -0.205 F 
ATOM     68  C   UNL A   1      37.379  29.804  30.019  1.00  0.00     0.022 A 
BRANCH  66  69
ATOM     69  S   UNL A   1      37.699  29.283  32.684  1.00  0.00     0.127 S 
ATOM     70  O   UNL A   1      36.334  29.794  32.551  1.00  0.00    -0.237 OA
ATOM     71  O   UNL A   1      37.792  27.838  32.884  1.00  0.00    -0.237 OA
ATOM     72  O   UNL A   1      38.578  30.076  33.531  1.00  0.00    -0.744 OA
ENDBRANCH  66  69
ENDBRANCH  48  62
BRANCH  49  73
ATOM     73  C   UNL A   1      49.138  26.897  25.997  1.00  0.00     0.023 A 
ATOM     74  C   UNL A   1      50.059  26.150  26.756  1.00  0.00     0.012 A 
ATOM     75  C   UNL A   1      49.496  27.314  24.701  1.00  0.00     0.148 A 
ATOM     76  C   UNL A   1      51.329  25.863  26.253  1.00  0.00     0.002 A 
ATOM     77  C   UNL A   1      50.736  26.969  24.180  1.00  0.00     0.091 A 
ATOM     78  F   UNL A   1      48.610  28.033  23.996  1.00  0.00    -0.205 F 
ATOM     79  C   UNL A   1      51.664  26.265  24.962  1.00  0.00     0.022 A 
BRANCH  77  80
ATOM     80  S   UNL A   1      51.190  27.314  22.476  1.00  0.00     0.127 S 
ATOM     81  O   UNL A   1      52.506  26.689  22.383  1.00  0.00    -0.237 OA
ATOM     82  O   UNL A   1      50.128  26.632  21.736  1.00  0.00    -0.237 OA
ATOM     83  O   UNL A   1      51.164  28.766  22.347  1.00  0.00    -0.744 OA
ENDBRANCH  77  80
ENDBRANCH  49  73
BRANCH  61  84
ATOM     84  C   UNL A   1      46.438  32.631  28.931  1.00  0.00     0.023 A 
ATOM     85  C   UNL A   1      47.106  32.823  30.156  1.00  0.00     0.012 A 
ATOM     86  C   UNL A   1      46.377  33.688  28.002  1.00  0.00     0.148 A 
ATOM     87  C   UNL A   1      47.672  34.059  30.467  1.00  0.00     0.002 A 
ATOM     88  C   UNL A   1      46.990  34.900  28.297  1.00  0.00     0.091 A 
ATOM     89  F   UNL A   1      45.720  33.491  26.850  1.00  0.00    -0.205 F 
ATOM     90  C   UNL A   1      47.624  35.092  29.534  1.00  0.00     0.022 A 
BRANCH  88  91
ATOM     91  S   UNL A   1      47.065  36.253  27.117  1.00  0.00     0.127 S 
ATOM     92  O   UNL A   1      47.739  35.621  25.983  1.00  0.00    -0.237 OA
ATOM     93  O   UNL A   1      45.650  36.550  26.897  1.00  0.00    -0.237 OA
ATOM     94  O   UNL A   1      47.812  37.318  27.773  1.00  0.00    -0.744 OA
ENDBRANCH  88  91
ENDBRANCH  61  84
ENDBRANCH  35  36
ENDBRANCH  27  30
ENDBRANCH  25  26
ENDBRANCH   1  25
TORSDOF 17
ENDMDL
MODEL 3
REMARK VINA RESULT:     -11.6      6.045      9.628
REMARK SMILES NC(=O)c1ccc(N(CC(=O)NCCCNC(=O)c2ccc(-c3c4nc(c(-c5cccc(S(=O)(=O)[O-])c5F)c5ccc([nH]5)c(-c5cccc(S(=O)(=O)[O-])c5F)c5nc(c(-c6cccc(S(=O)(=O)[O-])c6F)c6ccc3[nH]6)C=C5)C=C4)cc2)C2CCCC2)nn1
REMARK SMILES IDX 14 1 13 2 12 3 10 4 11 5 9 7 8 8 7 9 4 10 5 11 88 12 6 13
REMARK SMILES IDX 87 14 2 15 1 16 3 19 82 20 83 21 86 22 84 23 85 24 15 25
REMARK SMILES IDX 16 26 17 27 18 29 19 30 20 31 81 32 21 33 80 34 22 35 23 36
REMARK SMILES IDX 24 37 74 38 25 39 79 40 73 41 75 42 26 43 78 44 72 45 71 46
REMARK SMILES IDX 27 48 59 49 39 50 58 51 40 52 43 53 57 54 76 55 41 56 42 57
REMARK SMILES IDX 56 59 77 60 44 61 28 62 29 63 37 64 30 65 32 66 38 67 31 68
REMARK SMILES IDX 33 69 34 70 35 71 36 72 60 73 61 74 69 75 62 76 64 77 70 78
REMARK SMILES IDX 63 79 65 80 66 81 67 82 68 83 45 84 46 85 54 86 47 87 49 88
REMARK SMILES IDX 55 89 48 90 50 91 51 92 52 93 53 94
REMARK H PARENT 12 6 1 17 1 18 16 28 75 47 43 58
REMARK Flexibility Score: inf
ROOT
ATOM      1  C   UNL A   1      31.781  30.478  25.989  1.00  0.00     0.042 C 
ENDROOT
BRANCH   1   2
ATOM      2  C   UNL A   1      32.464  29.448  25.095  1.00  0.00     0.117 C 
BRANCH   2   3
ATOM      3  N   UNL A   1      32.654  28.176  25.766  1.00  0.00    -0.354 N 
ATOM      4  C   UNL A   1      32.844  26.942  25.212  1.00  0.00     0.239 C 
ATOM      5  O   UNL A   1      32.968  25.976  25.972  1.00  0.00    -0.273 OA
ATOM      6  H   UNL A   1      32.646  28.206  26.751  1.00  0.00     0.163 HD
BRANCH   4   7
ATOM      7  C   UNL A   1      32.920  26.775  23.687  1.00  0.00     0.218 C 
BRANCH   7   8
ATOM      8  N   UNL A   1      31.657  26.255  23.110  1.00  0.00    -0.343 N 
BRANCH   8   9
ATOM      9  C   UNL A   1      30.643  27.173  22.883  1.00  0.00     0.151 A 
ATOM     10  C   UNL A   1      28.767  29.201  22.496  1.00  0.00     0.150 A 
ATOM     11  C   UNL A   1      28.453  28.145  23.326  1.00  0.00     0.040 A 
ATOM     12  N   UNL A   1      29.938  29.230  21.839  1.00  0.00    -0.143 NA
ATOM     13  C   UNL A   1      29.399  27.127  23.504  1.00  0.00     0.051 A 
ATOM     14  N   UNL A   1      30.863  28.212  22.044  1.00  0.00    -0.132 NA
BRANCH  10  15
ATOM     15  C   UNL A   1      27.855  30.359  22.289  1.00  0.00     0.269 C 
ATOM     16  N   UNL A   1      27.653  30.782  20.999  1.00  0.00    -0.364 N 
ATOM     17  H   UNL A   1      27.059  31.544  20.817  1.00  0.00     0.160 HD
ATOM     18  H   UNL A   1      28.104  30.321  20.254  1.00  0.00     0.160 HD
ATOM     19  O   UNL A   1      27.279  30.917  23.220  1.00  0.00    -0.268 OA
ENDBRANCH  10  15
ENDBRANCH   8   9
BRANCH   8  20
ATOM     20  C   UNL A   1      31.677  24.842  22.707  1.00  0.00     0.084 C 
ATOM     21  C   UNL A   1      33.064  24.281  22.406  1.00  0.00     0.025 C 
ATOM     22  C   UNL A   1      31.031  23.896  23.716  1.00  0.00     0.025 C 
ATOM     23  C   UNL A   1      32.908  22.779  22.583  1.00  0.00     0.002 C 
ATOM     24  C   UNL A   1      31.783  22.573  23.592  1.00  0.00     0.002 C 
ENDBRANCH   8  20
ENDBRANCH   7   8
ENDBRANCH   4   7
ENDBRANCH   2   3
ENDBRANCH   1   2
BRANCH   1  25
ATOM     25  C   UNL A   1      32.613  30.888  27.201  1.00  0.00     0.118 C 
BRANCH  25  26
ATOM     26  N   UNL A   1      32.877  32.321  27.226  1.00  0.00    -0.352 N 
ATOM     27  C   UNL A   1      33.870  33.026  27.857  1.00  0.00     0.251 C 
ATOM     28  H   UNL A   1      32.244  32.869  26.709  1.00  0.00     0.163 HD
ATOM     29  O   UNL A   1      33.783  34.250  27.931  1.00  0.00    -0.269 OA
BRANCH  27  30
ATOM     30  C   UNL A   1      35.033  32.332  28.451  1.00  0.00     0.039 A 
ATOM     31  C   UNL A   1      36.291  32.938  28.368  1.00  0.00     0.014 A 
ATOM     32  C   UNL A   1      34.906  31.075  29.047  1.00  0.00     0.014 A 
ATOM     33  C   UNL A   1      37.406  32.308  28.923  1.00  0.00     0.010 A 
ATOM     34  C   UNL A   1      36.004  30.483  29.667  1.00  0.00     0.010 A 
ATOM     35  C   UNL A   1      37.268  31.087  29.605  1.00  0.00    -0.014 A 
BRANCH  35  36
ATOM     36  C   UNL A   1      38.435  30.443  30.265  1.00  0.00     0.031 A 
ATOM     37  C   UNL A   1      38.872  30.873  31.640  1.00  0.00     0.074 A 
ATOM     38  C   UNL A   1      39.149  29.518  29.591  1.00  0.00     0.049 A 
ATOM     39  N   UNL A   1      39.887  30.453  32.349  1.00  0.00    -0.248 NA
ATOM     40  C   UNL A   1      38.083  31.929  32.295  1.00  0.00     0.031 C 
ATOM     41  C   UNL A   1      38.876  29.070  28.223  1.00  0.00     0.029 A 
ATOM     42  N   UNL A   1      40.266  28.807  29.953  1.00  0.00    -0.354 N 
ATOM     43  C   UNL A   1      39.883  31.214  33.511  1.00  0.00     0.074 A 
ATOM     44  C   UNL A   1      38.779  32.142  33.404  1.00  0.00     0.031 C 
ATOM     45  C   UNL A   1      39.797  28.164  27.863  1.00  0.00     0.029 A 
ATOM     46  C   UNL A   1      40.748  27.990  28.957  1.00  0.00     0.049 A 
ATOM     47  H   UNL A   1      40.683  28.875  30.843  1.00  0.00     0.167 HD
ATOM     48  C   UNL A   1      40.709  31.133  34.582  1.00  0.00     0.034 A 
ATOM     49  C   UNL A   1      41.840  27.202  28.918  1.00  0.00     0.034 A 
ATOM     50  C   UNL A   1      41.781  30.182  34.705  1.00  0.00     0.049 A 
ATOM     51  C   UNL A   1      42.716  27.103  30.138  1.00  0.00     0.074 A 
ATOM     52  C   UNL A   1      42.608  29.957  35.792  1.00  0.00     0.029 A 
ATOM     53  N   UNL A   1      42.186  29.311  33.708  1.00  0.00    -0.354 N 
ATOM     54  N   UNL A   1      42.593  27.712  31.293  1.00  0.00    -0.248 NA
ATOM     55  C   UNL A   1      43.858  26.181  30.066  1.00  0.00     0.031 C 
ATOM     56  C   UNL A   1      43.540  28.977  35.437  1.00  0.00     0.029 A 
ATOM     57  C   UNL A   1      43.264  28.559  34.146  1.00  0.00     0.049 A 
ATOM     58  H   UNL A   1      41.769  29.236  32.819  1.00  0.00     0.167 HD
ATOM     59  C   UNL A   1      43.617  27.220  32.094  1.00  0.00     0.074 A 
ATOM     60  C   UNL A   1      44.335  26.244  31.302  1.00  0.00     0.031 C 
ATOM     61  C   UNL A   1      43.940  27.555  33.367  1.00  0.00     0.034 A 
BRANCH  48  62
ATOM     62  C   UNL A   1      40.470  32.074  35.735  1.00  0.00     0.023 A 
ATOM     63  C   UNL A   1      41.283  33.215  35.889  1.00  0.00     0.012 A 
ATOM     64  C   UNL A   1      39.383  31.877  36.611  1.00  0.00     0.148 A 
ATOM     65  C   UNL A   1      41.037  34.130  36.913  1.00  0.00     0.002 A 
ATOM     66  C   UNL A   1      39.115  32.817  37.598  1.00  0.00     0.091 A 
ATOM     67  F   UNL A   1      38.632  30.776  36.458  1.00  0.00    -0.205 F 
ATOM     68  C   UNL A   1      39.947  33.938  37.758  1.00  0.00     0.022 A 
BRANCH  66  69
ATOM     69  S   UNL A   1      37.686  32.707  38.681  1.00  0.00     0.127 S 
ATOM     70  O   UNL A   1      37.939  33.807  39.613  1.00  0.00    -0.237 OA
ATOM     71  O   UNL A   1      36.580  32.937  37.752  1.00  0.00    -0.237 OA
ATOM     72  O   UNL A   1      37.725  31.376  39.268  1.00  0.00    -0.744 OA
ENDBRANCH  66  69
ENDBRANCH  48  62
BRANCH  49  73
ATOM     73  C   UNL A   1      42.151  26.413  27.691  1.00  0.00     0.023 A 
ATOM     74  C   UNL A   1      42.779  27.039  26.597  1.00  0.00     0.012 A 
ATOM     75  C   UNL A   1      41.836  25.043  27.608  1.00  0.00     0.148 A 
ATOM     76  C   UNL A   1      43.046  26.327  25.427  1.00  0.00     0.002 A 
ATOM     77  C   UNL A   1      42.164  24.324  26.466  1.00  0.00     0.091 A 
ATOM     78  F   UNL A   1      41.230  24.465  28.656  1.00  0.00    -0.205 F 
ATOM     79  C   UNL A   1      42.747  24.968  25.364  1.00  0.00     0.022 A 
BRANCH  77  80
ATOM     80  S   UNL A   1      41.954  22.543  26.362  1.00  0.00     0.127 S 
ATOM     81  O   UNL A   1      42.647  22.087  27.562  1.00  0.00    -0.237 OA
ATOM     82  O   UNL A   1      40.497  22.407  26.399  1.00  0.00    -0.237 OA
ATOM     83  O   UNL A   1      42.553  22.149  25.092  1.00  0.00    -0.744 OA
ENDBRANCH  77  80
ENDBRANCH  49  73
BRANCH  61  84
ATOM     84  C   UNL A   1      45.095  26.831  34.010  1.00  0.00     0.023 A 
ATOM     85  C   UNL A   1      46.398  27.359  33.923  1.00  0.00     0.012 A 
ATOM     86  C   UNL A   1      44.873  25.658  34.758  1.00  0.00     0.148 A 
ATOM     87  C   UNL A   1      47.468  26.712  34.539  1.00  0.00     0.002 A 
ATOM     88  C   UNL A   1      45.935  25.048  35.414  1.00  0.00     0.091 A 
ATOM     89  F   UNL A   1      43.629  25.160  34.814  1.00  0.00    -0.205 F 
ATOM     90  C   UNL A   1      47.234  25.564  35.294  1.00  0.00     0.022 A 
BRANCH  88  91
ATOM     91  S   UNL A   1      45.714  23.625  36.489  1.00  0.00     0.127 S 
ATOM     92  O   UNL A   1      45.054  22.676  35.593  1.00  0.00    -0.237 OA
ATOM     93  O   UNL A   1      47.093  23.281  36.833  1.00  0.00    -0.237 OA
ATOM     94  O   UNL A   1      44.907  24.089  37.610  1.00  0.00    -0.744 OA
ENDBRANCH  88  91
ENDBRANCH  61  84
ENDBRANCH  35  36
ENDBRANCH  27  30
ENDBRANCH  25  26
ENDBRANCH   1  25
TORSDOF 17
ENDMDL
