MODEL 1
REMARK VINA RESULT:     -11.5      0.000      0.000
REMARK SMILES CC1=C[C@@H]([C@@H]2N=N[C@H](S)N2/N=C/c2ccc(C(=O)NCCCNC(=O)c3ccc(-c4c5nc(c(-c6cccc(S(=O)(=O)[O-])c6F)c6ccc([nH]6)c(-c6cccc(S(=O)(=O)[O-])c6F)c6nc(c(-c7cccc(S(=O)(=O)[O-])c7F)c7ccc4[nH]7)C=C6)C=C5)cc3)cc2)N=N1
REMARK SMILES IDX 21 1 20 2 19 3 17 4 18 5 16 7 13 8 14 9 90 10 15 11 89 12
REMARK SMILES IDX 12 13 11 14 10 15 5 16 6 17 7 18 8 19 4 20 1 21 2 22 3 23
REMARK SMILES IDX 92 24 91 25 9 26 22 28 23 29 24 30 25 32 26 33 27 34 88 35
REMARK SMILES IDX 28 36 87 37 29 38 30 39 31 40 81 41 32 42 86 43 80 44 82 45
REMARK SMILES IDX 33 46 85 47 79 48 78 49 34 51 66 52 46 53 65 54 47 55 50 56
REMARK SMILES IDX 64 57 83 58 48 59 49 60 63 62 84 63 51 64 35 65 36 66 44 67
REMARK SMILES IDX 37 68 39 69 45 70 38 71 40 72 41 73 42 74 43 75 67 76 68 77
REMARK SMILES IDX 76 78 69 79 71 80 77 81 70 82 72 83 73 84 74 85 75 86 52 87
REMARK SMILES IDX 53 88 61 89 54 90 56 91 62 92 55 93 57 94 58 95 59 96 60 97
REMARK H PARENT 19 6 9 27 23 31 82 50 50 61
REMARK Flexibility Score: inf
ROOT
ATOM      1  C   UNL A   1      35.268  32.384  27.678  1.00  0.00     0.042 C 
ENDROOT
BRANCH   1   2
ATOM      2  C   UNL A   1      33.919  31.795  28.118  1.00  0.00     0.118 C 
BRANCH   2   3
ATOM      3  N   UNL A   1      32.821  32.214  27.262  1.00  0.00    -0.352 N 
ATOM      4  C   UNL A   1      31.901  31.501  26.533  1.00  0.00     0.251 C 
ATOM      5  O   UNL A   1      30.955  32.114  26.045  1.00  0.00    -0.269 OA
ATOM      6  H   UNL A   1      32.718  33.190  27.191  1.00  0.00     0.163 HD
BRANCH   4   7
ATOM      7  C   UNL A   1      31.961  30.023  26.359  1.00  0.00     0.039 A 
ATOM      8  C   UNL A   1      31.989  27.268  25.870  1.00  0.00    -0.005 A 
ATOM      9  C   UNL A   1      32.226  28.152  24.818  1.00  0.00     0.010 A 
ATOM     10  C   UNL A   1      31.795  27.737  27.163  1.00  0.00     0.010 A 
ATOM     11  C   UNL A   1      32.197  29.528  25.064  1.00  0.00     0.014 A 
ATOM     12  C   UNL A   1      31.823  29.106  27.403  1.00  0.00     0.014 A 
BRANCH   8  13
ATOM     13  C   UNL A   1      31.993  25.819  25.632  1.00  0.00     0.141 C 
ATOM     14  N   UNL A   1      33.095  25.197  25.350  1.00  0.00    -0.180 NA
BRANCH  14  15
ATOM     15  N   UNL A   1      33.029  23.878  25.073  1.00  0.00    -0.233 NA
ATOM     16  C   UNL A   1      33.240  22.874  26.115  1.00  0.00     0.274 C 
ATOM     17  N   UNL A   1      32.535  21.635  25.681  1.00  0.00    -0.161 NA
ATOM     18  N   UNL A   1      32.021  21.792  24.549  1.00  0.00    -0.153 NA
ATOM     19  C   UNL A   1      32.227  23.177  24.077  1.00  0.00     0.298 C 
BRANCH  16  20
ATOM     20  C   UNL A   1      34.746  22.568  26.379  1.00  0.00     0.201 C 
ATOM     21  C   UNL A   1      36.878  22.596  23.365  1.00  0.00     0.068 C 
ATOM     22  C   UNL A   1      36.125  22.353  24.621  1.00  0.00     0.058 C 
ATOM     23  C   UNL A   1      35.673  23.285  25.456  1.00  0.00     0.031 C 
ATOM     24  N   UNL A   1      35.756  21.086  24.999  1.00  0.00    -0.160 NA
ATOM     25  N   UNL A   1      35.034  21.138  26.038  1.00  0.00    -0.177 NA
ENDBRANCH  16  20
BRANCH  19  26
ATOM     26  S   UNL A   1      33.002  23.305  22.425  1.00  0.00    -0.128 SA
ATOM     27  H   UNL A   1      33.362  22.066  21.996  1.00  0.00     0.106 HD
ENDBRANCH  19  26
ENDBRANCH  14  15
ENDBRANCH   8  13
ENDBRANCH   4   7
ENDBRANCH   2   3
ENDBRANCH   1   2
BRANCH   1  28
ATOM     28  C   UNL A   1      35.819  33.359  28.697  1.00  0.00     0.118 C 
BRANCH  28  29
ATOM     29  N   UNL A   1      35.180  33.205  30.012  1.00  0.00    -0.352 N 
ATOM     30  C   UNL A   1      35.344  32.205  30.958  1.00  0.00     0.251 C 
ATOM     31  H   UNL A   1      34.545  33.915  30.256  1.00  0.00     0.163 HD
ATOM     32  O   UNL A   1      34.507  32.036  31.828  1.00  0.00    -0.269 OA
BRANCH  30  33
ATOM     33  C   UNL A   1      36.550  31.358  30.892  1.00  0.00     0.039 A 
ATOM     34  C   UNL A   1      36.527  30.046  30.413  1.00  0.00     0.014 A 
ATOM     35  C   UNL A   1      37.742  31.931  31.306  1.00  0.00     0.014 A 
ATOM     36  C   UNL A   1      37.734  29.353  30.323  1.00  0.00     0.010 A 
ATOM     37  C   UNL A   1      38.923  31.380  30.922  1.00  0.00     0.010 A 
ATOM     38  C   UNL A   1      38.928  30.042  30.580  1.00  0.00    -0.014 A 
BRANCH  38  39
ATOM     39  C   UNL A   1      40.243  29.451  30.406  1.00  0.00     0.031 A 
ATOM     40  C   UNL A   1      40.907  29.171  31.698  1.00  0.00     0.074 A 
ATOM     41  C   UNL A   1      40.655  28.961  29.213  1.00  0.00     0.049 A 
ATOM     42  N   UNL A   1      41.885  29.825  32.229  1.00  0.00    -0.248 NA
ATOM     43  C   UNL A   1      40.266  28.211  32.616  1.00  0.00     0.031 C 
ATOM     44  C   UNL A   1      39.894  28.886  27.954  1.00  0.00     0.029 A 
ATOM     45  N   UNL A   1      41.788  28.277  28.903  1.00  0.00    -0.354 N 
ATOM     46  C   UNL A   1      42.170  29.140  33.405  1.00  0.00     0.074 A 
ATOM     47  C   UNL A   1      40.985  28.395  33.726  1.00  0.00     0.031 C 
ATOM     48  C   UNL A   1      40.472  27.987  27.126  1.00  0.00     0.029 A 
ATOM     49  C   UNL A   1      41.719  27.544  27.718  1.00  0.00     0.049 A 
ATOM     50  H   UNL A   1      42.593  28.296  29.471  1.00  0.00     0.167 HD
ATOM     51  C   UNL A   1      43.460  28.960  33.803  1.00  0.00     0.034 A 
ATOM     52  C   UNL A   1      42.599  26.602  27.289  1.00  0.00     0.034 A 
ATOM     53  C   UNL A   1      44.350  29.817  33.050  1.00  0.00     0.049 A 
ATOM     54  C   UNL A   1      43.854  26.814  28.045  1.00  0.00     0.074 A 
ATOM     55  C   UNL A   1      44.442  31.175  32.821  1.00  0.00     0.029 A 
ATOM     56  N   UNL A   1      45.071  29.211  32.049  1.00  0.00    -0.354 N 
ATOM     57  N   UNL A   1      44.597  27.877  27.914  1.00  0.00    -0.248 NA
ATOM     58  C   UNL A   1      44.031  26.070  29.280  1.00  0.00     0.031 C 
ATOM     59  C   UNL A   1      44.819  31.292  31.450  1.00  0.00     0.029 A 
ATOM     60  C   UNL A   1      45.028  30.009  30.940  1.00  0.00     0.049 A 
ATOM     61  H   UNL A   1      45.539  28.348  32.118  1.00  0.00     0.167 HD
ATOM     62  C   UNL A   1      44.946  28.203  29.217  1.00  0.00     0.074 A 
ATOM     63  C   UNL A   1      44.673  26.996  29.998  1.00  0.00     0.031 C 
ATOM     64  C   UNL A   1      45.119  29.507  29.585  1.00  0.00     0.034 A 
BRANCH  51  65
ATOM     65  C   UNL A   1      43.989  27.733  34.522  1.00  0.00     0.023 A 
ATOM     66  C   UNL A   1      44.797  27.970  35.657  1.00  0.00     0.012 A 
ATOM     67  C   UNL A   1      43.986  26.414  34.011  1.00  0.00     0.148 A 
ATOM     68  C   UNL A   1      45.614  26.975  36.201  1.00  0.00     0.002 A 
ATOM     69  C   UNL A   1      44.741  25.408  34.602  1.00  0.00     0.091 A 
ATOM     70  F   UNL A   1      43.360  26.129  32.868  1.00  0.00    -0.205 F 
ATOM     71  C   UNL A   1      45.585  25.691  35.676  1.00  0.00     0.022 A 
BRANCH  69  72
ATOM     72  S   UNL A   1      44.708  23.717  33.986  1.00  0.00     0.127 S 
ATOM     73  O   UNL A   1      45.838  23.127  34.699  1.00  0.00    -0.237 OA
ATOM     74  O   UNL A   1      43.389  23.267  34.429  1.00  0.00    -0.237 OA
ATOM     75  O   UNL A   1      44.850  23.819  32.540  1.00  0.00    -0.744 OA
ENDBRANCH  69  72
ENDBRANCH  51  65
BRANCH  52  76
ATOM     76  C   UNL A   1      42.389  25.374  26.479  1.00  0.00     0.023 A 
ATOM     77  C   UNL A   1      43.277  25.069  25.424  1.00  0.00     0.012 A 
ATOM     78  C   UNL A   1      41.519  24.357  26.924  1.00  0.00     0.148 A 
ATOM     79  C   UNL A   1      43.324  23.786  24.863  1.00  0.00     0.002 A 
ATOM     80  C   UNL A   1      41.568  23.083  26.362  1.00  0.00     0.091 A 
ATOM     81  F   UNL A   1      40.710  24.611  27.961  1.00  0.00    -0.205 F 
ATOM     82  C   UNL A   1      42.479  22.789  25.339  1.00  0.00     0.022 A 
BRANCH  80  83
ATOM     83  S   UNL A   1      40.538  21.732  26.954  1.00  0.00     0.127 S 
ATOM     84  O   UNL A   1      40.915  21.661  28.366  1.00  0.00    -0.237 OA
ATOM     85  O   UNL A   1      39.194  22.247  26.704  1.00  0.00    -0.237 OA
ATOM     86  O   UNL A   1      40.924  20.568  26.168  1.00  0.00    -0.744 OA
ENDBRANCH  80  83
ENDBRANCH  52  76
BRANCH  64  87
ATOM     87  C   UNL A   1      45.197  30.546  28.493  1.00  0.00     0.023 A 
ATOM     88  C   UNL A   1      44.059  31.175  27.945  1.00  0.00     0.012 A 
ATOM     89  C   UNL A   1      46.469  31.012  28.130  1.00  0.00     0.148 A 
ATOM     90  C   UNL A   1      44.191  32.233  27.040  1.00  0.00     0.002 A 
ATOM     91  C   UNL A   1      46.598  32.093  27.268  1.00  0.00     0.091 A 
ATOM     92  F   UNL A   1      47.541  30.403  28.661  1.00  0.00    -0.205 F 
ATOM     93  C   UNL A   1      45.461  32.701  26.713  1.00  0.00     0.022 A 
BRANCH  91  94
ATOM     94  S   UNL A   1      48.200  32.813  26.912  1.00  0.00     0.127 S 
ATOM     95  O   UNL A   1      48.978  31.642  26.514  1.00  0.00    -0.237 OA
ATOM     96  O   UNL A   1      47.891  33.742  25.823  1.00  0.00    -0.237 OA
ATOM     97  O   UNL A   1      48.630  33.464  28.143  1.00  0.00    -0.744 OA
ENDBRANCH  91  94
ENDBRANCH  64  87
ENDBRANCH  38  39
ENDBRANCH  30  33
ENDBRANCH  28  29
ENDBRANCH   1  28
TORSDOF 17
ENDMDL
MODEL 2
REMARK VINA RESULT:     -11.4      3.762      7.010
REMARK SMILES CC1=C[C@@H]([C@@H]2N=N[C@H](S)N2/N=C/c2ccc(C(=O)NCCCNC(=O)c3ccc(-c4c5nc(c(-c6cccc(S(=O)(=O)[O-])c6F)c6ccc([nH]6)c(-c6cccc(S(=O)(=O)[O-])c6F)c6nc(c(-c7cccc(S(=O)(=O)[O-])c7F)c7ccc4[nH]7)C=C6)C=C5)cc3)cc2)N=N1
REMARK SMILES IDX 21 1 20 2 19 3 17 4 18 5 16 7 13 8 14 9 90 10 15 11 89 12
REMARK SMILES IDX 12 13 11 14 10 15 5 16 6 17 7 18 8 19 4 20 1 21 2 22 3 23
REMARK SMILES IDX 92 24 91 25 9 26 22 28 23 29 24 30 25 32 26 33 27 34 88 35
REMARK SMILES IDX 28 36 87 37 29 38 30 39 31 40 81 41 32 42 86 43 80 44 82 45
REMARK SMILES IDX 33 46 85 47 79 48 78 49 34 51 66 52 46 53 65 54 47 55 50 56
REMARK SMILES IDX 64 57 83 58 48 59 49 60 63 62 84 63 51 64 35 65 36 66 44 67
REMARK SMILES IDX 37 68 39 69 45 70 38 71 40 72 41 73 42 74 43 75 67 76 68 77
REMARK SMILES IDX 76 78 69 79 71 80 77 81 70 82 72 83 73 84 74 85 75 86 52 87
REMARK SMILES IDX 53 88 61 89 54 90 56 91 62 92 55 93 57 94 58 95 59 96 60 97
REMARK H PARENT 19 6 9 27 23 31 82 50 50 61
REMARK Flexibility Score: inf
ROOT
ATOM      1  C   UNL A   1      34.070  34.824  27.657  1.00  0.00     0.042 C 
ENDROOT
BRANCH   1   2
ATOM      2  C   UNL A   1      34.402  36.039  28.537  1.00  0.00     0.118 C 
BRANCH   2   3
ATOM      3  N   UNL A   1      33.299  36.419  29.404  1.00  0.00    -0.352 N 
ATOM      4  C   UNL A   1      33.077  36.227  30.745  1.00  0.00     0.251 C 
ATOM      5  O   UNL A   1      32.137  36.824  31.264  1.00  0.00    -0.269 OA
ATOM      6  H   UNL A   1      32.576  36.903  28.944  1.00  0.00     0.163 HD
BRANCH   4   7
ATOM      7  C   UNL A   1      33.951  35.384  31.608  1.00  0.00     0.039 A 
ATOM      8  C   UNL A   1      35.478  33.662  33.199  1.00  0.00    -0.005 A 
ATOM      9  C   UNL A   1      34.899  33.177  32.026  1.00  0.00     0.010 A 
ATOM     10  C   UNL A   1      35.351  34.999  33.555  1.00  0.00     0.010 A 
ATOM     11  C   UNL A   1      34.125  34.037  31.242  1.00  0.00     0.014 A 
ATOM     12  C   UNL A   1      34.624  35.856  32.737  1.00  0.00     0.014 A 
BRANCH   8  13
ATOM     13  C   UNL A   1      36.277  32.772  34.050  1.00  0.00     0.141 C 
ATOM     14  N   UNL A   1      36.648  33.146  35.235  1.00  0.00    -0.180 NA
BRANCH  14  15
ATOM     15  N   UNL A   1      37.439  32.316  35.946  1.00  0.00    -0.233 NA
ATOM     16  C   UNL A   1      37.126  31.976  37.334  1.00  0.00     0.274 C 
ATOM     17  N   UNL A   1      37.766  30.661  37.620  1.00  0.00    -0.161 NA
ATOM     18  N   UNL A   1      38.417  30.260  36.626  1.00  0.00    -0.153 NA
ATOM     19  C   UNL A   1      38.255  31.195  35.494  1.00  0.00     0.298 C 
BRANCH  16  20
ATOM     20  C   UNL A   1      37.622  33.045  38.355  1.00  0.00     0.201 C 
ATOM     21  C   UNL A   1      41.121  34.125  37.886  1.00  0.00     0.068 C 
ATOM     22  C   UNL A   1      39.784  33.648  38.319  1.00  0.00     0.058 C 
ATOM     23  C   UNL A   1      38.616  34.001  37.787  1.00  0.00     0.031 C 
ATOM     24  N   UNL A   1      39.647  32.704  39.306  1.00  0.00    -0.160 NA
ATOM     25  N   UNL A   1      38.430  32.378  39.427  1.00  0.00    -0.177 NA
ENDBRANCH  16  20
BRANCH  19  26
ATOM     26  S   UNL A   1      39.829  31.796  34.780  1.00  0.00    -0.128 SA
ATOM     27  H   UNL A   1      40.832  31.616  35.679  1.00  0.00     0.106 HD
ENDBRANCH  19  26
ENDBRANCH  14  15
ENDBRANCH   8  13
ENDBRANCH   4   7
ENDBRANCH   2   3
ENDBRANCH   1   2
BRANCH   1  28
ATOM     28  C   UNL A   1      34.933  33.627  27.999  1.00  0.00     0.118 C 
BRANCH  28  29
ATOM     29  N   UNL A   1      34.153  32.383  28.066  1.00  0.00    -0.352 N 
ATOM     30  C   UNL A   1      34.585  31.068  27.980  1.00  0.00     0.251 C 
ATOM     31  H   UNL A   1      33.184  32.500  28.191  1.00  0.00     0.163 HD
ATOM     32  O   UNL A   1      33.798  30.177  27.712  1.00  0.00    -0.269 OA
BRANCH  30  33
ATOM     33  C   UNL A   1      36.009  30.773  28.225  1.00  0.00     0.039 A 
ATOM     34  C   UNL A   1      36.798  31.526  29.098  1.00  0.00     0.014 A 
ATOM     35  C   UNL A   1      36.545  29.677  27.566  1.00  0.00     0.014 A 
ATOM     36  C   UNL A   1      38.114  31.121  29.316  1.00  0.00     0.010 A 
ATOM     37  C   UNL A   1      37.696  29.116  28.019  1.00  0.00     0.010 A 
ATOM     38  C   UNL A   1      38.546  29.905  28.768  1.00  0.00    -0.014 A 
BRANCH  38  39
ATOM     39  C   UNL A   1      39.856  29.334  29.025  1.00  0.00     0.031 A 
ATOM     40  C   UNL A   1      40.096  29.109  30.468  1.00  0.00     0.074 A 
ATOM     41  C   UNL A   1      40.618  28.814  28.034  1.00  0.00     0.049 A 
ATOM     42  N   UNL A   1      40.858  29.798  31.248  1.00  0.00    -0.248 NA
ATOM     43  C   UNL A   1      39.212  28.167  31.180  1.00  0.00     0.031 C 
ATOM     44  C   UNL A   1      40.280  28.683  26.606  1.00  0.00     0.029 A 
ATOM     45  N   UNL A   1      41.797  28.141  28.111  1.00  0.00    -0.354 N 
ATOM     46  C   UNL A   1      40.776  29.158  32.479  1.00  0.00     0.074 A 
ATOM     47  C   UNL A   1      39.555  28.401  32.449  1.00  0.00     0.031 C 
ATOM     48  C   UNL A   1      41.091  27.768  26.028  1.00  0.00     0.029 A 
ATOM     49  C   UNL A   1      42.100  27.369  26.989  1.00  0.00     0.049 A 
ATOM     50  H   UNL A   1      42.390  28.195  28.896  1.00  0.00     0.167 HD
ATOM     51  C   UNL A   1      41.883  29.015  33.258  1.00  0.00     0.034 A 
ATOM     52  C   UNL A   1      43.077  26.430  26.885  1.00  0.00     0.034 A 
ATOM     53  C   UNL A   1      42.954  29.864  32.783  1.00  0.00     0.049 A 
ATOM     54  C   UNL A   1      44.038  26.691  27.980  1.00  0.00     0.074 A 
ATOM     55  C   UNL A   1      43.100  31.216  32.542  1.00  0.00     0.029 A 
ATOM     56  N   UNL A   1      43.951  29.240  32.073  1.00  0.00    -0.354 N 
ATOM     57  N   UNL A   1      44.777  27.763  28.043  1.00  0.00    -0.248 NA
ATOM     58  C   UNL A   1      43.835  25.991  29.237  1.00  0.00     0.031 C 
ATOM     59  C   UNL A   1      43.878  31.295  31.349  1.00  0.00     0.029 A 
ATOM     60  C   UNL A   1      44.244  30.001  30.975  1.00  0.00     0.049 A 
ATOM     61  H   UNL A   1      44.383  28.388  32.313  1.00  0.00     0.167 HD
ATOM     62  C   UNL A   1      44.708  28.138  29.377  1.00  0.00     0.074 A 
ATOM     63  C   UNL A   1      44.219  26.952  30.082  1.00  0.00     0.031 C 
ATOM     64  C   UNL A   1      44.749  29.456  29.733  1.00  0.00     0.034 A 
BRANCH  51  65
ATOM     65  C   UNL A   1      42.177  27.823  34.149  1.00  0.00     0.023 A 
ATOM     66  C   UNL A   1      41.952  28.002  35.533  1.00  0.00     0.012 A 
ATOM     67  C   UNL A   1      42.906  26.671  33.769  1.00  0.00     0.148 A 
ATOM     68  C   UNL A   1      42.490  27.132  36.486  1.00  0.00     0.002 A 
ATOM     69  C   UNL A   1      43.373  25.767  34.716  1.00  0.00     0.091 A 
ATOM     70  F   UNL A   1      43.278  26.490  32.502  1.00  0.00    -0.205 F 
ATOM     71  C   UNL A   1      43.199  26.011  36.078  1.00  0.00     0.022 A 
BRANCH  69  72
ATOM     72  S   UNL A   1      44.262  24.277  34.239  1.00  0.00     0.127 S 
ATOM     73  O   UNL A   1      45.035  24.002  35.447  1.00  0.00    -0.237 OA
ATOM     74  O   UNL A   1      43.163  23.348  33.979  1.00  0.00    -0.237 OA
ATOM     75  O   UNL A   1      45.033  24.636  33.056  1.00  0.00    -0.744 OA
ENDBRANCH  69  72
ENDBRANCH  51  65
BRANCH  52  76
ATOM     76  C   UNL A   1      43.135  25.173  26.095  1.00  0.00     0.023 A 
ATOM     77  C   UNL A   1      44.160  24.991  25.141  1.00  0.00     0.012 A 
ATOM     78  C   UNL A   1      42.386  24.042  26.483  1.00  0.00     0.148 A 
ATOM     79  C   UNL A   1      44.455  23.721  24.626  1.00  0.00     0.002 A 
ATOM     80  C   UNL A   1      42.682  22.782  25.968  1.00  0.00     0.091 A 
ATOM     81  F   UNL A   1      41.448  24.186  27.429  1.00  0.00    -0.205 F 
ATOM     82  C   UNL A   1      43.724  22.614  25.047  1.00  0.00     0.022 A 
BRANCH  80  83
ATOM     83  S   UNL A   1      41.810  21.300  26.497  1.00  0.00     0.127 S 
ATOM     84  O   UNL A   1      40.424  21.629  26.162  1.00  0.00    -0.237 OA
ATOM     85  O   UNL A   1      42.418  20.276  25.652  1.00  0.00    -0.237 OA
ATOM     86  O   UNL A   1      42.072  21.177  27.924  1.00  0.00    -0.744 OA
ENDBRANCH  80  83
ENDBRANCH  52  76
BRANCH  64  87
ATOM     87  C   UNL A   1      45.149  30.460  28.679  1.00  0.00     0.023 A 
ATOM     88  C   UNL A   1      44.214  31.154  27.881  1.00  0.00     0.012 A 
ATOM     89  C   UNL A   1      46.501  30.828  28.612  1.00  0.00     0.148 A 
ATOM     90  C   UNL A   1      44.626  32.177  27.022  1.00  0.00     0.002 A 
ATOM     91  C   UNL A   1      46.901  31.876  27.794  1.00  0.00     0.091 A 
ATOM     92  F   UNL A   1      47.376  30.158  29.378  1.00  0.00    -0.205 F 
ATOM     93  C   UNL A   1      45.968  32.548  26.989  1.00  0.00     0.022 A 
BRANCH  91  94
ATOM     94  S   UNL A   1      48.591  32.473  27.807  1.00  0.00     0.127 S 
ATOM     95  O   UNL A   1      48.492  33.684  26.995  1.00  0.00    -0.237 OA
ATOM     96  O   UNL A   1      48.830  32.708  29.232  1.00  0.00    -0.237 OA
ATOM     97  O   UNL A   1      49.400  31.401  27.239  1.00  0.00    -0.744 OA
ENDBRANCH  91  94
ENDBRANCH  64  87
ENDBRANCH  38  39
ENDBRANCH  30  33
ENDBRANCH  28  29
ENDBRANCH   1  28
TORSDOF 17
ENDMDL
MODEL 3
REMARK VINA RESULT:     -11.2      3.684      9.556
REMARK SMILES CC1=C[C@@H]([C@@H]2N=N[C@H](S)N2/N=C/c2ccc(C(=O)NCCCNC(=O)c3ccc(-c4c5nc(c(-c6cccc(S(=O)(=O)[O-])c6F)c6ccc([nH]6)c(-c6cccc(S(=O)(=O)[O-])c6F)c6nc(c(-c7cccc(S(=O)(=O)[O-])c7F)c7ccc4[nH]7)C=C6)C=C5)cc3)cc2)N=N1
REMARK SMILES IDX 21 1 20 2 19 3 17 4 18 5 16 7 13 8 14 9 90 10 15 11 89 12
REMARK SMILES IDX 12 13 11 14 10 15 5 16 6 17 7 18 8 19 4 20 1 21 2 22 3 23
REMARK SMILES IDX 92 24 91 25 9 26 22 28 23 29 24 30 25 32 26 33 27 34 88 35
REMARK SMILES IDX 28 36 87 37 29 38 30 39 31 40 81 41 32 42 86 43 80 44 82 45
REMARK SMILES IDX 33 46 85 47 79 48 78 49 34 51 66 52 46 53 65 54 47 55 50 56
REMARK SMILES IDX 64 57 83 58 48 59 49 60 63 62 84 63 51 64 35 65 36 66 44 67
REMARK SMILES IDX 37 68 39 69 45 70 38 71 40 72 41 73 42 74 43 75 67 76 68 77
REMARK SMILES IDX 76 78 69 79 71 80 77 81 70 82 72 83 73 84 74 85 75 86 52 87
REMARK SMILES IDX 53 88 61 89 54 90 56 91 62 92 55 93 57 94 58 95 59 96 60 97
REMARK H PARENT 19 6 9 27 23 31 82 50 50 61
REMARK Flexibility Score: inf
ROOT
ATOM      1  C   UNL A   1      43.011  23.783  25.601  1.00  0.00     0.042 C 
ENDROOT
BRANCH   1   2
ATOM      2  C   UNL A   1      42.417  22.391  25.337  1.00  0.00     0.118 C 
BRANCH   2   3
ATOM      3  N   UNL A   1      41.942  21.747  26.550  1.00  0.00    -0.352 N 
ATOM      4  C   UNL A   1      40.679  21.534  27.044  1.00  0.00     0.251 C 
ATOM      5  O   UNL A   1      40.558  20.787  28.012  1.00  0.00    -0.269 OA
ATOM      6  H   UNL A   1      42.660  21.399  27.126  1.00  0.00     0.163 HD
BRANCH   4   7
ATOM      7  C   UNL A   1      39.451  22.112  26.429  1.00  0.00     0.039 A 
ATOM      8  C   UNL A   1      37.112  23.282  25.434  1.00  0.00    -0.005 A 
ATOM      9  C   UNL A   1      37.944  24.022  26.274  1.00  0.00     0.010 A 
ATOM     10  C   UNL A   1      37.460  21.995  25.044  1.00  0.00     0.010 A 
ATOM     11  C   UNL A   1      39.104  23.429  26.781  1.00  0.00     0.014 A 
ATOM     12  C   UNL A   1      38.644  21.437  25.511  1.00  0.00     0.014 A 
BRANCH   8  13
ATOM     13  C   UNL A   1      35.877  23.876  24.908  1.00  0.00     0.141 C 
ATOM     14  N   UNL A   1      35.109  24.591  25.668  1.00  0.00    -0.180 NA
BRANCH  14  15
ATOM     15  N   UNL A   1      33.952  25.054  25.150  1.00  0.00    -0.233 NA
ATOM     16  C   UNL A   1      33.943  26.125  24.154  1.00  0.00     0.274 C 
ATOM     17  N   UNL A   1      32.682  25.990  23.374  1.00  0.00    -0.161 NA
ATOM     18  N   UNL A   1      31.983  25.049  23.821  1.00  0.00    -0.153 NA
ATOM     19  C   UNL A   1      32.694  24.355  24.915  1.00  0.00     0.298 C 
BRANCH  16  20
ATOM     20  C   UNL A   1      34.033  27.549  24.783  1.00  0.00     0.201 C 
ATOM     21  C   UNL A   1      31.724  28.143  27.601  1.00  0.00     0.068 C 
ATOM     22  C   UNL A   1      32.553  28.121  26.370  1.00  0.00     0.058 C 
ATOM     23  C   UNL A   1      33.760  27.576  26.249  1.00  0.00     0.031 C 
ATOM     24  N   UNL A   1      32.083  28.626  25.184  1.00  0.00    -0.160 NA
ATOM     25  N   UNL A   1      32.917  28.400  24.258  1.00  0.00    -0.177 NA
ENDBRANCH  16  20
BRANCH  19  26
ATOM     26  S   UNL A   1      31.738  24.217  26.468  1.00  0.00    -0.128 SA
ATOM     27  H   UNL A   1      32.589  24.243  27.528  1.00  0.00     0.106 HD
ENDBRANCH  19  26
ENDBRANCH  14  15
ENDBRANCH   8  13
ENDBRANCH   4   7
ENDBRANCH   2   3
ENDBRANCH   1   2
BRANCH   1  28
ATOM     28  C   UNL A   1      44.192  23.724  26.546  1.00  0.00     0.118 C 
BRANCH  28  29
ATOM     29  N   UNL A   1      43.844  23.097  27.829  1.00  0.00    -0.352 N 
ATOM     30  C   UNL A   1      43.492  23.691  29.032  1.00  0.00     0.251 C 
ATOM     31  H   UNL A   1      43.863  22.114  27.835  1.00  0.00     0.163 HD
ATOM     32  O   UNL A   1      43.568  23.064  30.075  1.00  0.00    -0.269 OA
BRANCH  30  33
ATOM     33  C   UNL A   1      43.021  25.089  29.021  1.00  0.00     0.039 A 
ATOM     34  C   UNL A   1      41.858  25.490  28.358  1.00  0.00     0.014 A 
ATOM     35  C   UNL A   1      43.774  26.010  29.732  1.00  0.00     0.014 A 
ATOM     36  C   UNL A   1      41.460  26.821  28.469  1.00  0.00     0.010 A 
ATOM     37  C   UNL A   1      43.221  27.197  30.092  1.00  0.00     0.010 A 
ATOM     38  C   UNL A   1      42.156  27.663  29.348  1.00  0.00    -0.014 A 
BRANCH  38  39
ATOM     39  C   UNL A   1      41.757  29.032  29.625  1.00  0.00     0.031 A 
ATOM     40  C   UNL A   1      42.835  30.001  29.330  1.00  0.00     0.074 A 
ATOM     41  C   UNL A   1      40.464  29.370  29.843  1.00  0.00     0.049 A 
ATOM     42  N   UNL A   1      43.570  30.631  30.183  1.00  0.00    -0.248 NA
ATOM     43  C   UNL A   1      43.315  30.104  27.940  1.00  0.00     0.031 C 
ATOM     44  C   UNL A   1      39.279  28.496  29.797  1.00  0.00     0.029 A 
ATOM     45  N   UNL A   1      39.905  30.600  29.995  1.00  0.00    -0.354 N 
ATOM     46  C   UNL A   1      44.388  31.447  29.409  1.00  0.00     0.074 A 
ATOM     47  C   UNL A   1      44.405  30.860  28.098  1.00  0.00     0.031 C 
ATOM     48  C   UNL A   1      38.164  29.248  29.660  1.00  0.00     0.029 A 
ATOM     49  C   UNL A   1      38.529  30.646  29.768  1.00  0.00     0.049 A 
ATOM     50  H   UNL A   1      40.430  31.395  30.246  1.00  0.00     0.167 HD
ATOM     51  C   UNL A   1      44.675  32.716  29.810  1.00  0.00     0.034 A 
ATOM     52  C   UNL A   1      37.763  31.759  29.624  1.00  0.00     0.034 A 
ATOM     53  C   UNL A   1      44.306  32.909  31.195  1.00  0.00     0.049 A 
ATOM     54  C   UNL A   1      38.533  32.885  30.201  1.00  0.00     0.074 A 
ATOM     55  C   UNL A   1      44.618  32.289  32.388  1.00  0.00     0.029 A 
ATOM     56  N   UNL A   1      43.142  33.606  31.420  1.00  0.00    -0.354 N 
ATOM     57  N   UNL A   1      38.817  32.982  31.468  1.00  0.00    -0.248 NA
ATOM     58  C   UNL A   1      39.384  33.648  29.304  1.00  0.00     0.031 C 
ATOM     59  C   UNL A   1      43.396  32.270  33.124  1.00  0.00     0.029 A 
ATOM     60  C   UNL A   1      42.428  32.957  32.389  1.00  0.00     0.049 A 
ATOM     61  H   UNL A   1      42.869  34.433  30.961  1.00  0.00     0.167 HD
ATOM     62  C   UNL A   1      40.142  33.394  31.484  1.00  0.00     0.074 A 
ATOM     63  C   UNL A   1      40.398  33.902  30.135  1.00  0.00     0.031 C 
ATOM     64  C   UNL A   1      40.984  32.994  32.482  1.00  0.00     0.034 A 
BRANCH  51  65
ATOM     65  C   UNL A   1      44.861  33.904  28.885  1.00  0.00     0.023 A 
ATOM     66  C   UNL A   1      43.684  34.576  28.482  1.00  0.00     0.012 A 
ATOM     67  C   UNL A   1      46.045  34.223  28.180  1.00  0.00     0.148 A 
ATOM     68  C   UNL A   1      43.671  35.449  27.390  1.00  0.00     0.002 A 
ATOM     69  C   UNL A   1      46.043  35.150  27.145  1.00  0.00     0.091 A 
ATOM     70  F   UNL A   1      47.171  33.545  28.403  1.00  0.00    -0.205 F 
ATOM     71  C   UNL A   1      44.852  35.739  26.721  1.00  0.00     0.022 A 
BRANCH  69  72
ATOM     72  S   UNL A   1      47.553  35.594  26.273  1.00  0.00     0.127 S 
ATOM     73  O   UNL A   1      47.814  34.377  25.507  1.00  0.00    -0.237 OA
ATOM     74  O   UNL A   1      47.112  36.742  25.483  1.00  0.00    -0.237 OA
ATOM     75  O   UNL A   1      48.528  35.918  27.306  1.00  0.00    -0.744 OA
ENDBRANCH  69  72
ENDBRANCH  51  65
BRANCH  52  76
ATOM     76  C   UNL A   1      36.543  32.000  28.811  1.00  0.00     0.023 A 
ATOM     77  C   UNL A   1      35.988  30.948  28.050  1.00  0.00     0.012 A 
ATOM     78  C   UNL A   1      35.756  33.152  29.016  1.00  0.00     0.148 A 
ATOM     79  C   UNL A   1      34.682  31.026  27.548  1.00  0.00     0.002 A 
ATOM     80  C   UNL A   1      34.458  33.226  28.515  1.00  0.00     0.091 A 
ATOM     81  F   UNL A   1      36.245  34.136  29.784  1.00  0.00    -0.205 F 
ATOM     82  C   UNL A   1      33.912  32.159  27.790  1.00  0.00     0.022 A 
BRANCH  80  83
ATOM     83  S   UNL A   1      33.389  34.639  28.824  1.00  0.00     0.127 S 
ATOM     84  O   UNL A   1      33.177  34.548  30.269  1.00  0.00    -0.237 OA
ATOM     85  O   UNL A   1      34.231  35.753  28.397  1.00  0.00    -0.237 OA
ATOM     86  O   UNL A   1      32.193  34.409  28.025  1.00  0.00    -0.744 OA
ENDBRANCH  80  83
ENDBRANCH  52  76
BRANCH  64  87
ATOM     87  C   UNL A   1      40.377  32.336  33.697  1.00  0.00     0.023 A 
ATOM     88  C   UNL A   1      40.130  30.949  33.780  1.00  0.00     0.012 A 
ATOM     89  C   UNL A   1      40.207  33.124  34.844  1.00  0.00     0.148 A 
ATOM     90  C   UNL A   1      39.703  30.369  34.978  1.00  0.00     0.002 A 
ATOM     91  C   UNL A   1      39.828  32.538  36.045  1.00  0.00     0.091 A 
ATOM     92  F   UNL A   1      40.447  34.441  34.748  1.00  0.00    -0.205 F 
ATOM     93  C   UNL A   1      39.565  31.161  36.115  1.00  0.00     0.022 A 
BRANCH  91  94
ATOM     94  S   UNL A   1      39.757  33.490  37.563  1.00  0.00     0.127 S 
ATOM     95  O   UNL A   1      38.704  34.458  37.266  1.00  0.00    -0.237 OA
ATOM     96  O   UNL A   1      39.395  32.474  38.553  1.00  0.00    -0.237 OA
ATOM     97  O   UNL A   1      41.091  34.048  37.748  1.00  0.00    -0.744 OA
ENDBRANCH  91  94
ENDBRANCH  64  87
ENDBRANCH  38  39
ENDBRANCH  30  33
ENDBRANCH  28  29
ENDBRANCH   1  28
TORSDOF 17
ENDMDL
