MODEL 1
REMARK VINA RESULT:     -13.0      0.000      0.000
REMARK SMILES O=C1OC(c2ccc(Cl)cc2)=N/C1=C/Nc1ccc(O)c(C(=O)NCCCNC(=O)c2ccc(-c3c4nc(c(-c5cccc(S(=O)(=O)[O-])c5F)c5ccc([nH]5)c(-c5cccc(S(=O)(=O)[O-])c5F)c5nc(c(-c6cccc(S(=O)(=O)[O-])c6F)c6ccc3[nH]6)C=C5)C=C4)cc2)c1
REMARK SMILES IDX 26 1 25 2 24 3 22 4 23 5 21 7 16 8 17 9 94 10 18 11 19 12
REMARK SMILES IDX 15 13 14 15 1 16 2 17 3 18 13 19 4 20 12 21 5 22 6 23 11 24
REMARK SMILES IDX 7 25 10 26 8 27 9 28 20 29 27 31 28 32 29 33 30 35 31 36
REMARK SMILES IDX 32 37 93 38 33 39 92 40 34 41 35 42 36 43 86 44 37 45 91 46
REMARK SMILES IDX 85 47 87 48 38 49 90 50 84 51 83 52 39 54 71 55 51 56 70 57
REMARK SMILES IDX 52 58 55 59 69 60 88 61 53 62 54 63 68 65 89 66 56 67 40 68
REMARK SMILES IDX 41 69 49 70 42 71 44 72 50 73 43 74 45 75 46 76 47 77 48 78
REMARK SMILES IDX 72 79 73 80 81 81 74 82 76 83 82 84 75 85 77 86 78 87 79 88
REMARK SMILES IDX 80 89 57 90 58 91 66 92 59 93 61 94 67 95 60 96 62 97 63 98
REMARK SMILES IDX 64 99 65 100
REMARK H PARENT 24 6 15 14 20 30 28 34 87 53 55 64
REMARK Flexibility Score: inf
ROOT
ATOM      1  C   UNL A   1      31.604  31.806  26.525  1.00  0.00     0.042 C 
ENDROOT
BRANCH   1   2
ATOM      2  C   UNL A   1      31.741  30.303  26.284  1.00  0.00     0.118 C 
BRANCH   2   3
ATOM      3  N   UNL A   1      32.340  30.045  24.994  1.00  0.00    -0.352 N 
ATOM      4  C   UNL A   1      31.994  29.219  23.958  1.00  0.00     0.255 C 
ATOM      5  O   UNL A   1      32.770  29.224  22.997  1.00  0.00    -0.269 OA
ATOM      6  H   UNL A   1      33.158  30.567  24.826  1.00  0.00     0.163 HD
BRANCH   4   7
ATOM      7  C   UNL A   1      30.736  28.413  23.857  1.00  0.00     0.083 A 
ATOM      8  C   UNL A   1      29.871  26.113  24.065  1.00  0.00     0.039 A 
ATOM      9  C   UNL A   1      28.615  26.561  23.660  1.00  0.00     0.030 A 
ATOM     10  C   UNL A   1      30.917  27.039  24.136  1.00  0.00     0.043 A 
ATOM     11  C   UNL A   1      28.390  27.915  23.434  1.00  0.00     0.049 A 
ATOM     12  C   UNL A   1      29.434  28.838  23.564  1.00  0.00     0.128 A 
BRANCH   8  13
ATOM     13  N   UNL A   1      30.130  24.766  24.342  1.00  0.00    -0.360 N 
ATOM     14  H   UNL A   1      29.410  24.254  24.778  1.00  0.00     0.166 HD
BRANCH  13  15
ATOM     15  C   UNL A   1      31.287  24.089  24.064  1.00  0.00     0.119 C 
ATOM     16  O   UNL A   1      31.783  25.108  26.871  1.00  0.00    -0.244 OA
ATOM     17  C   UNL A   1      32.542  24.446  26.196  1.00  0.00     0.365 C 
ATOM     18  O   UNL A   1      33.774  23.976  26.550  1.00  0.00    -0.402 OA
ATOM     19  C   UNL A   1      32.389  23.948  24.803  1.00  0.00     0.168 C 
ATOM     20  C   UNL A   1      34.259  23.348  25.455  1.00  0.00     0.231 C 
ATOM     21  N   UNL A   1      33.521  23.295  24.395  1.00  0.00    -0.204 NA
BRANCH  20  22
ATOM     22  C   UNL A   1      35.621  22.849  25.578  1.00  0.00     0.037 A 
ATOM     23  C   UNL A   1      35.919  21.516  25.287  1.00  0.00     0.015 A 
ATOM     24  C   UNL A   1      36.626  23.746  25.956  1.00  0.00     0.015 A 
ATOM     25  C   UNL A   1      37.244  21.080  25.372  1.00  0.00     0.021 A 
ATOM     26  C   UNL A   1      37.944  23.300  26.058  1.00  0.00     0.021 A 
ATOM     27  C   UNL A   1      38.247  21.970  25.761  1.00  0.00     0.041 A 
ATOM     28  Cl  UNL A   1      39.875  21.428  25.869  1.00  0.00    -0.084 Cl
ENDBRANCH  20  22
ENDBRANCH  13  15
ENDBRANCH   8  13
BRANCH  12  29
ATOM     29  O   UNL A   1      29.098  30.152  23.445  1.00  0.00    -0.507 OA
ATOM     30  H   UNL A   1      28.801  30.487  22.622  1.00  0.00     0.293 HD
ENDBRANCH  12  29
ENDBRANCH   4   7
ENDBRANCH   2   3
ENDBRANCH   1   2
BRANCH   1  31
ATOM     31  C   UNL A   1      32.790  32.406  27.269  1.00  0.00     0.118 C 
BRANCH  31  32
ATOM     32  N   UNL A   1      32.579  33.818  27.568  1.00  0.00    -0.352 N 
ATOM     33  C   UNL A   1      33.114  34.594  28.564  1.00  0.00     0.251 C 
ATOM     34  H   UNL A   1      31.959  34.284  26.963  1.00  0.00     0.163 HD
ATOM     35  O   UNL A   1      32.611  35.686  28.815  1.00  0.00    -0.269 OA
BRANCH  33  36
ATOM     36  C   UNL A   1      34.283  34.121  29.335  1.00  0.00     0.039 A 
ATOM     37  C   UNL A   1      34.074  33.308  30.452  1.00  0.00     0.014 A 
ATOM     38  C   UNL A   1      35.581  34.498  28.975  1.00  0.00     0.014 A 
ATOM     39  C   UNL A   1      35.168  32.822  31.170  1.00  0.00     0.010 A 
ATOM     40  C   UNL A   1      36.672  33.950  29.642  1.00  0.00     0.010 A 
ATOM     41  C   UNL A   1      36.477  33.108  30.746  1.00  0.00    -0.014 A 
BRANCH  41  42
ATOM     42  C   UNL A   1      37.654  32.506  31.419  1.00  0.00     0.031 A 
ATOM     43  C   UNL A   1      38.387  31.355  30.790  1.00  0.00     0.074 A 
ATOM     44  C   UNL A   1      37.998  32.938  32.649  1.00  0.00     0.049 A 
ATOM     45  N   UNL A   1      39.389  30.659  31.262  1.00  0.00    -0.248 NA
ATOM     46  C   UNL A   1      37.918  30.910  29.467  1.00  0.00     0.031 C 
ATOM     47  C   UNL A   1      37.318  34.003  33.389  1.00  0.00     0.029 A 
ATOM     48  N   UNL A   1      38.986  32.518  33.503  1.00  0.00    -0.354 N 
ATOM     49  C   UNL A   1      39.650  29.677  30.314  1.00  0.00     0.074 A 
ATOM     50  C   UNL A   1      38.678  29.845  29.256  1.00  0.00     0.031 C 
ATOM     51  C   UNL A   1      37.913  34.157  34.583  1.00  0.00     0.029 A 
ATOM     52  C   UNL A   1      38.985  33.177  34.710  1.00  0.00     0.049 A 
ATOM     53  H   UNL A   1      39.633  31.813  33.274  1.00  0.00     0.167 HD
ATOM     54  C   UNL A   1      40.624  28.736  30.313  1.00  0.00     0.034 A 
ATOM     55  C   UNL A   1      39.750  33.001  35.805  1.00  0.00     0.034 A 
ATOM     56  C   UNL A   1      41.596  28.587  31.363  1.00  0.00     0.049 A 
ATOM     57  C   UNL A   1      40.822  31.946  35.782  1.00  0.00     0.074 A 
ATOM     58  C   UNL A   1      42.671  27.718  31.423  1.00  0.00     0.029 A 
ATOM     59  N   UNL A   1      41.598  29.307  32.548  1.00  0.00    -0.354 N 
ATOM     60  N   UNL A   1      41.153  31.128  34.813  1.00  0.00    -0.248 NA
ATOM     61  C   UNL A   1      41.646  31.811  36.991  1.00  0.00     0.031 C 
ATOM     62  C   UNL A   1      43.298  27.884  32.663  1.00  0.00     0.029 A 
ATOM     63  C   UNL A   1      42.641  28.888  33.358  1.00  0.00     0.049 A 
ATOM     64  H   UNL A   1      40.953  30.014  32.781  1.00  0.00     0.167 HD
ATOM     65  C   UNL A   1      42.242  30.402  35.281  1.00  0.00     0.074 A 
ATOM     66  C   UNL A   1      42.527  30.895  36.613  1.00  0.00     0.031 C 
ATOM     67  C   UNL A   1      42.937  29.412  34.667  1.00  0.00     0.034 A 
BRANCH  54  68
ATOM     68  C   UNL A   1      40.702  27.812  29.122  1.00  0.00     0.023 A 
ATOM     69  C   UNL A   1      39.854  26.687  29.054  1.00  0.00     0.012 A 
ATOM     70  C   UNL A   1      41.584  28.075  28.056  1.00  0.00     0.148 A 
ATOM     71  C   UNL A   1      39.917  25.812  27.970  1.00  0.00     0.002 A 
ATOM     72  C   UNL A   1      41.605  27.227  26.955  1.00  0.00     0.091 A 
ATOM     73  F   UNL A   1      42.395  29.139  28.143  1.00  0.00    -0.205 F 
ATOM     74  C   UNL A   1      40.785  26.087  26.918  1.00  0.00     0.022 A 
BRANCH  72  75
ATOM     75  S   UNL A   1      42.626  27.538  25.510  1.00  0.00     0.127 S 
ATOM     76  O   UNL A   1      42.327  26.371  24.681  1.00  0.00    -0.237 OA
ATOM     77  O   UNL A   1      42.074  28.797  25.010  1.00  0.00    -0.237 OA
ATOM     78  O   UNL A   1      43.995  27.626  25.997  1.00  0.00    -0.744 OA
ENDBRANCH  72  75
ENDBRANCH  54  68
BRANCH  55  79
ATOM     79  C   UNL A   1      39.561  33.881  36.992  1.00  0.00     0.023 A 
ATOM     80  C   UNL A   1      39.970  35.227  36.924  1.00  0.00     0.012 A 
ATOM     81  C   UNL A   1      38.945  33.408  38.167  1.00  0.00     0.148 A 
ATOM     82  C   UNL A   1      39.797  36.078  38.015  1.00  0.00     0.002 A 
ATOM     83  C   UNL A   1      38.723  34.276  39.230  1.00  0.00     0.091 A 
ATOM     84  F   UNL A   1      38.566  32.123  38.212  1.00  0.00    -0.205 F 
ATOM     85  C   UNL A   1      39.165  35.607  39.163  1.00  0.00     0.022 A 
BRANCH  83  86
ATOM     86  S   UNL A   1      37.803  33.796  40.695  1.00  0.00     0.127 S 
ATOM     87  O   UNL A   1      38.742  32.896  41.358  1.00  0.00    -0.237 OA
ATOM     88  O   UNL A   1      37.608  35.086  41.361  1.00  0.00    -0.237 OA
ATOM     89  O   UNL A   1      36.575  33.180  40.210  1.00  0.00    -0.744 OA
ENDBRANCH  83  86
ENDBRANCH  55  79
BRANCH  67  90
ATOM     90  C   UNL A   1      44.099  28.808  35.413  1.00  0.00     0.023 A 
ATOM     91  C   UNL A   1      45.390  29.352  35.268  1.00  0.00     0.012 A 
ATOM     92  C   UNL A   1      43.894  27.750  36.321  1.00  0.00     0.148 A 
ATOM     93  C   UNL A   1      46.464  28.833  35.990  1.00  0.00     0.002 A 
ATOM     94  C   UNL A   1      44.957  27.272  37.076  1.00  0.00     0.091 A 
ATOM     95  F   UNL A   1      42.660  27.235  36.433  1.00  0.00    -0.205 F 
ATOM     96  C   UNL A   1      46.245  27.803  36.902  1.00  0.00     0.022 A 
BRANCH  94  97
ATOM     97  S   UNL A   1      44.756  26.017  38.345  1.00  0.00     0.127 S 
ATOM     98  O   UNL A   1      46.120  25.888  38.854  1.00  0.00    -0.237 OA
ATOM     99  O   UNL A   1      43.819  26.659  39.267  1.00  0.00    -0.237 OA
ATOM    100  O   UNL A   1      44.233  24.838  37.670  1.00  0.00    -0.744 OA
ENDBRANCH  94  97
ENDBRANCH  67  90
ENDBRANCH  41  42
ENDBRANCH  33  36
ENDBRANCH  31  32
ENDBRANCH   1  31
TORSDOF 17
ENDMDL
MODEL 2
REMARK VINA RESULT:     -12.8      5.916     12.202
REMARK SMILES O=C1OC(c2ccc(Cl)cc2)=N/C1=C/Nc1ccc(O)c(C(=O)NCCCNC(=O)c2ccc(-c3c4nc(c(-c5cccc(S(=O)(=O)[O-])c5F)c5ccc([nH]5)c(-c5cccc(S(=O)(=O)[O-])c5F)c5nc(c(-c6cccc(S(=O)(=O)[O-])c6F)c6ccc3[nH]6)C=C5)C=C4)cc2)c1
REMARK SMILES IDX 26 1 25 2 24 3 22 4 23 5 21 7 16 8 17 9 94 10 18 11 19 12
REMARK SMILES IDX 15 13 14 15 1 16 2 17 3 18 13 19 4 20 12 21 5 22 6 23 11 24
REMARK SMILES IDX 7 25 10 26 8 27 9 28 20 29 27 31 28 32 29 33 30 35 31 36
REMARK SMILES IDX 32 37 93 38 33 39 92 40 34 41 35 42 36 43 86 44 37 45 91 46
REMARK SMILES IDX 85 47 87 48 38 49 90 50 84 51 83 52 39 54 71 55 51 56 70 57
REMARK SMILES IDX 52 58 55 59 69 60 88 61 53 62 54 63 68 65 89 66 56 67 40 68
REMARK SMILES IDX 41 69 49 70 42 71 44 72 50 73 43 74 45 75 46 76 47 77 48 78
REMARK SMILES IDX 72 79 73 80 81 81 74 82 76 83 82 84 75 85 77 86 78 87 79 88
REMARK SMILES IDX 80 89 57 90 58 91 66 92 59 93 61 94 67 95 60 96 62 97 63 98
REMARK SMILES IDX 64 99 65 100
REMARK H PARENT 24 6 15 14 20 30 28 34 87 53 55 64
REMARK Flexibility Score: inf
ROOT
ATOM      1  C   UNL A   1      38.261  19.981  25.082  1.00  0.00     0.042 C 
ENDROOT
BRANCH   1   2
ATOM      2  C   UNL A   1      37.309  21.152  24.838  1.00  0.00     0.118 C 
BRANCH   2   3
ATOM      3  N   UNL A   1      36.443  21.352  25.978  1.00  0.00    -0.352 N 
ATOM      4  C   UNL A   1      35.083  21.306  26.131  1.00  0.00     0.255 C 
ATOM      5  O   UNL A   1      34.670  21.569  27.266  1.00  0.00    -0.269 OA
ATOM      6  H   UNL A   1      36.926  21.562  26.810  1.00  0.00     0.163 HD
BRANCH   4   7
ATOM      7  C   UNL A   1      34.094  20.877  25.091  1.00  0.00     0.083 A 
ATOM      8  C   UNL A   1      32.578  21.761  23.359  1.00  0.00     0.039 A 
ATOM      9  C   UNL A   1      32.115  20.468  23.121  1.00  0.00     0.030 A 
ATOM     10  C   UNL A   1      33.543  21.950  24.354  1.00  0.00     0.043 A 
ATOM     11  C   UNL A   1      32.678  19.385  23.788  1.00  0.00     0.049 A 
ATOM     12  C   UNL A   1      33.683  19.585  24.742  1.00  0.00     0.128 A 
BRANCH   8  13
ATOM     13  N   UNL A   1      32.068  22.874  22.680  1.00  0.00    -0.360 N 
ATOM     14  H   UNL A   1      32.397  23.026  21.764  1.00  0.00     0.166 HD
BRANCH  13  15
ATOM     15  C   UNL A   1      31.155  23.771  23.165  1.00  0.00     0.119 C 
ATOM     16  O   UNL A   1      32.658  25.411  21.113  1.00  0.00    -0.244 OA
ATOM     17  C   UNL A   1      31.742  25.789  21.812  1.00  0.00     0.365 C 
ATOM     18  O   UNL A   1      31.152  27.020  21.816  1.00  0.00    -0.402 OA
ATOM     19  C   UNL A   1      30.987  25.060  22.866  1.00  0.00     0.168 C 
ATOM     20  C   UNL A   1      30.226  26.982  22.800  1.00  0.00     0.231 C 
ATOM     21  N   UNL A   1      30.073  25.885  23.464  1.00  0.00    -0.204 NA
BRANCH  20  22
ATOM     22  C   UNL A   1      29.534  28.240  23.049  1.00  0.00     0.037 A 
ATOM     23  C   UNL A   1      30.250  29.393  23.374  1.00  0.00     0.015 A 
ATOM     24  C   UNL A   1      28.142  28.270  22.916  1.00  0.00     0.015 A 
ATOM     25  C   UNL A   1      29.561  30.594  23.563  1.00  0.00     0.021 A 
ATOM     26  C   UNL A   1      27.456  29.467  23.125  1.00  0.00     0.021 A 
ATOM     27  C   UNL A   1      28.170  30.623  23.443  1.00  0.00     0.041 A 
ATOM     28  Cl  UNL A   1      27.324  32.102  23.681  1.00  0.00    -0.084 Cl
ENDBRANCH  20  22
ENDBRANCH  13  15
ENDBRANCH   8  13
BRANCH  12  29
ATOM     29  O   UNL A   1      34.261  18.464  25.255  1.00  0.00    -0.507 OA
ATOM     30  H   UNL A   1      33.866  18.024  25.981  1.00  0.00     0.293 HD
ENDBRANCH  12  29
ENDBRANCH   4   7
ENDBRANCH   2   3
ENDBRANCH   1   2
BRANCH   1  31
ATOM     31  C   UNL A   1      39.360  20.299  26.086  1.00  0.00     0.118 C 
BRANCH  31  32
ATOM     32  N   UNL A   1      40.394  19.271  26.095  1.00  0.00    -0.352 N 
ATOM     33  C   UNL A   1      41.760  19.399  26.091  1.00  0.00     0.251 C 
ATOM     34  H   UNL A   1      40.062  18.345  26.104  1.00  0.00     0.163 HD
ATOM     35  O   UNL A   1      42.458  18.424  25.828  1.00  0.00    -0.269 OA
BRANCH  33  36
ATOM     36  C   UNL A   1      42.390  20.701  26.398  1.00  0.00     0.039 A 
ATOM     37  C   UNL A   1      42.788  21.525  25.342  1.00  0.00     0.014 A 
ATOM     38  C   UNL A   1      42.613  21.098  27.719  1.00  0.00     0.014 A 
ATOM     39  C   UNL A   1      43.351  22.774  25.612  1.00  0.00     0.010 A 
ATOM     40  C   UNL A   1      43.099  22.373  27.987  1.00  0.00     0.010 A 
ATOM     41  C   UNL A   1      43.474  23.223  26.937  1.00  0.00    -0.014 A 
BRANCH  41  42
ATOM     42  C   UNL A   1      43.957  24.592  27.245  1.00  0.00     0.031 A 
ATOM     43  C   UNL A   1      43.007  25.641  27.752  1.00  0.00     0.074 A 
ATOM     44  C   UNL A   1      45.237  24.913  26.972  1.00  0.00     0.049 A 
ATOM     45  N   UNL A   1      43.233  26.903  28.007  1.00  0.00    -0.248 NA
ATOM     46  C   UNL A   1      41.613  25.223  27.977  1.00  0.00     0.031 C 
ATOM     47  C   UNL A   1      46.236  23.998  26.415  1.00  0.00     0.029 A 
ATOM     48  N   UNL A   1      45.911  26.101  27.100  1.00  0.00    -0.354 N 
ATOM     49  C   UNL A   1      42.009  27.439  28.391  1.00  0.00     0.074 A 
ATOM     50  C   UNL A   1      41.036  26.371  28.301  1.00  0.00     0.031 C 
ATOM     51  C   UNL A   1      47.395  24.656  26.255  1.00  0.00     0.029 A 
ATOM     52  C   UNL A   1      47.212  26.045  26.657  1.00  0.00     0.049 A 
ATOM     53  H   UNL A   1      45.503  26.915  27.472  1.00  0.00     0.167 HD
ATOM     54  C   UNL A   1      41.725  28.697  28.803  1.00  0.00     0.034 A 
ATOM     55  C   UNL A   1      48.148  27.010  26.565  1.00  0.00     0.034 A 
ATOM     56  C   UNL A   1      42.702  29.748  28.903  1.00  0.00     0.049 A 
ATOM     57  C   UNL A   1      47.808  28.401  27.025  1.00  0.00     0.074 A 
ATOM     58  C   UNL A   1      42.536  31.035  29.383  1.00  0.00     0.029 A 
ATOM     59  N   UNL A   1      44.024  29.642  28.496  1.00  0.00    -0.354 N 
ATOM     60  N   UNL A   1      46.685  28.851  27.530  1.00  0.00    -0.248 NA
ATOM     61  C   UNL A   1      48.872  29.410  26.929  1.00  0.00     0.031 C 
ATOM     62  C   UNL A   1      43.746  31.719  29.226  1.00  0.00     0.029 A 
ATOM     63  C   UNL A   1      44.680  30.846  28.689  1.00  0.00     0.049 A 
ATOM     64  H   UNL A   1      44.436  28.829  28.122  1.00  0.00     0.167 HD
ATOM     65  C   UNL A   1      46.916  30.185  27.843  1.00  0.00     0.074 A 
ATOM     66  C   UNL A   1      48.292  30.463  27.489  1.00  0.00     0.031 C 
ATOM     67  C   UNL A   1      46.061  31.099  28.367  1.00  0.00     0.034 A 
BRANCH  54  68
ATOM     68  C   UNL A   1      40.301  28.996  29.204  1.00  0.00     0.023 A 
ATOM     69  C   UNL A   1      39.353  29.334  28.215  1.00  0.00     0.012 A 
ATOM     70  C   UNL A   1      39.892  28.909  30.548  1.00  0.00     0.148 A 
ATOM     71  C   UNL A   1      38.035  29.627  28.563  1.00  0.00     0.002 A 
ATOM     72  C   UNL A   1      38.564  29.152  30.881  1.00  0.00     0.091 A 
ATOM     73  F   UNL A   1      40.808  28.603  31.478  1.00  0.00    -0.205 F 
ATOM     74  C   UNL A   1      37.639  29.527  29.893  1.00  0.00     0.022 A 
BRANCH  72  75
ATOM     75  S   UNL A   1      37.935  28.969  32.554  1.00  0.00     0.127 S 
ATOM     76  O   UNL A   1      38.076  27.529  32.766  1.00  0.00    -0.237 OA
ATOM     77  O   UNL A   1      38.867  29.792  33.324  1.00  0.00    -0.237 OA
ATOM     78  O   UNL A   1      36.566  29.465  32.525  1.00  0.00    -0.744 OA
ENDBRANCH  72  75
ENDBRANCH  54  68
BRANCH  55  79
ATOM     79  C   UNL A   1      49.512  26.675  26.068  1.00  0.00     0.023 A 
ATOM     80  C   UNL A   1      50.359  25.875  26.860  1.00  0.00     0.012 A 
ATOM     81  C   UNL A   1      49.960  27.107  24.804  1.00  0.00     0.148 A 
ATOM     82  C   UNL A   1      51.636  25.536  26.416  1.00  0.00     0.002 A 
ATOM     83  C   UNL A   1      51.212  26.718  24.343  1.00  0.00     0.091 A 
ATOM     84  F   UNL A   1      49.140  27.870  24.068  1.00  0.00    -0.205 F 
ATOM     85  C   UNL A   1      52.060  25.949  25.156  1.00  0.00     0.022 A 
BRANCH  83  86
ATOM     86  S   UNL A   1      51.791  27.090  22.685  1.00  0.00     0.127 S 
ATOM     87  O   UNL A   1      51.989  28.535  22.753  1.00  0.00    -0.237 OA
ATOM     88  O   UNL A   1      53.022  26.301  22.614  1.00  0.00    -0.237 OA
ATOM     89  O   UNL A   1      50.737  26.641  21.785  1.00  0.00    -0.744 OA
ENDBRANCH  83  86
ENDBRANCH  55  79
BRANCH  67  90
ATOM     90  C   UNL A   1      46.593  32.486  28.623  1.00  0.00     0.023 A 
ATOM     91  C   UNL A   1      47.125  32.816  29.885  1.00  0.00     0.012 A 
ATOM     92  C   UNL A   1      46.637  33.438  27.584  1.00  0.00     0.148 A 
ATOM     93  C   UNL A   1      47.665  34.080  30.118  1.00  0.00     0.002 A 
ATOM     94  C   UNL A   1      47.223  34.677  27.808  1.00  0.00     0.091 A 
ATOM     95  F   UNL A   1      46.111  33.110  26.395  1.00  0.00    -0.205 F 
ATOM     96  C   UNL A   1      47.725  35.005  29.078  1.00  0.00     0.022 A 
BRANCH  94  97
ATOM     97  S   UNL A   1      47.436  35.896  26.506  1.00  0.00     0.127 S 
ATOM     98  O   UNL A   1      48.380  36.828  27.123  1.00  0.00    -0.237 OA
ATOM     99  O   UNL A   1      47.996  35.091  25.420  1.00  0.00    -0.237 OA
ATOM    100  O   UNL A   1      46.112  36.441  26.241  1.00  0.00    -0.744 OA
ENDBRANCH  94  97
ENDBRANCH  67  90
ENDBRANCH  41  42
ENDBRANCH  33  36
ENDBRANCH  31  32
ENDBRANCH   1  31
TORSDOF 17
ENDMDL
MODEL 3
REMARK VINA RESULT:     -12.7      5.706     11.828
REMARK SMILES O=C1OC(c2ccc(Cl)cc2)=N/C1=C/Nc1ccc(O)c(C(=O)NCCCNC(=O)c2ccc(-c3c4nc(c(-c5cccc(S(=O)(=O)[O-])c5F)c5ccc([nH]5)c(-c5cccc(S(=O)(=O)[O-])c5F)c5nc(c(-c6cccc(S(=O)(=O)[O-])c6F)c6ccc3[nH]6)C=C5)C=C4)cc2)c1
REMARK SMILES IDX 26 1 25 2 24 3 22 4 23 5 21 7 16 8 17 9 94 10 18 11 19 12
REMARK SMILES IDX 15 13 14 15 1 16 2 17 3 18 13 19 4 20 12 21 5 22 6 23 11 24
REMARK SMILES IDX 7 25 10 26 8 27 9 28 20 29 27 31 28 32 29 33 30 35 31 36
REMARK SMILES IDX 32 37 93 38 33 39 92 40 34 41 35 42 36 43 86 44 37 45 91 46
REMARK SMILES IDX 85 47 87 48 38 49 90 50 84 51 83 52 39 54 71 55 51 56 70 57
REMARK SMILES IDX 52 58 55 59 69 60 88 61 53 62 54 63 68 65 89 66 56 67 40 68
REMARK SMILES IDX 41 69 49 70 42 71 44 72 50 73 43 74 45 75 46 76 47 77 48 78
REMARK SMILES IDX 72 79 73 80 81 81 74 82 76 83 82 84 75 85 77 86 78 87 79 88
REMARK SMILES IDX 80 89 57 90 58 91 66 92 59 93 61 94 67 95 60 96 62 97 63 98
REMARK SMILES IDX 64 99 65 100
REMARK H PARENT 24 6 15 14 20 30 28 34 87 53 55 64
REMARK Flexibility Score: inf
ROOT
ATOM      1  C   UNL A   1      37.868  20.004  24.995  1.00  0.00     0.042 C 
ENDROOT
BRANCH   1   2
ATOM      2  C   UNL A   1      36.810  21.090  24.794  1.00  0.00     0.118 C 
BRANCH   2   3
ATOM      3  N   UNL A   1      35.849  21.071  25.875  1.00  0.00    -0.352 N 
ATOM      4  C   UNL A   1      34.480  21.048  25.900  1.00  0.00     0.255 C 
ATOM      5  O   UNL A   1      33.972  21.075  27.026  1.00  0.00    -0.269 OA
ATOM      6  H   UNL A   1      36.259  21.076  26.769  1.00  0.00     0.163 HD
BRANCH   4   7
ATOM      7  C   UNL A   1      33.580  20.895  24.712  1.00  0.00     0.083 A 
ATOM      8  C   UNL A   1      32.176  22.187  23.149  1.00  0.00     0.039 A 
ATOM      9  C   UNL A   1      31.761  20.997  22.556  1.00  0.00     0.030 A 
ATOM     10  C   UNL A   1      33.061  22.119  24.231  1.00  0.00     0.043 A 
ATOM     11  C   UNL A   1      32.298  19.780  22.968  1.00  0.00     0.049 A 
ATOM     12  C   UNL A   1      33.225  19.733  24.015  1.00  0.00     0.128 A 
BRANCH   8  13
ATOM     13  N   UNL A   1      31.693  23.435  22.738  1.00  0.00    -0.360 N 
ATOM     14  H   UNL A   1      31.538  23.557  21.773  1.00  0.00     0.166 HD
BRANCH  13  15
ATOM     15  C   UNL A   1      31.414  24.503  23.548  1.00  0.00     0.119 C 
ATOM     16  O   UNL A   1      34.259  25.064  22.680  1.00  0.00    -0.244 OA
ATOM     17  C   UNL A   1      33.579  25.746  23.417  1.00  0.00     0.365 C 
ATOM     18  O   UNL A   1      33.916  26.935  23.996  1.00  0.00    -0.402 OA
ATOM     19  C   UNL A   1      32.198  25.516  23.921  1.00  0.00     0.168 C 
ATOM     20  C   UNL A   1      32.864  27.280  24.772  1.00  0.00     0.231 C 
ATOM     21  N   UNL A   1      31.830  26.505  24.792  1.00  0.00    -0.204 NA
BRANCH  20  22
ATOM     22  C   UNL A   1      33.050  28.484  25.570  1.00  0.00     0.037 A 
ATOM     23  C   UNL A   1      32.081  29.489  25.578  1.00  0.00     0.015 A 
ATOM     24  C   UNL A   1      34.203  28.589  26.356  1.00  0.00     0.015 A 
ATOM     25  C   UNL A   1      32.269  30.611  26.390  1.00  0.00     0.021 A 
ATOM     26  C   UNL A   1      34.395  29.720  27.149  1.00  0.00     0.021 A 
ATOM     27  C   UNL A   1      33.424  30.723  27.165  1.00  0.00     0.041 A 
ATOM     28  Cl  UNL A   1      33.654  32.109  28.158  1.00  0.00    -0.084 Cl
ENDBRANCH  20  22
ENDBRANCH  13  15
ENDBRANCH   8  13
BRANCH  12  29
ATOM     29  O   UNL A   1      33.789  18.521  24.270  1.00  0.00    -0.507 OA
ATOM     30  H   UNL A   1      34.543  18.462  24.823  1.00  0.00     0.293 HD
ENDBRANCH  12  29
ENDBRANCH   4   7
ENDBRANCH   2   3
ENDBRANCH   1   2
BRANCH   1  31
ATOM     31  C   UNL A   1      39.074  20.482  25.794  1.00  0.00     0.118 C 
BRANCH  31  32
ATOM     32  N   UNL A   1      40.059  19.420  25.966  1.00  0.00    -0.352 N 
ATOM     33  C   UNL A   1      41.421  19.500  26.103  1.00  0.00     0.251 C 
ATOM     34  H   UNL A   1      39.690  18.508  25.988  1.00  0.00     0.163 HD
ATOM     35  O   UNL A   1      42.103  18.487  25.967  1.00  0.00    -0.269 OA
BRANCH  33  36
ATOM     36  C   UNL A   1      42.068  20.794  26.407  1.00  0.00     0.039 A 
ATOM     37  C   UNL A   1      42.362  21.666  25.357  1.00  0.00     0.014 A 
ATOM     38  C   UNL A   1      42.408  21.136  27.719  1.00  0.00     0.014 A 
ATOM     39  C   UNL A   1      42.940  22.908  25.629  1.00  0.00     0.010 A 
ATOM     40  C   UNL A   1      42.909  22.403  27.997  1.00  0.00     0.010 A 
ATOM     41  C   UNL A   1      43.181  23.301  26.956  1.00  0.00    -0.014 A 
BRANCH  41  42
ATOM     42  C   UNL A   1      43.681  24.661  27.278  1.00  0.00     0.031 A 
ATOM     43  C   UNL A   1      42.742  25.719  27.786  1.00  0.00     0.074 A 
ATOM     44  C   UNL A   1      44.968  24.965  27.016  1.00  0.00     0.049 A 
ATOM     45  N   UNL A   1      42.985  26.976  28.052  1.00  0.00    -0.248 NA
ATOM     46  C   UNL A   1      41.342  25.319  27.998  1.00  0.00     0.031 C 
ATOM     47  C   UNL A   1      45.957  24.040  26.458  1.00  0.00     0.029 A 
ATOM     48  N   UNL A   1      45.657  26.143  27.158  1.00  0.00    -0.354 N 
ATOM     49  C   UNL A   1      41.766  27.526  28.432  1.00  0.00     0.074 A 
ATOM     50  C   UNL A   1      40.779  26.473  28.328  1.00  0.00     0.031 C 
ATOM     51  C   UNL A   1      47.126  24.683  26.311  1.00  0.00     0.029 A 
ATOM     52  C   UNL A   1      46.960  26.072  26.723  1.00  0.00     0.049 A 
ATOM     53  H   UNL A   1      45.259  26.960  27.534  1.00  0.00     0.167 HD
ATOM     54  C   UNL A   1      41.497  28.785  28.852  1.00  0.00     0.034 A 
ATOM     55  C   UNL A   1      47.912  27.023  26.646  1.00  0.00     0.034 A 
ATOM     56  C   UNL A   1      42.489  29.821  28.967  1.00  0.00     0.049 A 
ATOM     57  C   UNL A   1      47.588  28.415  27.114  1.00  0.00     0.074 A 
ATOM     58  C   UNL A   1      42.337  31.106  29.456  1.00  0.00     0.029 A 
ATOM     59  N   UNL A   1      43.812  29.699  28.568  1.00  0.00    -0.354 N 
ATOM     60  N   UNL A   1      46.468  28.877  27.615  1.00  0.00    -0.248 NA
ATOM     61  C   UNL A   1      48.667  29.410  27.034  1.00  0.00     0.031 C 
ATOM     62  C   UNL A   1      43.558  31.775  29.313  1.00  0.00     0.029 A 
ATOM     63  C   UNL A   1      44.483  30.892  28.776  1.00  0.00     0.049 A 
ATOM     64  H   UNL A   1      44.214  28.883  28.192  1.00  0.00     0.167 HD
ATOM     65  C   UNL A   1      46.715  30.206  27.940  1.00  0.00     0.074 A 
ATOM     66  C   UNL A   1      48.098  30.467  27.598  1.00  0.00     0.031 C 
ATOM     67  C   UNL A   1      45.870  31.128  28.466  1.00  0.00     0.034 A 
BRANCH  54  68
ATOM     68  C   UNL A   1      40.075  29.101  29.245  1.00  0.00     0.023 A 
ATOM     69  C   UNL A   1      39.119  29.382  28.247  1.00  0.00     0.012 A 
ATOM     70  C   UNL A   1      39.675  29.086  30.596  1.00  0.00     0.148 A 
ATOM     71  C   UNL A   1      37.803  29.690  28.586  1.00  0.00     0.002 A 
ATOM     72  C   UNL A   1      38.349  29.343  30.924  1.00  0.00     0.091 A 
ATOM     73  F   UNL A   1      40.598  28.834  31.534  1.00  0.00    -0.205 F 
ATOM     74  C   UNL A   1      37.416  29.661  29.923  1.00  0.00     0.022 A 
BRANCH  72  75
ATOM     75  S   UNL A   1      37.730  29.250  32.608  1.00  0.00     0.127 S 
ATOM     76  O   UNL A   1      36.395  29.829  32.464  1.00  0.00    -0.237 OA
ATOM     77  O   UNL A   1      37.745  27.809  32.860  1.00  0.00    -0.237 OA
ATOM     78  O   UNL A   1      38.662  30.018  33.421  1.00  0.00    -0.744 OA
ENDBRANCH  72  75
ENDBRANCH  54  68
BRANCH  55  79
ATOM     79  C   UNL A   1      49.274  26.673  26.155  1.00  0.00     0.023 A 
ATOM     80  C   UNL A   1      50.103  25.854  26.947  1.00  0.00     0.012 A 
ATOM     81  C   UNL A   1      49.736  27.108  24.898  1.00  0.00     0.148 A 
ATOM     82  C   UNL A   1      51.379  25.500  26.509  1.00  0.00     0.002 A 
ATOM     83  C   UNL A   1      50.986  26.705  24.443  1.00  0.00     0.091 A 
ATOM     84  F   UNL A   1      48.933  27.890  24.163  1.00  0.00    -0.205 F 
ATOM     85  C   UNL A   1      51.817  25.917  25.255  1.00  0.00     0.022 A 
BRANCH  83  86
ATOM     86  S   UNL A   1      51.582  27.082  22.792  1.00  0.00     0.127 S 
ATOM     87  O   UNL A   1      50.471  26.630  21.961  1.00  0.00    -0.237 OA
ATOM     88  O   UNL A   1      51.751  28.535  22.859  1.00  0.00    -0.237 OA
ATOM     89  O   UNL A   1      52.826  26.341  22.638  1.00  0.00    -0.744 OA
ENDBRANCH  83  86
ENDBRANCH  55  79
BRANCH  67  90
ATOM     90  C   UNL A   1      46.420  32.505  28.736  1.00  0.00     0.023 A 
ATOM     91  C   UNL A   1      46.955  32.815  30.002  1.00  0.00     0.012 A 
ATOM     92  C   UNL A   1      46.479  33.466  27.707  1.00  0.00     0.148 A 
ATOM     93  C   UNL A   1      47.510  34.070  30.249  1.00  0.00     0.002 A 
ATOM     94  C   UNL A   1      47.081  34.695  27.944  1.00  0.00     0.091 A 
ATOM     95  F   UNL A   1      45.950  33.158  26.513  1.00  0.00    -0.205 F 
ATOM     96  C   UNL A   1      47.585  35.004  29.218  1.00  0.00     0.022 A 
BRANCH  94  97
ATOM     97  S   UNL A   1      47.313  35.924  26.655  1.00  0.00     0.127 S 
ATOM     98  O   UNL A   1      45.931  36.261  26.313  1.00  0.00    -0.237 OA
ATOM     99  O   UNL A   1      48.040  36.978  27.362  1.00  0.00    -0.237 OA
ATOM    100  O   UNL A   1      48.069  35.266  25.599  1.00  0.00    -0.744 OA
ENDBRANCH  94  97
ENDBRANCH  67  90
ENDBRANCH  41  42
ENDBRANCH  33  36
ENDBRANCH  31  32
ENDBRANCH   1  31
TORSDOF 17
ENDMDL
