MODEL 1
REMARK VINA RESULT:     -12.6      0.000      0.000
REMARK SMILES COc1cc(Cl)c2c(c1)C=C(C(=O)NCCCNC(=O)c1ccc(-c3c4nc(c(-c5cccc(S(=O)(=O)[O-])c5F)c5ccc([nH]5)c(-c5cccc(S(=O)(=O)[O-])c5F)c5nc(c(-c6cccc(S(=O)(=O)[O-])c6F)c6ccc3[nH]6)C=C5)C=C4)cc1)[C@@H](C(F)(F)F)O2
REMARK SMILES IDX 17 1 16 2 15 3 14 4 12 5 13 6 11 8 3 9 4 10 9 11 5 12 8 13
REMARK SMILES IDX 6 14 7 15 10 16 89 17 84 18 2 19 1 20 85 21 86 22 87 23
REMARK SMILES IDX 88 24 18 25 19 26 20 28 21 29 22 30 83 31 23 32 82 33 24 34
REMARK SMILES IDX 25 35 26 36 76 37 27 38 81 39 75 40 77 41 28 42 80 43 74 44
REMARK SMILES IDX 73 45 29 47 61 48 41 49 60 50 42 51 45 52 59 53 78 54 43 55
REMARK SMILES IDX 44 56 58 58 79 59 46 60 30 61 31 62 39 63 32 64 34 65 40 66
REMARK SMILES IDX 33 67 35 68 36 69 37 70 38 71 62 72 63 73 71 74 64 75 66 76
REMARK SMILES IDX 72 77 65 78 67 79 68 80 69 81 70 82 47 83 48 84 56 85 49 86
REMARK SMILES IDX 51 87 57 88 50 89 52 90 53 91 54 92 55 93
REMARK H PARENT 14 7 18 27 77 46 45 57
REMARK Flexibility Score: inf
ROOT
ATOM      1  C   UNL A   1      32.595  32.408  27.266  1.00  0.00     0.118 C 
ENDROOT
BRANCH   1   2
ATOM      2  C   UNL A   1      31.367  31.951  26.488  1.00  0.00     0.042 C 
BRANCH   2   3
ATOM      3  C   UNL A   1      31.608  30.636  25.759  1.00  0.00     0.118 C 
BRANCH   3   4
ATOM      4  N   UNL A   1      30.762  30.500  24.584  1.00  0.00    -0.352 N 
ATOM      5  C   UNL A   1      30.396  29.514  23.734  1.00  0.00     0.251 C 
ATOM      6  O   UNL A   1      29.601  29.849  22.850  1.00  0.00    -0.270 OA
ATOM      7  H   UNL A   1      30.340  31.357  24.343  1.00  0.00     0.163 HD
BRANCH   5   8
ATOM      8  C   UNL A   1      30.864  28.099  23.807  1.00  0.00     0.067 C 
ATOM      9  C   UNL A   1      30.865  23.912  26.215  1.00  0.00     0.121 A 
ATOM     10  C   UNL A   1      31.602  23.310  25.195  1.00  0.00     0.070 A 
ATOM     11  C   UNL A   1      30.417  25.227  26.072  1.00  0.00     0.058 A 
ATOM     12  C   UNL A   1      31.933  24.043  24.056  1.00  0.00     0.087 A 
ATOM     13  C   UNL A   1      30.760  25.969  24.939  1.00  0.00     0.022 A 
ATOM     14  Cl  UNL A   1      32.868  23.275  22.826  1.00  0.00    -0.080 Cl
ATOM     15  C   UNL A   1      31.531  25.377  23.936  1.00  0.00     0.146 A 
ATOM     16  C   UNL A   1      30.311  27.348  24.778  1.00  0.00     0.025 C 
ATOM     17  O   UNL A   1      31.872  26.061  22.802  1.00  0.00    -0.474 OA
ATOM     18  C   UNL A   1      31.913  27.508  22.911  1.00  0.00     0.314 C 
BRANCH   9  19
ATOM     19  O   UNL A   1      30.491  23.269  27.363  1.00  0.00    -0.497 OA
ATOM     20  C   UNL A   1      29.239  22.593  27.260  1.00  0.00     0.278 C 
ENDBRANCH   9  19
BRANCH  18  21
ATOM     21  C   UNL A   1      33.337  27.951  23.304  1.00  0.00     0.429 C 
ATOM     22  F   UNL A   1      34.255  27.041  22.896  1.00  0.00    -0.167 F 
ATOM     23  F   UNL A   1      33.691  29.133  22.743  1.00  0.00    -0.167 F 
ATOM     24  F   UNL A   1      33.483  28.102  24.642  1.00  0.00    -0.167 F 
ENDBRANCH  18  21
ENDBRANCH   5   8
ENDBRANCH   3   4
ENDBRANCH   2   3
ENDBRANCH   1   2
BRANCH   1  25
ATOM     25  N   UNL A   1      32.518  33.829  27.594  1.00  0.00    -0.352 N 
ATOM     26  C   UNL A   1      33.163  34.531  28.580  1.00  0.00     0.251 C 
ATOM     27  H   UNL A   1      31.917  34.361  27.023  1.00  0.00     0.163 HD
ATOM     28  O   UNL A   1      32.756  35.644  28.909  1.00  0.00    -0.269 OA
BRANCH  26  29
ATOM     29  C   UNL A   1      34.348  33.947  29.234  1.00  0.00     0.039 A 
ATOM     30  C   UNL A   1      35.625  34.256  28.758  1.00  0.00     0.014 A 
ATOM     31  C   UNL A   1      34.183  33.066  30.306  1.00  0.00     0.014 A 
ATOM     32  C   UNL A   1      36.744  33.717  29.396  1.00  0.00     0.010 A 
ATOM     33  C   UNL A   1      35.296  32.593  30.986  1.00  0.00     0.010 A 
ATOM     34  C   UNL A   1      36.583  32.897  30.524  1.00  0.00    -0.014 A 
BRANCH  34  35
ATOM     35  C   UNL A   1      37.744  32.300  31.220  1.00  0.00     0.031 A 
ATOM     36  C   UNL A   1      38.469  31.147  30.585  1.00  0.00     0.074 A 
ATOM     37  C   UNL A   1      38.078  32.727  32.452  1.00  0.00     0.049 A 
ATOM     38  N   UNL A   1      39.449  30.430  31.067  1.00  0.00    -0.248 NA
ATOM     39  C   UNL A   1      38.018  30.727  29.247  1.00  0.00     0.031 C 
ATOM     40  C   UNL A   1      37.398  33.790  33.193  1.00  0.00     0.029 A 
ATOM     41  N   UNL A   1      39.057  32.296  33.309  1.00  0.00    -0.354 N 
ATOM     42  C   UNL A   1      39.705  29.456  30.111  1.00  0.00     0.074 A 
ATOM     43  C   UNL A   1      38.763  29.653  29.033  1.00  0.00     0.031 C 
ATOM     44  C   UNL A   1      37.982  33.929  34.395  1.00  0.00     0.029 A 
ATOM     45  C   UNL A   1      39.061  32.954  34.516  1.00  0.00     0.049 A 
ATOM     46  H   UNL A   1      39.698  31.584  33.082  1.00  0.00     0.167 HD
ATOM     47  C   UNL A   1      40.662  28.502  30.117  1.00  0.00     0.034 A 
ATOM     48  C   UNL A   1      39.846  32.786  35.599  1.00  0.00     0.034 A 
ATOM     49  C   UNL A   1      41.636  28.350  31.159  1.00  0.00     0.049 A 
ATOM     50  C   UNL A   1      40.935  31.752  35.560  1.00  0.00     0.074 A 
ATOM     51  C   UNL A   1      42.707  27.477  31.212  1.00  0.00     0.029 A 
ATOM     52  N   UNL A   1      41.658  29.088  32.331  1.00  0.00    -0.354 N 
ATOM     53  N   UNL A   1      41.250  30.927  34.591  1.00  0.00    -0.248 NA
ATOM     54  C   UNL A   1      41.797  31.643  36.746  1.00  0.00     0.031 C 
ATOM     55  C   UNL A   1      43.374  27.683  32.422  1.00  0.00     0.029 A 
ATOM     56  C   UNL A   1      42.723  28.690  33.117  1.00  0.00     0.049 A 
ATOM     57  H   UNL A   1      41.011  29.792  32.568  1.00  0.00     0.167 HD
ATOM     58  C   UNL A   1      42.356  30.217  35.037  1.00  0.00     0.074 A 
ATOM     59  C   UNL A   1      42.667  30.715  36.362  1.00  0.00     0.031 C 
ATOM     60  C   UNL A   1      43.045  29.233  34.411  1.00  0.00     0.034 A 
BRANCH  47  61
ATOM     61  C   UNL A   1      40.754  27.591  28.926  1.00  0.00     0.023 A 
ATOM     62  C   UNL A   1      39.824  26.541  28.792  1.00  0.00     0.012 A 
ATOM     63  C   UNL A   1      41.700  27.819  27.909  1.00  0.00     0.148 A 
ATOM     64  C   UNL A   1      39.840  25.722  27.665  1.00  0.00     0.002 A 
ATOM     65  C   UNL A   1      41.689  27.017  26.774  1.00  0.00     0.091 A 
ATOM     66  F   UNL A   1      42.585  28.813  28.072  1.00  0.00    -0.205 F 
ATOM     67  C   UNL A   1      40.764  25.966  26.654  1.00  0.00     0.022 A 
BRANCH  65  68
ATOM     68  S   UNL A   1      42.801  27.277  25.388  1.00  0.00     0.127 S 
ATOM     69  O   UNL A   1      42.659  26.019  24.657  1.00  0.00    -0.237 OA
ATOM     70  O   UNL A   1      42.201  28.437  24.729  1.00  0.00    -0.237 OA
ATOM     71  O   UNL A   1      44.118  27.511  25.964  1.00  0.00    -0.744 OA
ENDBRANCH  65  68
ENDBRANCH  47  61
BRANCH  48  72
ATOM     72  C   UNL A   1      39.668  33.684  36.770  1.00  0.00     0.023 A 
ATOM     73  C   UNL A   1      40.058  35.032  36.663  1.00  0.00     0.012 A 
ATOM     74  C   UNL A   1      39.044  33.236  37.950  1.00  0.00     0.148 A 
ATOM     75  C   UNL A   1      39.836  35.920  37.715  1.00  0.00     0.002 A 
ATOM     76  C   UNL A   1      38.793  34.134  38.980  1.00  0.00     0.091 A 
ATOM     77  F   UNL A   1      38.680  31.949  38.022  1.00  0.00    -0.205 F 
ATOM     78  C   UNL A   1      39.197  35.475  38.869  1.00  0.00     0.022 A 
BRANCH  76  79
ATOM     79  S   UNL A   1      37.887  33.684  40.464  1.00  0.00     0.127 S 
ATOM     80  O   UNL A   1      38.782  32.705  41.076  1.00  0.00    -0.237 OA
ATOM     81  O   UNL A   1      37.805  34.967  41.162  1.00  0.00    -0.237 OA
ATOM     82  O   UNL A   1      36.609  33.158  40.006  1.00  0.00    -0.744 OA
ENDBRANCH  76  79
ENDBRANCH  48  72
BRANCH  60  83
ATOM     83  C   UNL A   1      44.216  28.620  35.125  1.00  0.00     0.023 A 
ATOM     84  C   UNL A   1      45.497  29.178  34.953  1.00  0.00     0.012 A 
ATOM     85  C   UNL A   1      44.021  27.596  36.073  1.00  0.00     0.148 A 
ATOM     86  C   UNL A   1      46.571  28.723  35.714  1.00  0.00     0.002 A 
ATOM     87  C   UNL A   1      45.090  27.173  36.852  1.00  0.00     0.091 A 
ATOM     88  F   UNL A   1      42.792  27.080  36.209  1.00  0.00    -0.205 F 
ATOM     89  C   UNL A   1      46.365  27.732  36.671  1.00  0.00     0.022 A 
BRANCH  87  90
ATOM     90  S   UNL A   1      44.908  25.962  38.167  1.00  0.00     0.127 S 
ATOM     91  O   UNL A   1      46.280  25.853  38.662  1.00  0.00    -0.237 OA
ATOM     92  O   UNL A   1      43.981  26.631  39.078  1.00  0.00    -0.237 OA
ATOM     93  O   UNL A   1      44.381  24.758  37.538  1.00  0.00    -0.744 OA
ENDBRANCH  87  90
ENDBRANCH  60  83
ENDBRANCH  34  35
ENDBRANCH  26  29
ENDBRANCH   1  25
TORSDOF 15
ENDMDL
MODEL 2
REMARK VINA RESULT:     -12.6      1.430      1.717
REMARK SMILES COc1cc(Cl)c2c(c1)C=C(C(=O)NCCCNC(=O)c1ccc(-c3c4nc(c(-c5cccc(S(=O)(=O)[O-])c5F)c5ccc([nH]5)c(-c5cccc(S(=O)(=O)[O-])c5F)c5nc(c(-c6cccc(S(=O)(=O)[O-])c6F)c6ccc3[nH]6)C=C5)C=C4)cc1)[C@@H](C(F)(F)F)O2
REMARK SMILES IDX 17 1 16 2 15 3 14 4 12 5 13 6 11 8 3 9 4 10 9 11 5 12 8 13
REMARK SMILES IDX 6 14 7 15 10 16 89 17 84 18 2 19 1 20 85 21 86 22 87 23
REMARK SMILES IDX 88 24 18 25 19 26 20 28 21 29 22 30 83 31 23 32 82 33 24 34
REMARK SMILES IDX 25 35 26 36 76 37 27 38 81 39 75 40 77 41 28 42 80 43 74 44
REMARK SMILES IDX 73 45 29 47 61 48 41 49 60 50 42 51 45 52 59 53 78 54 43 55
REMARK SMILES IDX 44 56 58 58 79 59 46 60 30 61 31 62 39 63 32 64 34 65 40 66
REMARK SMILES IDX 33 67 35 68 36 69 37 70 38 71 62 72 63 73 71 74 64 75 66 76
REMARK SMILES IDX 72 77 65 78 67 79 68 80 69 81 70 82 47 83 48 84 56 85 49 86
REMARK SMILES IDX 51 87 57 88 50 89 52 90 53 91 54 92 55 93
REMARK H PARENT 14 7 18 27 77 46 45 57
REMARK Flexibility Score: inf
ROOT
ATOM      1  C   UNL A   1      32.717  32.475  27.164  1.00  0.00     0.118 C 
ENDROOT
BRANCH   1   2
ATOM      2  C   UNL A   1      31.442  31.958  26.508  1.00  0.00     0.042 C 
BRANCH   2   3
ATOM      3  C   UNL A   1      31.474  30.449  26.305  1.00  0.00     0.118 C 
BRANCH   3   4
ATOM      4  N   UNL A   1      32.236  30.074  25.124  1.00  0.00    -0.352 N 
ATOM      5  C   UNL A   1      32.630  28.929  24.521  1.00  0.00     0.251 C 
ATOM      6  O   UNL A   1      33.269  29.080  23.474  1.00  0.00    -0.270 OA
ATOM      7  H   UNL A   1      32.549  30.867  24.630  1.00  0.00     0.163 HD
BRANCH   5   8
ATOM      8  C   UNL A   1      32.337  27.553  25.014  1.00  0.00     0.067 C 
ATOM      9  C   UNL A   1      34.050  23.260  26.415  1.00  0.00     0.121 A 
ATOM     10  C   UNL A   1      32.762  22.835  26.738  1.00  0.00     0.070 A 
ATOM     11  C   UNL A   1      34.271  24.574  26.000  1.00  0.00     0.058 A 
ATOM     12  C   UNL A   1      31.688  23.713  26.593  1.00  0.00     0.087 A 
ATOM     13  C   UNL A   1      33.195  25.452  25.839  1.00  0.00     0.022 A 
ATOM     14  Cl  UNL A   1      30.103  23.146  26.975  1.00  0.00    -0.080 Cl
ATOM     15  C   UNL A   1      31.900  25.014  26.125  1.00  0.00     0.146 A 
ATOM     16  C   UNL A   1      33.405  26.826  25.394  1.00  0.00     0.025 C 
ATOM     17  O   UNL A   1      30.822  25.845  26.000  1.00  0.00    -0.474 OA
ATOM     18  C   UNL A   1      30.965  26.947  25.065  1.00  0.00     0.314 C 
BRANCH   9  19
ATOM     19  O   UNL A   1      35.162  22.469  26.532  1.00  0.00    -0.497 OA
ATOM     20  C   UNL A   1      35.475  21.744  25.344  1.00  0.00     0.278 C 
ENDBRANCH   9  19
BRANCH  18  21
ATOM     21  C   UNL A   1      30.467  26.506  23.674  1.00  0.00     0.429 C 
ATOM     22  F   UNL A   1      29.941  27.555  22.996  1.00  0.00    -0.167 F 
ATOM     23  F   UNL A   1      31.458  26.005  22.898  1.00  0.00    -0.167 F 
ATOM     24  F   UNL A   1      29.512  25.549  23.744  1.00  0.00    -0.167 F 
ENDBRANCH  18  21
ENDBRANCH   5   8
ENDBRANCH   3   4
ENDBRANCH   2   3
ENDBRANCH   1   2
BRANCH   1  25
ATOM     25  N   UNL A   1      32.576  33.870  27.574  1.00  0.00    -0.352 N 
ATOM     26  C   UNL A   1      33.163  34.533  28.622  1.00  0.00     0.251 C 
ATOM     27  H   UNL A   1      31.974  34.414  27.015  1.00  0.00     0.163 HD
ATOM     28  O   UNL A   1      32.704  35.608  29.003  1.00  0.00    -0.269 OA
BRANCH  26  29
ATOM     29  C   UNL A   1      34.347  33.952  29.279  1.00  0.00     0.039 A 
ATOM     30  C   UNL A   1      35.626  34.344  28.876  1.00  0.00     0.014 A 
ATOM     31  C   UNL A   1      34.181  32.992  30.281  1.00  0.00     0.014 A 
ATOM     32  C   UNL A   1      36.743  33.807  29.519  1.00  0.00     0.010 A 
ATOM     33  C   UNL A   1      35.288  32.517  30.970  1.00  0.00     0.010 A 
ATOM     34  C   UNL A   1      36.577  32.904  30.581  1.00  0.00    -0.014 A 
BRANCH  34  35
ATOM     35  C   UNL A   1      37.736  32.307  31.279  1.00  0.00     0.031 A 
ATOM     36  C   UNL A   1      38.463  31.154  30.645  1.00  0.00     0.074 A 
ATOM     37  C   UNL A   1      38.067  32.732  32.512  1.00  0.00     0.049 A 
ATOM     38  N   UNL A   1      39.441  30.436  31.128  1.00  0.00    -0.248 NA
ATOM     39  C   UNL A   1      38.014  30.735  29.305  1.00  0.00     0.031 C 
ATOM     40  C   UNL A   1      37.385  33.795  33.253  1.00  0.00     0.029 A 
ATOM     41  N   UNL A   1      39.045  32.301  33.371  1.00  0.00    -0.354 N 
ATOM     42  C   UNL A   1      39.699  29.463  30.172  1.00  0.00     0.074 A 
ATOM     43  C   UNL A   1      38.760  29.660  29.092  1.00  0.00     0.031 C 
ATOM     44  C   UNL A   1      37.967  33.933  34.455  1.00  0.00     0.029 A 
ATOM     45  C   UNL A   1      39.046  32.958  34.578  1.00  0.00     0.049 A 
ATOM     46  H   UNL A   1      39.686  31.589  33.144  1.00  0.00     0.167 HD
ATOM     47  C   UNL A   1      40.657  28.509  30.179  1.00  0.00     0.034 A 
ATOM     48  C   UNL A   1      39.828  32.790  35.662  1.00  0.00     0.034 A 
ATOM     49  C   UNL A   1      41.628  28.357  31.224  1.00  0.00     0.049 A 
ATOM     50  C   UNL A   1      40.918  31.756  35.626  1.00  0.00     0.074 A 
ATOM     51  C   UNL A   1      42.699  27.483  31.278  1.00  0.00     0.029 A 
ATOM     52  N   UNL A   1      41.648  29.094  32.396  1.00  0.00    -0.354 N 
ATOM     53  N   UNL A   1      41.234  30.931  34.657  1.00  0.00    -0.248 NA
ATOM     54  C   UNL A   1      41.777  31.645  36.813  1.00  0.00     0.031 C 
ATOM     55  C   UNL A   1      43.364  27.688  32.489  1.00  0.00     0.029 A 
ATOM     56  C   UNL A   1      42.711  28.695  33.184  1.00  0.00     0.049 A 
ATOM     57  H   UNL A   1      41.000  29.797  32.633  1.00  0.00     0.167 HD
ATOM     58  C   UNL A   1      42.340  30.221  35.105  1.00  0.00     0.074 A 
ATOM     59  C   UNL A   1      42.648  30.718  36.430  1.00  0.00     0.031 C 
ATOM     60  C   UNL A   1      43.030  29.237  34.479  1.00  0.00     0.034 A 
BRANCH  47  61
ATOM     61  C   UNL A   1      40.751  27.599  28.988  1.00  0.00     0.023 A 
ATOM     62  C   UNL A   1      39.841  26.529  28.868  1.00  0.00     0.012 A 
ATOM     63  C   UNL A   1      41.678  27.846  27.958  1.00  0.00     0.148 A 
ATOM     64  C   UNL A   1      39.858  25.710  27.742  1.00  0.00     0.002 A 
ATOM     65  C   UNL A   1      41.669  27.042  26.824  1.00  0.00     0.091 A 
ATOM     66  F   UNL A   1      42.544  28.857  28.108  1.00  0.00    -0.205 F 
ATOM     67  C   UNL A   1      40.764  25.973  26.717  1.00  0.00     0.022 A 
BRANCH  65  68
ATOM     68  S   UNL A   1      42.756  27.324  25.423  1.00  0.00     0.127 S 
ATOM     69  O   UNL A   1      42.582  26.086  24.663  1.00  0.00    -0.237 OA
ATOM     70  O   UNL A   1      42.157  28.508  24.806  1.00  0.00    -0.237 OA
ATOM     71  O   UNL A   1      44.086  27.527  25.977  1.00  0.00    -0.744 OA
ENDBRANCH  65  68
ENDBRANCH  47  61
BRANCH  48  72
ATOM     72  C   UNL A   1      39.648  33.687  36.834  1.00  0.00     0.023 A 
ATOM     73  C   UNL A   1      40.032  35.037  36.726  1.00  0.00     0.012 A 
ATOM     74  C   UNL A   1      39.029  33.236  38.015  1.00  0.00     0.148 A 
ATOM     75  C   UNL A   1      39.807  35.924  37.779  1.00  0.00     0.002 A 
ATOM     76  C   UNL A   1      38.775  34.133  39.046  1.00  0.00     0.091 A 
ATOM     77  F   UNL A   1      38.671  31.947  38.088  1.00  0.00    -0.205 F 
ATOM     78  C   UNL A   1      39.171  35.475  38.933  1.00  0.00     0.022 A 
BRANCH  76  79
ATOM     79  S   UNL A   1      37.873  33.678  40.531  1.00  0.00     0.127 S 
ATOM     80  O   UNL A   1      38.762  32.684  41.128  1.00  0.00    -0.237 OA
ATOM     81  O   UNL A   1      37.810  34.955  41.242  1.00  0.00    -0.237 OA
ATOM     82  O   UNL A   1      36.587  33.170  40.076  1.00  0.00    -0.744 OA
ENDBRANCH  76  79
ENDBRANCH  48  72
BRANCH  60  83
ATOM     83  C   UNL A   1      44.200  28.624  35.195  1.00  0.00     0.023 A 
ATOM     84  C   UNL A   1      45.481  29.178  35.021  1.00  0.00     0.012 A 
ATOM     85  C   UNL A   1      44.002  27.603  36.146  1.00  0.00     0.148 A 
ATOM     86  C   UNL A   1      46.555  28.723  35.784  1.00  0.00     0.002 A 
ATOM     87  C   UNL A   1      45.070  27.180  36.927  1.00  0.00     0.091 A 
ATOM     88  F   UNL A   1      42.772  27.090  36.284  1.00  0.00    -0.205 F 
ATOM     89  C   UNL A   1      46.347  27.735  36.744  1.00  0.00     0.022 A 
BRANCH  87  90
ATOM     90  S   UNL A   1      44.885  25.974  38.246  1.00  0.00     0.127 S 
ATOM     91  O   UNL A   1      46.252  25.879  38.755  1.00  0.00    -0.237 OA
ATOM     92  O   UNL A   1      43.943  26.640  39.144  1.00  0.00    -0.237 OA
ATOM     93  O   UNL A   1      44.374  24.763  37.618  1.00  0.00    -0.744 OA
ENDBRANCH  87  90
ENDBRANCH  60  83
ENDBRANCH  34  35
ENDBRANCH  26  29
ENDBRANCH   1  25
TORSDOF 15
ENDMDL
MODEL 3
REMARK VINA RESULT:     -12.5      2.911      3.884
REMARK SMILES COc1cc(Cl)c2c(c1)C=C(C(=O)NCCCNC(=O)c1ccc(-c3c4nc(c(-c5cccc(S(=O)(=O)[O-])c5F)c5ccc([nH]5)c(-c5cccc(S(=O)(=O)[O-])c5F)c5nc(c(-c6cccc(S(=O)(=O)[O-])c6F)c6ccc3[nH]6)C=C5)C=C4)cc1)[C@@H](C(F)(F)F)O2
REMARK SMILES IDX 17 1 16 2 15 3 14 4 12 5 13 6 11 8 3 9 4 10 9 11 5 12 8 13
REMARK SMILES IDX 6 14 7 15 10 16 89 17 84 18 2 19 1 20 85 21 86 22 87 23
REMARK SMILES IDX 88 24 18 25 19 26 20 28 21 29 22 30 83 31 23 32 82 33 24 34
REMARK SMILES IDX 25 35 26 36 76 37 27 38 81 39 75 40 77 41 28 42 80 43 74 44
REMARK SMILES IDX 73 45 29 47 61 48 41 49 60 50 42 51 45 52 59 53 78 54 43 55
REMARK SMILES IDX 44 56 58 58 79 59 46 60 30 61 31 62 39 63 32 64 34 65 40 66
REMARK SMILES IDX 33 67 35 68 36 69 37 70 38 71 62 72 63 73 71 74 64 75 66 76
REMARK SMILES IDX 72 77 65 78 67 79 68 80 69 81 70 82 47 83 48 84 56 85 49 86
REMARK SMILES IDX 51 87 57 88 50 89 52 90 53 91 54 92 55 93
REMARK H PARENT 14 7 18 27 77 46 45 57
REMARK Flexibility Score: inf
ROOT
ATOM      1  C   UNL A   1      33.514  28.943  25.133  1.00  0.00     0.118 C 
ENDROOT
BRANCH   1   2
ATOM      2  C   UNL A   1      33.518  28.848  23.612  1.00  0.00     0.042 C 
BRANCH   2   3
ATOM      3  C   UNL A   1      32.249  28.200  23.077  1.00  0.00     0.118 C 
BRANCH   3   4
ATOM      4  N   UNL A   1      32.523  27.292  21.974  1.00  0.00    -0.352 N 
ATOM      5  C   UNL A   1      32.947  26.016  21.821  1.00  0.00     0.251 C 
ATOM      6  O   UNL A   1      33.017  25.621  20.653  1.00  0.00    -0.270 OA
ATOM      7  H   UNL A   1      32.354  27.720  21.103  1.00  0.00     0.163 HD
BRANCH   5   8
ATOM      8  C   UNL A   1      33.304  25.091  22.935  1.00  0.00     0.067 C 
ATOM      9  C   UNL A   1      36.449  21.913  24.762  1.00  0.00     0.121 A 
ATOM     10  C   UNL A   1      35.691  21.812  25.928  1.00  0.00     0.070 A 
ATOM     11  C   UNL A   1      36.091  22.829  23.771  1.00  0.00     0.058 A 
ATOM     12  C   UNL A   1      34.546  22.593  26.077  1.00  0.00     0.087 A 
ATOM     13  C   UNL A   1      34.935  23.602  23.911  1.00  0.00     0.022 A 
ATOM     14  Cl  UNL A   1      33.616  22.423  27.522  1.00  0.00    -0.080 Cl
ATOM     15  C   UNL A   1      34.156  23.472  25.062  1.00  0.00     0.146 A 
ATOM     16  C   UNL A   1      34.539  24.556  22.881  1.00  0.00     0.025 C 
ATOM     17  O   UNL A   1      33.028  24.223  25.249  1.00  0.00    -0.474 OA
ATOM     18  C   UNL A   1      32.372  24.707  24.047  1.00  0.00     0.314 C 
BRANCH   9  19
ATOM     19  O   UNL A   1      37.589  21.191  24.532  1.00  0.00    -0.497 OA
ATOM     20  C   UNL A   1      37.513  19.841  24.986  1.00  0.00     0.278 C 
ENDBRANCH   9  19
BRANCH  18  21
ATOM     21  C   UNL A   1      31.311  23.683  23.596  1.00  0.00     0.429 C 
ATOM     22  F   UNL A   1      31.840  22.795  22.720  1.00  0.00    -0.167 F 
ATOM     23  F   UNL A   1      30.813  22.956  24.626  1.00  0.00    -0.167 F 
ATOM     24  F   UNL A   1      30.250  24.267  22.990  1.00  0.00    -0.167 F 
ENDBRANCH  18  21
ENDBRANCH   5   8
ENDBRANCH   3   4
ENDBRANCH   2   3
ENDBRANCH   1   2
BRANCH   1  25
ATOM     25  N   UNL A   1      32.904  30.191  25.586  1.00  0.00    -0.352 N 
ATOM     26  C   UNL A   1      33.170  30.933  26.709  1.00  0.00     0.251 C 
ATOM     27  H   UNL A   1      32.200  30.552  25.000  1.00  0.00     0.163 HD
ATOM     28  O   UNL A   1      32.363  31.778  27.093  1.00  0.00    -0.269 OA
BRANCH  26  29
ATOM     29  C   UNL A   1      34.429  30.714  27.444  1.00  0.00     0.039 A 
ATOM     30  C   UNL A   1      35.317  31.777  27.627  1.00  0.00     0.014 A 
ATOM     31  C   UNL A   1      34.735  29.440  27.928  1.00  0.00     0.014 A 
ATOM     32  C   UNL A   1      36.497  31.569  28.344  1.00  0.00     0.010 A 
ATOM     33  C   UNL A   1      35.870  29.252  28.705  1.00  0.00     0.010 A 
ATOM     34  C   UNL A   1      36.769  30.309  28.901  1.00  0.00    -0.014 A 
BRANCH  34  35
ATOM     35  C   UNL A   1      38.012  30.048  29.658  1.00  0.00     0.031 A 
ATOM     36  C   UNL A   1      39.045  29.121  29.080  1.00  0.00     0.074 A 
ATOM     37  C   UNL A   1      38.165  30.561  30.892  1.00  0.00     0.049 A 
ATOM     38  N   UNL A   1      40.155  28.693  29.618  1.00  0.00    -0.248 NA
ATOM     39  C   UNL A   1      38.782  28.581  27.734  1.00  0.00     0.031 C 
ATOM     40  C   UNL A   1      37.196  31.415  31.581  1.00  0.00     0.029 A 
ATOM     41  N   UNL A   1      39.183  30.414  31.799  1.00  0.00    -0.354 N 
ATOM     42  C   UNL A   1      40.702  27.811  28.696  1.00  0.00     0.074 A 
ATOM     43  C   UNL A   1      39.793  27.739  27.575  1.00  0.00     0.031 C 
ATOM     44  C   UNL A   1      37.667  31.717  32.801  1.00  0.00     0.029 A 
ATOM     45  C   UNL A   1      38.958  31.063  32.990  1.00  0.00     0.049 A 
ATOM     46  H   UNL A   1      39.999  29.894  31.615  1.00  0.00     0.167 HD
ATOM     47  C   UNL A   1      41.876  27.144  28.764  1.00  0.00     0.034 A 
ATOM     48  C   UNL A   1      39.709  31.121  34.107  1.00  0.00     0.034 A 
ATOM     49  C   UNL A   1      42.807  27.267  29.849  1.00  0.00     0.049 A 
ATOM     50  C   UNL A   1      41.033  30.411  34.138  1.00  0.00     0.074 A 
ATOM     51  C   UNL A   1      44.066  26.708  29.965  1.00  0.00     0.029 A 
ATOM     52  N   UNL A   1      42.580  27.997  31.003  1.00  0.00    -0.354 N 
ATOM     53  N   UNL A   1      41.598  29.688  33.201  1.00  0.00    -0.248 NA
ATOM     54  C   UNL A   1      41.837  30.547  35.360  1.00  0.00     0.031 C 
ATOM     55  C   UNL A   1      44.599  27.096  31.197  1.00  0.00     0.029 A 
ATOM     56  C   UNL A   1      43.675  27.903  31.841  1.00  0.00     0.049 A 
ATOM     57  H   UNL A   1      41.760  28.508  31.197  1.00  0.00     0.167 HD
ATOM     58  C   UNL A   1      42.830  29.300  33.709  1.00  0.00     0.074 A 
ATOM     59  C   UNL A   1      42.938  29.878  35.034  1.00  0.00     0.031 C 
ATOM     60  C   UNL A   1      43.782  28.526  33.135  1.00  0.00     0.034 A 
BRANCH  47  61
ATOM     61  C   UNL A   1      42.260  26.276  27.598  1.00  0.00     0.023 A 
ATOM     62  C   UNL A   1      43.089  26.808  26.591  1.00  0.00     0.012 A 
ATOM     63  C   UNL A   1      41.870  24.925  27.541  1.00  0.00     0.148 A 
ATOM     64  C   UNL A   1      43.518  26.009  25.534  1.00  0.00     0.002 A 
ATOM     65  C   UNL A   1      42.327  24.127  26.499  1.00  0.00     0.091 A 
ATOM     66  F   UNL A   1      41.065  24.452  28.503  1.00  0.00    -0.205 F 
ATOM     67  C   UNL A   1      43.146  24.668  25.494  1.00  0.00     0.022 A 
BRANCH  65  68
ATOM     68  S   UNL A   1      41.952  22.374  26.380  1.00  0.00     0.127 S 
ATOM     69  O   UNL A   1      42.702  21.994  25.183  1.00  0.00    -0.237 OA
ATOM     70  O   UNL A   1      42.501  21.859  27.634  1.00  0.00    -0.237 OA
ATOM     71  O   UNL A   1      40.505  22.278  26.258  1.00  0.00    -0.744 OA
ENDBRANCH  65  68
ENDBRANCH  47  61
BRANCH  48  72
ATOM     72  C   UNL A   1      39.247  31.953  35.249  1.00  0.00     0.023 A 
ATOM     73  C   UNL A   1      38.407  31.376  36.220  1.00  0.00     0.012 A 
ATOM     74  C   UNL A   1      39.697  33.276  35.423  1.00  0.00     0.148 A 
ATOM     75  C   UNL A   1      38.017  32.104  37.344  1.00  0.00     0.002 A 
ATOM     76  C   UNL A   1      39.334  33.984  36.562  1.00  0.00     0.091 A 
ATOM     77  F   UNL A   1      40.499  33.799  34.485  1.00  0.00    -0.205 F 
ATOM     78  C   UNL A   1      38.487  33.403  37.519  1.00  0.00     0.022 A 
BRANCH  76  79
ATOM     79  S   UNL A   1      39.966  35.624  36.931  1.00  0.00     0.127 S 
ATOM     80  O   UNL A   1      39.268  35.941  38.175  1.00  0.00    -0.237 OA
ATOM     81  O   UNL A   1      41.399  35.363  37.077  1.00  0.00    -0.237 OA
ATOM     82  O   UNL A   1      39.612  36.454  35.789  1.00  0.00    -0.744 OA
ENDBRANCH  76  79
ENDBRANCH  48  72
BRANCH  60  83
ATOM     83  C   UNL A   1      45.039  28.253  33.910  1.00  0.00     0.023 A 
ATOM     84  C   UNL A   1      46.105  29.169  33.839  1.00  0.00     0.012 A 
ATOM     85  C   UNL A   1      45.102  27.176  34.816  1.00  0.00     0.148 A 
ATOM     86  C   UNL A   1      47.221  29.016  34.660  1.00  0.00     0.002 A 
ATOM     87  C   UNL A   1      46.202  27.050  35.655  1.00  0.00     0.091 A 
ATOM     88  F   UNL A   1      44.074  26.316  34.856  1.00  0.00    -0.205 F 
ATOM     89  C   UNL A   1      47.263  27.966  35.575  1.00  0.00     0.022 A 
BRANCH  87  90
ATOM     90  S   UNL A   1      46.311  25.782  36.923  1.00  0.00     0.127 S 
ATOM     91  O   UNL A   1      45.120  26.060  37.724  1.00  0.00    -0.237 OA
ATOM     92  O   UNL A   1      46.246  24.552  36.136  1.00  0.00    -0.237 OA
ATOM     93  O   UNL A   1      47.580  26.001  37.605  1.00  0.00    -0.744 OA
ENDBRANCH  87  90
ENDBRANCH  60  83
ENDBRANCH  34  35
ENDBRANCH  26  29
ENDBRANCH   1  25
TORSDOF 15
ENDMDL
