MODEL 1
REMARK VINA RESULT:     -11.8      0.000      0.000
REMARK SMILES COc1ncccc1C[C@H](C(=O)NCCCNC(=O)c1ccc(-c2c3nc(c(-c4cccc(S(=O)(=O)[O-])c4F)c4ccc([nH]4)c(-c4cccc(S(=O)(=O)[O-])c4F)c4nc(c(-c5cccc(S(=O)(=O)[O-])c5F)c5ccc2[nH]5)C=C4)C=C3)cc1)c1ccc(F)cc1
REMARK SMILES IDX 15 1 14 2 13 3 11 4 12 5 10 7 9 8 8 9 3 10 4 11 5 12 7 13
REMARK SMILES IDX 6 14 2 15 1 16 83 17 84 18 89 19 85 20 88 21 86 22 87 23
REMARK SMILES IDX 16 24 17 25 18 26 19 28 20 29 21 30 82 31 22 32 81 33 23 34
REMARK SMILES IDX 24 35 25 36 75 37 26 38 80 39 74 40 76 41 27 42 79 43 73 44
REMARK SMILES IDX 72 45 28 47 60 48 40 49 59 50 41 51 44 52 58 53 77 54 42 55
REMARK SMILES IDX 43 56 57 58 78 59 45 60 29 61 30 62 38 63 31 64 33 65 39 66
REMARK SMILES IDX 32 67 34 68 35 69 36 70 37 71 61 72 62 73 70 74 63 75 65 76
REMARK SMILES IDX 71 77 64 78 66 79 67 80 68 81 69 82 46 83 47 84 55 85 48 86
REMARK SMILES IDX 50 87 56 88 49 89 51 90 52 91 53 92 54 93
REMARK H PARENT 13 6 17 27 76 46 44 57
REMARK Flexibility Score: inf
ROOT
ATOM      1  C   UNL A   1      31.855  28.361  26.584  1.00  0.00     0.042 C 
ENDROOT
BRANCH   1   2
ATOM      2  C   UNL A   1      30.996  27.419  25.750  1.00  0.00     0.117 C 
BRANCH   2   3
ATOM      3  N   UNL A   1      30.778  26.149  26.413  1.00  0.00    -0.355 N 
ATOM      4  C   UNL A   1      31.517  25.019  26.532  1.00  0.00     0.227 C 
ATOM      5  O   UNL A   1      30.979  24.099  27.164  1.00  0.00    -0.274 OA
ATOM      6  H   UNL A   1      29.910  26.096  26.875  1.00  0.00     0.163 HD
BRANCH   4   7
ATOM      7  C   UNL A   1      32.976  24.869  26.063  1.00  0.00     0.113 C 
BRANCH   7   8
ATOM      8  C   UNL A   1      33.886  23.820  26.757  1.00  0.00     0.059 C 
BRANCH   8   9
ATOM      9  C   UNL A   1      34.979  23.211  25.904  1.00  0.00     0.015 A 
ATOM     10  C   UNL A   1      34.833  21.997  25.234  1.00  0.00     0.216 A 
ATOM     11  N   UNL A   1      35.686  21.533  24.296  1.00  0.00    -0.222 NA
ATOM     12  C   UNL A   1      36.781  22.286  24.052  1.00  0.00     0.115 A 
ATOM     13  C   UNL A   1      36.196  23.879  25.724  1.00  0.00     0.011 A 
ATOM     14  C   UNL A   1      37.098  23.431  24.763  1.00  0.00     0.021 A 
BRANCH  10  15
ATOM     15  O   UNL A   1      33.828  21.165  25.677  1.00  0.00    -0.481 OA
ATOM     16  C   UNL A   1      33.660  20.018  24.860  1.00  0.00     0.280 C 
ENDBRANCH  10  15
ENDBRANCH   8   9
ENDBRANCH   7   8
BRANCH   7  17
ATOM     17  C   UNL A   1      33.006  24.913  24.535  1.00  0.00    -0.035 A 
ATOM     18  C   UNL A   1      33.739  25.948  23.917  1.00  0.00     0.007 A 
ATOM     19  C   UNL A   1      32.238  24.063  23.730  1.00  0.00     0.007 A 
ATOM     20  C   UNL A   1      33.683  26.143  22.538  1.00  0.00     0.039 A 
ATOM     21  C   UNL A   1      32.168  24.270  22.351  1.00  0.00     0.039 A 
ATOM     22  C   UNL A   1      32.885  25.309  21.770  1.00  0.00     0.123 A 
ATOM     23  F   UNL A   1      32.794  25.517  20.449  1.00  0.00    -0.207 F 
ENDBRANCH   7  17
ENDBRANCH   4   7
ENDBRANCH   2   3
ENDBRANCH   1   2
BRANCH   1  24
ATOM     24  C   UNL A   1      32.735  29.318  25.794  1.00  0.00     0.118 C 
BRANCH  24  25
ATOM     25  N   UNL A   1      32.494  30.699  26.161  1.00  0.00    -0.352 N 
ATOM     26  C   UNL A   1      33.138  31.503  27.069  1.00  0.00     0.251 C 
ATOM     27  H   UNL A   1      31.748  31.128  25.683  1.00  0.00     0.163 HD
ATOM     28  O   UNL A   1      32.585  32.547  27.411  1.00  0.00    -0.269 OA
BRANCH  26  29
ATOM     29  C   UNL A   1      34.460  31.148  27.648  1.00  0.00     0.039 A 
ATOM     30  C   UNL A   1      34.648  29.837  28.101  1.00  0.00     0.014 A 
ATOM     31  C   UNL A   1      35.474  32.087  27.857  1.00  0.00     0.014 A 
ATOM     32  C   UNL A   1      35.833  29.475  28.749  1.00  0.00     0.010 A 
ATOM     33  C   UNL A   1      36.695  31.702  28.418  1.00  0.00     0.010 A 
ATOM     34  C   UNL A   1      36.876  30.402  28.909  1.00  0.00    -0.014 A 
BRANCH  34  35
ATOM     35  C   UNL A   1      38.121  30.027  29.638  1.00  0.00     0.031 A 
ATOM     36  C   UNL A   1      38.376  30.533  31.037  1.00  0.00     0.074 A 
ATOM     37  C   UNL A   1      39.036  29.238  29.042  1.00  0.00     0.049 A 
ATOM     38  N   UNL A   1      39.376  30.270  31.840  1.00  0.00    -0.248 NA
ATOM     39  C   UNL A   1      37.394  31.473  31.604  1.00  0.00     0.031 C 
ATOM     40  C   UNL A   1      38.955  28.740  27.667  1.00  0.00     0.029 A 
ATOM     41  N   UNL A   1      40.219  28.721  29.511  1.00  0.00    -0.354 N 
ATOM     42  C   UNL A   1      39.159  31.028  32.987  1.00  0.00     0.074 A 
ATOM     43  C   UNL A   1      37.956  31.796  32.759  1.00  0.00     0.031 C 
ATOM     44  C   UNL A   1      40.027  27.972  27.413  1.00  0.00     0.029 A 
ATOM     45  C   UNL A   1      40.882  27.937  28.596  1.00  0.00     0.049 A 
ATOM     46  H   UNL A   1      40.560  28.896  30.418  1.00  0.00     0.167 HD
ATOM     47  C   UNL A   1      39.869  31.057  34.141  1.00  0.00     0.034 A 
ATOM     48  C   UNL A   1      42.040  27.255  28.701  1.00  0.00     0.034 A 
ATOM     49  C   UNL A   1      41.035  30.253  34.391  1.00  0.00     0.049 A 
ATOM     50  C   UNL A   1      42.781  27.260  30.010  1.00  0.00     0.074 A 
ATOM     51  C   UNL A   1      41.777  30.152  35.556  1.00  0.00     0.029 A 
ATOM     52  N   UNL A   1      41.631  29.412  33.465  1.00  0.00    -0.354 N 
ATOM     53  N   UNL A   1      42.467  27.857  31.135  1.00  0.00    -0.248 NA
ATOM     54  C   UNL A   1      44.014  26.461  30.080  1.00  0.00     0.031 C 
ATOM     55  C   UNL A   1      42.830  29.259  35.329  1.00  0.00     0.029 A 
ATOM     56  C   UNL A   1      42.732  28.791  34.029  1.00  0.00     0.049 A 
ATOM     57  H   UNL A   1      41.318  29.277  32.542  1.00  0.00     0.167 HD
ATOM     58  C   UNL A   1      43.440  27.477  32.052  1.00  0.00     0.074 A 
ATOM     59  C   UNL A   1      44.340  26.579  31.360  1.00  0.00     0.031 C 
ATOM     60  C   UNL A   1      43.588  27.854  33.347  1.00  0.00     0.034 A 
BRANCH  47  61
ATOM     61  C   UNL A   1      39.361  31.938  35.255  1.00  0.00     0.023 A 
ATOM     62  C   UNL A   1      38.443  31.412  36.187  1.00  0.00     0.012 A 
ATOM     63  C   UNL A   1      39.834  33.255  35.419  1.00  0.00     0.148 A 
ATOM     64  C   UNL A   1      37.977  32.192  37.244  1.00  0.00     0.002 A 
ATOM     65  C   UNL A   1      39.397  34.011  36.501  1.00  0.00     0.091 A 
ATOM     66  F   UNL A   1      40.692  33.745  34.513  1.00  0.00    -0.205 F 
ATOM     67  C   UNL A   1      38.461  33.487  37.407  1.00  0.00     0.022 A 
BRANCH  65  68
ATOM     68  S   UNL A   1      40.021  35.662  36.845  1.00  0.00     0.127 S 
ATOM     69  O   UNL A   1      39.359  35.968  38.113  1.00  0.00    -0.237 OA
ATOM     70  O   UNL A   1      41.462  35.432  36.949  1.00  0.00    -0.237 OA
ATOM     71  O   UNL A   1      39.617  36.486  35.715  1.00  0.00    -0.744 OA
ENDBRANCH  65  68
ENDBRANCH  47  61
BRANCH  48  72
ATOM     72  C   UNL A   1      42.526  26.435  27.554  1.00  0.00     0.023 A 
ATOM     73  C   UNL A   1      43.408  27.010  26.616  1.00  0.00     0.012 A 
ATOM     74  C   UNL A   1      42.143  25.089  27.399  1.00  0.00     0.148 A 
ATOM     75  C   UNL A   1      43.872  26.271  25.529  1.00  0.00     0.002 A 
ATOM     76  C   UNL A   1      42.655  24.341  26.344  1.00  0.00     0.091 A 
ATOM     77  F   UNL A   1      41.292  24.563  28.291  1.00  0.00    -0.205 F 
ATOM     78  C   UNL A   1      43.505  24.934  25.399  1.00  0.00     0.022 A 
BRANCH  76  79
ATOM     79  S   UNL A   1      42.347  22.579  26.185  1.00  0.00     0.127 S 
ATOM     80  O   UNL A   1      42.943  22.057  27.411  1.00  0.00    -0.237 OA
ATOM     81  O   UNL A   1      40.886  22.527  26.136  1.00  0.00    -0.237 OA
ATOM     82  O   UNL A   1      42.998  22.183  24.941  1.00  0.00    -0.744 OA
ENDBRANCH  76  79
ENDBRANCH  48  72
BRANCH  60  83
ATOM     83  C   UNL A   1      44.745  27.272  34.116  1.00  0.00     0.023 A 
ATOM     84  C   UNL A   1      45.998  27.917  34.084  1.00  0.00     0.012 A 
ATOM     85  C   UNL A   1      44.577  26.127  34.919  1.00  0.00     0.148 A 
ATOM     86  C   UNL A   1      47.076  27.408  34.809  1.00  0.00     0.002 A 
ATOM     87  C   UNL A   1      45.643  25.653  35.675  1.00  0.00     0.091 A 
ATOM     88  F   UNL A   1      43.383  25.516  34.922  1.00  0.00    -0.205 F 
ATOM     89  C   UNL A   1      46.895  26.285  35.612  1.00  0.00     0.022 A 
BRANCH  87  90
ATOM     90  S   UNL A   1      45.472  24.270  36.809  1.00  0.00     0.127 S 
ATOM     91  O   UNL A   1      45.075  23.191  35.906  1.00  0.00    -0.237 OA
ATOM     92  O   UNL A   1      46.825  24.142  37.354  1.00  0.00    -0.237 OA
ATOM     93  O   UNL A   1      44.469  24.676  37.783  1.00  0.00    -0.744 OA
ENDBRANCH  87  90
ENDBRANCH  60  83
ENDBRANCH  34  35
ENDBRANCH  26  29
ENDBRANCH  24  25
ENDBRANCH   1  24
TORSDOF 17
ENDMDL
MODEL 2
REMARK VINA RESULT:     -11.8      1.474      2.616
REMARK SMILES COc1ncccc1C[C@H](C(=O)NCCCNC(=O)c1ccc(-c2c3nc(c(-c4cccc(S(=O)(=O)[O-])c4F)c4ccc([nH]4)c(-c4cccc(S(=O)(=O)[O-])c4F)c4nc(c(-c5cccc(S(=O)(=O)[O-])c5F)c5ccc2[nH]5)C=C4)C=C3)cc1)c1ccc(F)cc1
REMARK SMILES IDX 15 1 14 2 13 3 11 4 12 5 10 7 9 8 8 9 3 10 4 11 5 12 7 13
REMARK SMILES IDX 6 14 2 15 1 16 83 17 84 18 89 19 85 20 88 21 86 22 87 23
REMARK SMILES IDX 16 24 17 25 18 26 19 28 20 29 21 30 82 31 22 32 81 33 23 34
REMARK SMILES IDX 24 35 25 36 75 37 26 38 80 39 74 40 76 41 27 42 79 43 73 44
REMARK SMILES IDX 72 45 28 47 60 48 40 49 59 50 41 51 44 52 58 53 77 54 42 55
REMARK SMILES IDX 43 56 57 58 78 59 45 60 29 61 30 62 38 63 31 64 33 65 39 66
REMARK SMILES IDX 32 67 34 68 35 69 36 70 37 71 61 72 62 73 70 74 63 75 65 76
REMARK SMILES IDX 71 77 64 78 66 79 67 80 68 81 69 82 46 83 47 84 55 85 48 86
REMARK SMILES IDX 50 87 56 88 49 89 51 90 52 91 53 92 54 93
REMARK H PARENT 13 6 17 27 76 46 44 57
REMARK Flexibility Score: inf
ROOT
ATOM      1  C   UNL A   1      32.603  29.190  24.620  1.00  0.00     0.042 C 
ENDROOT
BRANCH   1   2
ATOM      2  C   UNL A   1      33.895  28.454  24.291  1.00  0.00     0.117 C 
BRANCH   2   3
ATOM      3  N   UNL A   1      33.801  27.719  23.045  1.00  0.00    -0.355 N 
ATOM      4  C   UNL A   1      33.632  26.409  22.744  1.00  0.00     0.227 C 
ATOM      5  O   UNL A   1      33.632  26.138  21.534  1.00  0.00    -0.274 OA
ATOM      6  H   UNL A   1      33.875  28.294  22.249  1.00  0.00     0.163 HD
BRANCH   4   7
ATOM      7  C   UNL A   1      33.319  25.304  23.771  1.00  0.00     0.113 C 
BRANCH   7   8
ATOM      8  C   UNL A   1      32.015  24.476  23.611  1.00  0.00     0.059 C 
BRANCH   8   9
ATOM      9  C   UNL A   1      31.369  23.990  24.893  1.00  0.00     0.015 A 
ATOM     10  C   UNL A   1      30.544  24.792  25.679  1.00  0.00     0.216 A 
ATOM     11  N   UNL A   1      29.779  24.338  26.695  1.00  0.00    -0.222 NA
ATOM     12  C   UNL A   1      29.885  23.023  26.988  1.00  0.00     0.115 A 
ATOM     13  C   UNL A   1      31.554  22.672  25.325  1.00  0.00     0.011 A 
ATOM     14  C   UNL A   1      30.781  22.169  26.368  1.00  0.00     0.021 A 
BRANCH  10  15
ATOM     15  O   UNL A   1      30.642  26.152  25.488  1.00  0.00    -0.481 OA
ATOM     16  C   UNL A   1      29.703  26.648  24.547  1.00  0.00     0.280 C 
ENDBRANCH  10  15
ENDBRANCH   8   9
ENDBRANCH   7   8
BRANCH   7  17
ATOM     17  C   UNL A   1      34.604  24.529  24.062  1.00  0.00    -0.035 A 
ATOM     18  C   UNL A   1      35.037  23.583  23.109  1.00  0.00     0.007 A 
ATOM     19  C   UNL A   1      35.291  24.616  25.279  1.00  0.00     0.007 A 
ATOM     20  C   UNL A   1      36.107  22.732  23.377  1.00  0.00     0.039 A 
ATOM     21  C   UNL A   1      36.352  23.751  25.554  1.00  0.00     0.039 A 
ATOM     22  C   UNL A   1      36.746  22.816  24.605  1.00  0.00     0.123 A 
ATOM     23  F   UNL A   1      37.749  21.973  24.885  1.00  0.00    -0.207 F 
ENDBRANCH   7  17
ENDBRANCH   4   7
ENDBRANCH   2   3
ENDBRANCH   1   2
BRANCH   1  24
ATOM     24  C   UNL A   1      32.387  29.508  26.092  1.00  0.00     0.118 C 
BRANCH  24  25
ATOM     25  N   UNL A   1      32.251  30.933  26.320  1.00  0.00    -0.352 N 
ATOM     26  C   UNL A   1      32.982  31.779  27.115  1.00  0.00     0.251 C 
ATOM     27  H   UNL A   1      31.515  31.361  25.826  1.00  0.00     0.163 HD
ATOM     28  O   UNL A   1      32.513  32.889  27.365  1.00  0.00    -0.269 OA
BRANCH  26  29
ATOM     29  C   UNL A   1      34.302  31.397  27.682  1.00  0.00     0.039 A 
ATOM     30  C   UNL A   1      34.476  30.073  28.103  1.00  0.00     0.014 A 
ATOM     31  C   UNL A   1      35.327  32.320  27.911  1.00  0.00     0.014 A 
ATOM     32  C   UNL A   1      35.660  29.683  28.739  1.00  0.00     0.010 A 
ATOM     33  C   UNL A   1      36.546  31.908  28.459  1.00  0.00     0.010 A 
ATOM     34  C   UNL A   1      36.713  30.595  28.919  1.00  0.00    -0.014 A 
BRANCH  34  35
ATOM     35  C   UNL A   1      37.955  30.188  29.634  1.00  0.00     0.031 A 
ATOM     36  C   UNL A   1      38.228  30.672  31.039  1.00  0.00     0.074 A 
ATOM     37  C   UNL A   1      38.853  29.392  29.022  1.00  0.00     0.049 A 
ATOM     38  N   UNL A   1      39.228  30.381  31.832  1.00  0.00    -0.248 NA
ATOM     39  C   UNL A   1      37.265  31.622  31.623  1.00  0.00     0.031 C 
ATOM     40  C   UNL A   1      38.755  28.913  27.642  1.00  0.00     0.029 A 
ATOM     41  N   UNL A   1      40.030  28.849  29.478  1.00  0.00    -0.354 N 
ATOM     42  C   UNL A   1      39.031  31.128  32.990  1.00  0.00     0.074 A 
ATOM     43  C   UNL A   1      37.840  31.920  32.779  1.00  0.00     0.031 C 
ATOM     44  C   UNL A   1      39.813  28.130  27.371  1.00  0.00     0.029 A 
ATOM     45  C   UNL A   1      40.673  28.065  28.548  1.00  0.00     0.049 A 
ATOM     46  H   UNL A   1      40.379  29.005  30.385  1.00  0.00     0.167 HD
ATOM     47  C   UNL A   1      39.748  31.130  34.139  1.00  0.00     0.034 A 
ATOM     48  C   UNL A   1      41.820  27.361  28.637  1.00  0.00     0.034 A 
ATOM     49  C   UNL A   1      40.902  30.303  34.372  1.00  0.00     0.049 A 
ATOM     50  C   UNL A   1      42.569  27.337  29.942  1.00  0.00     0.074 A 
ATOM     51  C   UNL A   1      41.649  30.174  35.531  1.00  0.00     0.029 A 
ATOM     52  N   UNL A   1      41.477  29.464  33.431  1.00  0.00    -0.354 N 
ATOM     53  N   UNL A   1      42.272  27.925  31.077  1.00  0.00    -0.248 NA
ATOM     54  C   UNL A   1      43.789  26.516  29.994  1.00  0.00     0.031 C 
ATOM     55  C   UNL A   1      42.685  29.266  35.285  1.00  0.00     0.029 A 
ATOM     56  C   UNL A   1      42.571  28.816  33.980  1.00  0.00     0.049 A 
ATOM     57  H   UNL A   1      41.156  29.346  32.508  1.00  0.00     0.167 HD
ATOM     58  C   UNL A   1      43.245  27.517  31.983  1.00  0.00     0.074 A 
ATOM     59  C   UNL A   1      44.124  26.612  31.273  1.00  0.00     0.031 C 
ATOM     60  C   UNL A   1      43.406  27.873  33.281  1.00  0.00     0.034 A 
BRANCH  47  61
ATOM     61  C   UNL A   1      39.263  32.005  35.267  1.00  0.00     0.023 A 
ATOM     62  C   UNL A   1      38.335  31.486  36.194  1.00  0.00     0.012 A 
ATOM     63  C   UNL A   1      39.764  33.308  35.451  1.00  0.00     0.148 A 
ATOM     64  C   UNL A   1      37.889  32.260  37.264  1.00  0.00     0.002 A 
ATOM     65  C   UNL A   1      39.347  34.058  36.545  1.00  0.00     0.091 A 
ATOM     66  F   UNL A   1      40.631  33.793  34.549  1.00  0.00    -0.205 F 
ATOM     67  C   UNL A   1      38.401  33.541  37.445  1.00  0.00     0.022 A 
BRANCH  65  68
ATOM     68  S   UNL A   1      40.008  35.690  36.911  1.00  0.00     0.127 S 
ATOM     69  O   UNL A   1      39.325  36.008  38.165  1.00  0.00    -0.237 OA
ATOM     70  O   UNL A   1      41.439  35.420  37.048  1.00  0.00    -0.237 OA
ATOM     71  O   UNL A   1      39.654  36.529  35.776  1.00  0.00    -0.744 OA
ENDBRANCH  65  68
ENDBRANCH  47  61
BRANCH  48  72
ATOM     72  C   UNL A   1      42.285  26.549  27.477  1.00  0.00     0.023 A 
ATOM     73  C   UNL A   1      43.074  27.155  26.479  1.00  0.00     0.012 A 
ATOM     74  C   UNL A   1      41.974  25.180  27.368  1.00  0.00     0.148 A 
ATOM     75  C   UNL A   1      43.516  26.422  25.377  1.00  0.00     0.002 A 
ATOM     76  C   UNL A   1      42.466  24.441  26.297  1.00  0.00     0.091 A 
ATOM     77  F   UNL A   1      41.210  24.623  28.318  1.00  0.00    -0.205 F 
ATOM     78  C   UNL A   1      43.222  25.063  25.292  1.00  0.00     0.022 A 
BRANCH  76  79
ATOM     79  S   UNL A   1      42.254  22.662  26.186  1.00  0.00     0.127 S 
ATOM     80  O   UNL A   1      42.927  22.202  27.397  1.00  0.00    -0.237 OA
ATOM     81  O   UNL A   1      40.798  22.526  26.198  1.00  0.00    -0.237 OA
ATOM     82  O   UNL A   1      42.877  22.275  24.925  1.00  0.00    -0.744 OA
ENDBRANCH  76  79
ENDBRANCH  48  72
BRANCH  60  83
ATOM     83  C   UNL A   1      44.558  27.262  34.035  1.00  0.00     0.023 A 
ATOM     84  C   UNL A   1      45.817  27.894  34.017  1.00  0.00     0.012 A 
ATOM     85  C   UNL A   1      44.379  26.101  34.812  1.00  0.00     0.148 A 
ATOM     86  C   UNL A   1      46.891  27.357  34.729  1.00  0.00     0.002 A 
ATOM     87  C   UNL A   1      45.440  25.599  35.556  1.00  0.00     0.091 A 
ATOM     88  F   UNL A   1      43.178  25.502  34.803  1.00  0.00    -0.205 F 
ATOM     89  C   UNL A   1      46.698  26.218  35.507  1.00  0.00     0.022 A 
BRANCH  87  90
ATOM     90  S   UNL A   1      45.255  24.192  36.658  1.00  0.00     0.127 S 
ATOM     91  O   UNL A   1      44.342  24.722  37.669  1.00  0.00    -0.237 OA
ATOM     92  O   UNL A   1      44.669  23.179  35.779  1.00  0.00    -0.237 OA
ATOM     93  O   UNL A   1      46.597  23.876  37.128  1.00  0.00    -0.744 OA
ENDBRANCH  87  90
ENDBRANCH  60  83
ENDBRANCH  34  35
ENDBRANCH  26  29
ENDBRANCH  24  25
ENDBRANCH   1  24
TORSDOF 17
ENDMDL
MODEL 3
REMARK VINA RESULT:     -11.8      1.590      2.383
REMARK SMILES COc1ncccc1C[C@H](C(=O)NCCCNC(=O)c1ccc(-c2c3nc(c(-c4cccc(S(=O)(=O)[O-])c4F)c4ccc([nH]4)c(-c4cccc(S(=O)(=O)[O-])c4F)c4nc(c(-c5cccc(S(=O)(=O)[O-])c5F)c5ccc2[nH]5)C=C4)C=C3)cc1)c1ccc(F)cc1
REMARK SMILES IDX 15 1 14 2 13 3 11 4 12 5 10 7 9 8 8 9 3 10 4 11 5 12 7 13
REMARK SMILES IDX 6 14 2 15 1 16 83 17 84 18 89 19 85 20 88 21 86 22 87 23
REMARK SMILES IDX 16 24 17 25 18 26 19 28 20 29 21 30 82 31 22 32 81 33 23 34
REMARK SMILES IDX 24 35 25 36 75 37 26 38 80 39 74 40 76 41 27 42 79 43 73 44
REMARK SMILES IDX 72 45 28 47 60 48 40 49 59 50 41 51 44 52 58 53 77 54 42 55
REMARK SMILES IDX 43 56 57 58 78 59 45 60 29 61 30 62 38 63 31 64 33 65 39 66
REMARK SMILES IDX 32 67 34 68 35 69 36 70 37 71 61 72 62 73 70 74 63 75 65 76
REMARK SMILES IDX 71 77 64 78 66 79 67 80 68 81 69 82 46 83 47 84 55 85 48 86
REMARK SMILES IDX 50 87 56 88 49 89 51 90 52 91 53 92 54 93
REMARK H PARENT 13 6 17 27 76 46 44 57
REMARK Flexibility Score: inf
ROOT
ATOM      1  C   UNL A   1      31.666  28.773  26.593  1.00  0.00     0.042 C 
ENDROOT
BRANCH   1   2
ATOM      2  C   UNL A   1      31.751  27.299  26.221  1.00  0.00     0.117 C 
BRANCH   2   3
ATOM      3  N   UNL A   1      32.637  27.071  25.097  1.00  0.00    -0.355 N 
ATOM      4  C   UNL A   1      32.464  26.533  23.866  1.00  0.00     0.227 C 
ATOM      5  O   UNL A   1      33.485  26.472  23.165  1.00  0.00    -0.274 OA
ATOM      6  H   UNL A   1      33.560  27.372  25.263  1.00  0.00     0.163 HD
BRANCH   4   7
ATOM      7  C   UNL A   1      31.104  26.133  23.264  1.00  0.00     0.113 C 
BRANCH   7   8
ATOM      8  C   UNL A   1      30.379  24.875  23.813  1.00  0.00     0.059 C 
BRANCH   8   9
ATOM      9  C   UNL A   1      31.205  23.608  23.898  1.00  0.00     0.015 A 
ATOM     10  C   UNL A   1      31.291  22.834  25.054  1.00  0.00     0.216 A 
ATOM     11  N   UNL A   1      31.828  21.596  25.107  1.00  0.00    -0.222 NA
ATOM     12  C   UNL A   1      32.368  21.123  23.962  1.00  0.00     0.115 A 
ATOM     13  C   UNL A   1      31.904  23.139  22.780  1.00  0.00     0.011 A 
ATOM     14  C   UNL A   1      32.469  21.867  22.798  1.00  0.00     0.021 A 
BRANCH  10  15
ATOM     15  O   UNL A   1      30.933  23.445  26.235  1.00  0.00    -0.481 OA
ATOM     16  C   UNL A   1      32.025  23.608  27.127  1.00  0.00     0.280 C 
ENDBRANCH  10  15
ENDBRANCH   8   9
ENDBRANCH   7   8
BRANCH   7  17
ATOM     17  C   UNL A   1      30.262  27.395  23.076  1.00  0.00    -0.035 A 
ATOM     18  C   UNL A   1      28.904  27.347  23.455  1.00  0.00     0.007 A 
ATOM     19  C   UNL A   1      30.736  28.542  22.429  1.00  0.00     0.007 A 
ATOM     20  C   UNL A   1      28.041  28.403  23.171  1.00  0.00     0.039 A 
ATOM     21  C   UNL A   1      29.867  29.592  22.127  1.00  0.00     0.039 A 
ATOM     22  C   UNL A   1      28.529  29.511  22.496  1.00  0.00     0.123 A 
ATOM     23  F   UNL A   1      27.696  30.512  22.181  1.00  0.00    -0.207 F 
ENDBRANCH   7  17
ENDBRANCH   4   7
ENDBRANCH   2   3
ENDBRANCH   1   2
BRANCH   1  24
ATOM     24  C   UNL A   1      32.650  29.687  25.879  1.00  0.00     0.118 C 
BRANCH  24  25
ATOM     25  N   UNL A   1      32.462  31.075  26.249  1.00  0.00    -0.352 N 
ATOM     26  C   UNL A   1      33.140  31.854  27.153  1.00  0.00     0.251 C 
ATOM     27  H   UNL A   1      31.730  31.532  25.776  1.00  0.00     0.163 HD
ATOM     28  O   UNL A   1      32.629  32.917  27.500  1.00  0.00    -0.269 OA
BRANCH  26  29
ATOM     29  C   UNL A   1      34.452  31.450  27.724  1.00  0.00     0.039 A 
ATOM     30  C   UNL A   1      34.589  30.138  28.191  1.00  0.00     0.014 A 
ATOM     31  C   UNL A   1      35.507  32.348  27.912  1.00  0.00     0.014 A 
ATOM     32  C   UNL A   1      35.764  29.733  28.832  1.00  0.00     0.010 A 
ATOM     33  C   UNL A   1      36.717  31.918  28.466  1.00  0.00     0.010 A 
ATOM     34  C   UNL A   1      36.847  30.618  28.971  1.00  0.00    -0.014 A 
BRANCH  34  35
ATOM     35  C   UNL A   1      38.082  30.198  29.692  1.00  0.00     0.031 A 
ATOM     36  C   UNL A   1      38.351  30.676  31.099  1.00  0.00     0.074 A 
ATOM     37  C   UNL A   1      38.976  29.395  29.083  1.00  0.00     0.049 A 
ATOM     38  N   UNL A   1      39.345  30.374  31.897  1.00  0.00    -0.248 NA
ATOM     39  C   UNL A   1      37.395  31.633  31.681  1.00  0.00     0.031 C 
ATOM     40  C   UNL A   1      38.880  28.921  27.701  1.00  0.00     0.029 A 
ATOM     41  N   UNL A   1      40.145  28.840  29.543  1.00  0.00    -0.354 N 
ATOM     42  C   UNL A   1      39.149  31.120  33.055  1.00  0.00     0.074 A 
ATOM     43  C   UNL A   1      37.966  31.923  32.841  1.00  0.00     0.031 C 
ATOM     44  C   UNL A   1      39.932  28.129  27.434  1.00  0.00     0.029 A 
ATOM     45  C   UNL A   1      40.786  28.052  28.615  1.00  0.00     0.049 A 
ATOM     46  H   UNL A   1      40.491  28.991  30.452  1.00  0.00     0.167 HD
ATOM     47  C   UNL A   1      39.860  31.113  34.209  1.00  0.00     0.034 A 
ATOM     48  C   UNL A   1      41.926  27.339  28.708  1.00  0.00     0.034 A 
ATOM     49  C   UNL A   1      41.005  30.275  34.445  1.00  0.00     0.049 A 
ATOM     50  C   UNL A   1      42.668  27.304  30.017  1.00  0.00     0.074 A 
ATOM     51  C   UNL A   1      41.745  30.136  35.607  1.00  0.00     0.029 A 
ATOM     52  N   UNL A   1      41.578  29.432  33.506  1.00  0.00    -0.354 N 
ATOM     53  N   UNL A   1      42.371  27.892  31.151  1.00  0.00    -0.248 NA
ATOM     54  C   UNL A   1      43.880  26.472  30.073  1.00  0.00     0.031 C 
ATOM     55  C   UNL A   1      42.774  29.219  35.365  1.00  0.00     0.029 A 
ATOM     56  C   UNL A   1      42.662  28.774  34.058  1.00  0.00     0.049 A 
ATOM     57  H   UNL A   1      41.260  29.320  32.581  1.00  0.00     0.167 HD
ATOM     58  C   UNL A   1      43.335  27.473  32.061  1.00  0.00     0.074 A 
ATOM     59  C   UNL A   1      44.209  26.561  31.354  1.00  0.00     0.031 C 
ATOM     60  C   UNL A   1      43.493  27.825  33.361  1.00  0.00     0.034 A 
BRANCH  47  61
ATOM     61  C   UNL A   1      39.377  31.990  35.337  1.00  0.00     0.023 A 
ATOM     62  C   UNL A   1      38.473  31.463  36.282  1.00  0.00     0.012 A 
ATOM     63  C   UNL A   1      39.859  33.303  35.501  1.00  0.00     0.148 A 
ATOM     64  C   UNL A   1      38.029  32.238  37.351  1.00  0.00     0.002 A 
ATOM     65  C   UNL A   1      39.446  34.055  36.594  1.00  0.00     0.091 A 
ATOM     66  F   UNL A   1      40.703  33.794  34.582  1.00  0.00    -0.205 F 
ATOM     67  C   UNL A   1      38.522  33.530  37.513  1.00  0.00     0.022 A 
BRANCH  65  68
ATOM     68  S   UNL A   1      40.083  35.701  36.937  1.00  0.00     0.127 S 
ATOM     69  O   UNL A   1      41.522  35.450  37.005  1.00  0.00    -0.237 OA
ATOM     70  O   UNL A   1      39.650  36.451  35.757  1.00  0.00    -0.237 OA
ATOM     71  O   UNL A   1      39.461  36.119  38.184  1.00  0.00    -0.744 OA
ENDBRANCH  65  68
ENDBRANCH  47  61
BRANCH  48  72
ATOM     72  C   UNL A   1      42.389  26.524  27.549  1.00  0.00     0.023 A 
ATOM     73  C   UNL A   1      43.224  27.114  26.578  1.00  0.00     0.012 A 
ATOM     74  C   UNL A   1      42.032  25.169  27.413  1.00  0.00     0.148 A 
ATOM     75  C   UNL A   1      43.666  26.380  25.477  1.00  0.00     0.002 A 
ATOM     76  C   UNL A   1      42.523  24.427  26.344  1.00  0.00     0.091 A 
ATOM     77  F   UNL A   1      41.225  24.629  28.337  1.00  0.00    -0.205 F 
ATOM     78  C   UNL A   1      43.325  25.034  25.367  1.00  0.00     0.022 A 
BRANCH  76  79
ATOM     79  S   UNL A   1      42.249  22.658  26.204  1.00  0.00     0.127 S 
ATOM     80  O   UNL A   1      42.925  22.153  27.395  1.00  0.00    -0.237 OA
ATOM     81  O   UNL A   1      40.790  22.571  26.236  1.00  0.00    -0.237 OA
ATOM     82  O   UNL A   1      42.839  22.275  24.925  1.00  0.00    -0.744 OA
ENDBRANCH  76  79
ENDBRANCH  48  72
BRANCH  60  83
ATOM     83  C   UNL A   1      44.635  27.202  34.120  1.00  0.00     0.023 A 
ATOM     84  C   UNL A   1      45.909  27.802  34.081  1.00  0.00     0.012 A 
ATOM     85  C   UNL A   1      44.434  26.060  34.921  1.00  0.00     0.148 A 
ATOM     86  C   UNL A   1      46.974  27.255  34.796  1.00  0.00     0.002 A 
ATOM     87  C   UNL A   1      45.488  25.548  35.668  1.00  0.00     0.091 A 
ATOM     88  F   UNL A   1      43.219  25.491  34.931  1.00  0.00    -0.205 F 
ATOM     89  C   UNL A   1      46.760  26.136  35.597  1.00  0.00     0.022 A 
BRANCH  87  90
ATOM     90  S   UNL A   1      45.278  24.167  36.799  1.00  0.00     0.127 S 
ATOM     91  O   UNL A   1      44.335  24.719  37.770  1.00  0.00    -0.237 OA
ATOM     92  O   UNL A   1      44.721  23.131  35.929  1.00  0.00    -0.237 OA
ATOM     93  O   UNL A   1      46.608  23.869  37.313  1.00  0.00    -0.744 OA
ENDBRANCH  87  90
ENDBRANCH  60  83
ENDBRANCH  34  35
ENDBRANCH  26  29
ENDBRANCH  24  25
ENDBRANCH   1  24
TORSDOF 17
ENDMDL
