MODEL 1
REMARK VINA RESULT:     -12.8      0.000      0.000
REMARK SMILES NS(=O)(=O)c1ccc(-n2ccnc2-c2ccc(O)c(C(=O)NCCCNC(=O)c3ccc(-c4c5nc(c(-c6cccc(S(=O)(=O)[O-])c6F)c6ccc([nH]6)c(-c6cccc(S(=O)(=O)[O-])c6F)c6nc(c(-c7cccc(S(=O)(=O)[O-])c7F)c7ccc4[nH]7)C=C6)C=C5)cc3)c2)cc1
REMARK SMILES IDX 23 1 22 2 20 3 21 4 19 6 14 7 15 8 92 9 16 10 17 11 13 12
REMARK SMILES IDX 9 13 10 14 11 15 12 16 8 17 5 18 6 19 94 20 7 21 93 22 2 23
REMARK SMILES IDX 3 24 4 25 1 26 18 29 24 31 25 32 26 33 27 34 28 36 29 37
REMARK SMILES IDX 30 38 91 39 31 40 90 41 32 42 33 43 34 44 84 45 35 46 89 47
REMARK SMILES IDX 83 48 85 49 36 50 88 51 82 52 81 53 37 55 69 56 49 57 68 58
REMARK SMILES IDX 50 59 53 60 67 61 86 62 51 63 52 64 66 66 87 67 54 68 38 69
REMARK SMILES IDX 39 70 47 71 40 72 42 73 48 74 41 75 43 76 44 77 45 78 46 79
REMARK SMILES IDX 70 80 71 81 79 82 72 83 74 84 80 85 73 86 75 87 76 88 77 89
REMARK SMILES IDX 78 90 55 91 56 92 64 93 57 94 59 95 65 96 58 97 60 98 61 99
REMARK SMILES IDX 62 100 63 101
REMARK H PARENT 22 5 1 27 1 28 18 30 26 35 85 54 53 65
REMARK Flexibility Score: inf
ROOT
ATOM      1  C   UNL A   1      37.550  20.631  24.558  1.00  0.00     0.118 C 
ENDROOT
BRANCH   1   2
ATOM      2  N   UNL A   1      37.534  21.930  25.208  1.00  0.00    -0.352 N 
ATOM      3  C   UNL A   1      36.551  22.867  25.423  1.00  0.00     0.255 C 
ATOM      4  O   UNL A   1      36.815  23.788  26.198  1.00  0.00    -0.269 OA
ATOM      5  H   UNL A   1      38.411  22.196  25.568  1.00  0.00     0.163 HD
BRANCH   3   6
ATOM      6  C   UNL A   1      35.181  22.837  24.827  1.00  0.00     0.082 A 
ATOM      7  C   UNL A   1      33.512  23.601  23.196  1.00  0.00     0.019 A 
ATOM      8  C   UNL A   1      32.590  22.679  23.684  1.00  0.00     0.016 A 
ATOM      9  C   UNL A   1      34.761  23.716  23.832  1.00  0.00     0.029 A 
ATOM     10  C   UNL A   1      32.952  21.836  24.736  1.00  0.00     0.048 A 
ATOM     11  C   UNL A   1      34.240  21.898  25.283  1.00  0.00     0.128 A 
BRANCH   7  12
ATOM     12  C   UNL A   1      33.220  24.482  22.059  1.00  0.00     0.144 A 
ATOM     13  N   UNL A   1      32.602  25.733  22.168  1.00  0.00    -0.300 N 
ATOM     14  C   UNL A   1      32.094  26.022  20.922  1.00  0.00     0.113 A 
ATOM     15  C   UNL A   1      32.580  25.043  20.089  1.00  0.00     0.132 A 
ATOM     16  N   UNL A   1      33.309  24.123  20.790  1.00  0.00    -0.236 NA
BRANCH  13  17
ATOM     17  C   UNL A   1      32.447  26.536  23.334  1.00  0.00     0.047 A 
ATOM     18  C   UNL A   1      32.176  27.976  25.710  1.00  0.00     0.082 A 
ATOM     19  C   UNL A   1      33.419  27.913  25.075  1.00  0.00     0.024 A 
ATOM     20  C   UNL A   1      31.062  27.333  25.158  1.00  0.00     0.024 A 
ATOM     21  C   UNL A   1      33.558  27.186  23.890  1.00  0.00     0.028 A 
ATOM     22  C   UNL A   1      31.192  26.633  23.953  1.00  0.00     0.028 A 
BRANCH  18  23
ATOM     23  S   UNL A   1      32.060  28.862  27.239  1.00  0.00     0.238 S 
ATOM     24  O   UNL A   1      31.302  28.048  28.168  1.00  0.00    -0.207 OA
ATOM     25  O   UNL A   1      31.728  30.233  26.955  1.00  0.00    -0.207 OA
BRANCH  23  26
ATOM     26  N   UNL A   1      33.634  28.894  27.828  1.00  0.00    -0.225 NA
ATOM     27  H   UNL A   1      34.179  28.159  27.378  1.00  0.00     0.137 HD
ATOM     28  H   UNL A   1      33.622  28.742  28.836  1.00  0.00     0.137 HD
ENDBRANCH  23  26
ENDBRANCH  18  23
ENDBRANCH  13  17
ENDBRANCH   7  12
BRANCH  11  29
ATOM     29  O   UNL A   1      34.497  20.999  26.284  1.00  0.00    -0.507 OA
ATOM     30  H   UNL A   1      35.090  21.222  26.975  1.00  0.00     0.293 HD
ENDBRANCH  11  29
ENDBRANCH   3   6
ENDBRANCH   1   2
BRANCH   1  31
ATOM     31  C   UNL A   1      38.333  19.571  25.347  1.00  0.00     0.042 C 
BRANCH  31  32
ATOM     32  C   UNL A   1      39.555  20.164  26.029  1.00  0.00     0.118 C 
BRANCH  32  33
ATOM     33  N   UNL A   1      40.766  19.374  25.766  1.00  0.00    -0.352 N 
ATOM     34  C   UNL A   1      42.081  19.793  25.729  1.00  0.00     0.251 C 
ATOM     35  H   UNL A   1      40.619  18.417  25.593  1.00  0.00     0.163 HD
ATOM     36  O   UNL A   1      42.932  19.106  25.173  1.00  0.00    -0.269 OA
BRANCH  34  37
ATOM     37  C   UNL A   1      42.440  21.069  26.372  1.00  0.00     0.039 A 
ATOM     38  C   UNL A   1      42.654  22.228  25.626  1.00  0.00     0.014 A 
ATOM     39  C   UNL A   1      42.514  21.093  27.762  1.00  0.00     0.014 A 
ATOM     40  C   UNL A   1      42.852  23.426  26.306  1.00  0.00     0.010 A 
ATOM     41  C   UNL A   1      42.508  22.292  28.424  1.00  0.00     0.010 A 
ATOM     42  C   UNL A   1      42.740  23.455  27.709  1.00  0.00    -0.014 A 
BRANCH  42  43
ATOM     43  C   UNL A   1      42.666  24.723  28.427  1.00  0.00     0.031 A 
ATOM     44  C   UNL A   1      41.399  25.443  28.146  1.00  0.00     0.074 A 
ATOM     45  C   UNL A   1      43.547  25.107  29.380  1.00  0.00     0.049 A 
ATOM     46  N   UNL A   1      41.245  26.435  27.333  1.00  0.00    -0.248 NA
ATOM     47  C   UNL A   1      40.126  24.854  28.602  1.00  0.00     0.031 C 
ATOM     48  C   UNL A   1      44.658  24.324  29.940  1.00  0.00     0.029 A 
ATOM     49  N   UNL A   1      43.570  26.232  30.151  1.00  0.00    -0.354 N 
ATOM     50  C   UNL A   1      39.912  26.801  27.466  1.00  0.00     0.074 A 
ATOM     51  C   UNL A   1      39.238  25.648  27.997  1.00  0.00     0.031 C 
ATOM     52  C   UNL A   1      45.066  24.876  31.105  1.00  0.00     0.029 A 
ATOM     53  C   UNL A   1      44.374  26.136  31.291  1.00  0.00     0.049 A 
ATOM     54  H   UNL A   1      43.063  27.043  29.924  1.00  0.00     0.167 HD
ATOM     55  C   UNL A   1      39.577  28.120  27.506  1.00  0.00     0.034 A 
ATOM     56  C   UNL A   1      44.442  27.012  32.328  1.00  0.00     0.034 A 
ATOM     57  C   UNL A   1      40.674  28.939  27.035  1.00  0.00     0.049 A 
ATOM     58  C   UNL A   1      43.939  28.305  31.823  1.00  0.00     0.074 A 
ATOM     59  C   UNL A   1      41.448  28.996  25.893  1.00  0.00     0.029 A 
ATOM     60  N   UNL A   1      41.381  29.589  28.015  1.00  0.00    -0.354 N 
ATOM     61  N   UNL A   1      44.554  29.008  30.917  1.00  0.00    -0.248 NA
ATOM     62  C   UNL A   1      42.531  28.607  32.010  1.00  0.00     0.031 C 
ATOM     63  C   UNL A   1      42.763  29.304  26.353  1.00  0.00     0.029 A 
ATOM     64  C   UNL A   1      42.714  29.518  27.732  1.00  0.00     0.049 A 
ATOM     65  H   UNL A   1      40.988  30.036  28.799  1.00  0.00     0.167 HD
ATOM     66  C   UNL A   1      43.531  29.444  30.090  1.00  0.00     0.074 A 
ATOM     67  C   UNL A   1      42.312  29.290  30.884  1.00  0.00     0.031 C 
ATOM     68  C   UNL A   1      43.741  29.582  28.748  1.00  0.00     0.034 A 
BRANCH  55  69
ATOM     69  C   UNL A   1      38.511  28.710  28.413  1.00  0.00     0.023 A 
ATOM     70  C   UNL A   1      37.562  29.565  27.805  1.00  0.00     0.012 A 
ATOM     71  C   UNL A   1      38.566  28.728  29.827  1.00  0.00     0.148 A 
ATOM     72  C   UNL A   1      36.766  30.435  28.560  1.00  0.00     0.002 A 
ATOM     73  C   UNL A   1      37.712  29.529  30.575  1.00  0.00     0.091 A 
ATOM     74  F   UNL A   1      39.535  28.082  30.474  1.00  0.00    -0.205 F 
ATOM     75  C   UNL A   1      36.835  30.413  29.946  1.00  0.00     0.022 A 
BRANCH  73  76
ATOM     76  S   UNL A   1      37.731  29.504  32.373  1.00  0.00     0.127 S 
ATOM     77  O   UNL A   1      39.076  29.995  32.656  1.00  0.00    -0.237 OA
ATOM     78  O   UNL A   1      36.647  30.434  32.689  1.00  0.00    -0.237 OA
ATOM     79  O   UNL A   1      37.462  28.122  32.752  1.00  0.00    -0.744 OA
ENDBRANCH  73  76
ENDBRANCH  55  69
BRANCH  56  80
ATOM     80  C   UNL A   1      44.667  26.801  33.780  1.00  0.00     0.023 A 
ATOM     81  C   UNL A   1      45.853  27.281  34.382  1.00  0.00     0.012 A 
ATOM     82  C   UNL A   1      43.600  26.435  34.628  1.00  0.00     0.148 A 
ATOM     83  C   UNL A   1      45.951  27.441  35.770  1.00  0.00     0.002 A 
ATOM     84  C   UNL A   1      43.702  26.597  36.008  1.00  0.00     0.091 A 
ATOM     85  F   UNL A   1      42.453  26.019  34.074  1.00  0.00    -0.205 F 
ATOM     86  C   UNL A   1      44.871  27.114  36.582  1.00  0.00     0.022 A 
BRANCH  84  87
ATOM     87  S   UNL A   1      42.335  26.235  37.118  1.00  0.00     0.127 S 
ATOM     88  O   UNL A   1      42.966  26.387  38.431  1.00  0.00    -0.237 OA
ATOM     89  O   UNL A   1      41.380  27.285  36.774  1.00  0.00    -0.237 OA
ATOM     90  O   UNL A   1      41.920  24.874  36.805  1.00  0.00    -0.744 OA
ENDBRANCH  84  87
ENDBRANCH  56  80
BRANCH  68  91
ATOM     91  C   UNL A   1      45.165  29.630  28.256  1.00  0.00     0.023 A 
ATOM     92  C   UNL A   1      45.915  28.487  27.908  1.00  0.00     0.012 A 
ATOM     93  C   UNL A   1      45.708  30.901  28.010  1.00  0.00     0.148 A 
ATOM     94  C   UNL A   1      47.188  28.617  27.342  1.00  0.00     0.002 A 
ATOM     95  C   UNL A   1      46.947  31.027  27.403  1.00  0.00     0.091 A 
ATOM     96  F   UNL A   1      44.981  31.975  28.357  1.00  0.00    -0.205 F 
ATOM     97  C   UNL A   1      47.697  29.888  27.075  1.00  0.00     0.022 A 
BRANCH  95  98
ATOM     98  S   UNL A   1      47.590  32.633  26.934  1.00  0.00     0.127 S 
ATOM     99  O   UNL A   1      47.652  33.324  28.220  1.00  0.00    -0.237 OA
ATOM    100  O   UNL A   1      48.892  32.294  26.357  1.00  0.00    -0.237 OA
ATOM    101  O   UNL A   1      46.641  33.181  25.973  1.00  0.00    -0.744 OA
ENDBRANCH  95  98
ENDBRANCH  68  91
ENDBRANCH  42  43
ENDBRANCH  34  37
ENDBRANCH  32  33
ENDBRANCH  31  32
ENDBRANCH   1  31
TORSDOF 18
ENDMDL
MODEL 2
REMARK VINA RESULT:     -12.7      1.526      1.840
REMARK SMILES NS(=O)(=O)c1ccc(-n2ccnc2-c2ccc(O)c(C(=O)NCCCNC(=O)c3ccc(-c4c5nc(c(-c6cccc(S(=O)(=O)[O-])c6F)c6ccc([nH]6)c(-c6cccc(S(=O)(=O)[O-])c6F)c6nc(c(-c7cccc(S(=O)(=O)[O-])c7F)c7ccc4[nH]7)C=C6)C=C5)cc3)c2)cc1
REMARK SMILES IDX 23 1 22 2 20 3 21 4 19 6 14 7 15 8 92 9 16 10 17 11 13 12
REMARK SMILES IDX 9 13 10 14 11 15 12 16 8 17 5 18 6 19 94 20 7 21 93 22 2 23
REMARK SMILES IDX 3 24 4 25 1 26 18 29 24 31 25 32 26 33 27 34 28 36 29 37
REMARK SMILES IDX 30 38 91 39 31 40 90 41 32 42 33 43 34 44 84 45 35 46 89 47
REMARK SMILES IDX 83 48 85 49 36 50 88 51 82 52 81 53 37 55 69 56 49 57 68 58
REMARK SMILES IDX 50 59 53 60 67 61 86 62 51 63 52 64 66 66 87 67 54 68 38 69
REMARK SMILES IDX 39 70 47 71 40 72 42 73 48 74 41 75 43 76 44 77 45 78 46 79
REMARK SMILES IDX 70 80 71 81 79 82 72 83 74 84 80 85 73 86 75 87 76 88 77 89
REMARK SMILES IDX 78 90 55 91 56 92 64 93 57 94 59 95 65 96 58 97 60 98 61 99
REMARK SMILES IDX 62 100 63 101
REMARK H PARENT 22 5 1 27 1 28 18 30 26 35 85 54 53 65
REMARK Flexibility Score: inf
ROOT
ATOM      1  C   UNL A   1      37.325  21.227  24.710  1.00  0.00     0.118 C 
ENDROOT
BRANCH   1   2
ATOM      2  N   UNL A   1      36.651  21.759  25.882  1.00  0.00    -0.352 N 
ATOM      3  C   UNL A   1      35.338  22.055  26.162  1.00  0.00     0.255 C 
ATOM      4  O   UNL A   1      35.059  22.304  27.338  1.00  0.00    -0.269 OA
ATOM      5  H   UNL A   1      37.262  21.948  26.630  1.00  0.00     0.163 HD
BRANCH   3   6
ATOM      6  C   UNL A   1      34.220  22.062  25.171  1.00  0.00     0.082 A 
ATOM      7  C   UNL A   1      33.099  22.955  23.178  1.00  0.00     0.019 A 
ATOM      8  C   UNL A   1      32.115  21.975  23.272  1.00  0.00     0.016 A 
ATOM      9  C   UNL A   1      34.086  23.027  24.177  1.00  0.00     0.029 A 
ATOM     10  C   UNL A   1      32.175  21.038  24.306  1.00  0.00     0.048 A 
ATOM     11  C   UNL A   1      33.229  21.068  25.229  1.00  0.00     0.128 A 
BRANCH   7  12
ATOM     12  C   UNL A   1      33.130  23.938  22.088  1.00  0.00     0.144 A 
ATOM     13  N   UNL A   1      32.791  25.288  22.234  1.00  0.00    -0.300 N 
ATOM     14  C   UNL A   1      32.496  25.749  20.971  1.00  0.00     0.113 A 
ATOM     15  C   UNL A   1      32.844  24.732  20.115  1.00  0.00     0.132 A 
ATOM     16  N   UNL A   1      33.275  23.636  20.809  1.00  0.00    -0.236 NA
BRANCH  13  17
ATOM     17  C   UNL A   1      32.689  26.042  23.437  1.00  0.00     0.047 A 
ATOM     18  C   UNL A   1      32.463  27.655  25.704  1.00  0.00     0.082 A 
ATOM     19  C   UNL A   1      31.331  27.016  25.192  1.00  0.00     0.024 A 
ATOM     20  C   UNL A   1      33.712  27.484  25.098  1.00  0.00     0.024 A 
ATOM     21  C   UNL A   1      31.441  26.214  24.053  1.00  0.00     0.028 A 
ATOM     22  C   UNL A   1      33.830  26.653  23.977  1.00  0.00     0.028 A 
BRANCH  18  23
ATOM     23  S   UNL A   1      32.265  28.705  27.117  1.00  0.00     0.238 S 
ATOM     24  O   UNL A   1      31.590  29.911  26.682  1.00  0.00    -0.207 OA
ATOM     25  O   UNL A   1      33.501  28.727  27.854  1.00  0.00    -0.207 OA
BRANCH  23  26
ATOM     26  N   UNL A   1      31.171  27.890  28.098  1.00  0.00    -0.225 NA
ATOM     27  H   UNL A   1      30.496  27.396  27.515  1.00  0.00     0.137 HD
ATOM     28  H   UNL A   1      30.683  28.560  28.692  1.00  0.00     0.137 HD
ENDBRANCH  23  26
ENDBRANCH  18  23
ENDBRANCH  13  17
ENDBRANCH   7  12
BRANCH  11  29
ATOM     29  O   UNL A   1      33.206  20.078  26.177  1.00  0.00    -0.507 OA
ATOM     30  H   UNL A   1      32.686  19.310  26.041  1.00  0.00     0.293 HD
ENDBRANCH  11  29
ENDBRANCH   3   6
ENDBRANCH   1   2
BRANCH   1  31
ATOM     31  C   UNL A   1      38.165  19.978  25.013  1.00  0.00     0.042 C 
BRANCH  31  32
ATOM     32  C   UNL A   1      39.267  20.270  26.018  1.00  0.00     0.118 C 
BRANCH  32  33
ATOM     33  N   UNL A   1      40.441  19.411  25.808  1.00  0.00    -0.352 N 
ATOM     34  C   UNL A   1      41.778  19.757  25.806  1.00  0.00     0.251 C 
ATOM     35  H   UNL A   1      40.248  18.459  25.648  1.00  0.00     0.163 HD
ATOM     36  O   UNL A   1      42.607  19.014  25.289  1.00  0.00    -0.269 OA
BRANCH  34  37
ATOM     37  C   UNL A   1      42.186  21.024  26.436  1.00  0.00     0.039 A 
ATOM     38  C   UNL A   1      42.423  22.173  25.681  1.00  0.00     0.014 A 
ATOM     39  C   UNL A   1      42.282  21.053  27.824  1.00  0.00     0.014 A 
ATOM     40  C   UNL A   1      42.669  23.367  26.351  1.00  0.00     0.010 A 
ATOM     41  C   UNL A   1      42.324  22.254  28.480  1.00  0.00     0.010 A 
ATOM     42  C   UNL A   1      42.580  23.406  27.756  1.00  0.00    -0.014 A 
BRANCH  42  43
ATOM     43  C   UNL A   1      42.556  24.679  28.469  1.00  0.00     0.031 A 
ATOM     44  C   UNL A   1      41.308  25.437  28.203  1.00  0.00     0.074 A 
ATOM     45  C   UNL A   1      43.463  25.040  29.407  1.00  0.00     0.049 A 
ATOM     46  N   UNL A   1      41.174  26.430  27.386  1.00  0.00    -0.248 NA
ATOM     47  C   UNL A   1      40.025  24.891  28.679  1.00  0.00     0.031 C 
ATOM     48  C   UNL A   1      44.557  24.225  29.955  1.00  0.00     0.029 A 
ATOM     49  N   UNL A   1      43.532  26.167  30.172  1.00  0.00    -0.354 N 
ATOM     50  C   UNL A   1      39.855  26.838  27.537  1.00  0.00     0.074 A 
ATOM     51  C   UNL A   1      39.153  25.709  28.084  1.00  0.00     0.031 C 
ATOM     52  C   UNL A   1      44.998  24.769  31.111  1.00  0.00     0.029 A 
ATOM     53  C   UNL A   1      44.349  26.050  31.301  1.00  0.00     0.049 A 
ATOM     54  H   UNL A   1      43.047  26.993  29.949  1.00  0.00     0.167 HD
ATOM     55  C   UNL A   1      39.562  28.168  27.575  1.00  0.00     0.034 A 
ATOM     56  C   UNL A   1      44.459  26.929  32.332  1.00  0.00     0.034 A 
ATOM     57  C   UNL A   1      40.677  28.949  27.084  1.00  0.00     0.049 A 
ATOM     58  C   UNL A   1      43.989  28.234  31.828  1.00  0.00     0.074 A 
ATOM     59  C   UNL A   1      41.435  28.977  25.931  1.00  0.00     0.029 A 
ATOM     60  N   UNL A   1      41.418  29.581  28.051  1.00  0.00    -0.354 N 
ATOM     61  N   UNL A   1      44.613  28.914  30.910  1.00  0.00    -0.248 NA
ATOM     62  C   UNL A   1      42.595  28.582  32.034  1.00  0.00     0.031 C 
ATOM     63  C   UNL A   1      42.767  29.246  26.370  1.00  0.00     0.029 A 
ATOM     64  C   UNL A   1      42.744  29.467  27.749  1.00  0.00     0.049 A 
ATOM     65  H   UNL A   1      41.051  30.044  28.838  1.00  0.00     0.167 HD
ATOM     66  C   UNL A   1      43.592  29.378  30.095  1.00  0.00     0.074 A 
ATOM     67  C   UNL A   1      42.381  29.266  30.908  1.00  0.00     0.031 C 
ATOM     68  C   UNL A   1      43.787  29.503  28.750  1.00  0.00     0.034 A 
BRANCH  55  69
ATOM     69  C   UNL A   1      38.528  28.794  28.495  1.00  0.00     0.023 A 
ATOM     70  C   UNL A   1      37.620  29.703  27.903  1.00  0.00     0.012 A 
ATOM     71  C   UNL A   1      38.587  28.789  29.908  1.00  0.00     0.148 A 
ATOM     72  C   UNL A   1      36.869  30.599  28.673  1.00  0.00     0.002 A 
ATOM     73  C   UNL A   1      37.776  29.619  30.671  1.00  0.00     0.091 A 
ATOM     74  F   UNL A   1      39.527  28.088  30.543  1.00  0.00    -0.205 F 
ATOM     75  C   UNL A   1      36.941  30.553  30.058  1.00  0.00     0.022 A 
BRANCH  73  76
ATOM     76  S   UNL A   1      37.799  29.566  32.469  1.00  0.00     0.127 S 
ATOM     77  O   UNL A   1      36.760  30.536  32.800  1.00  0.00    -0.237 OA
ATOM     78  O   UNL A   1      37.452  28.168  32.723  1.00  0.00    -0.237 OA
ATOM     79  O   UNL A   1      39.156  29.926  32.859  1.00  0.00    -0.744 OA
ENDBRANCH  73  76
ENDBRANCH  55  69
BRANCH  56  80
ATOM     80  C   UNL A   1      44.699  26.717  33.782  1.00  0.00     0.023 A 
ATOM     81  C   UNL A   1      45.909  27.158  34.363  1.00  0.00     0.012 A 
ATOM     82  C   UNL A   1      43.633  26.393  34.647  1.00  0.00     0.148 A 
ATOM     83  C   UNL A   1      46.034  27.323  35.749  1.00  0.00     0.002 A 
ATOM     84  C   UNL A   1      43.761  26.558  36.025  1.00  0.00     0.091 A 
ATOM     85  F   UNL A   1      42.464  26.015  34.113  1.00  0.00    -0.205 F 
ATOM     86  C   UNL A   1      44.955  27.038  36.579  1.00  0.00     0.022 A 
BRANCH  84  87
ATOM     87  S   UNL A   1      42.399  26.250  37.158  1.00  0.00     0.127 S 
ATOM     88  O   UNL A   1      43.047  26.419  38.459  1.00  0.00    -0.237 OA
ATOM     89  O   UNL A   1      41.461  27.311  36.799  1.00  0.00    -0.237 OA
ATOM     90  O   UNL A   1      41.953  24.891  36.880  1.00  0.00    -0.744 OA
ENDBRANCH  84  87
ENDBRANCH  56  80
BRANCH  68  91
ATOM     91  C   UNL A   1      45.205  29.505  28.238  1.00  0.00     0.023 A 
ATOM     92  C   UNL A   1      46.051  30.633  28.272  1.00  0.00     0.012 A 
ATOM     93  C   UNL A   1      45.734  28.269  27.834  1.00  0.00     0.148 A 
ATOM     94  C   UNL A   1      47.394  30.526  27.893  1.00  0.00     0.002 A 
ATOM     95  C   UNL A   1      47.076  28.156  27.507  1.00  0.00     0.091 A 
ATOM     96  F   UNL A   1      44.910  27.211  27.800  1.00  0.00    -0.205 F 
ATOM     97  C   UNL A   1      47.910  29.284  27.525  1.00  0.00     0.022 A 
BRANCH  95  98
ATOM     98  S   UNL A   1      47.810  26.561  27.144  1.00  0.00     0.127 S 
ATOM     99  O   UNL A   1      47.063  26.145  25.960  1.00  0.00    -0.237 OA
ATOM    100  O   UNL A   1      49.210  26.910  26.895  1.00  0.00    -0.237 OA
ATOM    101  O   UNL A   1      47.605  25.744  28.334  1.00  0.00    -0.744 OA
ENDBRANCH  95  98
ENDBRANCH  68  91
ENDBRANCH  42  43
ENDBRANCH  34  37
ENDBRANCH  32  33
ENDBRANCH  31  32
ENDBRANCH   1  31
TORSDOF 18
ENDMDL
MODEL 3
REMARK VINA RESULT:     -12.5      2.850      7.873
REMARK SMILES NS(=O)(=O)c1ccc(-n2ccnc2-c2ccc(O)c(C(=O)NCCCNC(=O)c3ccc(-c4c5nc(c(-c6cccc(S(=O)(=O)[O-])c6F)c6ccc([nH]6)c(-c6cccc(S(=O)(=O)[O-])c6F)c6nc(c(-c7cccc(S(=O)(=O)[O-])c7F)c7ccc4[nH]7)C=C6)C=C5)cc3)c2)cc1
REMARK SMILES IDX 23 1 22 2 20 3 21 4 19 6 14 7 15 8 92 9 16 10 17 11 13 12
REMARK SMILES IDX 9 13 10 14 11 15 12 16 8 17 5 18 6 19 94 20 7 21 93 22 2 23
REMARK SMILES IDX 3 24 4 25 1 26 18 29 24 31 25 32 26 33 27 34 28 36 29 37
REMARK SMILES IDX 30 38 91 39 31 40 90 41 32 42 33 43 34 44 84 45 35 46 89 47
REMARK SMILES IDX 83 48 85 49 36 50 88 51 82 52 81 53 37 55 69 56 49 57 68 58
REMARK SMILES IDX 50 59 53 60 67 61 86 62 51 63 52 64 66 66 87 67 54 68 38 69
REMARK SMILES IDX 39 70 47 71 40 72 42 73 48 74 41 75 43 76 44 77 45 78 46 79
REMARK SMILES IDX 70 80 71 81 79 82 72 83 74 84 80 85 73 86 75 87 76 88 77 89
REMARK SMILES IDX 78 90 55 91 56 92 64 93 57 94 59 95 65 96 58 97 60 98 61 99
REMARK SMILES IDX 62 100 63 101
REMARK H PARENT 22 5 1 27 1 28 18 30 26 35 85 54 53 65
REMARK Flexibility Score: inf
ROOT
ATOM      1  C   UNL A   1      33.271  29.572  25.715  1.00  0.00     0.118 C 
ENDROOT
BRANCH   1   2
ATOM      2  N   UNL A   1      32.085  30.053  25.026  1.00  0.00    -0.352 N 
ATOM      3  C   UNL A   1      31.038  29.422  24.396  1.00  0.00     0.255 C 
ATOM      4  O   UNL A   1      30.070  30.119  24.085  1.00  0.00    -0.269 OA
ATOM      5  H   UNL A   1      32.018  31.035  25.005  1.00  0.00     0.163 HD
BRANCH   3   6
ATOM      6  C   UNL A   1      30.962  27.961  24.095  1.00  0.00     0.082 A 
ATOM      7  C   UNL A   1      30.677  25.620  24.780  1.00  0.00     0.019 A 
ATOM      8  C   UNL A   1      30.745  25.206  23.453  1.00  0.00     0.016 A 
ATOM      9  C   UNL A   1      30.868  26.980  25.080  1.00  0.00     0.029 A 
ATOM     10  C   UNL A   1      30.920  26.157  22.445  1.00  0.00     0.048 A 
ATOM     11  C   UNL A   1      31.002  27.519  22.762  1.00  0.00     0.128 A 
BRANCH   7  12
ATOM     12  C   UNL A   1      30.441  24.684  25.886  1.00  0.00     0.144 A 
ATOM     13  N   UNL A   1      31.214  23.544  26.132  1.00  0.00    -0.300 N 
ATOM     14  C   UNL A   1      30.440  22.715  26.912  1.00  0.00     0.113 A 
ATOM     15  C   UNL A   1      29.332  23.454  27.250  1.00  0.00     0.132 A 
ATOM     16  N   UNL A   1      29.362  24.682  26.650  1.00  0.00    -0.236 NA
BRANCH  13  17
ATOM     17  C   UNL A   1      32.511  23.239  25.633  1.00  0.00     0.047 A 
ATOM     18  C   UNL A   1      35.038  22.764  24.543  1.00  0.00     0.082 A 
ATOM     19  C   UNL A   1      34.904  23.628  25.634  1.00  0.00     0.024 A 
ATOM     20  C   UNL A   1      33.918  22.126  24.000  1.00  0.00     0.024 A 
ATOM     21  C   UNL A   1      33.639  23.872  26.175  1.00  0.00     0.028 A 
ATOM     22  C   UNL A   1      32.655  22.342  24.563  1.00  0.00     0.028 A 
BRANCH  18  23
ATOM     23  S   UNL A   1      36.653  22.529  23.856  1.00  0.00     0.238 S 
ATOM     24  O   UNL A   1      36.612  22.952  22.471  1.00  0.00    -0.207 OA
ATOM     25  O   UNL A   1      37.144  21.238  24.262  1.00  0.00    -0.207 OA
BRANCH  23  26
ATOM     26  N   UNL A   1      37.619  23.648  24.655  1.00  0.00    -0.225 NA
ATOM     27  H   UNL A   1      37.160  24.559  24.647  1.00  0.00     0.137 HD
ATOM     28  H   UNL A   1      38.520  23.717  24.183  1.00  0.00     0.137 HD
ENDBRANCH  23  26
ENDBRANCH  18  23
ENDBRANCH  13  17
ENDBRANCH   7  12
BRANCH  11  29
ATOM     29  O   UNL A   1      31.135  28.363  21.691  1.00  0.00    -0.507 OA
ATOM     30  H   UNL A   1      31.543  29.200  21.801  1.00  0.00     0.293 HD
ENDBRANCH  11  29
ENDBRANCH   3   6
ENDBRANCH   1   2
BRANCH   1  31
ATOM     31  C   UNL A   1      33.287  29.929  27.208  1.00  0.00     0.042 C 
BRANCH  31  32
ATOM     32  C   UNL A   1      34.603  30.564  27.622  1.00  0.00     0.118 C 
BRANCH  32  33
ATOM     33  N   UNL A   1      34.402  31.686  28.550  1.00  0.00    -0.352 N 
ATOM     34  C   UNL A   1      35.015  31.926  29.764  1.00  0.00     0.251 C 
ATOM     35  H   UNL A   1      33.741  32.358  28.267  1.00  0.00     0.163 HD
ATOM     36  O   UNL A   1      34.509  32.703  30.567  1.00  0.00    -0.269 OA
BRANCH  34  37
ATOM     37  C   UNL A   1      36.281  31.239  30.070  1.00  0.00     0.039 A 
ATOM     38  C   UNL A   1      36.320  29.875  30.364  1.00  0.00     0.014 A 
ATOM     39  C   UNL A   1      37.453  31.988  30.010  1.00  0.00     0.014 A 
ATOM     40  C   UNL A   1      37.561  29.264  30.506  1.00  0.00     0.010 A 
ATOM     41  C   UNL A   1      38.665  31.353  29.951  1.00  0.00     0.010 A 
ATOM     42  C   UNL A   1      38.733  30.005  30.260  1.00  0.00    -0.014 A 
BRANCH  42  43
ATOM     43  C   UNL A   1      40.025  29.339  30.128  1.00  0.00     0.031 A 
ATOM     44  C   UNL A   1      40.672  29.125  31.447  1.00  0.00     0.074 A 
ATOM     45  C   UNL A   1      40.490  28.807  28.973  1.00  0.00     0.049 A 
ATOM     46  N   UNL A   1      41.621  29.837  31.960  1.00  0.00    -0.248 NA
ATOM     47  C   UNL A   1      40.043  28.203  32.410  1.00  0.00     0.031 C 
ATOM     48  C   UNL A   1      39.784  28.703  27.688  1.00  0.00     0.029 A 
ATOM     49  N   UNL A   1      41.646  28.128  28.724  1.00  0.00    -0.354 N 
ATOM     50  C   UNL A   1      41.928  29.207  33.159  1.00  0.00     0.074 A 
ATOM     51  C   UNL A   1      40.768  28.435  33.508  1.00  0.00     0.031 C 
ATOM     52  C   UNL A   1      40.403  27.797  26.899  1.00  0.00     0.029 A 
ATOM     53  C   UNL A   1      41.635  27.384  27.540  1.00  0.00     0.049 A 
ATOM     54  H   UNL A   1      42.422  28.158  29.327  1.00  0.00     0.167 HD
ATOM     55  C   UNL A   1      43.231  29.069  33.531  1.00  0.00     0.034 A 
ATOM     56  C   UNL A   1      42.556  26.472  27.132  1.00  0.00     0.034 A 
ATOM     57  C   UNL A   1      44.080  29.942  32.750  1.00  0.00     0.049 A 
ATOM     58  C   UNL A   1      43.802  26.770  27.867  1.00  0.00     0.074 A 
ATOM     59  C   UNL A   1      44.126  31.295  32.478  1.00  0.00     0.029 A 
ATOM     60  N   UNL A   1      44.803  29.324  31.761  1.00  0.00    -0.354 N 
ATOM     61  N   UNL A   1      44.495  27.857  27.689  1.00  0.00    -0.248 NA
ATOM     62  C   UNL A   1      44.044  26.061  29.110  1.00  0.00     0.031 C 
ATOM     63  C   UNL A   1      44.515  31.384  31.107  1.00  0.00     0.029 A 
ATOM     64  C   UNL A   1      44.784  30.097  30.637  1.00  0.00     0.049 A 
ATOM     65  H   UNL A   1      45.264  28.459  31.849  1.00  0.00     0.167 HD
ATOM     66  C   UNL A   1      44.847  28.235  28.976  1.00  0.00     0.074 A 
ATOM     67  C   UNL A   1      44.669  27.029  29.785  1.00  0.00     0.031 C 
ATOM     68  C   UNL A   1      44.938  29.557  29.304  1.00  0.00     0.034 A 
BRANCH  55  69
ATOM     69  C   UNL A   1      43.807  27.833  34.201  1.00  0.00     0.023 A 
ATOM     70  C   UNL A   1      44.687  28.051  35.287  1.00  0.00     0.012 A 
ATOM     71  C   UNL A   1      43.788  26.528  33.654  1.00  0.00     0.148 A 
ATOM     72  C   UNL A   1      45.544  27.047  35.752  1.00  0.00     0.002 A 
ATOM     73  C   UNL A   1      44.577  25.512  34.177  1.00  0.00     0.091 A 
ATOM     74  F   UNL A   1      43.116  26.276  32.531  1.00  0.00    -0.205 F 
ATOM     75  C   UNL A   1      45.485  25.775  35.202  1.00  0.00     0.022 A 
BRANCH  73  76
ATOM     76  S   UNL A   1      44.505  23.835  33.530  1.00  0.00     0.127 S 
ATOM     77  O   UNL A   1      44.728  24.064  32.106  1.00  0.00    -0.237 OA
ATOM     78  O   UNL A   1      45.613  23.200  34.241  1.00  0.00    -0.237 OA
ATOM     79  O   UNL A   1      43.189  23.326  33.896  1.00  0.00    -0.744 OA
ENDBRANCH  73  76
ENDBRANCH  55  69
BRANCH  56  80
ATOM     80  C   UNL A   1      42.417  25.214  26.355  1.00  0.00     0.023 A 
ATOM     81  C   UNL A   1      43.397  24.872  25.395  1.00  0.00     0.012 A 
ATOM     82  C   UNL A   1      41.525  24.204  26.775  1.00  0.00     0.148 A 
ATOM     83  C   UNL A   1      43.518  23.562  24.914  1.00  0.00     0.002 A 
ATOM     84  C   UNL A   1      41.651  22.903  26.294  1.00  0.00     0.091 A 
ATOM     85  F   UNL A   1      40.618  24.498  27.716  1.00  0.00    -0.205 F 
ATOM     86  C   UNL A   1      42.655  22.573  25.375  1.00  0.00     0.022 A 
BRANCH  84  87
ATOM     87  S   UNL A   1      40.600  21.563  26.873  1.00  0.00     0.127 S 
ATOM     88  O   UNL A   1      41.136  20.419  26.132  1.00  0.00    -0.237 OA
ATOM     89  O   UNL A   1      40.885  21.552  28.305  1.00  0.00    -0.237 OA
ATOM     90  O   UNL A   1      39.241  21.936  26.502  1.00  0.00    -0.744 OA
ENDBRANCH  84  87
ENDBRANCH  56  80
BRANCH  68  91
ATOM     91  C   UNL A   1      45.033  30.560  28.184  1.00  0.00     0.023 A 
ATOM     92  C   UNL A   1      43.918  31.056  27.478  1.00  0.00     0.012 A 
ATOM     93  C   UNL A   1      46.298  31.118  27.938  1.00  0.00     0.148 A 
ATOM     94  C   UNL A   1      44.071  32.078  26.533  1.00  0.00     0.002 A 
ATOM     95  C   UNL A   1      46.438  32.163  27.040  1.00  0.00     0.091 A 
ATOM     96  F   UNL A   1      47.347  30.625  28.615  1.00  0.00    -0.205 F 
ATOM     97  C   UNL A   1      45.329  32.642  26.326  1.00  0.00     0.022 A 
BRANCH  95  98
ATOM     98  S   UNL A   1      48.011  32.998  26.827  1.00  0.00     0.127 S 
ATOM     99  O   UNL A   1      47.713  33.938  25.750  1.00  0.00    -0.237 OA
ATOM    100  O   UNL A   1      48.219  33.613  28.139  1.00  0.00    -0.237 OA
ATOM    101  O   UNL A   1      48.978  31.956  26.501  1.00  0.00    -0.744 OA
ENDBRANCH  95  98
ENDBRANCH  68  91
ENDBRANCH  42  43
ENDBRANCH  34  37
ENDBRANCH  32  33
ENDBRANCH  31  32
ENDBRANCH   1  31
TORSDOF 18
ENDMDL
