MODEL 1
REMARK VINA RESULT:     -11.6      0.000      0.000
REMARK SMILES O=C(NCCCNC(=O)C1([C@@H]2CCCC[C@H]2O)CCOCC1)c1ccc(-c2c3nc(c(-c4cccc(S(=O)(=O)[O-])c4F)c4ccc([nH]4)c(-c4cccc(S(=O)(=O)[O-])c4F)c4nc(c(-c5cccc(S(=O)(=O)[O-])c5F)c5ccc2[nH]5)C=C4)C=C3)cc1
REMARK SMILES IDX 4 1 3 2 1 3 2 4 23 6 24 7 85 8 25 9 84 10 26 11 27 12 28 13
REMARK SMILES IDX 78 14 29 15 83 16 77 17 79 18 30 19 82 20 76 21 75 22 31 24
REMARK SMILES IDX 63 25 43 26 62 27 44 28 47 29 61 30 80 31 45 32 46 33 60 35
REMARK SMILES IDX 81 36 48 37 32 38 33 39 41 40 34 41 36 42 42 43 35 44 37 45
REMARK SMILES IDX 38 46 39 47 40 48 64 49 65 50 73 51 66 52 68 53 74 54 67 55
REMARK SMILES IDX 69 56 70 57 71 58 72 59 49 60 50 61 58 62 51 63 53 64 59 65
REMARK SMILES IDX 52 66 54 67 55 68 56 69 57 70 5 71 6 72 7 73 8 74 9 76 10 77
REMARK SMILES IDX 18 78 22 79 19 80 21 81 20 82 11 83 12 84 16 85 13 86 15 87
REMARK SMILES IDX 14 88 17 89
REMARK H PARENT 3 5 79 23 47 34 7 75 17 90
REMARK Flexibility Score: inf
ROOT
ATOM      1  C   UNL A   1      33.171  29.126  25.333  1.00  0.00     0.118 C 
ENDROOT
BRANCH   1   2
ATOM      2  N   UNL A   1      32.669  30.446  25.705  1.00  0.00    -0.352 N 
ATOM      3  O   UNL A   1      32.248  32.178  27.076  1.00  0.00    -0.269 OA
ATOM      4  C   UNL A   1      32.995  31.256  26.768  1.00  0.00     0.251 C 
ATOM      5  H   UNL A   1      31.986  30.814  25.100  1.00  0.00     0.163 HD
BRANCH   4   6
ATOM      6  C   UNL A   1      34.238  31.007  27.529  1.00  0.00     0.039 A 
ATOM      7  C   UNL A   1      34.482  29.739  28.053  1.00  0.00     0.014 A 
ATOM      8  C   UNL A   1      35.184  32.024  27.690  1.00  0.00     0.014 A 
ATOM      9  C   UNL A   1      35.563  29.535  28.893  1.00  0.00     0.010 A 
ATOM     10  C   UNL A   1      36.350  31.774  28.423  1.00  0.00     0.010 A 
ATOM     11  C   UNL A   1      36.535  30.534  29.052  1.00  0.00    -0.014 A 
BRANCH  11  12
ATOM     12  C   UNL A   1      37.778  30.184  29.782  1.00  0.00     0.031 A 
ATOM     13  C   UNL A   1      38.041  30.671  31.177  1.00  0.00     0.074 A 
ATOM     14  C   UNL A   1      38.659  29.370  29.163  1.00  0.00     0.049 A 
ATOM     15  N   UNL A   1      39.053  30.397  31.959  1.00  0.00    -0.248 NA
ATOM     16  C   UNL A   1      37.055  31.584  31.775  1.00  0.00     0.031 C 
ATOM     17  C   UNL A   1      38.521  28.872  27.788  1.00  0.00     0.029 A 
ATOM     18  N   UNL A   1      39.826  28.802  29.600  1.00  0.00    -0.354 N 
ATOM     19  C   UNL A   1      38.849  31.128  33.123  1.00  0.00     0.074 A 
ATOM     20  C   UNL A   1      37.617  31.865  32.943  1.00  0.00     0.031 C 
ATOM     21  C   UNL A   1      39.533  28.040  27.514  1.00  0.00     0.029 A 
ATOM     22  C   UNL A   1      40.434  28.004  28.658  1.00  0.00     0.049 A 
ATOM     23  H   UNL A   1      40.195  28.950  30.501  1.00  0.00     0.167 HD
ATOM     24  C   UNL A   1      39.616  31.168  34.238  1.00  0.00     0.034 A 
ATOM     25  C   UNL A   1      41.602  27.340  28.694  1.00  0.00     0.034 A 
ATOM     26  C   UNL A   1      40.829  30.412  34.410  1.00  0.00     0.049 A 
ATOM     27  C   UNL A   1      42.420  27.401  29.949  1.00  0.00     0.074 A 
ATOM     28  C   UNL A   1      41.653  30.347  35.521  1.00  0.00     0.029 A 
ATOM     29  N   UNL A   1      41.402  29.598  33.444  1.00  0.00    -0.354 N 
ATOM     30  N   UNL A   1      42.149  28.007  31.079  1.00  0.00    -0.248 NA
ATOM     31  C   UNL A   1      43.693  26.670  29.943  1.00  0.00     0.031 C 
ATOM     32  C   UNL A   1      42.738  29.520  35.216  1.00  0.00     0.029 A 
ATOM     33  C   UNL A   1      42.573  29.037  33.928  1.00  0.00     0.049 A 
ATOM     34  H   UNL A   1      41.031  29.440  32.545  1.00  0.00     0.167 HD
ATOM     35  C   UNL A   1      43.207  27.713  31.928  1.00  0.00     0.074 A 
ATOM     36  C   UNL A   1      44.102  26.843  31.192  1.00  0.00     0.031 C 
ATOM     37  C   UNL A   1      43.430  28.141  33.194  1.00  0.00     0.034 A 
BRANCH  24  38
ATOM     38  C   UNL A   1      39.159  32.038  35.381  1.00  0.00     0.023 A 
ATOM     39  C   UNL A   1      38.288  31.512  36.356  1.00  0.00     0.012 A 
ATOM     40  C   UNL A   1      39.663  33.346  35.541  1.00  0.00     0.148 A 
ATOM     41  C   UNL A   1      37.907  32.279  37.457  1.00  0.00     0.002 A 
ATOM     42  C   UNL A   1      39.312  34.089  36.663  1.00  0.00     0.091 A 
ATOM     43  F   UNL A   1      40.478  33.835  34.595  1.00  0.00    -0.205 F 
ATOM     44  C   UNL A   1      38.427  33.561  37.616  1.00  0.00     0.022 A 
BRANCH  42  45
ATOM     45  S   UNL A   1      39.989  35.718  37.001  1.00  0.00     0.127 S 
ATOM     46  O   UNL A   1      39.308  36.067  38.247  1.00  0.00    -0.237 OA
ATOM     47  O   UNL A   1      41.417  35.431  37.146  1.00  0.00    -0.237 OA
ATOM     48  O   UNL A   1      39.647  36.545  35.853  1.00  0.00    -0.744 OA
ENDBRANCH  42  45
ENDBRANCH  24  38
BRANCH  25  49
ATOM     49  C   UNL A   1      42.055  26.559  27.508  1.00  0.00     0.023 A 
ATOM     50  C   UNL A   1      42.770  27.201  26.480  1.00  0.00     0.012 A 
ATOM     51  C   UNL A   1      41.797  25.179  27.408  1.00  0.00     0.148 A 
ATOM     52  C   UNL A   1      43.188  26.488  25.355  1.00  0.00     0.002 A 
ATOM     53  C   UNL A   1      42.273  24.461  26.318  1.00  0.00     0.091 A 
ATOM     54  F   UNL A   1      41.102  24.588  28.390  1.00  0.00    -0.205 F 
ATOM     55  C   UNL A   1      42.950  25.118  25.280  1.00  0.00     0.022 A 
BRANCH  53  56
ATOM     56  S   UNL A   1      42.138  22.674  26.220  1.00  0.00     0.127 S 
ATOM     57  O   UNL A   1      40.691  22.482  26.253  1.00  0.00    -0.237 OA
ATOM     58  O   UNL A   1      42.769  22.392  24.930  1.00  0.00    -0.237 OA
ATOM     59  O   UNL A   1      42.874  22.163  27.368  1.00  0.00    -0.744 OA
ENDBRANCH  53  56
ENDBRANCH  25  49
BRANCH  37  60
ATOM     60  C   UNL A   1      44.680  27.646  33.872  1.00  0.00     0.023 A 
ATOM     61  C   UNL A   1      45.867  28.401  33.795  1.00  0.00     0.012 A 
ATOM     62  C   UNL A   1      44.666  26.450  34.615  1.00  0.00     0.148 A 
ATOM     63  C   UNL A   1      47.034  27.950  34.410  1.00  0.00     0.002 A 
ATOM     64  C   UNL A   1      45.819  26.035  35.270  1.00  0.00     0.091 A 
ATOM     65  F   UNL A   1      43.532  25.735  34.659  1.00  0.00    -0.205 F 
ATOM     66  C   UNL A   1      47.007  26.774  35.155  1.00  0.00     0.022 A 
BRANCH  64  67
ATOM     67  S   UNL A   1      45.852  24.585  36.329  1.00  0.00     0.127 S 
ATOM     68  O   UNL A   1      45.600  23.510  35.371  1.00  0.00    -0.237 OA
ATOM     69  O   UNL A   1      47.215  24.623  36.861  1.00  0.00    -0.237 OA
ATOM     70  O   UNL A   1      44.810  24.792  37.325  1.00  0.00    -0.744 OA
ENDBRANCH  64  67
ENDBRANCH  37  60
ENDBRANCH  11  12
ENDBRANCH   4   6
ENDBRANCH   1   2
BRANCH   1  71
ATOM     71  C   UNL A   1      32.157  28.027  25.615  1.00  0.00     0.042 C 
BRANCH  71  72
ATOM     72  C   UNL A   1      32.751  26.889  26.426  1.00  0.00     0.117 C 
BRANCH  72  73
ATOM     73  N   UNL A   1      31.795  25.820  26.669  1.00  0.00    -0.356 N 
ATOM     74  C   UNL A   1      31.787  24.472  26.587  1.00  0.00     0.226 C 
ATOM     75  H   UNL A   1      30.926  26.171  26.972  1.00  0.00     0.163 HD
ATOM     76  O   UNL A   1      30.787  23.947  27.096  1.00  0.00    -0.274 OA
BRANCH  74  77
ATOM     77  C   UNL A   1      32.864  23.574  25.940  1.00  0.00     0.059 C 
ATOM     78  C   UNL A   1      32.724  22.219  26.708  1.00  0.00     0.046 C 
ATOM     79  C   UNL A   1      34.319  24.024  26.211  1.00  0.00     0.046 C 
ATOM     80  C   UNL A   1      33.840  21.230  26.400  1.00  0.00     0.161 C 
ATOM     81  C   UNL A   1      35.374  22.963  25.924  1.00  0.00     0.161 C 
ATOM     82  O   UNL A   1      35.114  21.794  26.695  1.00  0.00    -0.381 OA
BRANCH  77  83
ATOM     83  C   UNL A   1      32.614  23.396  24.375  1.00  0.00     0.033 C 
ATOM     84  C   UNL A   1      33.598  24.162  23.456  1.00  0.00     0.007 C 
ATOM     85  C   UNL A   1      31.166  23.566  23.837  1.00  0.00     0.118 C 
ATOM     86  C   UNL A   1      33.193  25.600  23.142  1.00  0.00     0.001 C 
ATOM     87  C   UNL A   1      30.753  24.989  23.457  1.00  0.00     0.032 C 
ATOM     88  C   UNL A   1      31.781  25.698  22.583  1.00  0.00     0.003 C 
BRANCH  85  89
ATOM     89  O   UNL A   1      31.080  22.760  22.645  1.00  0.00    -0.393 OA
ATOM     90  H   UNL A   1      31.969  22.478  22.381  1.00  0.00     0.210 HD
ENDBRANCH  85  89
ENDBRANCH  77  83
ENDBRANCH  74  77
ENDBRANCH  72  73
ENDBRANCH  71  72
ENDBRANCH   1  71
TORSDOF 15
ENDMDL
MODEL 2
REMARK VINA RESULT:     -11.4      5.228      9.956
REMARK SMILES O=C(NCCCNC(=O)C1([C@@H]2CCCC[C@H]2O)CCOCC1)c1ccc(-c2c3nc(c(-c4cccc(S(=O)(=O)[O-])c4F)c4ccc([nH]4)c(-c4cccc(S(=O)(=O)[O-])c4F)c4nc(c(-c5cccc(S(=O)(=O)[O-])c5F)c5ccc2[nH]5)C=C4)C=C3)cc1
REMARK SMILES IDX 4 1 3 2 1 3 2 4 23 6 24 7 85 8 25 9 84 10 26 11 27 12 28 13
REMARK SMILES IDX 78 14 29 15 83 16 77 17 79 18 30 19 82 20 76 21 75 22 31 24
REMARK SMILES IDX 63 25 43 26 62 27 44 28 47 29 61 30 80 31 45 32 46 33 60 35
REMARK SMILES IDX 81 36 48 37 32 38 33 39 41 40 34 41 36 42 42 43 35 44 37 45
REMARK SMILES IDX 38 46 39 47 40 48 64 49 65 50 73 51 66 52 68 53 74 54 67 55
REMARK SMILES IDX 69 56 70 57 71 58 72 59 49 60 50 61 58 62 51 63 53 64 59 65
REMARK SMILES IDX 52 66 54 67 55 68 56 69 57 70 5 71 6 72 7 73 8 74 9 76 10 77
REMARK SMILES IDX 18 78 22 79 19 80 21 81 20 82 11 83 12 84 16 85 13 86 15 87
REMARK SMILES IDX 14 88 17 89
REMARK H PARENT 3 5 79 23 47 34 7 75 17 90
REMARK Flexibility Score: inf
ROOT
ATOM      1  C   UNL A   1      35.817  22.387  26.318  1.00  0.00     0.118 C 
ENDROOT
BRANCH   1   2
ATOM      2  N   UNL A   1      36.736  21.295  26.008  1.00  0.00    -0.352 N 
ATOM      3  O   UNL A   1      38.631  20.349  25.252  1.00  0.00    -0.269 OA
ATOM      4  C   UNL A   1      38.096  21.306  25.800  1.00  0.00     0.251 C 
ATOM      5  H   UNL A   1      36.314  20.408  25.935  1.00  0.00     0.163 HD
BRANCH   4   6
ATOM      6  C   UNL A   1      38.896  22.470  26.234  1.00  0.00     0.039 A 
ATOM      7  C   UNL A   1      38.513  23.753  25.847  1.00  0.00     0.014 A 
ATOM      8  C   UNL A   1      40.010  22.293  27.060  1.00  0.00     0.014 A 
ATOM      9  C   UNL A   1      39.337  24.831  26.118  1.00  0.00     0.010 A 
ATOM     10  C   UNL A   1      40.765  23.405  27.452  1.00  0.00     0.010 A 
ATOM     11  C   UNL A   1      40.447  24.680  26.963  1.00  0.00    -0.014 A 
BRANCH  11  12
ATOM     12  C   UNL A   1      41.162  25.906  27.397  1.00  0.00     0.031 A 
ATOM     13  C   UNL A   1      42.572  26.194  26.969  1.00  0.00     0.074 A 
ATOM     14  C   UNL A   1      40.485  26.788  28.162  1.00  0.00     0.049 A 
ATOM     15  N   UNL A   1      43.301  27.250  27.220  1.00  0.00    -0.248 NA
ATOM     16  C   UNL A   1      43.259  25.171  26.165  1.00  0.00     0.031 C 
ATOM     17  C   UNL A   1      39.122  26.587  28.671  1.00  0.00     0.029 A 
ATOM     18  N   UNL A   1      40.830  28.027  28.633  1.00  0.00    -0.354 N 
ATOM     19  C   UNL A   1      44.540  27.008  26.641  1.00  0.00     0.074 A 
ATOM     20  C   UNL A   1      44.469  25.699  26.030  1.00  0.00     0.031 C 
ATOM     21  C   UNL A   1      38.732  27.679  29.338  1.00  0.00     0.029 A 
ATOM     22  C   UNL A   1      39.838  28.625  29.376  1.00  0.00     0.049 A 
ATOM     23  H   UNL A   1      41.702  28.448  28.457  1.00  0.00     0.167 HD
ATOM     24  C   UNL A   1      45.630  27.812  26.617  1.00  0.00     0.034 A 
ATOM     25  C   UNL A   1      39.827  29.794  30.042  1.00  0.00     0.034 A 
ATOM     26  C   UNL A   1      45.679  29.122  27.213  1.00  0.00     0.049 A 
ATOM     27  C   UNL A   1      41.048  30.660  29.985  1.00  0.00     0.074 A 
ATOM     28  C   UNL A   1      46.720  30.035  27.201  1.00  0.00     0.029 A 
ATOM     29  N   UNL A   1      44.649  29.705  27.937  1.00  0.00    -0.354 N 
ATOM     30  N   UNL A   1      42.168  30.462  29.335  1.00  0.00    -0.248 NA
ATOM     31  C   UNL A   1      40.998  31.922  30.734  1.00  0.00     0.031 C 
ATOM     32  C   UNL A   1      46.331  31.154  27.943  1.00  0.00     0.029 A 
ATOM     33  C   UNL A   1      45.034  30.958  28.387  1.00  0.00     0.049 A 
ATOM     34  H   UNL A   1      43.772  29.290  28.107  1.00  0.00     0.167 HD
ATOM     35  C   UNL A   1      42.949  31.583  29.577  1.00  0.00     0.074 A 
ATOM     36  C   UNL A   1      42.156  32.473  30.402  1.00  0.00     0.031 C 
ATOM     37  C   UNL A   1      44.216  31.845  29.173  1.00  0.00     0.034 A 
BRANCH  24  38
ATOM     38  C   UNL A   1      46.860  27.317  25.900  1.00  0.00     0.023 A 
ATOM     39  C   UNL A   1      47.716  26.395  26.535  1.00  0.00     0.012 A 
ATOM     40  C   UNL A   1      47.120  27.694  24.566  1.00  0.00     0.148 A 
ATOM     41  C   UNL A   1      48.822  25.873  25.864  1.00  0.00     0.002 A 
ATOM     42  C   UNL A   1      48.200  27.138  23.890  1.00  0.00     0.091 A 
ATOM     43  F   UNL A   1      46.304  28.586  23.985  1.00  0.00    -0.205 F 
ATOM     44  C   UNL A   1      49.057  26.235  24.540  1.00  0.00     0.022 A 
BRANCH  42  45
ATOM     45  S   UNL A   1      48.544  27.477  22.160  1.00  0.00     0.127 S 
ATOM     46  O   UNL A   1      48.733  26.129  21.627  1.00  0.00    -0.237 OA
ATOM     47  O   UNL A   1      47.311  28.136  21.727  1.00  0.00    -0.237 OA
ATOM     48  O   UNL A   1      49.727  28.325  22.140  1.00  0.00    -0.744 OA
ENDBRANCH  42  45
ENDBRANCH  24  38
BRANCH  25  49
ATOM     49  C   UNL A   1      38.616  30.204  30.808  1.00  0.00     0.023 A 
ATOM     50  C   UNL A   1      38.487  29.839  32.162  1.00  0.00     0.012 A 
ATOM     51  C   UNL A   1      37.604  30.974  30.204  1.00  0.00     0.148 A 
ATOM     52  C   UNL A   1      37.353  30.203  32.889  1.00  0.00     0.002 A 
ATOM     53  C   UNL A   1      36.509  31.389  30.952  1.00  0.00     0.091 A 
ATOM     54  F   UNL A   1      37.737  31.300  28.911  1.00  0.00    -0.205 F 
ATOM     55  C   UNL A   1      36.371  30.987  32.289  1.00  0.00     0.022 A 
BRANCH  53  56
ATOM     56  S   UNL A   1      35.280  32.521  30.296  1.00  0.00     0.127 S 
ATOM     57  O   UNL A   1      34.767  31.773  29.152  1.00  0.00    -0.237 OA
ATOM     58  O   UNL A   1      34.350  32.644  31.419  1.00  0.00    -0.237 OA
ATOM     59  O   UNL A   1      36.004  33.746  29.984  1.00  0.00    -0.744 OA
ENDBRANCH  53  56
ENDBRANCH  25  49
BRANCH  37  60
ATOM     60  C   UNL A   1      44.808  33.163  29.595  1.00  0.00     0.023 A 
ATOM     61  C   UNL A   1      45.554  33.249  30.788  1.00  0.00     0.012 A 
ATOM     62  C   UNL A   1      44.655  34.309  28.791  1.00  0.00     0.148 A 
ATOM     63  C   UNL A   1      46.100  34.465  31.196  1.00  0.00     0.002 A 
ATOM     64  C   UNL A   1      45.248  35.504  29.176  1.00  0.00     0.091 A 
ATOM     65  F   UNL A   1      43.924  34.211  27.670  1.00  0.00    -0.205 F 
ATOM     66  C   UNL A   1      45.956  35.589  30.386  1.00  0.00     0.022 A 
BRANCH  64  67
ATOM     67  S   UNL A   1      45.197  36.977  28.150  1.00  0.00     0.127 S 
ATOM     68  O   UNL A   1      46.180  37.834  28.811  1.00  0.00    -0.237 OA
ATOM     69  O   UNL A   1      45.614  36.460  26.847  1.00  0.00    -0.237 OA
ATOM     70  O   UNL A   1      43.821  37.452  28.199  1.00  0.00    -0.744 OA
ENDBRANCH  64  67
ENDBRANCH  37  60
ENDBRANCH  11  12
ENDBRANCH   4   6
ENDBRANCH   1   2
BRANCH   1  71
ATOM     71  C   UNL A   1      34.939  22.750  25.130  1.00  0.00     0.042 C 
BRANCH  71  72
ATOM     72  C   UNL A   1      35.087  24.207  24.728  1.00  0.00     0.117 C 
BRANCH  72  73
ATOM     73  N   UNL A   1      34.466  24.498  23.444  1.00  0.00    -0.356 N 
ATOM     74  C   UNL A   1      33.681  25.469  22.931  1.00  0.00     0.226 C 
ATOM     75  H   UNL A   1      34.672  23.804  22.776  1.00  0.00     0.163 HD
ATOM     76  O   UNL A   1      33.553  25.408  21.701  1.00  0.00    -0.274 OA
BRANCH  74  77
ATOM     77  C   UNL A   1      32.961  26.591  23.710  1.00  0.00     0.059 C 
ATOM     78  C   UNL A   1      32.807  27.733  22.653  1.00  0.00     0.046 C 
ATOM     79  C   UNL A   1      33.802  27.224  24.844  1.00  0.00     0.046 C 
ATOM     80  C   UNL A   1      32.319  29.047  23.247  1.00  0.00     0.161 C 
ATOM     81  C   UNL A   1      33.275  28.560  25.352  1.00  0.00     0.161 C 
ATOM     82  O   UNL A   1      33.193  29.493  24.279  1.00  0.00    -0.381 OA
BRANCH  77  83
ATOM     83  C   UNL A   1      31.547  26.103  24.265  1.00  0.00     0.033 C 
ATOM     84  C   UNL A   1      31.488  25.844  25.791  1.00  0.00     0.007 C 
ATOM     85  C   UNL A   1      30.821  24.951  23.517  1.00  0.00     0.118 C 
ATOM     86  C   UNL A   1      31.903  24.439  26.218  1.00  0.00     0.001 C 
ATOM     87  C   UNL A   1      31.172  23.531  23.967  1.00  0.00     0.032 C 
ATOM     88  C   UNL A   1      31.131  23.355  25.480  1.00  0.00     0.003 C 
BRANCH  85  89
ATOM     89  O   UNL A   1      29.411  25.141  23.753  1.00  0.00    -0.393 OA
ATOM     90  H   UNL A   1      28.973  24.278  23.808  1.00  0.00     0.210 HD
ENDBRANCH  85  89
ENDBRANCH  77  83
ENDBRANCH  74  77
ENDBRANCH  72  73
ENDBRANCH  71  72
ENDBRANCH   1  71
TORSDOF 15
ENDMDL
MODEL 3
REMARK VINA RESULT:     -11.4      4.740      9.803
REMARK SMILES O=C(NCCCNC(=O)C1([C@@H]2CCCC[C@H]2O)CCOCC1)c1ccc(-c2c3nc(c(-c4cccc(S(=O)(=O)[O-])c4F)c4ccc([nH]4)c(-c4cccc(S(=O)(=O)[O-])c4F)c4nc(c(-c5cccc(S(=O)(=O)[O-])c5F)c5ccc2[nH]5)C=C4)C=C3)cc1
REMARK SMILES IDX 4 1 3 2 1 3 2 4 23 6 24 7 85 8 25 9 84 10 26 11 27 12 28 13
REMARK SMILES IDX 78 14 29 15 83 16 77 17 79 18 30 19 82 20 76 21 75 22 31 24
REMARK SMILES IDX 63 25 43 26 62 27 44 28 47 29 61 30 80 31 45 32 46 33 60 35
REMARK SMILES IDX 81 36 48 37 32 38 33 39 41 40 34 41 36 42 42 43 35 44 37 45
REMARK SMILES IDX 38 46 39 47 40 48 64 49 65 50 73 51 66 52 68 53 74 54 67 55
REMARK SMILES IDX 69 56 70 57 71 58 72 59 49 60 50 61 58 62 51 63 53 64 59 65
REMARK SMILES IDX 52 66 54 67 55 68 56 69 57 70 5 71 6 72 7 73 8 74 9 76 10 77
REMARK SMILES IDX 18 78 22 79 19 80 21 81 20 82 11 83 12 84 16 85 13 86 15 87
REMARK SMILES IDX 14 88 17 89
REMARK H PARENT 3 5 79 23 47 34 7 75 17 90
REMARK Flexibility Score: inf
ROOT
ATOM      1  C   UNL A   1      35.944  22.396  26.073  1.00  0.00     0.118 C 
ENDROOT
BRANCH   1   2
ATOM      2  N   UNL A   1      36.856  21.267  25.911  1.00  0.00    -0.352 N 
ATOM      3  O   UNL A   1      38.786  20.236  25.389  1.00  0.00    -0.269 OA
ATOM      4  C   UNL A   1      38.229  21.234  25.832  1.00  0.00     0.251 C 
ATOM      5  H   UNL A   1      36.418  20.387  25.846  1.00  0.00     0.163 HD
BRANCH   4   6
ATOM      6  C   UNL A   1      39.019  22.402  26.277  1.00  0.00     0.039 A 
ATOM      7  C   UNL A   1      38.679  23.676  25.827  1.00  0.00     0.014 A 
ATOM      8  C   UNL A   1      40.077  22.238  27.176  1.00  0.00     0.014 A 
ATOM      9  C   UNL A   1      39.500  24.752  26.114  1.00  0.00     0.010 A 
ATOM     10  C   UNL A   1      40.823  23.353  27.578  1.00  0.00     0.010 A 
ATOM     11  C   UNL A   1      40.554  24.615  27.029  1.00  0.00    -0.014 A 
BRANCH  11  12
ATOM     12  C   UNL A   1      41.259  25.845  27.466  1.00  0.00     0.031 A 
ATOM     13  C   UNL A   1      42.678  26.129  27.067  1.00  0.00     0.074 A 
ATOM     14  C   UNL A   1      40.566  26.734  28.209  1.00  0.00     0.049 A 
ATOM     15  N   UNL A   1      43.401  27.188  27.324  1.00  0.00    -0.248 NA
ATOM     16  C   UNL A   1      43.383  25.099  26.288  1.00  0.00     0.031 C 
ATOM     17  C   UNL A   1      39.192  26.537  28.689  1.00  0.00     0.029 A 
ATOM     18  N   UNL A   1      40.900  27.977  28.675  1.00  0.00    -0.354 N 
ATOM     19  C   UNL A   1      44.653  26.942  26.774  1.00  0.00     0.074 A 
ATOM     20  C   UNL A   1      44.595  25.627  26.174  1.00  0.00     0.031 C 
ATOM     21  C   UNL A   1      38.787  27.636  29.337  1.00  0.00     0.029 A 
ATOM     22  C   UNL A   1      39.892  28.582  29.391  1.00  0.00     0.049 A 
ATOM     23  H   UNL A   1      41.776  28.398  28.514  1.00  0.00     0.167 HD
ATOM     24  C   UNL A   1      45.743  27.746  26.766  1.00  0.00     0.034 A 
ATOM     25  C   UNL A   1      39.866  29.757  30.045  1.00  0.00     0.034 A 
ATOM     26  C   UNL A   1      45.778  29.062  27.350  1.00  0.00     0.049 A 
ATOM     27  C   UNL A   1      41.088  30.624  30.006  1.00  0.00     0.074 A 
ATOM     28  C   UNL A   1      46.819  29.974  27.352  1.00  0.00     0.029 A 
ATOM     29  N   UNL A   1      44.733  29.651  28.046  1.00  0.00    -0.354 N 
ATOM     30  N   UNL A   1      42.222  30.420  29.382  1.00  0.00    -0.248 NA
ATOM     31  C   UNL A   1      41.021  31.893  30.742  1.00  0.00     0.031 C 
ATOM     32  C   UNL A   1      46.414  31.100  28.075  1.00  0.00     0.029 A 
ATOM     33  C   UNL A   1      45.108  30.908  28.492  1.00  0.00     0.049 A 
ATOM     34  H   UNL A   1      43.853  29.237  28.200  1.00  0.00     0.167 HD
ATOM     35  C   UNL A   1      42.997  31.544  29.631  1.00  0.00     0.074 A 
ATOM     36  C   UNL A   1      42.186  32.441  30.429  1.00  0.00     0.031 C 
ATOM     37  C   UNL A   1      44.273  31.803  29.252  1.00  0.00     0.034 A 
BRANCH  24  38
ATOM     38  C   UNL A   1      46.989  27.245  26.081  1.00  0.00     0.023 A 
ATOM     39  C   UNL A   1      47.189  27.512  24.711  1.00  0.00     0.012 A 
ATOM     40  C   UNL A   1      48.001  26.588  26.811  1.00  0.00     0.148 A 
ATOM     41  C   UNL A   1      48.365  27.116  24.075  1.00  0.00     0.002 A 
ATOM     42  C   UNL A   1      49.188  26.234  26.179  1.00  0.00     0.091 A 
ATOM     43  F   UNL A   1      47.784  26.327  28.108  1.00  0.00    -0.205 F 
ATOM     44  C   UNL A   1      49.367  26.488  24.810  1.00  0.00     0.022 A 
BRANCH  42  45
ATOM     45  S   UNL A   1      50.571  25.492  27.053  1.00  0.00     0.127 S 
ATOM     46  O   UNL A   1      50.901  26.537  28.021  1.00  0.00    -0.237 OA
ATOM     47  O   UNL A   1      49.960  24.295  27.632  1.00  0.00    -0.237 OA
ATOM     48  O   UNL A   1      51.591  25.230  26.049  1.00  0.00    -0.744 OA
ENDBRANCH  42  45
ENDBRANCH  24  38
BRANCH  25  49
ATOM     49  C   UNL A   1      38.639  30.174  30.781  1.00  0.00     0.023 A 
ATOM     50  C   UNL A   1      38.492  29.843  32.141  1.00  0.00     0.012 A 
ATOM     51  C   UNL A   1      37.629  30.918  30.141  1.00  0.00     0.148 A 
ATOM     52  C   UNL A   1      37.342  30.213  32.840  1.00  0.00     0.002 A 
ATOM     53  C   UNL A   1      36.517  31.341  30.860  1.00  0.00     0.091 A 
ATOM     54  F   UNL A   1      37.780  31.212  28.842  1.00  0.00    -0.205 F 
ATOM     55  C   UNL A   1      36.362  30.971  32.204  1.00  0.00     0.022 A 
BRANCH  53  56
ATOM     56  S   UNL A   1      35.288  32.442  30.155  1.00  0.00     0.127 S 
ATOM     57  O   UNL A   1      34.350  32.590  31.265  1.00  0.00    -0.237 OA
ATOM     58  O   UNL A   1      36.082  33.633  29.856  1.00  0.00    -0.237 OA
ATOM     59  O   UNL A   1      34.777  31.754  28.977  1.00  0.00    -0.744 OA
ENDBRANCH  53  56
ENDBRANCH  25  49
BRANCH  37  60
ATOM     60  C   UNL A   1      44.855  33.125  29.674  1.00  0.00     0.023 A 
ATOM     61  C   UNL A   1      45.581  33.221  30.878  1.00  0.00     0.012 A 
ATOM     62  C   UNL A   1      44.712  34.264  28.859  1.00  0.00     0.148 A 
ATOM     63  C   UNL A   1      46.118  34.441  31.286  1.00  0.00     0.002 A 
ATOM     64  C   UNL A   1      45.297  35.464  29.246  1.00  0.00     0.091 A 
ATOM     65  F   UNL A   1      44.000  34.157  27.728  1.00  0.00    -0.205 F 
ATOM     66  C   UNL A   1      45.985  35.558  30.466  1.00  0.00     0.022 A 
BRANCH  64  67
ATOM     67  S   UNL A   1      45.259  36.929  28.208  1.00  0.00     0.127 S 
ATOM     68  O   UNL A   1      46.021  37.883  29.013  1.00  0.00    -0.237 OA
ATOM     69  O   UNL A   1      45.940  36.468  26.999  1.00  0.00    -0.237 OA
ATOM     70  O   UNL A   1      43.851  37.252  28.022  1.00  0.00    -0.744 OA
ENDBRANCH  64  67
ENDBRANCH  37  60
ENDBRANCH  11  12
ENDBRANCH   4   6
ENDBRANCH   1   2
BRANCH   1  71
ATOM     71  C   UNL A   1      35.267  22.777  24.765  1.00  0.00     0.042 C 
BRANCH  71  72
ATOM     72  C   UNL A   1      35.062  24.276  24.638  1.00  0.00     0.117 C 
BRANCH  72  73
ATOM     73  N   UNL A   1      34.433  24.648  23.380  1.00  0.00    -0.356 N 
ATOM     74  C   UNL A   1      33.630  25.641  22.939  1.00  0.00     0.226 C 
ATOM     75  H   UNL A   1      34.647  24.008  22.663  1.00  0.00     0.163 HD
ATOM     76  O   UNL A   1      33.499  25.666  21.708  1.00  0.00    -0.274 OA
BRANCH  74  77
ATOM     77  C   UNL A   1      32.895  26.692  23.799  1.00  0.00     0.059 C 
ATOM     78  C   UNL A   1      32.694  27.895  22.818  1.00  0.00     0.046 C 
ATOM     79  C   UNL A   1      33.738  27.274  24.958  1.00  0.00     0.046 C 
ATOM     80  C   UNL A   1      32.183  29.155  23.502  1.00  0.00     0.161 C 
ATOM     81  C   UNL A   1      33.187  28.562  25.557  1.00  0.00     0.161 C 
ATOM     82  O   UNL A   1      33.062  29.558  24.547  1.00  0.00    -0.381 OA
BRANCH  77  83
ATOM     83  C   UNL A   1      31.504  26.133  24.343  1.00  0.00     0.033 C 
ATOM     84  C   UNL A   1      31.542  25.544  25.775  1.00  0.00     0.007 C 
ATOM     85  C   UNL A   1      30.675  25.197  23.421  1.00  0.00     0.118 C 
ATOM     86  C   UNL A   1      31.922  24.068  25.850  1.00  0.00     0.001 C 
ATOM     87  C   UNL A   1      30.993  23.703  23.519  1.00  0.00     0.032 C 
ATOM     88  C   UNL A   1      31.052  23.197  24.955  1.00  0.00     0.003 C 
BRANCH  85  89
ATOM     89  O   UNL A   1      29.296  25.368  23.804  1.00  0.00    -0.393 OA
ATOM     90  H   UNL A   1      28.769  25.595  23.022  1.00  0.00     0.210 HD
ENDBRANCH  85  89
ENDBRANCH  77  83
ENDBRANCH  74  77
ENDBRANCH  72  73
ENDBRANCH  71  72
ENDBRANCH   1  71
TORSDOF 15
ENDMDL
