MODEL 1
REMARK VINA RESULT:     -12.3      0.000      0.000
REMARK SMILES C[C@]12CC[C@@H]3[C@@H](CCC4=C/C(=N\OCC(=O)N5CCC[C@@H]5C(=O)NCCCNC(=O)c5ccc(-c6c7nc(c(-c8cccc(S(=O)(=O)[O-])c8F)c8ccc([nH]8)c(-c8cccc(S(=O)(=O)[O-])c8F)c8nc(c(-c9cccc(S(=O)(=O)[O-])c9F)c9ccc6[nH]9)C=C8)C=C7)cc5)CC[C@@]43C)[C@@H]1CC[C@@H]2O
REMARK SMILES IDX 25 1 24 2 22 3 23 4 21 6 17 7 18 8 19 9 20 10 15 11 16 12
REMARK SMILES IDX 14 13 13 14 12 15 1 16 2 17 3 18 98 19 101 20 4 21 6 22
REMARK SMILES IDX 99 23 100 24 5 25 7 26 96 27 8 28 9 29 95 30 97 31 10 32
REMARK SMILES IDX 94 33 11 34 102 35 26 37 27 38 28 39 29 40 30 42 31 43 32 44
REMARK SMILES IDX 93 45 33 46 92 47 34 48 35 49 36 50 86 51 37 52 91 53 85 54
REMARK SMILES IDX 87 55 38 56 90 57 84 58 83 59 39 61 71 62 51 63 70 64 52 65
REMARK SMILES IDX 55 66 69 67 88 68 53 69 54 70 68 72 89 73 56 74 40 75 41 76
REMARK SMILES IDX 49 77 42 78 44 79 50 80 43 81 45 82 46 83 47 84 48 85 72 86
REMARK SMILES IDX 73 87 81 88 74 89 76 90 82 91 75 92 77 93 78 94 79 95 80 96
REMARK SMILES IDX 57 97 58 98 66 99 59 100 61 101 67 102 60 103 62 104 63 105
REMARK SMILES IDX 64 106 65 107
REMARK H PARENT 24 5 102 36 28 41 87 60 55 71
REMARK Flexibility Score: inf
ROOT
ATOM      1  C   UNL A   1      36.539  32.837  31.866  1.00  0.00     0.117 C 
ENDROOT
BRANCH   1   2
ATOM      2  N   UNL A   1      36.276  34.146  32.436  1.00  0.00    -0.354 N 
ATOM      3  C   UNL A   1      35.166  34.929  32.398  1.00  0.00     0.242 C 
ATOM      4  O   UNL A   1      35.215  36.001  33.014  1.00  0.00    -0.273 OA
ATOM      5  H   UNL A   1      37.030  34.531  32.937  1.00  0.00     0.163 HD
BRANCH   3   6
ATOM      6  C   UNL A   1      33.959  34.654  31.491  1.00  0.00     0.174 C 
ATOM      7  N   UNL A   1      34.067  34.808  30.043  1.00  0.00    -0.328 N 
ATOM      8  C   UNL A   1      33.246  35.921  29.577  1.00  0.00     0.120 C 
ATOM      9  C   UNL A   1      32.937  36.731  30.824  1.00  0.00     0.024 C 
ATOM     10  C   UNL A   1      32.866  35.659  31.901  1.00  0.00     0.037 C 
BRANCH   7  11
ATOM     11  C   UNL A   1      34.722  34.003  29.142  1.00  0.00     0.264 C 
ATOM     12  O   UNL A   1      35.883  34.276  28.806  1.00  0.00    -0.271 OA
BRANCH  11  13
ATOM     13  C   UNL A   1      34.052  32.767  28.500  1.00  0.00     0.363 C 
BRANCH  13  14
ATOM     14  O   UNL A   1      34.488  32.170  27.293  1.00  0.00    -0.385 OA
BRANCH  14  15
ATOM     15  N   UNL A   1      34.773  30.827  27.551  1.00  0.00    -0.091 NA
ATOM     16  C   UNL A   1      31.591  23.960  23.237  1.00  0.00     0.014 C 
ATOM     17  C   UNL A   1      32.352  25.281  23.595  1.00  0.00    -0.003 C 
ATOM     18  C   UNL A   1      32.718  25.080  25.055  1.00  0.00     0.010 C 
ATOM     19  C   UNL A   1      31.578  26.583  23.246  1.00  0.00     0.001 C 
ATOM     20  C   UNL A   1      33.524  25.617  22.647  1.00  0.00     0.120 C 
ATOM     21  C   UNL A   1      31.540  25.426  25.966  1.00  0.00     0.005 C 
ATOM     22  C   UNL A   1      30.501  27.013  24.240  1.00  0.00    -0.003 C 
ATOM     23  C   UNL A   1      31.420  26.392  21.705  1.00  0.00     0.007 C 
ATOM     24  C   UNL A   1      32.790  25.719  21.303  1.00  0.00     0.032 C 
ATOM     25  C   UNL A   1      30.986  26.838  25.717  1.00  0.00     0.002 C 
ATOM     26  C   UNL A   1      30.025  28.471  24.088  1.00  0.00     0.008 C 
ATOM     27  C   UNL A   1      31.899  27.968  26.386  1.00  0.00    -0.008 C 
ATOM     28  C   UNL A   1      31.052  29.554  24.466  1.00  0.00     0.032 C 
ATOM     29  C   UNL A   1      31.950  29.311  25.659  1.00  0.00    -0.062 C 
ATOM     30  C   UNL A   1      33.393  27.573  26.566  1.00  0.00     0.018 C 
ATOM     31  C   UNL A   1      31.286  28.157  27.803  1.00  0.00     0.016 C 
ATOM     32  C   UNL A   1      32.875  30.250  25.987  1.00  0.00     0.027 C 
ATOM     33  C   UNL A   1      34.232  28.547  27.364  1.00  0.00     0.061 C 
ATOM     34  C   UNL A   1      33.971  29.984  26.980  1.00  0.00     0.080 C 
BRANCH  20  35
ATOM     35  O   UNL A   1      34.646  24.784  22.719  1.00  0.00    -0.393 OA
ATOM     36  H   UNL A   1      35.279  25.034  22.028  1.00  0.00     0.210 HD
ENDBRANCH  20  35
ENDBRANCH  14  15
ENDBRANCH  13  14
ENDBRANCH  11  13
ENDBRANCH   7  11
ENDBRANCH   3   6
ENDBRANCH   1   2
BRANCH   1  37
ATOM     37  C   UNL A   1      36.126  31.722  32.809  1.00  0.00     0.042 C 
BRANCH  37  38
ATOM     38  C   UNL A   1      37.287  31.154  33.604  1.00  0.00     0.118 C 
BRANCH  38  39
ATOM     39  N   UNL A   1      37.541  29.749  33.304  1.00  0.00    -0.352 N 
ATOM     40  C   UNL A   1      38.479  29.189  32.473  1.00  0.00     0.251 C 
ATOM     41  H   UNL A   1      36.952  29.109  33.764  1.00  0.00     0.163 HD
ATOM     42  O   UNL A   1      38.421  27.985  32.203  1.00  0.00    -0.269 OA
BRANCH  40  43
ATOM     43  C   UNL A   1      39.541  30.028  31.883  1.00  0.00     0.039 A 
ATOM     44  C   UNL A   1      40.615  30.438  32.676  1.00  0.00     0.014 A 
ATOM     45  C   UNL A   1      39.494  30.384  30.534  1.00  0.00     0.014 A 
ATOM     46  C   UNL A   1      41.676  31.135  32.093  1.00  0.00     0.010 A 
ATOM     47  C   UNL A   1      40.604  30.958  29.932  1.00  0.00     0.010 A 
ATOM     48  C   UNL A   1      41.702  31.358  30.706  1.00  0.00    -0.014 A 
BRANCH  48  49
ATOM     49  C   UNL A   1      42.859  32.011  30.042  1.00  0.00     0.031 A 
ATOM     50  C   UNL A   1      44.095  31.214  29.718  1.00  0.00     0.074 A 
ATOM     51  C   UNL A   1      42.836  33.339  29.814  1.00  0.00     0.049 A 
ATOM     52  N   UNL A   1      45.218  31.614  29.181  1.00  0.00    -0.248 NA
ATOM     53  C   UNL A   1      44.083  29.786  30.079  1.00  0.00     0.031 C 
ATOM     54  C   UNL A   1      41.735  34.240  30.164  1.00  0.00     0.029 A 
ATOM     55  N   UNL A   1      43.775  34.167  29.252  1.00  0.00    -0.354 N 
ATOM     56  C   UNL A   1      46.056  30.506  29.184  1.00  0.00     0.074 A 
ATOM     57  C   UNL A   1      45.331  29.430  29.820  1.00  0.00     0.031 C 
ATOM     58  C   UNL A   1      42.049  35.488  29.782  1.00  0.00     0.029 A 
ATOM     59  C   UNL A   1      43.386  35.485  29.197  1.00  0.00     0.049 A 
ATOM     60  H   UNL A   1      44.645  33.849  28.919  1.00  0.00     0.167 HD
ATOM     61  C   UNL A   1      47.304  30.380  28.673  1.00  0.00     0.034 A 
ATOM     62  C   UNL A   1      44.032  36.570  28.727  1.00  0.00     0.034 A 
ATOM     63  C   UNL A   1      48.005  31.442  28.003  1.00  0.00     0.049 A 
ATOM     64  C   UNL A   1      45.402  36.401  28.130  1.00  0.00     0.074 A 
ATOM     65  C   UNL A   1      49.226  31.395  27.358  1.00  0.00     0.029 A 
ATOM     66  N   UNL A   1      47.551  32.749  27.907  1.00  0.00    -0.354 N 
ATOM     67  N   UNL A   1      46.112  35.308  27.990  1.00  0.00    -0.248 NA
ATOM     68  C   UNL A   1      46.045  37.610  27.595  1.00  0.00     0.031 C 
ATOM     69  C   UNL A   1      49.531  32.684  26.906  1.00  0.00     0.029 A 
ATOM     70  C   UNL A   1      48.478  33.525  27.232  1.00  0.00     0.049 A 
ATOM     71  H   UNL A   1      46.694  33.077  28.265  1.00  0.00     0.167 HD
ATOM     72  C   UNL A   1      47.269  35.689  27.319  1.00  0.00     0.074 A 
ATOM     73  C   UNL A   1      47.154  37.111  27.066  1.00  0.00     0.031 C 
ATOM     74  C   UNL A   1      48.335  34.932  26.955  1.00  0.00     0.034 A 
BRANCH  61  75
ATOM     75  C   UNL A   1      47.971  29.033  28.792  1.00  0.00     0.023 A 
ATOM     76  C   UNL A   1      48.779  28.743  29.911  1.00  0.00     0.012 A 
ATOM     77  C   UNL A   1      47.785  28.045  27.804  1.00  0.00     0.148 A 
ATOM     78  C   UNL A   1      49.437  27.517  30.019  1.00  0.00     0.002 A 
ATOM     79  C   UNL A   1      48.400  26.805  27.946  1.00  0.00     0.091 A 
ATOM     80  F   UNL A   1      47.033  28.340  26.736  1.00  0.00    -0.205 F 
ATOM     81  C   UNL A   1      49.239  26.547  29.042  1.00  0.00     0.022 A 
BRANCH  79  82
ATOM     82  S   UNL A   1      48.139  25.460  26.784  1.00  0.00     0.127 S 
ATOM     83  O   UNL A   1      48.772  25.987  25.576  1.00  0.00    -0.237 OA
ATOM     84  O   UNL A   1      48.863  24.360  27.421  1.00  0.00    -0.237 OA
ATOM     85  O   UNL A   1      46.697  25.272  26.707  1.00  0.00    -0.744 OA
ENDBRANCH  79  82
ENDBRANCH  61  75
BRANCH  62  86
ATOM     86  C   UNL A   1      43.351  37.896  28.730  1.00  0.00     0.023 A 
ATOM     87  C   UNL A   1      42.447  38.207  27.694  1.00  0.00     0.012 A 
ATOM     88  C   UNL A   1      43.553  38.825  29.768  1.00  0.00     0.148 A 
ATOM     89  C   UNL A   1      41.777  39.430  27.679  1.00  0.00     0.002 A 
ATOM     90  C   UNL A   1      42.840  40.019  29.775  1.00  0.00     0.091 A 
ATOM     91  F   UNL A   1      44.418  38.510  30.741  1.00  0.00    -0.205 F 
ATOM     92  C   UNL A   1      41.965  40.330  28.724  1.00  0.00     0.022 A 
BRANCH  90  93
ATOM     93  S   UNL A   1      42.919  41.185  31.139  1.00  0.00     0.127 S 
ATOM     94  O   UNL A   1      42.624  40.327  32.284  1.00  0.00    -0.237 OA
ATOM     95  O   UNL A   1      44.305  41.648  31.057  1.00  0.00    -0.237 OA
ATOM     96  O   UNL A   1      41.922  42.206  30.848  1.00  0.00    -0.744 OA
ENDBRANCH  90  93
ENDBRANCH  62  86
BRANCH  74  97
ATOM     97  C   UNL A   1      49.453  35.615  26.211  1.00  0.00     0.023 A 
ATOM     98  C   UNL A   1      49.457  35.635  24.803  1.00  0.00     0.012 A 
ATOM     99  C   UNL A   1      50.466  36.297  26.915  1.00  0.00     0.148 A 
ATOM    100  C   UNL A   1      50.472  36.289  24.105  1.00  0.00     0.002 A 
ATOM    101  C   UNL A   1      51.444  36.993  26.214  1.00  0.00     0.091 A 
ATOM    102  F   UNL A   1      50.456  36.253  28.255  1.00  0.00    -0.205 F 
ATOM    103  C   UNL A   1      51.457  36.977  24.810  1.00  0.00     0.022 A 
BRANCH 101 104
ATOM    104  S   UNL A   1      52.692  37.990  27.034  1.00  0.00     0.127 S 
ATOM    105  O   UNL A   1      53.683  36.982  27.405  1.00  0.00    -0.237 OA
ATOM    106  O   UNL A   1      53.115  38.897  25.966  1.00  0.00    -0.237 OA
ATOM    107  O   UNL A   1      52.018  38.642  28.149  1.00  0.00    -0.744 OA
ENDBRANCH 101 104
ENDBRANCH  74  97
ENDBRANCH  48  49
ENDBRANCH  40  43
ENDBRANCH  38  39
ENDBRANCH  37  38
ENDBRANCH   1  37
TORSDOF 18
ENDMDL
MODEL 2
REMARK VINA RESULT:     -11.9      3.710      7.267
REMARK SMILES C[C@]12CC[C@@H]3[C@@H](CCC4=C/C(=N\OCC(=O)N5CCC[C@@H]5C(=O)NCCCNC(=O)c5ccc(-c6c7nc(c(-c8cccc(S(=O)(=O)[O-])c8F)c8ccc([nH]8)c(-c8cccc(S(=O)(=O)[O-])c8F)c8nc(c(-c9cccc(S(=O)(=O)[O-])c9F)c9ccc6[nH]9)C=C8)C=C7)cc5)CC[C@@]43C)[C@@H]1CC[C@@H]2O
REMARK SMILES IDX 25 1 24 2 22 3 23 4 21 6 17 7 18 8 19 9 20 10 15 11 16 12
REMARK SMILES IDX 14 13 13 14 12 15 1 16 2 17 3 18 98 19 101 20 4 21 6 22
REMARK SMILES IDX 99 23 100 24 5 25 7 26 96 27 8 28 9 29 95 30 97 31 10 32
REMARK SMILES IDX 94 33 11 34 102 35 26 37 27 38 28 39 29 40 30 42 31 43 32 44
REMARK SMILES IDX 93 45 33 46 92 47 34 48 35 49 36 50 86 51 37 52 91 53 85 54
REMARK SMILES IDX 87 55 38 56 90 57 84 58 83 59 39 61 71 62 51 63 70 64 52 65
REMARK SMILES IDX 55 66 69 67 88 68 53 69 54 70 68 72 89 73 56 74 40 75 41 76
REMARK SMILES IDX 49 77 42 78 44 79 50 80 43 81 45 82 46 83 47 84 48 85 72 86
REMARK SMILES IDX 73 87 81 88 74 89 76 90 82 91 75 92 77 93 78 94 79 95 80 96
REMARK SMILES IDX 57 97 58 98 66 99 59 100 61 101 67 102 60 103 62 104 63 105
REMARK SMILES IDX 64 106 65 107
REMARK H PARENT 24 5 102 36 28 41 87 60 55 71
REMARK Flexibility Score: inf
ROOT
ATOM      1  C   UNL A   1      38.287  27.965  30.396  1.00  0.00     0.117 C 
ENDROOT
BRANCH   1   2
ATOM      2  N   UNL A   1      38.529  29.162  29.610  1.00  0.00    -0.354 N 
ATOM      3  C   UNL A   1      37.791  30.291  29.455  1.00  0.00     0.242 C 
ATOM      4  O   UNL A   1      38.270  31.180  28.738  1.00  0.00    -0.273 OA
ATOM      5  H   UNL A   1      39.373  29.154  29.105  1.00  0.00     0.163 HD
BRANCH   3   6
ATOM      6  C   UNL A   1      36.344  30.440  29.946  1.00  0.00     0.174 C 
ATOM      7  N   UNL A   1      35.492  31.507  29.430  1.00  0.00    -0.328 N 
ATOM      8  C   UNL A   1      35.181  32.475  30.477  1.00  0.00     0.120 C 
ATOM      9  C   UNL A   1      36.202  32.213  31.570  1.00  0.00     0.024 C 
ATOM     10  C   UNL A   1      36.422  30.711  31.460  1.00  0.00     0.037 C 
BRANCH   7  11
ATOM     11  C   UNL A   1      34.910  31.616  28.189  1.00  0.00     0.264 C 
ATOM     12  O   UNL A   1      34.944  32.699  27.588  1.00  0.00    -0.271 OA
BRANCH  11  13
ATOM     13  C   UNL A   1      34.181  30.433  27.512  1.00  0.00     0.363 C 
BRANCH  13  14
ATOM     14  O   UNL A   1      32.949  30.552  26.828  1.00  0.00    -0.385 OA
BRANCH  14  15
ATOM     15  N   UNL A   1      32.154  29.455  27.169  1.00  0.00    -0.091 NA
ATOM     16  C   UNL A   1      32.273  21.619  23.363  1.00  0.00     0.014 C 
ATOM     17  C   UNL A   1      32.686  22.903  24.159  1.00  0.00    -0.003 C 
ATOM     18  C   UNL A   1      31.376  23.359  24.777  1.00  0.00     0.010 C 
ATOM     19  C   UNL A   1      33.464  23.956  23.322  1.00  0.00     0.001 C 
ATOM     20  C   UNL A   1      33.857  22.691  25.145  1.00  0.00     0.120 C 
ATOM     21  C   UNL A   1      30.549  24.162  23.771  1.00  0.00     0.005 C 
ATOM     22  C   UNL A   1      32.619  24.864  22.430  1.00  0.00    -0.003 C 
ATOM     23  C   UNL A   1      34.698  23.100  22.901  1.00  0.00     0.007 C 
ATOM     24  C   UNL A   1      34.961  22.224  24.187  1.00  0.00     0.032 C 
ATOM     25  C   UNL A   1      31.325  25.343  23.166  1.00  0.00     0.002 C 
ATOM     26  C   UNL A   1      33.345  26.124  21.918  1.00  0.00     0.008 C 
ATOM     27  C   UNL A   1      31.403  26.586  24.169  1.00  0.00    -0.008 C 
ATOM     28  C   UNL A   1      33.674  27.186  22.982  1.00  0.00     0.032 C 
ATOM     29  C   UNL A   1      32.662  27.447  24.077  1.00  0.00    -0.062 C 
ATOM     30  C   UNL A   1      31.305  26.213  25.675  1.00  0.00     0.018 C 
ATOM     31  C   UNL A   1      30.153  27.438  23.810  1.00  0.00     0.016 C 
ATOM     32  C   UNL A   1      32.954  28.366  25.035  1.00  0.00     0.027 C 
ATOM     33  C   UNL A   1      31.187  27.381  26.629  1.00  0.00     0.061 C 
ATOM     34  C   UNL A   1      32.139  28.503  26.290  1.00  0.00     0.080 C 
BRANCH  20  35
ATOM     35  O   UNL A   1      33.592  21.904  26.272  1.00  0.00    -0.393 OA
ATOM     36  H   UNL A   1      34.372  21.369  26.483  1.00  0.00     0.210 HD
ENDBRANCH  20  35
ENDBRANCH  14  15
ENDBRANCH  13  14
ENDBRANCH  11  13
ENDBRANCH   7  11
ENDBRANCH   3   6
ENDBRANCH   1   2
BRANCH   1  37
ATOM     37  C   UNL A   1      38.978  26.753  29.798  1.00  0.00     0.042 C 
BRANCH  37  38
ATOM     38  C   UNL A   1      39.014  26.776  28.281  1.00  0.00     0.118 C 
BRANCH  38  39
ATOM     39  N   UNL A   1      40.163  26.062  27.735  1.00  0.00    -0.352 N 
ATOM     40  C   UNL A   1      41.465  26.475  27.600  1.00  0.00     0.251 C 
ATOM     41  H   UNL A   1      39.977  25.150  27.415  1.00  0.00     0.163 HD
ATOM     42  O   UNL A   1      42.261  25.796  26.943  1.00  0.00    -0.269 OA
BRANCH  40  43
ATOM     43  C   UNL A   1      41.908  27.740  28.219  1.00  0.00     0.039 A 
ATOM     44  C   UNL A   1      41.587  28.955  27.609  1.00  0.00     0.014 A 
ATOM     45  C   UNL A   1      42.616  27.729  29.423  1.00  0.00     0.014 A 
ATOM     46  C   UNL A   1      41.905  30.154  28.251  1.00  0.00     0.010 A 
ATOM     47  C   UNL A   1      42.813  28.914  30.118  1.00  0.00     0.010 A 
ATOM     48  C   UNL A   1      42.478  30.142  29.534  1.00  0.00    -0.014 A 
BRANCH  48  49
ATOM     49  C   UNL A   1      42.741  31.398  30.283  1.00  0.00     0.031 A 
ATOM     50  C   UNL A   1      44.025  32.154  30.065  1.00  0.00     0.074 A 
ATOM     51  C   UNL A   1      41.869  31.809  31.225  1.00  0.00     0.049 A 
ATOM     52  N   UNL A   1      44.453  33.241  30.653  1.00  0.00    -0.248 NA
ATOM     53  C   UNL A   1      44.973  31.595  29.086  1.00  0.00     0.031 C 
ATOM     54  C   UNL A   1      40.633  31.117  31.595  1.00  0.00     0.029 A 
ATOM     55  N   UNL A   1      41.900  32.900  32.058  1.00  0.00    -0.354 N 
ATOM     56  C   UNL A   1      45.729  33.467  30.151  1.00  0.00     0.074 A 
ATOM     57  C   UNL A   1      46.027  32.379  29.249  1.00  0.00     0.031 C 
ATOM     58  C   UNL A   1      40.009  31.814  32.558  1.00  0.00     0.029 A 
ATOM     59  C   UNL A   1      40.817  32.979  32.902  1.00  0.00     0.049 A 
ATOM     60  H   UNL A   1      42.627  33.563  32.052  1.00  0.00     0.167 HD
ATOM     61  C   UNL A   1      46.567  34.505  30.390  1.00  0.00     0.034 A 
ATOM     62  C   UNL A   1      40.509  33.889  33.847  1.00  0.00     0.034 A 
ATOM     63  C   UNL A   1      46.248  35.607  31.256  1.00  0.00     0.049 A 
ATOM     64  C   UNL A   1      41.435  35.053  34.069  1.00  0.00     0.074 A 
ATOM     65  C   UNL A   1      46.977  36.758  31.488  1.00  0.00     0.029 A 
ATOM     66  N   UNL A   1      45.111  35.687  32.045  1.00  0.00    -0.354 N 
ATOM     67  N   UNL A   1      42.561  35.338  33.462  1.00  0.00    -0.248 NA
ATOM     68  C   UNL A   1      41.030  36.037  35.082  1.00  0.00     0.031 C 
ATOM     69  C   UNL A   1      46.300  37.517  32.450  1.00  0.00     0.029 A 
ATOM     70  C   UNL A   1      45.127  36.858  32.784  1.00  0.00     0.049 A 
ATOM     71  H   UNL A   1      44.395  35.011  32.075  1.00  0.00     0.167 HD
ATOM     72  C   UNL A   1      42.983  36.553  33.992  1.00  0.00     0.074 A 
ATOM     73  C   UNL A   1      41.979  36.955  34.957  1.00  0.00     0.031 C 
ATOM     74  C   UNL A   1      44.103  37.265  33.714  1.00  0.00     0.034 A 
BRANCH  61  75
ATOM     75  C   UNL A   1      47.893  34.505  29.673  1.00  0.00     0.023 A 
ATOM     76  C   UNL A   1      49.048  34.028  30.327  1.00  0.00     0.012 A 
ATOM     77  C   UNL A   1      47.996  34.961  28.344  1.00  0.00     0.148 A 
ATOM     78  C   UNL A   1      50.291  34.058  29.694  1.00  0.00     0.002 A 
ATOM     79  C   UNL A   1      49.229  34.937  27.700  1.00  0.00     0.091 A 
ATOM     80  F   UNL A   1      46.896  35.432  27.741  1.00  0.00    -0.205 F 
ATOM     81  C   UNL A   1      50.379  34.503  28.380  1.00  0.00     0.022 A 
BRANCH  79  82
ATOM     82  S   UNL A   1      49.429  35.410  25.979  1.00  0.00     0.127 S 
ATOM     83  O   UNL A   1      50.884  35.378  25.832  1.00  0.00    -0.237 OA
ATOM     84  O   UNL A   1      48.723  34.335  25.281  1.00  0.00    -0.237 OA
ATOM     85  O   UNL A   1      48.813  36.723  25.851  1.00  0.00    -0.744 OA
ENDBRANCH  79  82
ENDBRANCH  61  75
BRANCH  62  86
ATOM     86  C   UNL A   1      39.223  33.775  34.592  1.00  0.00     0.023 A 
ATOM     87  C   UNL A   1      38.051  34.319  34.029  1.00  0.00     0.012 A 
ATOM     88  C   UNL A   1      39.143  33.095  35.822  1.00  0.00     0.148 A 
ATOM     89  C   UNL A   1      36.827  34.209  34.690  1.00  0.00     0.002 A 
ATOM     90  C   UNL A   1      37.911  32.942  36.449  1.00  0.00     0.091 A 
ATOM     91  F   UNL A   1      40.270  32.588  36.341  1.00  0.00    -0.205 F 
ATOM     92  C   UNL A   1      36.756  33.512  35.893  1.00  0.00     0.022 A 
BRANCH  90  93
ATOM     93  S   UNL A   1      37.696  31.955  37.934  1.00  0.00     0.127 S 
ATOM     94  O   UNL A   1      36.404  32.429  38.424  1.00  0.00    -0.237 OA
ATOM     95  O   UNL A   1      37.690  30.596  37.391  1.00  0.00    -0.237 OA
ATOM     96  O   UNL A   1      38.839  32.261  38.783  1.00  0.00    -0.744 OA
ENDBRANCH  90  93
ENDBRANCH  62  86
BRANCH  74  97
ATOM     97  C   UNL A   1      44.295  38.574  34.435  1.00  0.00     0.023 A 
ATOM     98  C   UNL A   1      45.100  38.632  35.589  1.00  0.00     0.012 A 
ATOM     99  C   UNL A   1      43.728  39.760  33.926  1.00  0.00     0.148 A 
ATOM    100  C   UNL A   1      45.307  39.844  36.249  1.00  0.00     0.002 A 
ATOM    101  C   UNL A   1      43.983  40.972  34.556  1.00  0.00     0.091 A 
ATOM    102  F   UNL A   1      42.951  39.681  32.836  1.00  0.00    -0.205 F 
ATOM    103  C   UNL A   1      44.760  41.014  35.726  1.00  0.00     0.022 A 
BRANCH 101 104
ATOM    104  S   UNL A   1      43.406  42.540  33.899  1.00  0.00     0.127 S 
ATOM    105  O   UNL A   1      43.961  42.519  32.547  1.00  0.00    -0.237 OA
ATOM    106  O   UNL A   1      41.953  42.386  33.964  1.00  0.00    -0.237 OA
ATOM    107  O   UNL A   1      43.946  43.568  34.779  1.00  0.00    -0.744 OA
ENDBRANCH 101 104
ENDBRANCH  74  97
ENDBRANCH  48  49
ENDBRANCH  40  43
ENDBRANCH  38  39
ENDBRANCH  37  38
ENDBRANCH   1  37
TORSDOF 18
ENDMDL
MODEL 3
REMARK VINA RESULT:     -11.9      6.113     12.503
REMARK SMILES C[C@]12CC[C@@H]3[C@@H](CCC4=C/C(=N\OCC(=O)N5CCC[C@@H]5C(=O)NCCCNC(=O)c5ccc(-c6c7nc(c(-c8cccc(S(=O)(=O)[O-])c8F)c8ccc([nH]8)c(-c8cccc(S(=O)(=O)[O-])c8F)c8nc(c(-c9cccc(S(=O)(=O)[O-])c9F)c9ccc6[nH]9)C=C8)C=C7)cc5)CC[C@@]43C)[C@@H]1CC[C@@H]2O
REMARK SMILES IDX 25 1 24 2 22 3 23 4 21 6 17 7 18 8 19 9 20 10 15 11 16 12
REMARK SMILES IDX 14 13 13 14 12 15 1 16 2 17 3 18 98 19 101 20 4 21 6 22
REMARK SMILES IDX 99 23 100 24 5 25 7 26 96 27 8 28 9 29 95 30 97 31 10 32
REMARK SMILES IDX 94 33 11 34 102 35 26 37 27 38 28 39 29 40 30 42 31 43 32 44
REMARK SMILES IDX 93 45 33 46 92 47 34 48 35 49 36 50 86 51 37 52 91 53 85 54
REMARK SMILES IDX 87 55 38 56 90 57 84 58 83 59 39 61 71 62 51 63 70 64 52 65
REMARK SMILES IDX 55 66 69 67 88 68 53 69 54 70 68 72 89 73 56 74 40 75 41 76
REMARK SMILES IDX 49 77 42 78 44 79 50 80 43 81 45 82 46 83 47 84 48 85 72 86
REMARK SMILES IDX 73 87 81 88 74 89 76 90 82 91 75 92 77 93 78 94 79 95 80 96
REMARK SMILES IDX 57 97 58 98 66 99 59 100 61 101 67 102 60 103 62 104 63 105
REMARK SMILES IDX 64 106 65 107
REMARK H PARENT 24 5 102 36 28 41 87 60 55 71
REMARK Flexibility Score: inf
ROOT
ATOM      1  C   UNL A   1      35.777  32.165  32.755  1.00  0.00     0.117 C 
ENDROOT
BRANCH   1   2
ATOM      2  N   UNL A   1      36.235  33.374  33.414  1.00  0.00    -0.354 N 
ATOM      3  C   UNL A   1      37.475  33.922  33.511  1.00  0.00     0.242 C 
ATOM      4  O   UNL A   1      37.566  34.999  34.115  1.00  0.00    -0.273 OA
ATOM      5  H   UNL A   1      35.527  33.884  33.868  1.00  0.00     0.163 HD
BRANCH   3   6
ATOM      6  C   UNL A   1      38.763  33.200  33.093  1.00  0.00     0.174 C 
ATOM      7  N   UNL A   1      39.427  32.278  34.010  1.00  0.00    -0.328 N 
ATOM      8  C   UNL A   1      40.721  32.807  34.430  1.00  0.00     0.120 C 
ATOM      9  C   UNL A   1      40.674  34.283  34.078  1.00  0.00     0.024 C 
ATOM     10  C   UNL A   1      39.812  34.294  32.825  1.00  0.00     0.037 C 
BRANCH   7  11
ATOM     11  C   UNL A   1      39.035  31.017  34.391  1.00  0.00     0.264 C 
ATOM     12  O   UNL A   1      38.112  30.881  35.207  1.00  0.00    -0.271 OA
BRANCH  11  13
ATOM     13  C   UNL A   1      39.725  29.741  33.858  1.00  0.00     0.363 C 
BRANCH  13  14
ATOM     14  O   UNL A   1      40.992  29.287  34.295  1.00  0.00    -0.385 OA
BRANCH  14  15
ATOM     15  N   UNL A   1      40.910  27.909  34.513  1.00  0.00    -0.091 NA
ATOM     16  C   UNL A   1      47.164  22.826  37.820  1.00  0.00     0.014 C 
ATOM     17  C   UNL A   1      46.065  23.929  37.651  1.00  0.00    -0.003 C 
ATOM     18  C   UNL A   1      45.084  23.290  36.684  1.00  0.00     0.010 C 
ATOM     19  C   UNL A   1      46.616  25.329  37.259  1.00  0.00     0.001 C 
ATOM     20  C   UNL A   1      45.465  24.438  38.980  1.00  0.00     0.120 C 
ATOM     21  C   UNL A   1      45.564  23.443  35.239  1.00  0.00     0.005 C 
ATOM     22  C   UNL A   1      46.950  25.531  35.782  1.00  0.00    -0.003 C 
ATOM     23  C   UNL A   1      47.542  25.601  38.484  1.00  0.00     0.007 C 
ATOM     24  C   UNL A   1      46.721  24.975  39.678  1.00  0.00     0.032 C 
ATOM     25  C   UNL A   1      45.855  24.904  34.858  1.00  0.00     0.002 C 
ATOM     26  C   UNL A   1      47.119  27.002  35.353  1.00  0.00     0.008 C 
ATOM     27  C   UNL A   1      44.517  25.723  34.553  1.00  0.00    -0.008 C 
ATOM     28  C   UNL A   1      45.836  27.853  35.357  1.00  0.00     0.032 C 
ATOM     29  C   UNL A   1      44.544  27.211  34.899  1.00  0.00    -0.062 C 
ATOM     30  C   UNL A   1      43.248  25.186  35.275  1.00  0.00     0.018 C 
ATOM     31  C   UNL A   1      44.303  25.540  33.024  1.00  0.00     0.016 C 
ATOM     32  C   UNL A   1      43.402  27.947  34.921  1.00  0.00     0.027 C 
ATOM     33  C   UNL A   1      41.942  25.826  34.857  1.00  0.00     0.061 C 
ATOM     34  C   UNL A   1      42.045  27.328  34.737  1.00  0.00     0.080 C 
BRANCH  20  35
ATOM     35  O   UNL A   1      44.656  23.541  39.686  1.00  0.00    -0.393 OA
ATOM     36  H   UNL A   1      43.730  23.672  39.433  1.00  0.00     0.210 HD
ENDBRANCH  20  35
ENDBRANCH  14  15
ENDBRANCH  13  14
ENDBRANCH  11  13
ENDBRANCH   7  11
ENDBRANCH   3   6
ENDBRANCH   1   2
BRANCH   1  37
ATOM     37  C   UNL A   1      34.794  32.473  31.640  1.00  0.00     0.042 C 
BRANCH  37  38
ATOM     38  C   UNL A   1      35.425  32.426  30.261  1.00  0.00     0.118 C 
BRANCH  38  39
ATOM     39  N   UNL A   1      34.631  31.662  29.305  1.00  0.00    -0.352 N 
ATOM     40  C   UNL A   1      35.013  30.645  28.466  1.00  0.00     0.251 C 
ATOM     41  H   UNL A   1      33.680  31.913  29.253  1.00  0.00     0.163 HD
ATOM     42  O   UNL A   1      34.237  30.243  27.592  1.00  0.00    -0.269 OA
BRANCH  40  43
ATOM     43  C   UNL A   1      36.358  30.048  28.591  1.00  0.00     0.039 A 
ATOM     44  C   UNL A   1      37.285  30.217  27.561  1.00  0.00     0.014 A 
ATOM     45  C   UNL A   1      36.715  29.346  29.744  1.00  0.00     0.014 A 
ATOM     46  C   UNL A   1      38.591  29.752  27.726  1.00  0.00     0.010 A 
ATOM     47  C   UNL A   1      38.043  29.003  29.959  1.00  0.00     0.010 A 
ATOM     48  C   UNL A   1      38.994  29.184  28.947  1.00  0.00    -0.014 A 
BRANCH  48  49
ATOM     49  C   UNL A   1      40.399  28.767  29.188  1.00  0.00     0.031 A 
ATOM     50  C   UNL A   1      41.297  29.599  30.064  1.00  0.00     0.074 A 
ATOM     51  C   UNL A   1      40.895  27.690  28.546  1.00  0.00     0.049 A 
ATOM     52  N   UNL A   1      42.559  29.423  30.358  1.00  0.00    -0.248 NA
ATOM     53  C   UNL A   1      40.712  30.813  30.660  1.00  0.00     0.031 C 
ATOM     54  C   UNL A   1      40.155  26.852  27.600  1.00  0.00     0.029 A 
ATOM     55  N   UNL A   1      42.147  27.128  28.576  1.00  0.00    -0.354 N 
ATOM     56  C   UNL A   1      42.927  30.519  31.128  1.00  0.00     0.074 A 
ATOM     57  C   UNL A   1      41.770  31.381  31.215  1.00  0.00     0.031 C 
ATOM     58  C   UNL A   1      40.956  25.867  27.164  1.00  0.00     0.029 A 
ATOM     59  C   UNL A   1      42.275  26.024  27.767  1.00  0.00     0.049 A 
ATOM     60  H   UNL A   1      42.884  27.481  29.125  1.00  0.00     0.167 HD
ATOM     61  C   UNL A   1      44.109  30.774  31.738  1.00  0.00     0.034 A 
ATOM     62  C   UNL A   1      43.337  25.227  27.535  1.00  0.00     0.034 A 
ATOM     63  C   UNL A   1      45.243  29.892  31.683  1.00  0.00     0.049 A 
ATOM     64  C   UNL A   1      44.628  25.506  28.252  1.00  0.00     0.074 A 
ATOM     65  C   UNL A   1      46.451  30.000  32.347  1.00  0.00     0.029 A 
ATOM     66  N   UNL A   1      45.315  28.746  30.905  1.00  0.00    -0.354 N 
ATOM     67  N   UNL A   1      44.907  26.457  29.111  1.00  0.00    -0.248 NA
ATOM     68  C   UNL A   1      45.742  24.582  27.995  1.00  0.00     0.031 C 
ATOM     69  C   UNL A   1      47.269  28.941  31.939  1.00  0.00     0.029 A 
ATOM     70  C   UNL A   1      46.555  28.148  31.054  1.00  0.00     0.049 A 
ATOM     71  H   UNL A   1      44.590  28.407  30.332  1.00  0.00     0.167 HD
ATOM     72  C   UNL A   1      46.214  26.226  29.524  1.00  0.00     0.074 A 
ATOM     73  C   UNL A   1      46.664  25.033  28.834  1.00  0.00     0.031 C 
ATOM     74  C   UNL A   1      46.977  26.941  30.389  1.00  0.00     0.034 A 
BRANCH  61  75
ATOM     75  C   UNL A   1      44.214  32.043  32.546  1.00  0.00     0.023 A 
ATOM     76  C   UNL A   1      44.368  33.283  31.893  1.00  0.00     0.012 A 
ATOM     77  C   UNL A   1      44.144  32.012  33.953  1.00  0.00     0.148 A 
ATOM     78  C   UNL A   1      44.508  34.463  32.624  1.00  0.00     0.002 A 
ATOM     79  C   UNL A   1      44.229  33.198  34.673  1.00  0.00     0.091 A 
ATOM     80  F   UNL A   1      44.019  30.825  34.562  1.00  0.00    -0.205 F 
ATOM     81  C   UNL A   1      44.429  34.420  34.012  1.00  0.00     0.022 A 
BRANCH  79  82
ATOM     82  S   UNL A   1      44.053  33.258  36.460  1.00  0.00     0.127 S 
ATOM     83  O   UNL A   1      45.446  33.171  36.897  1.00  0.00    -0.237 OA
ATOM     84  O   UNL A   1      43.431  34.566  36.664  1.00  0.00    -0.237 OA
ATOM     85  O   UNL A   1      43.211  32.125  36.817  1.00  0.00    -0.744 OA
ENDBRANCH  79  82
ENDBRANCH  61  75
BRANCH  62  86
ATOM     86  C   UNL A   1      43.191  24.041  26.644  1.00  0.00     0.023 A 
ATOM     87  C   UNL A   1      43.852  24.031  25.399  1.00  0.00     0.012 A 
ATOM     88  C   UNL A   1      42.449  22.911  27.038  1.00  0.00     0.148 A 
ATOM     89  C   UNL A   1      43.756  22.927  24.552  1.00  0.00     0.002 A 
ATOM     90  C   UNL A   1      42.402  21.793  26.212  1.00  0.00     0.091 A 
ATOM     91  F   UNL A   1      41.827  22.943  28.224  1.00  0.00    -0.205 F 
ATOM     92  C   UNL A   1      43.040  21.805  24.963  1.00  0.00     0.022 A 
BRANCH  90  93
ATOM     93  S   UNL A   1      41.614  20.257  26.707  1.00  0.00     0.127 S 
ATOM     94  O   UNL A   1      42.486  19.808  27.790  1.00  0.00    -0.237 OA
ATOM     95  O   UNL A   1      40.293  20.723  27.133  1.00  0.00    -0.237 OA
ATOM     96  O   UNL A   1      41.603  19.415  25.520  1.00  0.00    -0.744 OA
ENDBRANCH  90  93
ENDBRANCH  62  86
BRANCH  74  97
ATOM     97  C   UNL A   1      48.370  26.440  30.669  1.00  0.00     0.023 A 
ATOM     98  C   UNL A   1      49.436  26.810  29.827  1.00  0.00     0.012 A 
ATOM     99  C   UNL A   1      48.631  25.654  31.810  1.00  0.00     0.148 A 
ATOM    100  C   UNL A   1      50.734  26.375  30.093  1.00  0.00     0.002 A 
ATOM    101  C   UNL A   1      49.934  25.270  32.100  1.00  0.00     0.091 A 
ATOM    102  F   UNL A   1      47.600  25.297  32.590  1.00  0.00    -0.205 F 
ATOM    103  C   UNL A   1      50.985  25.616  31.235  1.00  0.00     0.022 A 
BRANCH 101 104
ATOM    104  S   UNL A   1      50.366  24.379  33.598  1.00  0.00     0.127 S 
ATOM    105  O   UNL A   1      51.749  23.989  33.325  1.00  0.00    -0.237 OA
ATOM    106  O   UNL A   1      50.215  25.410  34.625  1.00  0.00    -0.237 OA
ATOM    107  O   UNL A   1      49.417  23.279  33.700  1.00  0.00    -0.744 OA
ENDBRANCH 101 104
ENDBRANCH  74  97
ENDBRANCH  48  49
ENDBRANCH  40  43
ENDBRANCH  38  39
ENDBRANCH  37  38
ENDBRANCH   1  37
TORSDOF 18
ENDMDL
