MODEL 1
REMARK VINA RESULT:     -12.4      0.000      0.000
REMARK SMILES Cc1ccc(F)c(C(=O)N[C@@H]2C=C[C@@H](C(=O)NCCCNC(=O)c3ccc(-c4c5nc(c(-c6cccc(S(=O)(=O)[O-])c6F)c6ccc([nH]6)c(-c6cccc(S(=O)(=O)[O-])c6F)c6nc(c(-c7cccc(S(=O)(=O)[O-])c7F)c7ccc4[nH]7)C=C6)C=C5)cc3)C2)c1
REMARK SMILES IDX 19 1 18 2 17 3 15 4 16 5 14 7 11 8 12 9 87 10 13 11 10 12
REMARK SMILES IDX 8 13 9 14 7 16 1 17 2 18 3 19 88 20 4 21 5 22 6 23 20 24
REMARK SMILES IDX 21 25 22 26 23 28 24 29 25 30 86 31 26 32 85 33 27 34 28 35
REMARK SMILES IDX 29 36 79 37 30 38 84 39 78 40 80 41 31 42 83 43 77 44 76 45
REMARK SMILES IDX 32 47 64 48 44 49 63 50 45 51 48 52 62 53 81 54 46 55 47 56
REMARK SMILES IDX 61 58 82 59 49 60 33 61 34 62 42 63 35 64 37 65 43 66 36 67
REMARK SMILES IDX 38 68 39 69 40 70 41 71 65 72 66 73 74 74 67 75 69 76 75 77
REMARK SMILES IDX 68 78 70 79 71 80 72 81 73 82 50 83 51 84 59 85 52 86 54 87
REMARK SMILES IDX 60 88 53 89 55 90 56 91 57 92 58 93
REMARK H PARENT 17 6 10 15 21 27 80 46 48 57
REMARK Flexibility Score: inf
ROOT
ATOM      1  C   UNL A   1      31.435  32.316  26.765  1.00  0.00     0.042 C 
ENDROOT
BRANCH   1   2
ATOM      2  C   UNL A   1      31.503  30.806  26.556  1.00  0.00     0.117 C 
BRANCH   2   3
ATOM      3  N   UNL A   1      32.771  30.221  26.951  1.00  0.00    -0.356 N 
ATOM      4  C   UNL A   1      33.434  29.111  26.530  1.00  0.00     0.227 C 
ATOM      5  O   UNL A   1      34.605  28.995  26.911  1.00  0.00    -0.274 OA
ATOM      6  H   UNL A   1      33.239  30.722  27.657  1.00  0.00     0.163 HD
BRANCH   4   7
ATOM      7  C   UNL A   1      32.794  27.984  25.706  1.00  0.00     0.103 C 
ATOM      8  C   UNL A   1      34.061  26.139  24.676  1.00  0.00     0.106 C 
ATOM      9  C   UNL A   1      33.168  25.668  25.783  1.00  0.00    -0.006 C 
ATOM     10  C   UNL A   1      33.637  27.601  24.490  1.00  0.00     0.047 C 
ATOM     11  C   UNL A   1      32.520  26.678  26.376  1.00  0.00    -0.016 C 
BRANCH   8  12
ATOM     12  N   UNL A   1      33.891  25.282  23.523  1.00  0.00    -0.346 N 
ATOM     13  C   UNL A   1      32.894  25.213  22.574  1.00  0.00     0.254 C 
ATOM     14  O   UNL A   1      33.071  24.481  21.603  1.00  0.00    -0.269 OA
ATOM     15  H   UNL A   1      34.618  24.631  23.393  1.00  0.00     0.164 HD
BRANCH  13  16
ATOM     16  C   UNL A   1      31.603  25.923  22.747  1.00  0.00     0.075 A 
ATOM     17  C   UNL A   1      30.120  29.393  22.285  1.00  0.00     0.044 C 
ATOM     18  C   UNL A   1      30.251  27.943  22.650  1.00  0.00    -0.050 A 
ATOM     19  C   UNL A   1      29.272  27.320  23.430  1.00  0.00     0.006 A 
ATOM     20  C   UNL A   1      31.367  27.202  22.232  1.00  0.00     0.020 A 
ATOM     21  C   UNL A   1      29.440  25.999  23.841  1.00  0.00     0.040 A 
ATOM     22  C   UNL A   1      30.613  25.317  23.522  1.00  0.00     0.135 A 
ATOM     23  F   UNL A   1      30.777  24.087  24.029  1.00  0.00    -0.206 F 
ENDBRANCH  13  16
ENDBRANCH   8  12
ENDBRANCH   4   7
ENDBRANCH   2   3
ENDBRANCH   1   2
BRANCH   1  24
ATOM     24  C   UNL A   1      32.742  32.968  27.212  1.00  0.00     0.118 C 
BRANCH  24  25
ATOM     25  N   UNL A   1      32.552  34.324  27.707  1.00  0.00    -0.352 N 
ATOM     26  C   UNL A   1      33.137  34.974  28.766  1.00  0.00     0.251 C 
ATOM     27  H   UNL A   1      31.898  34.860  27.202  1.00  0.00     0.163 HD
ATOM     28  O   UNL A   1      32.679  36.055  29.130  1.00  0.00    -0.269 OA
BRANCH  26  29
ATOM     29  C   UNL A   1      34.300  34.391  29.472  1.00  0.00     0.039 A 
ATOM     30  C   UNL A   1      34.081  33.675  30.655  1.00  0.00     0.014 A 
ATOM     31  C   UNL A   1      35.603  34.589  29.011  1.00  0.00     0.014 A 
ATOM     32  C   UNL A   1      35.163  33.116  31.342  1.00  0.00     0.010 A 
ATOM     33  C   UNL A   1      36.672  33.973  29.658  1.00  0.00     0.010 A 
ATOM     34  C   UNL A   1      36.466  33.238  30.835  1.00  0.00    -0.014 A 
BRANCH  34  35
ATOM     35  C   UNL A   1      37.628  32.609  31.519  1.00  0.00     0.031 A 
ATOM     36  C   UNL A   1      38.359  31.461  30.876  1.00  0.00     0.074 A 
ATOM     37  C   UNL A   1      37.965  33.006  32.762  1.00  0.00     0.049 A 
ATOM     38  N   UNL A   1      39.344  30.743  31.348  1.00  0.00    -0.248 NA
ATOM     39  C   UNL A   1      37.904  31.049  29.539  1.00  0.00     0.031 C 
ATOM     40  C   UNL A   1      37.294  34.061  33.523  1.00  0.00     0.029 A 
ATOM     41  N   UNL A   1      38.941  32.551  33.613  1.00  0.00    -0.354 N 
ATOM     42  C   UNL A   1      39.598  29.768  30.390  1.00  0.00     0.074 A 
ATOM     43  C   UNL A   1      38.642  29.971  29.322  1.00  0.00     0.031 C 
ATOM     44  C   UNL A   1      37.881  34.177  34.724  1.00  0.00     0.029 A 
ATOM     45  C   UNL A   1      38.949  33.187  34.832  1.00  0.00     0.049 A 
ATOM     46  H   UNL A   1      39.574  31.836  33.374  1.00  0.00     0.167 HD
ATOM     47  C   UNL A   1      40.556  28.809  30.382  1.00  0.00     0.034 A 
ATOM     48  C   UNL A   1      39.726  32.996  35.916  1.00  0.00     0.034 A 
ATOM     49  C   UNL A   1      41.537  28.642  31.421  1.00  0.00     0.049 A 
ATOM     50  C   UNL A   1      40.805  31.949  35.871  1.00  0.00     0.074 A 
ATOM     51  C   UNL A   1      42.609  27.769  31.460  1.00  0.00     0.029 A 
ATOM     52  N   UNL A   1      41.562  29.357  32.609  1.00  0.00    -0.354 N 
ATOM     53  N   UNL A   1      41.132  31.143  34.890  1.00  0.00    -0.248 NA
ATOM     54  C   UNL A   1      41.645  31.808  37.070  1.00  0.00     0.031 C 
ATOM     55  C   UNL A   1      43.269  27.940  32.682  1.00  0.00     0.029 A 
ATOM     56  C   UNL A   1      42.622  28.936  33.395  1.00  0.00     0.049 A 
ATOM     57  H   UNL A   1      40.919  30.060  32.857  1.00  0.00     0.167 HD
ATOM     58  C   UNL A   1      42.237  30.426  35.338  1.00  0.00     0.074 A 
ATOM     59  C   UNL A   1      42.532  30.905  36.673  1.00  0.00     0.031 C 
ATOM     60  C   UNL A   1      42.937  29.455  34.702  1.00  0.00     0.034 A 
BRANCH  47  61
ATOM     61  C   UNL A   1      40.615  27.896  29.185  1.00  0.00     0.023 A 
ATOM     62  C   UNL A   1      39.754  26.781  29.114  1.00  0.00     0.012 A 
ATOM     63  C   UNL A   1      41.498  28.153  28.117  1.00  0.00     0.148 A 
ATOM     64  C   UNL A   1      39.803  25.911  28.027  1.00  0.00     0.002 A 
ATOM     65  C   UNL A   1      41.509  27.305  27.014  1.00  0.00     0.091 A 
ATOM     66  F   UNL A   1      42.327  29.202  28.207  1.00  0.00    -0.205 F 
ATOM     67  C   UNL A   1      40.673  26.177  26.973  1.00  0.00     0.022 A 
BRANCH  65  68
ATOM     68  S   UNL A   1      42.541  27.615  25.577  1.00  0.00     0.127 S 
ATOM     69  O   UNL A   1      41.994  28.879  25.087  1.00  0.00    -0.237 OA
ATOM     70  O   UNL A   1      43.877  27.717  26.168  1.00  0.00    -0.237 OA
ATOM     71  O   UNL A   1      42.357  26.464  24.703  1.00  0.00    -0.744 OA
ENDBRANCH  65  68
ENDBRANCH  47  61
BRANCH  48  72
ATOM     72  C   UNL A   1      39.565  33.880  37.104  1.00  0.00     0.023 A 
ATOM     73  C   UNL A   1      39.992  35.219  37.023  1.00  0.00     0.012 A 
ATOM     74  C   UNL A   1      38.946  33.425  38.284  1.00  0.00     0.148 A 
ATOM     75  C   UNL A   1      39.825  36.086  38.102  1.00  0.00     0.002 A 
ATOM     76  C   UNL A   1      38.736  34.308  39.337  1.00  0.00     0.091 A 
ATOM     77  F   UNL A   1      38.553  32.145  38.340  1.00  0.00    -0.205 F 
ATOM     78  C   UNL A   1      39.188  35.635  39.254  1.00  0.00     0.022 A 
BRANCH  76  79
ATOM     79  S   UNL A   1      37.808  33.857  40.807  1.00  0.00     0.127 S 
ATOM     80  O   UNL A   1      38.744  32.968  41.490  1.00  0.00    -0.237 OA
ATOM     81  O   UNL A   1      37.612  35.158  41.448  1.00  0.00    -0.237 OA
ATOM     82  O   UNL A   1      36.583  33.232  40.325  1.00  0.00    -0.744 OA
ENDBRANCH  76  79
ENDBRANCH  48  72
BRANCH  60  83
ATOM     83  C   UNL A   1      44.119  28.857  35.422  1.00  0.00     0.023 A 
ATOM     84  C   UNL A   1      45.405  29.399  35.229  1.00  0.00     0.012 A 
ATOM     85  C   UNL A   1      43.941  27.811  36.349  1.00  0.00     0.148 A 
ATOM     86  C   UNL A   1      46.500  28.891  35.927  1.00  0.00     0.002 A 
ATOM     87  C   UNL A   1      45.029  27.341  37.075  1.00  0.00     0.091 A 
ATOM     88  F   UNL A   1      42.713  27.294  36.503  1.00  0.00    -0.205 F 
ATOM     89  C   UNL A   1      46.310  27.871  36.857  1.00  0.00     0.022 A 
BRANCH  87  90
ATOM     90  S   UNL A   1      44.862  26.099  38.363  1.00  0.00     0.127 S 
ATOM     91  O   UNL A   1      44.234  24.997  37.635  1.00  0.00    -0.237 OA
ATOM     92  O   UNL A   1      46.253  25.861  38.748  1.00  0.00    -0.237 OA
ATOM     93  O   UNL A   1      44.044  26.709  39.403  1.00  0.00    -0.744 OA
ENDBRANCH  87  90
ENDBRANCH  60  83
ENDBRANCH  34  35
ENDBRANCH  26  29
ENDBRANCH  24  25
ENDBRANCH   1  24
TORSDOF 15
ENDMDL
MODEL 2
REMARK VINA RESULT:     -12.1      0.322      7.827
REMARK SMILES Cc1ccc(F)c(C(=O)N[C@@H]2C=C[C@@H](C(=O)NCCCNC(=O)c3ccc(-c4c5nc(c(-c6cccc(S(=O)(=O)[O-])c6F)c6ccc([nH]6)c(-c6cccc(S(=O)(=O)[O-])c6F)c6nc(c(-c7cccc(S(=O)(=O)[O-])c7F)c7ccc4[nH]7)C=C6)C=C5)cc3)C2)c1
REMARK SMILES IDX 19 1 18 2 17 3 15 4 16 5 14 7 11 8 12 9 87 10 13 11 10 12
REMARK SMILES IDX 8 13 9 14 7 16 1 17 2 18 3 19 88 20 4 21 5 22 6 23 20 24
REMARK SMILES IDX 21 25 22 26 23 28 24 29 25 30 86 31 26 32 85 33 27 34 28 35
REMARK SMILES IDX 29 36 79 37 30 38 84 39 78 40 80 41 31 42 83 43 77 44 76 45
REMARK SMILES IDX 32 47 64 48 44 49 63 50 45 51 48 52 62 53 81 54 46 55 47 56
REMARK SMILES IDX 61 58 82 59 49 60 33 61 34 62 42 63 35 64 37 65 43 66 36 67
REMARK SMILES IDX 38 68 39 69 40 70 41 71 65 72 66 73 74 74 67 75 69 76 75 77
REMARK SMILES IDX 68 78 70 79 71 80 72 81 73 82 50 83 51 84 59 85 52 86 54 87
REMARK SMILES IDX 60 88 53 89 55 90 56 91 57 92 58 93
REMARK H PARENT 17 6 10 15 21 27 80 46 48 57
REMARK Flexibility Score: inf
ROOT
ATOM      1  C   UNL A   1      31.498  32.409  26.840  1.00  0.00     0.042 C 
ENDROOT
BRANCH   1   2
ATOM      2  C   UNL A   1      31.633  30.952  26.407  1.00  0.00     0.117 C 
BRANCH   2   3
ATOM      3  N   UNL A   1      32.853  30.318  26.871  1.00  0.00    -0.356 N 
ATOM      4  C   UNL A   1      33.480  29.168  26.505  1.00  0.00     0.227 C 
ATOM      5  O   UNL A   1      34.627  29.008  26.940  1.00  0.00    -0.274 OA
ATOM      6  H   UNL A   1      33.313  30.813  27.587  1.00  0.00     0.163 HD
BRANCH   4   7
ATOM      7  C   UNL A   1      32.824  28.054  25.677  1.00  0.00     0.103 C 
ATOM      8  C   UNL A   1      34.057  26.163  24.688  1.00  0.00     0.106 C 
ATOM      9  C   UNL A   1      33.128  25.729  25.781  1.00  0.00    -0.006 C 
ATOM     10  C   UNL A   1      33.679  27.636  24.482  1.00  0.00     0.047 C 
ATOM     11  C   UNL A   1      32.498  26.762  26.352  1.00  0.00    -0.016 C 
BRANCH   8  12
ATOM     12  N   UNL A   1      33.885  25.301  23.539  1.00  0.00    -0.346 N 
ATOM     13  C   UNL A   1      32.887  25.229  22.592  1.00  0.00     0.254 C 
ATOM     14  O   UNL A   1      33.062  24.493  21.624  1.00  0.00    -0.269 OA
ATOM     15  H   UNL A   1      34.611  24.649  23.411  1.00  0.00     0.164 HD
BRANCH  13  16
ATOM     16  C   UNL A   1      31.596  25.940  22.764  1.00  0.00     0.075 A 
ATOM     17  C   UNL A   1      30.103  29.399  22.248  1.00  0.00     0.044 C 
ATOM     18  C   UNL A   1      30.240  27.956  22.640  1.00  0.00    -0.050 A 
ATOM     19  C   UNL A   1      29.269  27.347  23.442  1.00  0.00     0.006 A 
ATOM     20  C   UNL A   1      31.354  27.209  22.226  1.00  0.00     0.020 A 
ATOM     21  C   UNL A   1      29.444  26.034  23.877  1.00  0.00     0.040 A 
ATOM     22  C   UNL A   1      30.614  25.348  23.560  1.00  0.00     0.135 A 
ATOM     23  F   UNL A   1      30.786  24.128  24.089  1.00  0.00    -0.206 F 
ENDBRANCH  13  16
ENDBRANCH   8  12
ENDBRANCH   4   7
ENDBRANCH   2   3
ENDBRANCH   1   2
BRANCH   1  24
ATOM     24  C   UNL A   1      32.801  33.080  27.272  1.00  0.00     0.118 C 
BRANCH  24  25
ATOM     25  N   UNL A   1      32.585  34.388  27.873  1.00  0.00    -0.352 N 
ATOM     26  C   UNL A   1      33.132  34.949  29.002  1.00  0.00     0.251 C 
ATOM     27  H   UNL A   1      31.944  34.962  27.394  1.00  0.00     0.163 HD
ATOM     28  O   UNL A   1      32.655  35.994  29.440  1.00  0.00    -0.269 OA
BRANCH  26  29
ATOM     29  C   UNL A   1      34.275  34.313  29.693  1.00  0.00     0.039 A 
ATOM     30  C   UNL A   1      34.024  33.501  30.805  1.00  0.00     0.014 A 
ATOM     31  C   UNL A   1      35.591  34.554  29.292  1.00  0.00     0.014 A 
ATOM     32  C   UNL A   1      35.087  32.890  31.478  1.00  0.00     0.010 A 
ATOM     33  C   UNL A   1      36.643  33.891  29.919  1.00  0.00     0.010 A 
ATOM     34  C   UNL A   1      36.405  33.059  31.025  1.00  0.00    -0.014 A 
BRANCH  34  35
ATOM     35  C   UNL A   1      37.548  32.379  31.690  1.00  0.00     0.031 A 
ATOM     36  C   UNL A   1      38.038  32.850  33.032  1.00  0.00     0.074 A 
ATOM     37  C   UNL A   1      38.208  31.399  31.042  1.00  0.00     0.049 A 
ATOM     38  N   UNL A   1      39.060  32.430  33.732  1.00  0.00    -0.248 NA
ATOM     39  C   UNL A   1      37.299  33.958  33.658  1.00  0.00     0.031 C 
ATOM     40  C   UNL A   1      37.877  30.895  29.708  1.00  0.00     0.029 A 
ATOM     41  N   UNL A   1      39.311  30.668  31.409  1.00  0.00    -0.354 N 
ATOM     42  C   UNL A   1      39.114  33.248  34.855  1.00  0.00     0.074 A 
ATOM     43  C   UNL A   1      38.039  34.208  34.727  1.00  0.00     0.031 C 
ATOM     44  C   UNL A   1      38.752  29.934  29.372  1.00  0.00     0.029 A 
ATOM     45  C   UNL A   1      39.724  29.774  30.450  1.00  0.00     0.049 A 
ATOM     46  H   UNL A   1      39.765  30.775  32.276  1.00  0.00     0.167 HD
ATOM     47  C   UNL A   1      39.962  33.190  35.911  1.00  0.00     0.034 A 
ATOM     48  C   UNL A   1      40.767  28.921  30.436  1.00  0.00     0.034 A 
ATOM     49  C   UNL A   1      40.999  32.203  36.059  1.00  0.00     0.049 A 
ATOM     50  C   UNL A   1      41.674  28.851  31.634  1.00  0.00     0.074 A 
ATOM     51  C   UNL A   1      41.843  31.996  37.135  1.00  0.00     0.029 A 
ATOM     52  N   UNL A   1      41.339  31.262  35.099  1.00  0.00    -0.354 N 
ATOM     53  N   UNL A   1      41.612  29.525  32.757  1.00  0.00    -0.248 NA
ATOM     54  C   UNL A   1      42.775  27.878  31.578  1.00  0.00     0.031 C 
ATOM     55  C   UNL A   1      42.709  30.945  36.817  1.00  0.00     0.029 A 
ATOM     56  C   UNL A   1      42.389  30.480  35.551  1.00  0.00     0.049 A 
ATOM     57  H   UNL A   1      40.898  31.165  34.224  1.00  0.00     0.167 HD
ATOM     58  C   UNL A   1      42.639  29.032  33.555  1.00  0.00     0.074 A 
ATOM     59  C   UNL A   1      43.299  27.993  32.791  1.00  0.00     0.031 C 
ATOM     60  C   UNL A   1      43.006  29.414  34.803  1.00  0.00     0.034 A 
BRANCH  47  61
ATOM     61  C   UNL A   1      39.769  34.200  37.013  1.00  0.00     0.023 A 
ATOM     62  C   UNL A   1      40.116  35.549  36.792  1.00  0.00     0.012 A 
ATOM     63  C   UNL A   1      39.219  33.825  38.254  1.00  0.00     0.148 A 
ATOM     64  C   UNL A   1      39.966  36.498  37.801  1.00  0.00     0.002 A 
ATOM     65  C   UNL A   1      39.029  34.786  39.242  1.00  0.00     0.091 A 
ATOM     66  F   UNL A   1      38.916  32.536  38.460  1.00  0.00    -0.205 F 
ATOM     67  C   UNL A   1      39.414  36.119  39.023  1.00  0.00     0.022 A 
BRANCH  65  68
ATOM     68  S   UNL A   1      38.253  34.404  40.816  1.00  0.00     0.127 S 
ATOM     69  O   UNL A   1      37.882  35.735  41.293  1.00  0.00    -0.237 OA
ATOM     70  O   UNL A   1      37.125  33.564  40.412  1.00  0.00    -0.237 OA
ATOM     71  O   UNL A   1      39.268  33.711  41.599  1.00  0.00    -0.744 OA
ENDBRANCH  65  68
ENDBRANCH  47  61
BRANCH  48  72
ATOM     72  C   UNL A   1      40.953  28.002  29.279  1.00  0.00     0.023 A 
ATOM     73  C   UNL A   1      40.284  26.763  29.275  1.00  0.00     0.012 A 
ATOM     74  C   UNL A   1      41.734  28.366  28.166  1.00  0.00     0.148 A 
ATOM     75  C   UNL A   1      40.406  25.892  28.193  1.00  0.00     0.002 A 
ATOM     76  C   UNL A   1      41.809  27.516  27.068  1.00  0.00     0.091 A 
ATOM     77  F   UNL A   1      42.366  29.548  28.194  1.00  0.00    -0.205 F 
ATOM     78  C   UNL A   1      41.159  26.272  27.085  1.00  0.00     0.022 A 
BRANCH  76  79
ATOM     79  S   UNL A   1      42.645  27.974  25.546  1.00  0.00     0.127 S 
ATOM     80  O   UNL A   1      43.999  28.246  26.018  1.00  0.00    -0.237 OA
ATOM     81  O   UNL A   1      42.501  26.756  24.748  1.00  0.00    -0.237 OA
ATOM     82  O   UNL A   1      41.916  29.124  25.026  1.00  0.00    -0.744 OA
ENDBRANCH  76  79
ENDBRANCH  48  72
BRANCH  60  83
ATOM     83  C   UNL A   1      44.157  28.686  35.449  1.00  0.00     0.023 A 
ATOM     84  C   UNL A   1      45.480  29.085  35.177  1.00  0.00     0.012 A 
ATOM     85  C   UNL A   1      43.922  27.658  36.384  1.00  0.00     0.148 A 
ATOM     86  C   UNL A   1      46.554  28.455  35.806  1.00  0.00     0.002 A 
ATOM     87  C   UNL A   1      44.994  27.068  37.043  1.00  0.00     0.091 A 
ATOM     88  F   UNL A   1      42.657  27.278  36.613  1.00  0.00    -0.205 F 
ATOM     89  C   UNL A   1      46.311  27.456  36.747  1.00  0.00     0.022 A 
BRANCH  87  90
ATOM     90  S   UNL A   1      44.770  25.843  38.337  1.00  0.00     0.127 S 
ATOM     91  O   UNL A   1      46.150  25.583  38.745  1.00  0.00    -0.237 OA
ATOM     92  O   UNL A   1      43.971  26.572  39.322  1.00  0.00    -0.237 OA
ATOM     93  O   UNL A   1      44.080  24.722  37.713  1.00  0.00    -0.744 OA
ENDBRANCH  87  90
ENDBRANCH  60  83
ENDBRANCH  34  35
ENDBRANCH  26  29
ENDBRANCH  24  25
ENDBRANCH   1  24
TORSDOF 15
ENDMDL
MODEL 3
REMARK VINA RESULT:     -12.1      1.400      2.487
REMARK SMILES Cc1ccc(F)c(C(=O)N[C@@H]2C=C[C@@H](C(=O)NCCCNC(=O)c3ccc(-c4c5nc(c(-c6cccc(S(=O)(=O)[O-])c6F)c6ccc([nH]6)c(-c6cccc(S(=O)(=O)[O-])c6F)c6nc(c(-c7cccc(S(=O)(=O)[O-])c7F)c7ccc4[nH]7)C=C6)C=C5)cc3)C2)c1
REMARK SMILES IDX 19 1 18 2 17 3 15 4 16 5 14 7 11 8 12 9 87 10 13 11 10 12
REMARK SMILES IDX 8 13 9 14 7 16 1 17 2 18 3 19 88 20 4 21 5 22 6 23 20 24
REMARK SMILES IDX 21 25 22 26 23 28 24 29 25 30 86 31 26 32 85 33 27 34 28 35
REMARK SMILES IDX 29 36 79 37 30 38 84 39 78 40 80 41 31 42 83 43 77 44 76 45
REMARK SMILES IDX 32 47 64 48 44 49 63 50 45 51 48 52 62 53 81 54 46 55 47 56
REMARK SMILES IDX 61 58 82 59 49 60 33 61 34 62 42 63 35 64 37 65 43 66 36 67
REMARK SMILES IDX 38 68 39 69 40 70 41 71 65 72 66 73 74 74 67 75 69 76 75 77
REMARK SMILES IDX 68 78 70 79 71 80 72 81 73 82 50 83 51 84 59 85 52 86 54 87
REMARK SMILES IDX 60 88 53 89 55 90 56 91 57 92 58 93
REMARK H PARENT 17 6 10 15 21 27 80 46 48 57
REMARK Flexibility Score: inf
ROOT
ATOM      1  C   UNL A   1      31.493  32.409  26.512  1.00  0.00     0.042 C 
ENDROOT
BRANCH   1   2
ATOM      2  C   UNL A   1      31.314  30.894  26.509  1.00  0.00     0.117 C 
BRANCH   2   3
ATOM      3  N   UNL A   1      31.601  30.277  25.228  1.00  0.00    -0.356 N 
ATOM      4  C   UNL A   1      31.706  28.977  24.844  1.00  0.00     0.227 C 
ATOM      5  O   UNL A   1      31.747  28.767  23.625  1.00  0.00    -0.274 OA
ATOM      6  H   UNL A   1      31.748  30.921  24.498  1.00  0.00     0.163 HD
BRANCH   4   7
ATOM      7  C   UNL A   1      31.860  27.800  25.818  1.00  0.00     0.103 C 
ATOM      8  C   UNL A   1      32.374  25.492  25.123  1.00  0.00     0.106 C 
ATOM      9  C   UNL A   1      33.496  26.118  25.893  1.00  0.00    -0.006 C 
ATOM     10  C   UNL A   1      31.238  26.512  25.280  1.00  0.00     0.047 C 
ATOM     11  C   UNL A   1      33.237  27.389  26.226  1.00  0.00    -0.016 C 
BRANCH   8  12
ATOM     12  N   UNL A   1      32.109  24.169  25.644  1.00  0.00    -0.346 N 
ATOM     13  C   UNL A   1      32.928  23.075  25.816  1.00  0.00     0.254 C 
ATOM     14  O   UNL A   1      32.478  22.107  26.425  1.00  0.00    -0.269 OA
ATOM     15  H   UNL A   1      31.177  24.025  25.926  1.00  0.00     0.164 HD
BRANCH  13  16
ATOM     16  C   UNL A   1      34.282  23.012  25.213  1.00  0.00     0.075 A 
ATOM     17  C   UNL A   1      37.894  23.784  26.116  1.00  0.00     0.044 C 
ATOM     18  C   UNL A   1      36.684  23.382  25.323  1.00  0.00    -0.050 A 
ATOM     19  C   UNL A   1      36.767  23.235  23.935  1.00  0.00     0.006 A 
ATOM     20  C   UNL A   1      35.453  23.170  25.963  1.00  0.00     0.020 A 
ATOM     21  C   UNL A   1      35.622  22.948  23.193  1.00  0.00     0.040 A 
ATOM     22  C   UNL A   1      34.386  22.865  23.829  1.00  0.00     0.135 A 
ATOM     23  F   UNL A   1      33.299  22.694  23.062  1.00  0.00    -0.206 F 
ENDBRANCH  13  16
ENDBRANCH   8  12
ENDBRANCH   4   7
ENDBRANCH   2   3
ENDBRANCH   1   2
BRANCH   1  24
ATOM     24  C   UNL A   1      32.696  32.918  27.306  1.00  0.00     0.118 C 
BRANCH  24  25
ATOM     25  N   UNL A   1      32.529  34.292  27.757  1.00  0.00    -0.352 N 
ATOM     26  C   UNL A   1      33.137  34.970  28.785  1.00  0.00     0.251 C 
ATOM     27  H   UNL A   1      31.874  34.819  27.243  1.00  0.00     0.163 HD
ATOM     28  O   UNL A   1      32.698  36.069  29.118  1.00  0.00    -0.269 OA
BRANCH  26  29
ATOM     29  C   UNL A   1      34.303  34.396  29.494  1.00  0.00     0.039 A 
ATOM     30  C   UNL A   1      34.086  33.667  30.668  1.00  0.00     0.014 A 
ATOM     31  C   UNL A   1      35.607  34.617  29.044  1.00  0.00     0.014 A 
ATOM     32  C   UNL A   1      35.170  33.116  31.358  1.00  0.00     0.010 A 
ATOM     33  C   UNL A   1      36.679  34.010  29.693  1.00  0.00     0.010 A 
ATOM     34  C   UNL A   1      36.475  33.261  30.862  1.00  0.00    -0.014 A 
BRANCH  34  35
ATOM     35  C   UNL A   1      37.640  32.641  31.548  1.00  0.00     0.031 A 
ATOM     36  C   UNL A   1      38.379  31.496  30.910  1.00  0.00     0.074 A 
ATOM     37  C   UNL A   1      37.974  33.045  32.790  1.00  0.00     0.049 A 
ATOM     38  N   UNL A   1      39.368  30.785  31.385  1.00  0.00    -0.248 NA
ATOM     39  C   UNL A   1      37.928  31.077  29.574  1.00  0.00     0.031 C 
ATOM     40  C   UNL A   1      37.296  34.098  33.547  1.00  0.00     0.029 A 
ATOM     41  N   UNL A   1      38.953  32.599  33.643  1.00  0.00    -0.354 N 
ATOM     42  C   UNL A   1      39.629  29.809  30.430  1.00  0.00     0.074 A 
ATOM     43  C   UNL A   1      38.672  30.002  29.361  1.00  0.00     0.031 C 
ATOM     44  C   UNL A   1      37.882  34.222  34.748  1.00  0.00     0.029 A 
ATOM     45  C   UNL A   1      38.956  33.239  34.860  1.00  0.00     0.049 A 
ATOM     46  H   UNL A   1      39.590  31.887  33.408  1.00  0.00     0.167 HD
ATOM     47  C   UNL A   1      40.593  28.856  30.426  1.00  0.00     0.034 A 
ATOM     48  C   UNL A   1      39.734  33.056  35.945  1.00  0.00     0.034 A 
ATOM     49  C   UNL A   1      41.574  28.699  31.466  1.00  0.00     0.049 A 
ATOM     50  C   UNL A   1      40.819  32.016  35.904  1.00  0.00     0.074 A 
ATOM     51  C   UNL A   1      42.652  27.832  31.508  1.00  0.00     0.029 A 
ATOM     52  N   UNL A   1      41.594  29.417  32.651  1.00  0.00    -0.354 N 
ATOM     53  N   UNL A   1      41.152  31.208  34.927  1.00  0.00    -0.248 NA
ATOM     54  C   UNL A   1      41.659  31.884  37.105  1.00  0.00     0.031 C 
ATOM     55  C   UNL A   1      43.310  28.011  32.730  1.00  0.00     0.029 A 
ATOM     56  C   UNL A   1      42.656  29.006  33.439  1.00  0.00     0.049 A 
ATOM     57  H   UNL A   1      40.946  30.118  32.897  1.00  0.00     0.167 HD
ATOM     58  C   UNL A   1      42.261  30.500  35.377  1.00  0.00     0.074 A 
ATOM     59  C   UNL A   1      42.552  30.986  36.711  1.00  0.00     0.031 C 
ATOM     60  C   UNL A   1      42.968  29.531  34.745  1.00  0.00     0.034 A 
BRANCH  47  61
ATOM     61  C   UNL A   1      40.658  27.939  29.232  1.00  0.00     0.023 A 
ATOM     62  C   UNL A   1      39.823  26.804  29.177  1.00  0.00     0.012 A 
ATOM     63  C   UNL A   1      41.520  28.213  28.152  1.00  0.00     0.148 A 
ATOM     64  C   UNL A   1      39.879  25.930  28.093  1.00  0.00     0.002 A 
ATOM     65  C   UNL A   1      41.538  27.361  27.052  1.00  0.00     0.091 A 
ATOM     66  F   UNL A   1      42.325  29.281  28.226  1.00  0.00    -0.205 F 
ATOM     67  C   UNL A   1      40.729  26.213  27.027  1.00  0.00     0.022 A 
BRANCH  65  68
ATOM     68  S   UNL A   1      42.543  27.688  25.600  1.00  0.00     0.127 S 
ATOM     69  O   UNL A   1      43.883  27.766  26.180  1.00  0.00    -0.237 OA
ATOM     70  O   UNL A   1      42.302  26.501  24.779  1.00  0.00    -0.237 OA
ATOM     71  O   UNL A   1      42.026  28.927  25.033  1.00  0.00    -0.744 OA
ENDBRANCH  65  68
ENDBRANCH  47  61
BRANCH  48  72
ATOM     72  C   UNL A   1      39.566  33.944  37.130  1.00  0.00     0.023 A 
ATOM     73  C   UNL A   1      39.966  35.291  37.038  1.00  0.00     0.012 A 
ATOM     74  C   UNL A   1      38.968  33.483  38.318  1.00  0.00     0.148 A 
ATOM     75  C   UNL A   1      39.792  36.160  38.114  1.00  0.00     0.002 A 
ATOM     76  C   UNL A   1      38.750  34.367  39.369  1.00  0.00     0.091 A 
ATOM     77  F   UNL A   1      38.601  32.195  38.385  1.00  0.00    -0.205 F 
ATOM     78  C   UNL A   1      39.175  35.702  39.275  1.00  0.00     0.022 A 
BRANCH  76  79
ATOM     79  S   UNL A   1      37.846  33.905  40.850  1.00  0.00     0.127 S 
ATOM     80  O   UNL A   1      36.678  33.234  40.290  1.00  0.00    -0.237 OA
ATOM     81  O   UNL A   1      38.804  33.024  41.521  1.00  0.00    -0.237 OA
ATOM     82  O   UNL A   1      37.580  35.153  41.555  1.00  0.00    -0.744 OA
ENDBRANCH  76  79
ENDBRANCH  48  72
BRANCH  60  83
ATOM     83  C   UNL A   1      44.153  28.944  35.467  1.00  0.00     0.023 A 
ATOM     84  C   UNL A   1      45.429  29.517  35.303  1.00  0.00     0.012 A 
ATOM     85  C   UNL A   1      43.986  27.874  36.369  1.00  0.00     0.148 A 
ATOM     86  C   UNL A   1      46.526  29.017  36.004  1.00  0.00     0.002 A 
ATOM     87  C   UNL A   1      45.074  27.412  37.100  1.00  0.00     0.091 A 
ATOM     88  F   UNL A   1      42.767  27.328  36.496  1.00  0.00    -0.205 F 
ATOM     89  C   UNL A   1      46.346  27.974  36.910  1.00  0.00     0.022 A 
BRANCH  87  90
ATOM     90  S   UNL A   1      44.917  26.139  38.358  1.00  0.00     0.127 S 
ATOM     91  O   UNL A   1      43.923  26.727  39.255  1.00  0.00    -0.237 OA
ATOM     92  O   UNL A   1      44.439  24.993  37.585  1.00  0.00    -0.237 OA
ATOM     93  O   UNL A   1      46.249  25.970  38.924  1.00  0.00    -0.744 OA
ENDBRANCH  87  90
ENDBRANCH  60  83
ENDBRANCH  34  35
ENDBRANCH  26  29
ENDBRANCH  24  25
ENDBRANCH   1  24
TORSDOF 15
ENDMDL
