MODEL 1
REMARK VINA RESULT:     -11.7      0.000      0.000
REMARK SMILES O=C(NCCCNC(=O)[C@@H]1CS[C@@H](C2CC2)N1C(=O)Cc1ccn[nH]1)c1ccc(-c2c3nc(c(-c4cccc(S(=O)(=O)[O-])c4F)c4ccc([nH]4)c(-c4cccc(S(=O)(=O)[O-])c4F)c4nc(c(-c5cccc(S(=O)(=O)[O-])c5F)c5ccc2[nH]5)C=C4)C=C3)cc1
REMARK SMILES IDX 5 1 4 2 3 3 1 4 2 5 26 7 27 8 88 9 28 10 87 11 29 12 30 13
REMARK SMILES IDX 31 14 81 15 32 16 86 17 80 18 82 19 33 20 85 21 79 22 78 23
REMARK SMILES IDX 34 25 66 26 46 27 65 28 47 29 50 30 64 31 83 32 48 33 49 34
REMARK SMILES IDX 63 36 84 37 51 38 35 39 36 40 44 41 37 42 39 43 45 44 38 45
REMARK SMILES IDX 40 46 41 47 42 48 43 49 67 50 68 51 76 52 69 53 71 54 77 55
REMARK SMILES IDX 70 56 72 57 73 58 74 59 75 60 52 61 53 62 61 63 54 64 56 65
REMARK SMILES IDX 62 66 55 67 57 68 58 69 59 70 60 71 6 72 7 73 8 74 9 76
REMARK SMILES IDX 10 77 11 78 17 79 12 80 13 81 18 82 19 83 20 84 21 85 22 86
REMARK SMILES IDX 25 87 23 88 24 89 14 91 15 92 16 93
REMARK H PARENT 3 6 82 24 50 35 7 75 25 90
REMARK Flexibility Score: inf
ROOT
ATOM      1  C   UNL A   1      35.846  22.518  24.235  1.00  0.00     0.042 C 
ENDROOT
BRANCH   1   2
ATOM      2  C   UNL A   1      36.337  22.029  25.582  1.00  0.00     0.118 C 
BRANCH   2   3
ATOM      3  N   UNL A   1      37.329  20.965  25.521  1.00  0.00    -0.352 N 
ATOM      4  O   UNL A   1      39.361  20.012  25.711  1.00  0.00    -0.269 OA
ATOM      5  C   UNL A   1      38.663  21.010  25.869  1.00  0.00     0.251 C 
ATOM      6  H   UNL A   1      37.005  20.098  25.185  1.00  0.00     0.163 HD
BRANCH   5   7
ATOM      7  C   UNL A   1      39.259  22.273  26.367  1.00  0.00     0.039 A 
ATOM      8  C   UNL A   1      38.792  23.514  25.933  1.00  0.00     0.014 A 
ATOM      9  C   UNL A   1      40.337  22.213  27.255  1.00  0.00     0.014 A 
ATOM     10  C   UNL A   1      39.523  24.662  26.202  1.00  0.00     0.010 A 
ATOM     11  C   UNL A   1      40.993  23.389  27.636  1.00  0.00     0.010 A 
ATOM     12  C   UNL A   1      40.618  24.619  27.077  1.00  0.00    -0.014 A 
BRANCH  12  13
ATOM     13  C   UNL A   1      41.288  25.892  27.444  1.00  0.00     0.031 A 
ATOM     14  C   UNL A   1      42.679  26.215  26.973  1.00  0.00     0.074 A 
ATOM     15  C   UNL A   1      40.602  26.773  28.201  1.00  0.00     0.049 A 
ATOM     16  N   UNL A   1      43.386  27.292  27.197  1.00  0.00    -0.248 NA
ATOM     17  C   UNL A   1      43.371  25.204  26.159  1.00  0.00     0.031 C 
ATOM     18  C   UNL A   1      39.262  26.540  28.749  1.00  0.00     0.029 A 
ATOM     19  N   UNL A   1      40.917  28.035  28.630  1.00  0.00    -0.354 N 
ATOM     20  C   UNL A   1      44.623  27.068  26.604  1.00  0.00     0.074 A 
ATOM     21  C   UNL A   1      44.569  25.753  26.004  1.00  0.00     0.031 C 
ATOM     22  C   UNL A   1      38.851  27.637  29.396  1.00  0.00     0.029 A 
ATOM     23  C   UNL A   1      39.923  28.624  29.376  1.00  0.00     0.049 A 
ATOM     24  H   UNL A   1      41.774  28.476  28.427  1.00  0.00     0.167 HD
ATOM     25  C   UNL A   1      45.699  27.891  26.558  1.00  0.00     0.034 A 
ATOM     26  C   UNL A   1      39.880  29.819  29.993  1.00  0.00     0.034 A 
ATOM     27  C   UNL A   1      45.719  29.219  27.112  1.00  0.00     0.049 A 
ATOM     28  C   UNL A   1      41.065  30.727  29.878  1.00  0.00     0.074 A 
ATOM     29  C   UNL A   1      46.735  30.157  27.061  1.00  0.00     0.029 A 
ATOM     30  N   UNL A   1      44.677  29.800  27.819  1.00  0.00    -0.354 N 
ATOM     31  N   UNL A   1      42.184  30.538  29.220  1.00  0.00    -0.248 NA
ATOM     32  C   UNL A   1      40.981  32.019  30.570  1.00  0.00     0.031 C 
ATOM     33  C   UNL A   1      46.312  31.300  27.749  1.00  0.00     0.029 A 
ATOM     34  C   UNL A   1      45.025  31.080  28.216  1.00  0.00     0.049 A 
ATOM     35  H   UNL A   1      43.814  29.366  28.010  1.00  0.00     0.167 HD
ATOM     36  C   UNL A   1      42.934  31.689  29.410  1.00  0.00     0.074 A 
ATOM     37  C   UNL A   1      42.127  32.585  30.214  1.00  0.00     0.031 C 
ATOM     38  C   UNL A   1      44.190  31.970  28.980  1.00  0.00     0.034 A 
BRANCH  25  39
ATOM     39  C   UNL A   1      46.938  27.398  25.854  1.00  0.00     0.023 A 
ATOM     40  C   UNL A   1      47.835  26.548  26.532  1.00  0.00     0.012 A 
ATOM     41  C   UNL A   1      47.176  27.715  24.502  1.00  0.00     0.148 A 
ATOM     42  C   UNL A   1      48.961  26.040  25.883  1.00  0.00     0.002 A 
ATOM     43  C   UNL A   1      48.281  27.176  23.851  1.00  0.00     0.091 A 
ATOM     44  F   UNL A   1      46.325  28.543  23.879  1.00  0.00    -0.205 F 
ATOM     45  C   UNL A   1      49.178  26.345  24.542  1.00  0.00     0.022 A 
BRANCH  43  46
ATOM     46  S   UNL A   1      48.605  27.453  22.105  1.00  0.00     0.127 S 
ATOM     47  O   UNL A   1      48.671  26.084  21.596  1.00  0.00    -0.237 OA
ATOM     48  O   UNL A   1      47.421  28.201  21.684  1.00  0.00    -0.237 OA
ATOM     49  O   UNL A   1      49.850  28.206  22.044  1.00  0.00    -0.744 OA
ENDBRANCH  43  46
ENDBRANCH  25  39
BRANCH  26  50
ATOM     50  C   UNL A   1      38.649  30.216  30.733  1.00  0.00     0.023 A 
ATOM     51  C   UNL A   1      38.558  29.961  32.114  1.00  0.00     0.012 A 
ATOM     52  C   UNL A   1      37.612  30.923  30.095  1.00  0.00     0.148 A 
ATOM     53  C   UNL A   1      37.449  30.393  32.843  1.00  0.00     0.002 A 
ATOM     54  C   UNL A   1      36.543  31.407  30.839  1.00  0.00     0.091 A 
ATOM     55  F   UNL A   1      37.707  31.140  28.774  1.00  0.00    -0.205 F 
ATOM     56  C   UNL A   1      36.451  31.131  32.210  1.00  0.00     0.022 A 
BRANCH  54  57
ATOM     57  S   UNL A   1      35.312  32.506  30.126  1.00  0.00     0.127 S 
ATOM     58  O   UNL A   1      34.403  32.707  31.251  1.00  0.00    -0.237 OA
ATOM     59  O   UNL A   1      36.116  33.676  29.766  1.00  0.00    -0.237 OA
ATOM     60  O   UNL A   1      34.768  31.785  28.983  1.00  0.00    -0.744 OA
ENDBRANCH  54  57
ENDBRANCH  26  50
BRANCH  38  61
ATOM     61  C   UNL A   1      44.761  33.305  29.368  1.00  0.00     0.023 A 
ATOM     62  C   UNL A   1      45.520  33.417  30.549  1.00  0.00     0.012 A 
ATOM     63  C   UNL A   1      44.600  34.430  28.537  1.00  0.00     0.148 A 
ATOM     64  C   UNL A   1      46.085  34.637  30.914  1.00  0.00     0.002 A 
ATOM     65  C   UNL A   1      45.202  35.632  28.885  1.00  0.00     0.091 A 
ATOM     66  F   UNL A   1      43.853  34.306  27.429  1.00  0.00    -0.205 F 
ATOM     67  C   UNL A   1      45.937  35.740  30.078  1.00  0.00     0.022 A 
BRANCH  65  68
ATOM     68  S   UNL A   1      45.133  37.078  27.821  1.00  0.00     0.127 S 
ATOM     69  O   UNL A   1      45.903  38.052  28.591  1.00  0.00    -0.237 OA
ATOM     70  O   UNL A   1      45.791  36.602  26.603  1.00  0.00    -0.237 OA
ATOM     71  O   UNL A   1      43.717  37.382  27.659  1.00  0.00    -0.744 OA
ENDBRANCH  65  68
ENDBRANCH  38  61
ENDBRANCH  12  13
ENDBRANCH   5   7
ENDBRANCH   2   3
ENDBRANCH   1   2
BRANCH   1  72
ATOM     72  C   UNL A   1      35.172  23.875  24.305  1.00  0.00     0.117 C 
BRANCH  72  73
ATOM     73  N   UNL A   1      34.240  24.083  23.227  1.00  0.00    -0.354 N 
ATOM     74  C   UNL A   1      33.175  24.881  23.022  1.00  0.00     0.243 C 
ATOM     75  H   UNL A   1      34.427  23.503  22.455  1.00  0.00     0.163 HD
ATOM     76  O   UNL A   1      32.571  24.613  21.967  1.00  0.00    -0.273 OA
BRANCH  74  77
ATOM     77  C   UNL A   1      32.587  25.982  23.972  1.00  0.00     0.185 C 
ATOM     78  C   UNL A   1      33.237  27.268  23.445  1.00  0.00     0.107 C 
ATOM     79  N   UNL A   1      32.631  25.935  25.471  1.00  0.00    -0.317 N 
ATOM     80  S   UNL A   1      33.577  28.337  24.822  1.00  0.00    -0.134 SA
ATOM     81  C   UNL A   1      33.394  27.019  26.117  1.00  0.00     0.147 C 
BRANCH  79  82
ATOM     82  C   UNL A   1      31.723  25.075  26.055  1.00  0.00     0.230 C 
ATOM     83  O   UNL A   1      30.513  25.316  25.910  1.00  0.00    -0.274 OA
BRANCH  82  84
ATOM     84  C   UNL A   1      32.075  23.831  26.863  1.00  0.00     0.155 C 
BRANCH  84  85
ATOM     85  C   UNL A   1      32.268  22.513  26.186  1.00  0.00     0.044 A 
ATOM     86  C   UNL A   1      31.774  22.101  24.962  1.00  0.00     0.045 A 
ATOM     87  N   UNL A   1      32.991  21.448  26.642  1.00  0.00    -0.282 N 
ATOM     88  C   UNL A   1      32.232  20.786  24.798  1.00  0.00     0.135 A 
ATOM     89  N   UNL A   1      32.965  20.380  25.836  1.00  0.00    -0.184 NA
ATOM     90  H   UNL A   1      33.489  21.464  27.492  1.00  0.00     0.190 HD
ENDBRANCH  84  85
ENDBRANCH  82  84
ENDBRANCH  79  82
BRANCH  81  91
ATOM     91  C   UNL A   1      32.859  27.876  27.250  1.00  0.00     0.022 C 
ATOM     92  C   UNL A   1      32.382  29.304  27.157  1.00  0.00     0.007 C 
ATOM     93  C   UNL A   1      31.405  28.202  27.483  1.00  0.00     0.007 C 
ENDBRANCH  81  91
ENDBRANCH  74  77
ENDBRANCH  72  73
ENDBRANCH   1  72
TORSDOF 17
ENDMDL
MODEL 2
REMARK VINA RESULT:     -11.7      5.090     10.077
REMARK SMILES O=C(NCCCNC(=O)[C@@H]1CS[C@@H](C2CC2)N1C(=O)Cc1ccn[nH]1)c1ccc(-c2c3nc(c(-c4cccc(S(=O)(=O)[O-])c4F)c4ccc([nH]4)c(-c4cccc(S(=O)(=O)[O-])c4F)c4nc(c(-c5cccc(S(=O)(=O)[O-])c5F)c5ccc2[nH]5)C=C4)C=C3)cc1
REMARK SMILES IDX 5 1 4 2 3 3 1 4 2 5 26 7 27 8 88 9 28 10 87 11 29 12 30 13
REMARK SMILES IDX 31 14 81 15 32 16 86 17 80 18 82 19 33 20 85 21 79 22 78 23
REMARK SMILES IDX 34 25 66 26 46 27 65 28 47 29 50 30 64 31 83 32 48 33 49 34
REMARK SMILES IDX 63 36 84 37 51 38 35 39 36 40 44 41 37 42 39 43 45 44 38 45
REMARK SMILES IDX 40 46 41 47 42 48 43 49 67 50 68 51 76 52 69 53 71 54 77 55
REMARK SMILES IDX 70 56 72 57 73 58 74 59 75 60 52 61 53 62 61 63 54 64 56 65
REMARK SMILES IDX 62 66 55 67 57 68 58 69 59 70 60 71 6 72 7 73 8 74 9 76
REMARK SMILES IDX 10 77 11 78 17 79 12 80 13 81 18 82 19 83 20 84 21 85 22 86
REMARK SMILES IDX 25 87 23 88 24 89 14 91 15 92 16 93
REMARK H PARENT 3 6 82 24 50 35 7 75 25 90
REMARK Flexibility Score: inf
ROOT
ATOM      1  C   UNL A   1      31.624  28.495  26.651  1.00  0.00     0.042 C 
ENDROOT
BRANCH   1   2
ATOM      2  C   UNL A   1      32.498  29.530  25.974  1.00  0.00     0.118 C 
BRANCH   2   3
ATOM      3  N   UNL A   1      32.167  30.912  26.294  1.00  0.00    -0.352 N 
ATOM      4  O   UNL A   1      32.432  32.943  27.231  1.00  0.00    -0.269 OA
ATOM      5  C   UNL A   1      32.894  31.822  27.031  1.00  0.00     0.251 C 
ATOM      6  H   UNL A   1      31.309  31.239  25.938  1.00  0.00     0.163 HD
BRANCH   5   7
ATOM      7  C   UNL A   1      34.192  31.427  27.630  1.00  0.00     0.039 A 
ATOM      8  C   UNL A   1      34.489  30.090  27.895  1.00  0.00     0.014 A 
ATOM      9  C   UNL A   1      35.114  32.421  27.975  1.00  0.00     0.014 A 
ATOM     10  C   UNL A   1      35.581  29.767  28.686  1.00  0.00     0.010 A 
ATOM     11  C   UNL A   1      36.287  32.077  28.655  1.00  0.00     0.010 A 
ATOM     12  C   UNL A   1      36.509  30.753  29.055  1.00  0.00    -0.014 A 
BRANCH  12  13
ATOM     13  C   UNL A   1      37.734  30.341  29.786  1.00  0.00     0.031 A 
ATOM     14  C   UNL A   1      38.004  30.797  31.193  1.00  0.00     0.074 A 
ATOM     15  C   UNL A   1      38.599  29.519  29.157  1.00  0.00     0.049 A 
ATOM     16  N   UNL A   1      39.019  30.507  31.964  1.00  0.00    -0.248 NA
ATOM     17  C   UNL A   1      37.021  31.700  31.813  1.00  0.00     0.031 C 
ATOM     18  C   UNL A   1      38.456  29.051  27.775  1.00  0.00     0.029 A 
ATOM     19  N   UNL A   1      39.754  28.921  29.588  1.00  0.00    -0.354 N 
ATOM     20  C   UNL A   1      38.831  31.232  33.134  1.00  0.00     0.074 A 
ATOM     21  C   UNL A   1      37.599  31.974  32.976  1.00  0.00     0.031 C 
ATOM     22  C   UNL A   1      39.450  28.203  27.488  1.00  0.00     0.029 A 
ATOM     23  C   UNL A   1      40.344  28.123  28.637  1.00  0.00     0.049 A 
ATOM     24  H   UNL A   1      40.125  29.052  30.491  1.00  0.00     0.167 HD
ATOM     25  C   UNL A   1      39.612  31.266  34.242  1.00  0.00     0.034 A 
ATOM     26  C   UNL A   1      41.489  27.415  28.671  1.00  0.00     0.034 A 
ATOM     27  C   UNL A   1      40.806  30.480  34.408  1.00  0.00     0.049 A 
ATOM     28  C   UNL A   1      42.302  27.431  29.930  1.00  0.00     0.074 A 
ATOM     29  C   UNL A   1      41.631  30.392  35.515  1.00  0.00     0.029 A 
ATOM     30  N   UNL A   1      41.347  29.646  33.440  1.00  0.00    -0.354 N 
ATOM     31  N   UNL A   1      42.048  28.040  31.063  1.00  0.00    -0.248 NA
ATOM     32  C   UNL A   1      43.545  26.652  29.926  1.00  0.00     0.031 C 
ATOM     33  C   UNL A   1      42.679  29.515  35.212  1.00  0.00     0.029 A 
ATOM     34  C   UNL A   1      42.498  29.045  33.921  1.00  0.00     0.049 A 
ATOM     35  H   UNL A   1      40.968  29.503  32.543  1.00  0.00     0.167 HD
ATOM     36  C   UNL A   1      43.094  27.710  31.913  1.00  0.00     0.074 A 
ATOM     37  C   UNL A   1      43.966  26.819  31.173  1.00  0.00     0.031 C 
ATOM     38  C   UNL A   1      43.328  28.129  33.181  1.00  0.00     0.034 A 
BRANCH  25  39
ATOM     39  C   UNL A   1      39.184  32.155  35.383  1.00  0.00     0.023 A 
ATOM     40  C   UNL A   1      38.289  31.663  36.354  1.00  0.00     0.012 A 
ATOM     41  C   UNL A   1      39.725  33.447  35.534  1.00  0.00     0.148 A 
ATOM     42  C   UNL A   1      37.920  32.451  37.444  1.00  0.00     0.002 A 
ATOM     43  C   UNL A   1      39.380  34.213  36.643  1.00  0.00     0.091 A 
ATOM     44  F   UNL A   1      40.557  33.909  34.589  1.00  0.00    -0.205 F 
ATOM     45  C   UNL A   1      38.473  33.720  37.594  1.00  0.00     0.022 A 
BRANCH  43  46
ATOM     46  S   UNL A   1      40.096  35.832  36.959  1.00  0.00     0.127 S 
ATOM     47  O   UNL A   1      41.525  35.524  36.977  1.00  0.00    -0.237 OA
ATOM     48  O   UNL A   1      39.653  36.600  35.796  1.00  0.00    -0.237 OA
ATOM     49  O   UNL A   1      39.534  36.276  38.227  1.00  0.00    -0.744 OA
ENDBRANCH  43  46
ENDBRANCH  25  39
BRANCH  26  50
ATOM     50  C   UNL A   1      41.890  26.613  27.482  1.00  0.00     0.023 A 
ATOM     51  C   UNL A   1      42.631  27.223  26.452  1.00  0.00     0.012 A 
ATOM     52  C   UNL A   1      41.620  25.233  27.410  1.00  0.00     0.148 A 
ATOM     53  C   UNL A   1      43.085  26.474  25.366  1.00  0.00     0.002 A 
ATOM     54  C   UNL A   1      42.130  24.481  26.359  1.00  0.00     0.091 A 
ATOM     55  F   UNL A   1      40.896  24.673  28.390  1.00  0.00    -0.205 F 
ATOM     56  C   UNL A   1      42.850  25.101  25.328  1.00  0.00     0.022 A 
BRANCH  54  57
ATOM     57  S   UNL A   1      42.014  22.688  26.332  1.00  0.00     0.127 S 
ATOM     58  O   UNL A   1      40.568  22.481  26.345  1.00  0.00    -0.237 OA
ATOM     59  O   UNL A   1      42.673  22.356  25.068  1.00  0.00    -0.237 OA
ATOM     60  O   UNL A   1      42.736  22.237  27.515  1.00  0.00    -0.744 OA
ENDBRANCH  54  57
ENDBRANCH  26  50
BRANCH  38  61
ATOM     61  C   UNL A   1      44.574  27.619  33.850  1.00  0.00     0.023 A 
ATOM     62  C   UNL A   1      45.769  28.358  33.745  1.00  0.00     0.012 A 
ATOM     63  C   UNL A   1      44.549  26.446  34.628  1.00  0.00     0.148 A 
ATOM     64  C   UNL A   1      46.929  27.921  34.380  1.00  0.00     0.002 A 
ATOM     65  C   UNL A   1      45.699  26.040  35.295  1.00  0.00     0.091 A 
ATOM     66  F   UNL A   1      43.407  25.746  34.695  1.00  0.00    -0.205 F 
ATOM     67  C   UNL A   1      46.892  26.771  35.164  1.00  0.00     0.022 A 
BRANCH  65  68
ATOM     68  S   UNL A   1      45.714  24.619  36.393  1.00  0.00     0.127 S 
ATOM     69  O   UNL A   1      44.726  25.007  37.396  1.00  0.00    -0.237 OA
ATOM     70  O   UNL A   1      45.291  23.533  35.507  1.00  0.00    -0.237 OA
ATOM     71  O   UNL A   1      47.085  24.503  36.872  1.00  0.00    -0.744 OA
ENDBRANCH  65  68
ENDBRANCH  38  61
ENDBRANCH  12  13
ENDBRANCH   5   7
ENDBRANCH   2   3
ENDBRANCH   1   2
BRANCH   1  72
ATOM     72  C   UNL A   1      32.242  27.110  26.658  1.00  0.00     0.117 C 
BRANCH  72  73
ATOM     73  N   UNL A   1      31.259  26.069  26.813  1.00  0.00    -0.354 N 
ATOM     74  C   UNL A   1      31.169  24.774  26.453  1.00  0.00     0.243 C 
ATOM     75  H   UNL A   1      30.462  26.378  27.300  1.00  0.00     0.163 HD
ATOM     76  O   UNL A   1      30.046  24.290  26.682  1.00  0.00    -0.273 OA
BRANCH  74  77
ATOM     77  C   UNL A   1      32.239  23.892  25.719  1.00  0.00     0.185 C 
ATOM     78  C   UNL A   1      33.006  23.251  26.882  1.00  0.00     0.107 C 
ATOM     79  N   UNL A   1      33.182  24.388  24.663  1.00  0.00    -0.317 N 
ATOM     80  S   UNL A   1      34.717  23.114  26.426  1.00  0.00    -0.134 SA
ATOM     81  C   UNL A   1      34.614  24.302  25.003  1.00  0.00     0.147 C 
BRANCH  79  82
ATOM     82  C   UNL A   1      32.618  24.578  23.418  1.00  0.00     0.230 C 
ATOM     83  O   UNL A   1      32.032  23.619  22.889  1.00  0.00    -0.274 OA
BRANCH  82  84
ATOM     84  C   UNL A   1      32.636  25.881  22.628  1.00  0.00     0.155 C 
BRANCH  84  85
ATOM     85  C   UNL A   1      31.469  26.814  22.668  1.00  0.00     0.044 A 
ATOM     86  C   UNL A   1      30.306  26.694  23.407  1.00  0.00     0.045 A 
ATOM     87  N   UNL A   1      31.325  27.988  21.986  1.00  0.00    -0.282 N 
ATOM     88  C   UNL A   1      29.537  27.819  23.077  1.00  0.00     0.135 A 
ATOM     89  N   UNL A   1      30.156  28.604  22.194  1.00  0.00    -0.184 NA
ATOM     90  H   UNL A   1      32.023  28.350  21.392  1.00  0.00     0.190 HD
ENDBRANCH  84  85
ENDBRANCH  82  84
ENDBRANCH  79  82
BRANCH  81  91
ATOM     91  C   UNL A   1      35.666  23.680  24.101  1.00  0.00     0.022 C 
ATOM     92  C   UNL A   1      37.046  23.223  24.503  1.00  0.00     0.007 C 
ATOM     93  C   UNL A   1      36.017  22.214  24.059  1.00  0.00     0.007 C 
ENDBRANCH  81  91
ENDBRANCH  74  77
ENDBRANCH  72  73
ENDBRANCH   1  72
TORSDOF 17
ENDMDL
MODEL 3
REMARK VINA RESULT:     -11.6      1.895      3.019
REMARK SMILES O=C(NCCCNC(=O)[C@@H]1CS[C@@H](C2CC2)N1C(=O)Cc1ccn[nH]1)c1ccc(-c2c3nc(c(-c4cccc(S(=O)(=O)[O-])c4F)c4ccc([nH]4)c(-c4cccc(S(=O)(=O)[O-])c4F)c4nc(c(-c5cccc(S(=O)(=O)[O-])c5F)c5ccc2[nH]5)C=C4)C=C3)cc1
REMARK SMILES IDX 5 1 4 2 3 3 1 4 2 5 26 7 27 8 88 9 28 10 87 11 29 12 30 13
REMARK SMILES IDX 31 14 81 15 32 16 86 17 80 18 82 19 33 20 85 21 79 22 78 23
REMARK SMILES IDX 34 25 66 26 46 27 65 28 47 29 50 30 64 31 83 32 48 33 49 34
REMARK SMILES IDX 63 36 84 37 51 38 35 39 36 40 44 41 37 42 39 43 45 44 38 45
REMARK SMILES IDX 40 46 41 47 42 48 43 49 67 50 68 51 76 52 69 53 71 54 77 55
REMARK SMILES IDX 70 56 72 57 73 58 74 59 75 60 52 61 53 62 61 63 54 64 56 65
REMARK SMILES IDX 62 66 55 67 57 68 58 69 59 70 60 71 6 72 7 73 8 74 9 76
REMARK SMILES IDX 10 77 11 78 17 79 12 80 13 81 18 82 19 83 20 84 21 85 22 86
REMARK SMILES IDX 25 87 23 88 24 89 14 91 15 92 16 93
REMARK H PARENT 3 6 82 24 50 35 7 75 25 90
REMARK Flexibility Score: inf
ROOT
ATOM      1  C   UNL A   1      36.210  22.473  23.841  1.00  0.00     0.042 C 
ENDROOT
BRANCH   1   2
ATOM      2  C   UNL A   1      36.504  21.986  25.245  1.00  0.00     0.118 C 
BRANCH   2   3
ATOM      3  N   UNL A   1      37.462  20.892  25.323  1.00  0.00    -0.352 N 
ATOM      4  O   UNL A   1      39.428  19.885  25.765  1.00  0.00    -0.269 OA
ATOM      5  C   UNL A   1      38.749  20.908  25.817  1.00  0.00     0.251 C 
ATOM      6  H   UNL A   1      37.149  20.025  24.976  1.00  0.00     0.163 HD
BRANCH   5   7
ATOM      7  C   UNL A   1      39.327  22.167  26.346  1.00  0.00     0.039 A 
ATOM      8  C   UNL A   1      38.858  23.411  25.925  1.00  0.00     0.014 A 
ATOM      9  C   UNL A   1      40.392  22.101  27.250  1.00  0.00     0.014 A 
ATOM     10  C   UNL A   1      39.575  24.560  26.224  1.00  0.00     0.010 A 
ATOM     11  C   UNL A   1      41.032  23.275  27.661  1.00  0.00     0.010 A 
ATOM     12  C   UNL A   1      40.657  24.511  27.116  1.00  0.00    -0.014 A 
BRANCH  12  13
ATOM     13  C   UNL A   1      41.310  25.783  27.515  1.00  0.00     0.031 A 
ATOM     14  C   UNL A   1      42.724  26.102  27.114  1.00  0.00     0.074 A 
ATOM     15  C   UNL A   1      40.589  26.666  28.235  1.00  0.00     0.049 A 
ATOM     16  N   UNL A   1      43.422  27.178  27.371  1.00  0.00    -0.248 NA
ATOM     17  C   UNL A   1      43.454  25.088  26.336  1.00  0.00     0.031 C 
ATOM     18  C   UNL A   1      39.223  26.437  28.715  1.00  0.00     0.029 A 
ATOM     19  N   UNL A   1      40.886  27.928  28.678  1.00  0.00    -0.354 N 
ATOM     20  C   UNL A   1      44.686  26.950  26.841  1.00  0.00     0.074 A 
ATOM     21  C   UNL A   1      44.659  25.634  26.240  1.00  0.00     0.031 C 
ATOM     22  C   UNL A   1      38.783  27.536  29.340  1.00  0.00     0.029 A 
ATOM     23  C   UNL A   1      39.857  28.520  29.372  1.00  0.00     0.049 A 
ATOM     24  H   UNL A   1      41.753  28.367  28.517  1.00  0.00     0.167 HD
ATOM     25  C   UNL A   1      45.765  27.770  26.848  1.00  0.00     0.034 A 
ATOM     26  C   UNL A   1      39.786  29.716  29.985  1.00  0.00     0.034 A 
ATOM     27  C   UNL A   1      45.761  29.099  27.401  1.00  0.00     0.049 A 
ATOM     28  C   UNL A   1      40.978  30.622  29.928  1.00  0.00     0.074 A 
ATOM     29  C   UNL A   1      46.781  30.034  27.400  1.00  0.00     0.029 A 
ATOM     30  N   UNL A   1      44.685  29.683  28.054  1.00  0.00    -0.354 N 
ATOM     31  N   UNL A   1      42.128  30.428  29.328  1.00  0.00    -0.248 NA
ATOM     32  C   UNL A   1      40.862  31.914  30.614  1.00  0.00     0.031 C 
ATOM     33  C   UNL A   1      46.326  31.179  28.065  1.00  0.00     0.029 A 
ATOM     34  C   UNL A   1      45.017  30.962  28.466  1.00  0.00     0.049 A 
ATOM     35  H   UNL A   1      43.813  29.251  28.202  1.00  0.00     0.167 HD
ATOM     36  C   UNL A   1      42.871  31.578  29.553  1.00  0.00     0.074 A 
ATOM     37  C   UNL A   1      42.026  32.477  30.315  1.00  0.00     0.031 C 
ATOM     38  C   UNL A   1      44.146  31.855  29.187  1.00  0.00     0.034 A 
BRANCH  25  39
ATOM     39  C   UNL A   1      47.036  27.273  26.208  1.00  0.00     0.023 A 
ATOM     40  C   UNL A   1      47.302  27.575  24.857  1.00  0.00     0.012 A 
ATOM     41  C   UNL A   1      48.000  26.572  26.961  1.00  0.00     0.148 A 
ATOM     42  C   UNL A   1      48.495  27.168  24.259  1.00  0.00     0.002 A 
ATOM     43  C   UNL A   1      49.202  26.202  26.368  1.00  0.00     0.091 A 
ATOM     44  F   UNL A   1      47.721  26.273  28.238  1.00  0.00    -0.205 F 
ATOM     45  C   UNL A   1      49.448  26.492  25.016  1.00  0.00     0.022 A 
BRANCH  43  46
ATOM     46  S   UNL A   1      50.521  25.390  27.282  1.00  0.00     0.127 S 
ATOM     47  O   UNL A   1      49.823  24.233  27.841  1.00  0.00    -0.237 OA
ATOM     48  O   UNL A   1      51.480  25.070  26.225  1.00  0.00    -0.237 OA
ATOM     49  O   UNL A   1      50.994  26.367  28.253  1.00  0.00    -0.744 OA
ENDBRANCH  43  46
ENDBRANCH  25  39
BRANCH  26  50
ATOM     50  C   UNL A   1      38.521  30.117  30.662  1.00  0.00     0.023 A 
ATOM     51  C   UNL A   1      38.351  29.844  32.033  1.00  0.00     0.012 A 
ATOM     52  C   UNL A   1      37.528  30.845  29.978  1.00  0.00     0.148 A 
ATOM     53  C   UNL A   1      37.209  30.279  32.705  1.00  0.00     0.002 A 
ATOM     54  C   UNL A   1      36.425  31.331  30.669  1.00  0.00     0.091 A 
ATOM     55  F   UNL A   1      37.698  31.079  28.668  1.00  0.00    -0.205 F 
ATOM     56  C   UNL A   1      36.255  31.037  32.029  1.00  0.00     0.022 A 
BRANCH  54  57
ATOM     57  S   UNL A   1      35.247  32.454  29.906  1.00  0.00     0.127 S 
ATOM     58  O   UNL A   1      34.693  31.625  28.838  1.00  0.00    -0.237 OA
ATOM     59  O   UNL A   1      34.328  32.732  31.011  1.00  0.00    -0.237 OA
ATOM     60  O   UNL A   1      36.032  33.606  29.481  1.00  0.00    -0.744 OA
ENDBRANCH  54  57
ENDBRANCH  26  50
BRANCH  38  61
ATOM     61  C   UNL A   1      44.701  33.189  29.602  1.00  0.00     0.023 A 
ATOM     62  C   UNL A   1      45.417  33.297  30.810  1.00  0.00     0.012 A 
ATOM     63  C   UNL A   1      44.567  34.318  28.770  1.00  0.00     0.148 A 
ATOM     64  C   UNL A   1      45.967  34.516  31.200  1.00  0.00     0.002 A 
ATOM     65  C   UNL A   1      45.155  35.520  29.146  1.00  0.00     0.091 A 
ATOM     66  F   UNL A   1      43.861  34.198  27.636  1.00  0.00    -0.205 F 
ATOM     67  C   UNL A   1      45.846  35.623  30.365  1.00  0.00     0.022 A 
BRANCH  65  68
ATOM     68  S   UNL A   1      45.121  36.970  28.087  1.00  0.00     0.127 S 
ATOM     69  O   UNL A   1      45.764  36.470  26.875  1.00  0.00    -0.237 OA
ATOM     70  O   UNL A   1      43.686  37.229  27.955  1.00  0.00    -0.237 OA
ATOM     71  O   UNL A   1      45.852  38.004  28.808  1.00  0.00    -0.744 OA
ENDBRANCH  65  68
ENDBRANCH  38  61
ENDBRANCH  12  13
ENDBRANCH   5   7
ENDBRANCH   2   3
ENDBRANCH   1   2
BRANCH   1  72
ATOM     72  C   UNL A   1      35.210  23.613  23.805  1.00  0.00     0.117 C 
BRANCH  72  73
ATOM     73  N   UNL A   1      33.889  23.175  23.438  1.00  0.00    -0.354 N 
ATOM     74  C   UNL A   1      32.655  23.715  23.473  1.00  0.00     0.243 C 
ATOM     75  H   UNL A   1      33.886  22.262  23.073  1.00  0.00     0.163 HD
ATOM     76  O   UNL A   1      31.765  22.899  23.177  1.00  0.00    -0.273 OA
BRANCH  74  77
ATOM     77  C   UNL A   1      32.239  25.159  23.926  1.00  0.00     0.185 C 
ATOM     78  C   UNL A   1      31.025  24.895  24.826  1.00  0.00     0.107 C 
ATOM     79  N   UNL A   1      31.979  26.308  22.998  1.00  0.00    -0.317 N 
ATOM     80  S   UNL A   1      29.856  26.213  24.601  1.00  0.00    -0.134 SA
ATOM     81  C   UNL A   1      30.606  26.845  23.025  1.00  0.00     0.147 C 
BRANCH  79  82
ATOM     82  C   UNL A   1      33.109  26.899  22.469  1.00  0.00     0.230 C 
ATOM     83  O   UNL A   1      33.660  26.346  21.503  1.00  0.00    -0.274 OA
BRANCH  82  84
ATOM     84  C   UNL A   1      33.744  28.194  22.961  1.00  0.00     0.155 C 
BRANCH  84  85
ATOM     85  C   UNL A   1      33.624  28.605  24.394  1.00  0.00     0.044 A 
ATOM     86  C   UNL A   1      33.961  27.879  25.521  1.00  0.00     0.045 A 
ATOM     87  N   UNL A   1      33.165  29.798  24.875  1.00  0.00    -0.282 N 
ATOM     88  C   UNL A   1      33.644  28.708  26.607  1.00  0.00     0.135 A 
ATOM     89  N   UNL A   1      33.141  29.878  26.211  1.00  0.00    -0.184 NA
ATOM     90  H   UNL A   1      32.877  30.536  24.290  1.00  0.00     0.190 HD
ENDBRANCH  84  85
ENDBRANCH  82  84
ENDBRANCH  79  82
BRANCH  81  91
ATOM     91  C   UNL A   1      30.272  28.319  23.181  1.00  0.00     0.022 C 
ATOM     92  C   UNL A   1      30.206  29.352  22.085  1.00  0.00     0.007 C 
ATOM     93  C   UNL A   1      28.952  28.953  22.823  1.00  0.00     0.007 C 
ENDBRANCH  81  91
ENDBRANCH  74  77
ENDBRANCH  72  73
ENDBRANCH   1  72
TORSDOF 17
ENDMDL
