MODEL 1
REMARK VINA RESULT:     -11.2      0.000      0.000
REMARK SMILES C[NH+](C)CCNC(=O)NC1(CC(=O)NCCCNC(=O)c2ccc(-c3c4nc(c(-c5cccc(S(=O)(=O)[O-])c5F)c5ccc([nH]5)c(-c5cccc(S(=O)(=O)[O-])c5F)c5nc(c(-c6cccc(S(=O)(=O)[O-])c6F)c6ccc3[nH]6)C=C5)C=C4)cc2)CCC1
REMARK SMILES IDX 15 1 14 2 12 3 13 4 11 6 10 7 84 8 86 9 85 10 9 11 6 12 7 13
REMARK SMILES IDX 8 15 5 17 4 18 2 19 1 20 3 21 16 23 17 24 18 25 19 26 20 28
REMARK SMILES IDX 21 29 22 30 83 31 23 32 82 33 24 34 25 35 26 36 76 37 27 38
REMARK SMILES IDX 81 39 75 40 77 41 28 42 80 43 74 44 73 45 29 47 61 48 41 49
REMARK SMILES IDX 60 50 42 51 45 52 59 53 78 54 43 55 44 56 58 58 79 59 46 60
REMARK SMILES IDX 30 61 31 62 39 63 32 64 34 65 40 66 33 67 35 68 36 69 37 70
REMARK SMILES IDX 38 71 62 72 63 73 71 74 64 75 66 76 72 77 65 78 67 79 68 80
REMARK SMILES IDX 69 81 70 82 47 83 48 84 56 85 49 86 51 87 57 88 50 89 52 90
REMARK SMILES IDX 53 91 54 92 55 93
REMARK H PARENT 14 5 6 14 9 16 2 22 18 27 77 46 45 57
REMARK Flexibility Score: inf
ROOT
ATOM      1  C   UNL A   1      31.893  28.598  24.528  1.00  0.00     0.117 C 
ENDROOT
BRANCH   1   2
ATOM      2  N   UNL A   1      31.306  28.002  25.712  1.00  0.00    -0.356 N 
ATOM      3  C   UNL A   1      31.206  26.693  26.063  1.00  0.00     0.222 C 
ATOM      4  O   UNL A   1      30.523  26.417  27.051  1.00  0.00    -0.275 OA
ATOM      5  H   UNL A   1      30.923  28.640  26.356  1.00  0.00     0.163 HD
BRANCH   3   6
ATOM      6  C   UNL A   1      31.982  25.630  25.315  1.00  0.00     0.128 C 
BRANCH   6   7
ATOM      7  C   UNL A   1      31.196  24.414  24.783  1.00  0.00     0.051 C 
ATOM      8  C   UNL A   1      31.969  23.355  23.905  1.00  0.00     0.029 C 
ATOM      9  C   UNL A   1      30.387  24.679  23.458  1.00  0.00     0.029 C 
ATOM     10  C   UNL A   1      31.584  24.157  22.661  1.00  0.00     0.005 C 
BRANCH   7  11
ATOM     11  N   UNL A   1      30.320  23.815  25.814  1.00  0.00    -0.332 N 
ATOM     12  N   UNL A   1      31.664  22.463  27.230  1.00  0.00    -0.332 N 
ATOM     13  C   UNL A   1      30.502  23.036  26.895  1.00  0.00     0.315 C 
ATOM     14  H   UNL A   1      31.668  22.086  28.139  1.00  0.00     0.165 HD
ATOM     15  O   UNL A   1      29.530  22.820  27.625  1.00  0.00    -0.249 OA
ATOM     16  H   UNL A   1      29.371  24.042  25.673  1.00  0.00     0.165 HD
BRANCH  12  17
ATOM     17  C   UNL A   1      32.913  22.286  26.527  1.00  0.00     0.179 C 
BRANCH  17  18
ATOM     18  C   UNL A   1      34.122  22.971  27.185  1.00  0.00     0.283 C 
BRANCH  18  19
ATOM     19  N   UNL A   1      35.469  22.594  26.736  1.00  0.00    -0.338 N 
ATOM     20  C   UNL A   1      35.476  21.370  25.945  1.00  0.00     0.332 C 
ATOM     21  C   UNL A   1      36.155  23.680  26.041  1.00  0.00     0.332 C 
ATOM     22  H   UNL A   1      35.997  22.402  27.587  1.00  0.00     0.347 HD
ENDBRANCH  18  19
ENDBRANCH  17  18
ENDBRANCH  12  17
ENDBRANCH   7  11
ENDBRANCH   6   7
ENDBRANCH   3   6
ENDBRANCH   1   2
BRANCH   1  23
ATOM     23  C   UNL A   1      32.948  29.624  24.916  1.00  0.00     0.042 C 
BRANCH  23  24
ATOM     24  C   UNL A   1      33.050  29.854  26.412  1.00  0.00     0.118 C 
BRANCH  24  25
ATOM     25  N   UNL A   1      33.045  31.268  26.740  1.00  0.00    -0.352 N 
ATOM     26  C   UNL A   1      33.835  31.995  27.596  1.00  0.00     0.251 C 
ATOM     27  H   UNL A   1      32.359  31.795  26.270  1.00  0.00     0.163 HD
ATOM     28  O   UNL A   1      33.453  33.116  27.928  1.00  0.00    -0.269 OA
BRANCH  26  29
ATOM     29  C   UNL A   1      35.119  31.467  28.122  1.00  0.00     0.039 A 
ATOM     30  C   UNL A   1      35.158  30.148  28.587  1.00  0.00     0.014 A 
ATOM     31  C   UNL A   1      36.255  32.268  28.258  1.00  0.00     0.014 A 
ATOM     32  C   UNL A   1      36.324  29.641  29.169  1.00  0.00     0.010 A 
ATOM     33  C   UNL A   1      37.452  31.727  28.724  1.00  0.00     0.010 A 
ATOM     34  C   UNL A   1      37.488  30.424  29.233  1.00  0.00    -0.014 A 
BRANCH  34  35
ATOM     35  C   UNL A   1      38.721  29.918  29.890  1.00  0.00     0.031 A 
ATOM     36  C   UNL A   1      39.100  30.396  31.271  1.00  0.00     0.074 A 
ATOM     37  C   UNL A   1      39.528  29.066  29.228  1.00  0.00     0.049 A 
ATOM     38  N   UNL A   1      40.128  30.057  32.007  1.00  0.00    -0.248 NA
ATOM     39  C   UNL A   1      38.232  31.407  31.897  1.00  0.00     0.031 C 
ATOM     40  C   UNL A   1      39.326  28.605  27.852  1.00  0.00     0.029 A 
ATOM     41  N   UNL A   1      40.686  28.443  29.619  1.00  0.00    -0.354 N 
ATOM     42  C   UNL A   1      40.052  30.841  33.153  1.00  0.00     0.074 A 
ATOM     43  C   UNL A   1      38.904  31.705  33.000  1.00  0.00     0.031 C 
ATOM     44  C   UNL A   1      40.313  27.757  27.524  1.00  0.00     0.029 A 
ATOM     45  C   UNL A   1      41.226  27.625  28.655  1.00  0.00     0.049 A 
ATOM     46  H   UNL A   1      41.092  28.569  30.508  1.00  0.00     0.167 HD
ATOM     47  C   UNL A   1      40.837  30.816  34.257  1.00  0.00     0.034 A 
ATOM     48  C   UNL A   1      42.323  26.843  28.685  1.00  0.00     0.034 A 
ATOM     49  C   UNL A   1      41.934  29.906  34.439  1.00  0.00     0.049 A 
ATOM     50  C   UNL A   1      43.121  26.758  29.958  1.00  0.00     0.074 A 
ATOM     51  C   UNL A   1      42.737  29.733  35.552  1.00  0.00     0.029 A 
ATOM     52  N   UNL A   1      42.378  29.008  33.481  1.00  0.00    -0.354 N 
ATOM     53  N   UNL A   1      42.930  27.386  31.093  1.00  0.00    -0.248 NA
ATOM     54  C   UNL A   1      44.252  25.821  29.972  1.00  0.00     0.031 C 
ATOM     55  C   UNL A   1      43.671  28.732  35.264  1.00  0.00     0.029 A 
ATOM     56  C   UNL A   1      43.439  28.273  33.977  1.00  0.00     0.049 A 
ATOM     57  H   UNL A   1      41.995  28.908  32.579  1.00  0.00     0.167 HD
ATOM     58  C   UNL A   1      43.892  26.892  31.968  1.00  0.00     0.074 A 
ATOM     59  C   UNL A   1      44.648  25.896  31.235  1.00  0.00     0.031 C 
ATOM     60  C   UNL A   1      44.139  27.242  33.254  1.00  0.00     0.034 A 
BRANCH  47  61
ATOM     61  C   UNL A   1      40.490  31.753  35.386  1.00  0.00     0.023 A 
ATOM     62  C   UNL A   1      41.280  32.902  35.603  1.00  0.00     0.012 A 
ATOM     63  C   UNL A   1      39.362  31.531  36.200  1.00  0.00     0.148 A 
ATOM     64  C   UNL A   1      40.976  33.793  36.631  1.00  0.00     0.002 A 
ATOM     65  C   UNL A   1      39.038  32.449  37.194  1.00  0.00     0.091 A 
ATOM     66  F   UNL A   1      38.634  30.424  35.997  1.00  0.00    -0.205 F 
ATOM     67  C   UNL A   1      39.850  33.572  37.419  1.00  0.00     0.022 A 
BRANCH  65  68
ATOM     68  S   UNL A   1      37.564  32.297  38.210  1.00  0.00     0.127 S 
ATOM     69  O   UNL A   1      38.001  32.920  39.459  1.00  0.00    -0.237 OA
ATOM     70  O   UNL A   1      36.584  33.075  37.452  1.00  0.00    -0.237 OA
ATOM     71  O   UNL A   1      37.276  30.872  38.287  1.00  0.00    -0.744 OA
ENDBRANCH  65  68
ENDBRANCH  47  61
BRANCH  48  72
ATOM     72  C   UNL A   1      42.661  25.997  27.506  1.00  0.00     0.023 A 
ATOM     73  C   UNL A   1      43.503  26.516  26.502  1.00  0.00     0.012 A 
ATOM     74  C   UNL A   1      42.195  24.673  27.392  1.00  0.00     0.148 A 
ATOM     75  C   UNL A   1      43.848  25.745  25.393  1.00  0.00     0.002 A 
ATOM     76  C   UNL A   1      42.587  23.891  26.312  1.00  0.00     0.091 A 
ATOM     77  F   UNL A   1      41.385  24.201  28.350  1.00  0.00    -0.205 F 
ATOM     78  C   UNL A   1      43.400  24.429  25.302  1.00  0.00     0.022 A 
BRANCH  76  79
ATOM     79  S   UNL A   1      42.172  22.148  26.189  1.00  0.00     0.127 S 
ATOM     80  O   UNL A   1      42.914  21.745  25.000  1.00  0.00    -0.237 OA
ATOM     81  O   UNL A   1      42.692  21.619  27.450  1.00  0.00    -0.237 OA
ATOM     82  O   UNL A   1      40.718  22.103  26.080  1.00  0.00    -0.744 OA
ENDBRANCH  76  79
ENDBRANCH  48  72
BRANCH  60  83
ATOM     83  C   UNL A   1      45.248  26.519  33.971  1.00  0.00     0.023 A 
ATOM     84  C   UNL A   1      46.578  26.960  33.827  1.00  0.00     0.012 A 
ATOM     85  C   UNL A   1      44.964  25.445  34.836  1.00  0.00     0.148 A 
ATOM     86  C   UNL A   1      47.614  26.318  34.506  1.00  0.00     0.002 A 
ATOM     87  C   UNL A   1      45.995  24.840  35.544  1.00  0.00     0.091 A 
ATOM     88  F   UNL A   1      43.695  25.024  34.944  1.00  0.00    -0.205 F 
ATOM     89  C   UNL A   1      47.321  25.267  35.371  1.00  0.00     0.022 A 
BRANCH  87  90
ATOM     90  S   UNL A   1      45.688  23.545  36.751  1.00  0.00     0.127 S 
ATOM     91  O   UNL A   1      47.032  23.292  37.267  1.00  0.00    -0.237 OA
ATOM     92  O   UNL A   1      44.786  24.202  37.698  1.00  0.00    -0.237 OA
ATOM     93  O   UNL A   1      45.080  22.450  36.007  1.00  0.00    -0.744 OA
ENDBRANCH  87  90
ENDBRANCH  60  83
ENDBRANCH  34  35
ENDBRANCH  26  29
ENDBRANCH  24  25
ENDBRANCH  23  24
ENDBRANCH   1  23
TORSDOF 18
ENDMDL
MODEL 2
REMARK VINA RESULT:     -10.9      1.841      2.561
REMARK SMILES C[NH+](C)CCNC(=O)NC1(CC(=O)NCCCNC(=O)c2ccc(-c3c4nc(c(-c5cccc(S(=O)(=O)[O-])c5F)c5ccc([nH]5)c(-c5cccc(S(=O)(=O)[O-])c5F)c5nc(c(-c6cccc(S(=O)(=O)[O-])c6F)c6ccc3[nH]6)C=C5)C=C4)cc2)CCC1
REMARK SMILES IDX 15 1 14 2 12 3 13 4 11 6 10 7 84 8 86 9 85 10 9 11 6 12 7 13
REMARK SMILES IDX 8 15 5 17 4 18 2 19 1 20 3 21 16 23 17 24 18 25 19 26 20 28
REMARK SMILES IDX 21 29 22 30 83 31 23 32 82 33 24 34 25 35 26 36 76 37 27 38
REMARK SMILES IDX 81 39 75 40 77 41 28 42 80 43 74 44 73 45 29 47 61 48 41 49
REMARK SMILES IDX 60 50 42 51 45 52 59 53 78 54 43 55 44 56 58 58 79 59 46 60
REMARK SMILES IDX 30 61 31 62 39 63 32 64 34 65 40 66 33 67 35 68 36 69 37 70
REMARK SMILES IDX 38 71 62 72 63 73 71 74 64 75 66 76 72 77 65 78 67 79 68 80
REMARK SMILES IDX 69 81 70 82 47 83 48 84 56 85 49 86 51 87 57 88 50 89 52 90
REMARK SMILES IDX 53 91 54 92 55 93
REMARK H PARENT 14 5 6 14 9 16 2 22 18 27 77 46 45 57
REMARK Flexibility Score: inf
ROOT
ATOM      1  C   UNL A   1      33.940  27.785  24.542  1.00  0.00     0.117 C 
ENDROOT
BRANCH   1   2
ATOM      2  N   UNL A   1      33.598  26.911  23.439  1.00  0.00    -0.356 N 
ATOM      3  C   UNL A   1      33.862  25.588  23.268  1.00  0.00     0.222 C 
ATOM      4  O   UNL A   1      33.604  25.091  22.170  1.00  0.00    -0.275 OA
ATOM      5  H   UNL A   1      33.100  27.338  22.705  1.00  0.00     0.163 HD
BRANCH   3   6
ATOM      6  C   UNL A   1      34.371  24.747  24.419  1.00  0.00     0.128 C 
BRANCH   6   7
ATOM      7  C   UNL A   1      34.925  23.346  24.088  1.00  0.00     0.051 C 
ATOM      8  C   UNL A   1      35.686  22.559  25.225  1.00  0.00     0.029 C 
ATOM      9  C   UNL A   1      36.328  23.342  23.372  1.00  0.00     0.029 C 
ATOM     10  C   UNL A   1      36.990  23.196  24.744  1.00  0.00     0.005 C 
BRANCH   7  11
ATOM     11  N   UNL A   1      33.956  22.521  23.332  1.00  0.00    -0.332 N 
ATOM     12  N   UNL A   1      32.245  21.835  24.828  1.00  0.00    -0.332 N 
ATOM     13  C   UNL A   1      32.784  21.922  23.607  1.00  0.00     0.315 C 
ATOM     14  H   UNL A   1      31.308  21.535  24.823  1.00  0.00     0.165 HD
ATOM     15  O   UNL A   1      32.165  21.402  22.674  1.00  0.00    -0.249 OA
ATOM     16  H   UNL A   1      34.240  22.376  22.399  1.00  0.00     0.165 HD
BRANCH  12  17
ATOM     17  C   UNL A   1      32.760  22.093  26.152  1.00  0.00     0.179 C 
BRANCH  17  18
ATOM     18  C   UNL A   1      32.052  23.232  26.906  1.00  0.00     0.283 C 
BRANCH  18  19
ATOM     19  N   UNL A   1      30.938  23.922  26.243  1.00  0.00    -0.338 N 
ATOM     20  C   UNL A   1      29.650  23.629  26.858  1.00  0.00     0.332 C 
ATOM     21  C   UNL A   1      31.156  25.361  26.127  1.00  0.00     0.332 C 
ATOM     22  H   UNL A   1      30.908  23.546  25.296  1.00  0.00     0.347 HD
ENDBRANCH  18  19
ENDBRANCH  17  18
ENDBRANCH  12  17
ENDBRANCH   7  11
ENDBRANCH   6   7
ENDBRANCH   3   6
ENDBRANCH   1   2
BRANCH   1  23
ATOM     23  C   UNL A   1      33.001  28.983  24.584  1.00  0.00     0.042 C 
BRANCH  23  24
ATOM     24  C   UNL A   1      32.482  29.299  25.974  1.00  0.00     0.118 C 
BRANCH  24  25
ATOM     25  N   UNL A   1      32.371  30.729  26.193  1.00  0.00    -0.352 N 
ATOM     26  C   UNL A   1      33.077  31.570  27.017  1.00  0.00     0.251 C 
ATOM     27  H   UNL A   1      31.669  31.172  25.661  1.00  0.00     0.163 HD
ATOM     28  O   UNL A   1      32.609  32.683  27.249  1.00  0.00    -0.269 OA
BRANCH  26  29
ATOM     29  C   UNL A   1      34.373  31.173  27.623  1.00  0.00     0.039 A 
ATOM     30  C   UNL A   1      34.534  29.848  28.045  1.00  0.00     0.014 A 
ATOM     31  C   UNL A   1      35.392  32.094  27.875  1.00  0.00     0.014 A 
ATOM     32  C   UNL A   1      35.706  29.456  28.698  1.00  0.00     0.010 A 
ATOM     33  C   UNL A   1      36.607  31.676  28.414  1.00  0.00     0.010 A 
ATOM     34  C   UNL A   1      36.760  30.365  28.880  1.00  0.00    -0.014 A 
BRANCH  34  35
ATOM     35  C   UNL A   1      37.993  29.977  29.614  1.00  0.00     0.031 A 
ATOM     36  C   UNL A   1      38.244  30.495  31.010  1.00  0.00     0.074 A 
ATOM     37  C   UNL A   1      38.912  29.199  29.010  1.00  0.00     0.049 A 
ATOM     38  N   UNL A   1      39.252  30.256  31.809  1.00  0.00    -0.248 NA
ATOM     39  C   UNL A   1      37.252  31.426  31.573  1.00  0.00     0.031 C 
ATOM     40  C   UNL A   1      38.835  28.714  27.630  1.00  0.00     0.029 A 
ATOM     41  N   UNL A   1      40.096  28.686  29.476  1.00  0.00    -0.354 N 
ATOM     42  C   UNL A   1      39.037  31.036  32.940  1.00  0.00     0.074 A 
ATOM     43  C   UNL A   1      37.827  31.791  32.709  1.00  0.00     0.031 C 
ATOM     44  C   UNL A   1      39.913  27.958  27.369  1.00  0.00     0.029 A 
ATOM     45  C   UNL A   1      40.765  27.916  28.554  1.00  0.00     0.049 A 
ATOM     46  H   UNL A   1      40.436  28.855  30.385  1.00  0.00     0.167 HD
ATOM     47  C   UNL A   1      39.755  31.090  34.088  1.00  0.00     0.034 A 
ATOM     48  C   UNL A   1      41.925  27.238  28.657  1.00  0.00     0.034 A 
ATOM     49  C   UNL A   1      40.917  30.285  34.343  1.00  0.00     0.049 A 
ATOM     50  C   UNL A   1      42.650  27.234  29.975  1.00  0.00     0.074 A 
ATOM     51  C   UNL A   1      41.664  30.192  35.504  1.00  0.00     0.029 A 
ATOM     52  N   UNL A   1      41.497  29.425  33.423  1.00  0.00    -0.354 N 
ATOM     53  N   UNL A   1      42.336  27.848  31.090  1.00  0.00    -0.248 NA
ATOM     54  C   UNL A   1      43.859  26.404  30.066  1.00  0.00     0.031 C 
ATOM     55  C   UNL A   1      42.701  29.279  35.282  1.00  0.00     0.029 A 
ATOM     56  C   UNL A   1      42.589  28.793  33.989  1.00  0.00     0.049 A 
ATOM     57  H   UNL A   1      41.179  29.286  32.501  1.00  0.00     0.167 HD
ATOM     58  C   UNL A   1      43.285  27.449  32.025  1.00  0.00     0.074 A 
ATOM     59  C   UNL A   1      44.171  26.522  31.349  1.00  0.00     0.031 C 
ATOM     60  C   UNL A   1      43.422  27.827  33.320  1.00  0.00     0.034 A 
BRANCH  47  61
ATOM     61  C   UNL A   1      39.257  31.997  35.184  1.00  0.00     0.023 A 
ATOM     62  C   UNL A   1      38.292  31.518  36.096  1.00  0.00     0.012 A 
ATOM     63  C   UNL A   1      39.772  33.298  35.348  1.00  0.00     0.148 A 
ATOM     64  C   UNL A   1      37.822  32.330  37.128  1.00  0.00     0.002 A 
ATOM     65  C   UNL A   1      39.332  34.085  36.407  1.00  0.00     0.091 A 
ATOM     66  F   UNL A   1      40.671  33.747  34.461  1.00  0.00    -0.205 F 
ATOM     67  C   UNL A   1      38.349  33.607  37.290  1.00  0.00     0.022 A 
BRANCH  65  68
ATOM     68  S   UNL A   1      40.007  35.714  36.750  1.00  0.00     0.127 S 
ATOM     69  O   UNL A   1      41.428  35.414  36.924  1.00  0.00    -0.237 OA
ATOM     70  O   UNL A   1      39.686  36.447  35.524  1.00  0.00    -0.237 OA
ATOM     71  O   UNL A   1      39.315  36.192  37.939  1.00  0.00    -0.744 OA
ENDBRANCH  65  68
ENDBRANCH  47  61
BRANCH  48  72
ATOM     72  C   UNL A   1      42.409  26.420  27.508  1.00  0.00     0.023 A 
ATOM     73  C   UNL A   1      43.317  26.986  26.592  1.00  0.00     0.012 A 
ATOM     74  C   UNL A   1      42.013  25.078  27.343  1.00  0.00     0.148 A 
ATOM     75  C   UNL A   1      43.797  26.241  25.514  1.00  0.00     0.002 A 
ATOM     76  C   UNL A   1      42.539  24.325  26.299  1.00  0.00     0.091 A 
ATOM     77  F   UNL A   1      41.140  24.561  28.218  1.00  0.00    -0.205 F 
ATOM     78  C   UNL A   1      43.417  24.909  25.374  1.00  0.00     0.022 A 
BRANCH  76  79
ATOM     79  S   UNL A   1      42.214  22.567  26.127  1.00  0.00     0.127 S 
ATOM     80  O   UNL A   1      42.991  22.233  24.938  1.00  0.00    -0.237 OA
ATOM     81  O   UNL A   1      42.744  22.033  27.382  1.00  0.00    -0.237 OA
ATOM     82  O   UNL A   1      40.766  22.452  25.997  1.00  0.00    -0.744 OA
ENDBRANCH  76  79
ENDBRANCH  48  72
BRANCH  60  83
ATOM     83  C   UNL A   1      44.547  27.212  34.109  1.00  0.00     0.023 A 
ATOM     84  C   UNL A   1      45.805  27.845  34.141  1.00  0.00     0.012 A 
ATOM     85  C   UNL A   1      44.339  26.045  34.868  1.00  0.00     0.148 A 
ATOM     86  C   UNL A   1      46.851  27.303  34.889  1.00  0.00     0.002 A 
ATOM     87  C   UNL A   1      45.371  25.537  35.647  1.00  0.00     0.091 A 
ATOM     88  F   UNL A   1      43.141  25.444  34.809  1.00  0.00    -0.205 F 
ATOM     89  C   UNL A   1      46.631  26.158  35.649  1.00  0.00     0.022 A 
BRANCH  87  90
ATOM     90  S   UNL A   1      45.138  24.122  36.729  1.00  0.00     0.127 S 
ATOM     91  O   UNL A   1      44.532  23.149  35.823  1.00  0.00    -0.237 OA
ATOM     92  O   UNL A   1      46.508  23.804  37.135  1.00  0.00    -0.237 OA
ATOM     93  O   UNL A   1      44.287  24.592  37.815  1.00  0.00    -0.744 OA
ENDBRANCH  87  90
ENDBRANCH  60  83
ENDBRANCH  34  35
ENDBRANCH  26  29
ENDBRANCH  24  25
ENDBRANCH  23  24
ENDBRANCH   1  23
TORSDOF 18
ENDMDL
MODEL 3
REMARK VINA RESULT:     -10.9      4.976      9.913
REMARK SMILES C[NH+](C)CCNC(=O)NC1(CC(=O)NCCCNC(=O)c2ccc(-c3c4nc(c(-c5cccc(S(=O)(=O)[O-])c5F)c5ccc([nH]5)c(-c5cccc(S(=O)(=O)[O-])c5F)c5nc(c(-c6cccc(S(=O)(=O)[O-])c6F)c6ccc3[nH]6)C=C5)C=C4)cc2)CCC1
REMARK SMILES IDX 15 1 14 2 12 3 13 4 11 6 10 7 84 8 86 9 85 10 9 11 6 12 7 13
REMARK SMILES IDX 8 15 5 17 4 18 2 19 1 20 3 21 16 23 17 24 18 25 19 26 20 28
REMARK SMILES IDX 21 29 22 30 83 31 23 32 82 33 24 34 25 35 26 36 76 37 27 38
REMARK SMILES IDX 81 39 75 40 77 41 28 42 80 43 74 44 73 45 29 47 61 48 41 49
REMARK SMILES IDX 60 50 42 51 45 52 59 53 78 54 43 55 44 56 58 58 79 59 46 60
REMARK SMILES IDX 30 61 31 62 39 63 32 64 34 65 40 66 33 67 35 68 36 69 37 70
REMARK SMILES IDX 38 71 62 72 63 73 71 74 64 75 66 76 72 77 65 78 67 79 68 80
REMARK SMILES IDX 69 81 70 82 47 83 48 84 56 85 49 86 51 87 57 88 50 89 52 90
REMARK SMILES IDX 53 91 54 92 55 93
REMARK H PARENT 14 5 6 14 9 16 2 22 18 27 77 46 45 57
REMARK Flexibility Score: inf
ROOT
ATOM      1  C   UNL A   1      34.545  23.501  26.397  1.00  0.00     0.117 C 
ENDROOT
BRANCH   1   2
ATOM      2  N   UNL A   1      34.398  24.257  25.169  1.00  0.00    -0.356 N 
ATOM      3  C   UNL A   1      33.371  25.046  24.756  1.00  0.00     0.222 C 
ATOM      4  O   UNL A   1      33.404  25.465  23.598  1.00  0.00    -0.275 OA
ATOM      5  H   UNL A   1      35.154  24.188  24.543  1.00  0.00     0.163 HD
BRANCH   3   6
ATOM      6  C   UNL A   1      32.278  25.460  25.718  1.00  0.00     0.128 C 
BRANCH   6   7
ATOM      7  C   UNL A   1      30.823  25.128  25.332  1.00  0.00     0.051 C 
ATOM      8  C   UNL A   1      30.547  24.578  23.878  1.00  0.00     0.029 C 
ATOM      9  C   UNL A   1      29.970  26.362  24.851  1.00  0.00     0.029 C 
ATOM     10  C   UNL A   1      30.350  26.020  23.408  1.00  0.00     0.005 C 
BRANCH   7  11
ATOM     11  N   UNL A   1      30.111  24.391  26.399  1.00  0.00    -0.332 N 
ATOM     12  N   UNL A   1      30.833  22.129  26.341  1.00  0.00    -0.332 N 
ATOM     13  C   UNL A   1      30.142  23.137  26.886  1.00  0.00     0.315 C 
ATOM     14  H   UNL A   1      30.895  21.337  26.922  1.00  0.00     0.165 HD
ATOM     15  O   UNL A   1      29.477  22.891  27.896  1.00  0.00    -0.249 OA
ATOM     16  H   UNL A   1      29.453  24.956  26.867  1.00  0.00     0.165 HD
BRANCH  12  17
ATOM     17  C   UNL A   1      31.505  21.968  25.073  1.00  0.00     0.179 C 
BRANCH  17  18
ATOM     18  C   UNL A   1      32.156  20.591  24.862  1.00  0.00     0.283 C 
BRANCH  18  19
ATOM     19  N   UNL A   1      32.621  20.237  23.515  1.00  0.00    -0.338 N 
ATOM     20  C   UNL A   1      32.356  18.845  23.176  1.00  0.00     0.332 C 
ATOM     21  C   UNL A   1      32.109  21.140  22.487  1.00  0.00     0.332 C 
ATOM     22  H   UNL A   1      33.634  20.351  23.536  1.00  0.00     0.347 HD
ENDBRANCH  18  19
ENDBRANCH  17  18
ENDBRANCH  12  17
ENDBRANCH   7  11
ENDBRANCH   6   7
ENDBRANCH   3   6
ENDBRANCH   1   2
BRANCH   1  23
ATOM     23  C   UNL A   1      35.125  22.124  26.109  1.00  0.00     0.042 C 
BRANCH  23  24
ATOM     24  C   UNL A   1      36.301  22.149  25.151  1.00  0.00     0.118 C 
BRANCH  24  25
ATOM     25  N   UNL A   1      37.239  21.075  25.424  1.00  0.00    -0.352 N 
ATOM     26  C   UNL A   1      38.556  21.109  25.811  1.00  0.00     0.251 C 
ATOM     27  H   UNL A   1      36.869  20.169  25.313  1.00  0.00     0.163 HD
ATOM     28  O   UNL A   1      39.221  20.081  25.695  1.00  0.00    -0.269 OA
BRANCH  26  29
ATOM     29  C   UNL A   1      39.185  22.337  26.358  1.00  0.00     0.039 A 
ATOM     30  C   UNL A   1      38.637  23.578  26.012  1.00  0.00     0.014 A 
ATOM     31  C   UNL A   1      40.354  22.301  27.121  1.00  0.00     0.014 A 
ATOM     32  C   UNL A   1      39.251  24.760  26.436  1.00  0.00     0.010 A 
ATOM     33  C   UNL A   1      40.895  23.473  27.645  1.00  0.00     0.010 A 
ATOM     34  C   UNL A   1      40.382  24.719  27.268  1.00  0.00    -0.014 A 
BRANCH  34  35
ATOM     35  C   UNL A   1      41.074  25.965  27.689  1.00  0.00     0.031 A 
ATOM     36  C   UNL A   1      42.509  26.212  27.289  1.00  0.00     0.074 A 
ATOM     37  C   UNL A   1      40.430  26.854  28.471  1.00  0.00     0.049 A 
ATOM     38  N   UNL A   1      43.271  27.243  27.551  1.00  0.00    -0.248 NA
ATOM     39  C   UNL A   1      43.188  25.154  26.524  1.00  0.00     0.031 C 
ATOM     40  C   UNL A   1      39.078  26.686  29.006  1.00  0.00     0.029 A 
ATOM     41  N   UNL A   1      40.832  28.071  28.960  1.00  0.00    -0.354 N 
ATOM     42  C   UNL A   1      44.521  26.938  27.023  1.00  0.00     0.074 A 
ATOM     43  C   UNL A   1      44.431  25.609  26.466  1.00  0.00     0.031 C 
ATOM     44  C   UNL A   1      38.754  27.770  29.730  1.00  0.00     0.029 A 
ATOM     45  C   UNL A   1      39.879  28.701  29.726  1.00  0.00     0.049 A 
ATOM     46  H   UNL A   1      41.720  28.458  28.780  1.00  0.00     0.167 HD
ATOM     47  C   UNL A   1      45.634  27.708  26.966  1.00  0.00     0.034 A 
ATOM     48  C   UNL A   1      39.902  29.899  30.340  1.00  0.00     0.034 A 
ATOM     49  C   UNL A   1      45.700  29.057  27.457  1.00  0.00     0.049 A 
ATOM     50  C   UNL A   1      41.112  30.777  30.176  1.00  0.00     0.074 A 
ATOM     51  C   UNL A   1      46.746  29.958  27.368  1.00  0.00     0.029 A 
ATOM     52  N   UNL A   1      44.670  29.703  28.124  1.00  0.00    -0.354 N 
ATOM     53  N   UNL A   1      42.225  30.534  29.526  1.00  0.00    -0.248 NA
ATOM     54  C   UNL A   1      41.052  32.113  30.785  1.00  0.00     0.031 C 
ATOM     55  C   UNL A   1      46.349  31.148  27.988  1.00  0.00     0.029 A 
ATOM     56  C   UNL A   1      45.051  30.992  28.448  1.00  0.00     0.049 A 
ATOM     57  H   UNL A   1      43.796  29.302  28.337  1.00  0.00     0.167 HD
ATOM     58  C   UNL A   1      42.981  31.698  29.615  1.00  0.00     0.074 A 
ATOM     59  C   UNL A   1      42.187  32.653  30.362  1.00  0.00     0.031 C 
ATOM     60  C   UNL A   1      44.224  31.949  29.137  1.00  0.00     0.034 A 
BRANCH  47  61
ATOM     61  C   UNL A   1      46.849  27.136  26.281  1.00  0.00     0.023 A 
ATOM     62  C   UNL A   1      46.986  27.270  24.883  1.00  0.00     0.012 A 
ATOM     63  C   UNL A   1      47.877  26.512  27.016  1.00  0.00     0.148 A 
ATOM     64  C   UNL A   1      48.105  26.762  24.224  1.00  0.00     0.002 A 
ATOM     65  C   UNL A   1      49.011  26.049  26.357  1.00  0.00     0.091 A 
ATOM     66  F   UNL A   1      47.723  26.372  28.341  1.00  0.00    -0.205 F 
ATOM     67  C   UNL A   1      49.121  26.162  24.962  1.00  0.00     0.022 A 
BRANCH  65  68
ATOM     68  S   UNL A   1      50.412  25.333  27.226  1.00  0.00     0.127 S 
ATOM     69  O   UNL A   1      50.802  26.430  28.110  1.00  0.00    -0.237 OA
ATOM     70  O   UNL A   1      49.803  24.190  27.906  1.00  0.00    -0.237 OA
ATOM     71  O   UNL A   1      51.381  24.980  26.198  1.00  0.00    -0.744 OA
ENDBRANCH  65  68
ENDBRANCH  47  61
BRANCH  48  72
ATOM     72  C   UNL A   1      38.694  30.380  31.071  1.00  0.00     0.023 A 
ATOM     73  C   UNL A   1      38.614  30.198  32.466  1.00  0.00     0.012 A 
ATOM     74  C   UNL A   1      37.650  31.051  30.406  1.00  0.00     0.148 A 
ATOM     75  C   UNL A   1      37.504  30.647  33.179  1.00  0.00     0.002 A 
ATOM     76  C   UNL A   1      36.573  31.546  31.131  1.00  0.00     0.091 A 
ATOM     77  F   UNL A   1      37.738  31.204  29.077  1.00  0.00    -0.205 F 
ATOM     78  C   UNL A   1      36.488  31.330  32.515  1.00  0.00     0.022 A 
BRANCH  76  79
ATOM     79  S   UNL A   1      35.294  32.558  30.378  1.00  0.00     0.127 S 
ATOM     80  O   UNL A   1      34.374  32.757  31.493  1.00  0.00    -0.237 OA
ATOM     81  O   UNL A   1      36.043  33.748  29.974  1.00  0.00    -0.237 OA
ATOM     82  O   UNL A   1      34.783  31.770  29.262  1.00  0.00    -0.744 OA
ENDBRANCH  76  79
ENDBRANCH  48  72
BRANCH  60  83
ATOM     83  C   UNL A   1      44.795  33.323  29.371  1.00  0.00     0.023 A 
ATOM     84  C   UNL A   1      45.498  33.594  30.560  1.00  0.00     0.012 A 
ATOM     85  C   UNL A   1      44.689  34.322  28.385  1.00  0.00     0.148 A 
ATOM     86  C   UNL A   1      46.056  34.854  30.781  1.00  0.00     0.002 A 
ATOM     87  C   UNL A   1      45.288  35.559  28.591  1.00  0.00     0.091 A 
ATOM     88  F   UNL A   1      43.998  34.053  27.268  1.00  0.00    -0.205 F 
ATOM     89  C   UNL A   1      45.961  35.830  29.793  1.00  0.00     0.022 A 
BRANCH  87  90
ATOM     90  S   UNL A   1      45.292  36.836  27.327  1.00  0.00     0.127 S 
ATOM     91  O   UNL A   1      43.864  37.093  27.157  1.00  0.00    -0.237 OA
ATOM     92  O   UNL A   1      46.033  37.920  27.974  1.00  0.00    -0.237 OA
ATOM     93  O   UNL A   1      45.970  36.250  26.178  1.00  0.00    -0.744 OA
ENDBRANCH  87  90
ENDBRANCH  60  83
ENDBRANCH  34  35
ENDBRANCH  26  29
ENDBRANCH  24  25
ENDBRANCH  23  24
ENDBRANCH   1  23
TORSDOF 18
ENDMDL
