MODEL 1
REMARK VINA RESULT:     -12.2      0.000      0.000
REMARK SMILES O=C(C[NH+]1CCC2(CC1)CC(=O)N2)NCCCNC(=O)c1ccc(-c2c3nc(c(-c4cccc(S(=O)(=O)[O-])c4F)c4ccc([nH]4)c(-c4cccc(S(=O)(=O)[O-])c4F)c4nc(c(-c5cccc(S(=O)(=O)[O-])c5F)c5ccc2[nH]5)C=C4)C=C3)cc1
REMARK SMILES IDX 17 1 16 2 15 3 14 4 1 5 2 6 3 8 4 9 5 10 9 11 6 13 8 14 7 15
REMARK SMILES IDX 10 16 13 17 11 18 12 20 18 21 19 22 20 24 21 25 22 26 83 27
REMARK SMILES IDX 23 28 82 29 24 30 25 31 26 32 76 33 27 34 81 35 75 36 77 37
REMARK SMILES IDX 28 38 80 39 74 40 73 41 29 43 61 44 41 45 60 46 42 47 45 48
REMARK SMILES IDX 59 49 78 50 43 51 44 52 58 54 79 55 46 56 30 57 31 58 39 59
REMARK SMILES IDX 32 60 34 61 40 62 33 63 35 64 36 65 37 66 38 67 62 68 63 69
REMARK SMILES IDX 71 70 64 71 66 72 72 73 65 74 67 75 68 76 69 77 70 78 47 79
REMARK SMILES IDX 48 80 56 81 49 82 51 83 57 84 50 85 52 86 53 87 54 88 55 89
REMARK H PARENT 14 7 4 12 13 19 18 23 77 42 45 53
REMARK Flexibility Score: inf
ROOT
ATOM      1  C   UNL A   1      36.903  21.812  25.282  1.00  0.00     0.118 C 
ENDROOT
BRANCH   1   2
ATOM      2  C   UNL A   1      35.466  21.307  25.369  1.00  0.00     0.042 C 
BRANCH   2   3
ATOM      3  C   UNL A   1      34.487  21.890  24.361  1.00  0.00     0.118 C 
BRANCH   3   4
ATOM      4  N   UNL A   1      34.379  23.337  24.404  1.00  0.00    -0.351 N 
ATOM      5  O   UNL A   1      32.089  23.373  24.375  1.00  0.00    -0.269 OA
ATOM      6  C   UNL A   1      33.155  23.955  24.557  1.00  0.00     0.275 C 
ATOM      7  H   UNL A   1      35.192  23.887  24.324  1.00  0.00     0.163 HD
BRANCH   6   8
ATOM      8  C   UNL A   1      33.231  25.406  25.040  1.00  0.00     0.363 C 
BRANCH   8   9
ATOM      9  N   UNL A   1      33.598  26.393  24.003  1.00  0.00    -0.327 N 
ATOM     10  C   UNL A   1      32.977  26.217  22.696  1.00  0.00     0.265 C 
ATOM     11  C   UNL A   1      33.656  27.795  24.393  1.00  0.00     0.265 C 
ATOM     12  H   UNL A   1      34.576  26.125  23.893  1.00  0.00     0.348 HD
ATOM     13  C   UNL A   1      31.580  26.809  22.563  1.00  0.00     0.090 C 
ATOM     14  C   UNL A   1      32.329  28.547  24.363  1.00  0.00     0.090 C 
ATOM     15  C   UNL A   1      31.463  28.213  23.153  1.00  0.00     0.059 C 
ATOM     16  C   UNL A   1      29.973  28.657  23.325  1.00  0.00     0.128 C 
ATOM     17  N   UNL A   1      31.550  29.240  22.115  1.00  0.00    -0.350 N 
ATOM     18  C   UNL A   1      30.227  29.526  22.090  1.00  0.00     0.222 C 
ATOM     19  H   UNL A   1      32.313  29.601  21.606  1.00  0.00     0.164 HD
ATOM     20  O   UNL A   1      29.578  30.198  21.320  1.00  0.00    -0.275 OA
ENDBRANCH   8   9
ENDBRANCH   6   8
ENDBRANCH   3   4
ENDBRANCH   2   3
ENDBRANCH   1   2
BRANCH   1  21
ATOM     21  N   UNL A   1      37.928  20.780  25.370  1.00  0.00    -0.352 N 
ATOM     22  C   UNL A   1      39.178  20.843  25.952  1.00  0.00     0.251 C 
ATOM     23  H   UNL A   1      37.697  19.917  24.957  1.00  0.00     0.163 HD
ATOM     24  O   UNL A   1      39.933  19.878  25.898  1.00  0.00    -0.269 OA
BRANCH  22  25
ATOM     25  C   UNL A   1      39.623  22.100  26.598  1.00  0.00     0.039 A 
ATOM     26  C   UNL A   1      40.630  22.043  27.565  1.00  0.00     0.014 A 
ATOM     27  C   UNL A   1      39.109  23.332  26.190  1.00  0.00     0.014 A 
ATOM     28  C   UNL A   1      41.203  23.229  28.036  1.00  0.00     0.010 A 
ATOM     29  C   UNL A   1      39.744  24.504  26.589  1.00  0.00     0.010 A 
ATOM     30  C   UNL A   1      40.808  24.467  27.504  1.00  0.00    -0.014 A 
BRANCH  30  31
ATOM     31  C   UNL A   1      41.512  25.733  27.850  1.00  0.00     0.031 A 
ATOM     32  C   UNL A   1      40.784  26.827  28.581  1.00  0.00     0.074 A 
ATOM     33  C   UNL A   1      42.767  25.947  27.401  1.00  0.00     0.049 A 
ATOM     34  N   UNL A   1      41.180  28.042  28.854  1.00  0.00    -0.248 NA
ATOM     35  C   UNL A   1      39.417  26.525  29.037  1.00  0.00     0.031 C 
ATOM     36  C   UNL A   1      43.565  24.995  26.624  1.00  0.00     0.029 A 
ATOM     37  N   UNL A   1      43.581  27.050  27.503  1.00  0.00    -0.354 N 
ATOM     38  C   UNL A   1      40.103  28.663  29.475  1.00  0.00     0.074 A 
ATOM     39  C   UNL A   1      39.023  27.699  29.509  1.00  0.00     0.031 C 
ATOM     40  C   UNL A   1      44.748  25.554  26.321  1.00  0.00     0.029 A 
ATOM     41  C   UNL A   1      44.780  26.917  26.838  1.00  0.00     0.049 A 
ATOM     42  H   UNL A   1      43.332  27.859  28.006  1.00  0.00     0.167 HD
ATOM     43  C   UNL A   1      40.022  29.911  29.991  1.00  0.00     0.034 A 
ATOM     44  C   UNL A   1      45.780  27.799  26.641  1.00  0.00     0.034 A 
ATOM     45  C   UNL A   1      41.105  30.857  29.986  1.00  0.00     0.049 A 
ATOM     46  C   UNL A   1      45.670  29.180  27.231  1.00  0.00     0.074 A 
ATOM     47  C   UNL A   1      41.149  32.116  30.557  1.00  0.00     0.029 A 
ATOM     48  N   UNL A   1      42.330  30.656  29.367  1.00  0.00    -0.354 N 
ATOM     49  N   UNL A   1      44.694  29.699  27.935  1.00  0.00    -0.248 NA
ATOM     50  C   UNL A   1      46.809  30.088  27.026  1.00  0.00     0.031 C 
ATOM     51  C   UNL A   1      42.382  32.694  30.247  1.00  0.00     0.029 A 
ATOM     52  C   UNL A   1      43.128  31.775  29.528  1.00  0.00     0.049 A 
ATOM     53  H   UNL A   1      42.592  29.839  28.885  1.00  0.00     0.167 HD
ATOM     54  C   UNL A   1      45.121  30.972  28.296  1.00  0.00     0.074 A 
ATOM     55  C   UNL A   1      46.446  31.145  27.740  1.00  0.00     0.031 C 
ATOM     56  C   UNL A   1      44.469  31.915  29.019  1.00  0.00     0.034 A 
BRANCH  43  57
ATOM     57  C   UNL A   1      38.725  30.323  30.637  1.00  0.00     0.023 A 
ATOM     58  C   UNL A   1      38.529  30.112  32.017  1.00  0.00     0.012 A 
ATOM     59  C   UNL A   1      37.724  30.976  29.891  1.00  0.00     0.148 A 
ATOM     60  C   UNL A   1      37.343  30.506  32.636  1.00  0.00     0.002 A 
ATOM     61  C   UNL A   1      36.566  31.411  30.523  1.00  0.00     0.091 A 
ATOM     62  F   UNL A   1      37.920  31.152  28.575  1.00  0.00    -0.205 F 
ATOM     63  C   UNL A   1      36.369  31.165  31.892  1.00  0.00     0.022 A 
BRANCH  61  64
ATOM     64  S   UNL A   1      35.288  32.342  29.673  1.00  0.00     0.127 S 
ATOM     65  O   UNL A   1      34.333  32.583  30.752  1.00  0.00    -0.237 OA
ATOM     66  O   UNL A   1      36.018  33.528  29.227  1.00  0.00    -0.237 OA
ATOM     67  O   UNL A   1      34.809  31.482  28.600  1.00  0.00    -0.744 OA
ENDBRANCH  61  64
ENDBRANCH  43  57
BRANCH  44  68
ATOM     68  C   UNL A   1      46.996  27.395  25.878  1.00  0.00     0.023 A 
ATOM     69  C   UNL A   1      48.009  26.657  26.523  1.00  0.00     0.012 A 
ATOM     70  C   UNL A   1      47.150  27.726  24.517  1.00  0.00     0.148 A 
ATOM     71  C   UNL A   1      49.167  26.288  25.838  1.00  0.00     0.002 A 
ATOM     72  C   UNL A   1      48.281  27.306  23.826  1.00  0.00     0.091 A 
ATOM     73  F   UNL A   1      46.180  28.436  23.924  1.00  0.00    -0.205 F 
ATOM     74  C   UNL A   1      49.300  26.605  24.489  1.00  0.00     0.022 A 
BRANCH  72  75
ATOM     75  S   UNL A   1      48.479  27.556  22.059  1.00  0.00     0.127 S 
ATOM     76  O   UNL A   1      49.636  28.447  22.011  1.00  0.00    -0.237 OA
ATOM     77  O   UNL A   1      48.728  26.193  21.590  1.00  0.00    -0.237 OA
ATOM     78  O   UNL A   1      47.222  28.132  21.598  1.00  0.00    -0.744 OA
ENDBRANCH  72  75
ENDBRANCH  44  68
BRANCH  56  79
ATOM     79  C   UNL A   1      45.189  33.203  29.321  1.00  0.00     0.023 A 
ATOM     80  C   UNL A   1      46.017  33.305  30.456  1.00  0.00     0.012 A 
ATOM     81  C   UNL A   1      45.122  34.279  28.412  1.00  0.00     0.148 A 
ATOM     82  C   UNL A   1      46.750  34.468  30.693  1.00  0.00     0.002 A 
ATOM     83  C   UNL A   1      45.896  35.411  28.626  1.00  0.00     0.091 A 
ATOM     84  F   UNL A   1      44.315  34.164  27.348  1.00  0.00    -0.205 F 
ATOM     85  C   UNL A   1      46.702  35.513  29.771  1.00  0.00     0.022 A 
BRANCH  83  86
ATOM     86  S   UNL A   1      45.979  36.761  27.445  1.00  0.00     0.127 S 
ATOM     87  O   UNL A   1      46.911  37.676  28.101  1.00  0.00    -0.237 OA
ATOM     88  O   UNL A   1      46.512  36.097  26.255  1.00  0.00    -0.237 OA
ATOM     89  O   UNL A   1      44.618  37.260  27.303  1.00  0.00    -0.744 OA
ENDBRANCH  83  86
ENDBRANCH  56  79
ENDBRANCH  30  31
ENDBRANCH  22  25
ENDBRANCH   1  21
TORSDOF 14
ENDMDL
MODEL 2
REMARK VINA RESULT:     -12.2      0.654      7.785
REMARK SMILES O=C(C[NH+]1CCC2(CC1)CC(=O)N2)NCCCNC(=O)c1ccc(-c2c3nc(c(-c4cccc(S(=O)(=O)[O-])c4F)c4ccc([nH]4)c(-c4cccc(S(=O)(=O)[O-])c4F)c4nc(c(-c5cccc(S(=O)(=O)[O-])c5F)c5ccc2[nH]5)C=C4)C=C3)cc1
REMARK SMILES IDX 17 1 16 2 15 3 14 4 1 5 2 6 3 8 4 9 5 10 9 11 6 13 8 14 7 15
REMARK SMILES IDX 10 16 13 17 11 18 12 20 18 21 19 22 20 24 21 25 22 26 83 27
REMARK SMILES IDX 23 28 82 29 24 30 25 31 26 32 76 33 27 34 81 35 75 36 77 37
REMARK SMILES IDX 28 38 80 39 74 40 73 41 29 43 61 44 41 45 60 46 42 47 45 48
REMARK SMILES IDX 59 49 78 50 43 51 44 52 58 54 79 55 46 56 30 57 31 58 39 59
REMARK SMILES IDX 32 60 34 61 40 62 33 63 35 64 36 65 37 66 38 67 62 68 63 69
REMARK SMILES IDX 71 70 64 71 66 72 72 73 65 74 67 75 68 76 69 77 70 78 47 79
REMARK SMILES IDX 48 80 56 81 49 82 51 83 57 84 50 85 52 86 53 87 54 88 55 89
REMARK H PARENT 14 7 4 12 13 19 18 23 77 42 45 53
REMARK Flexibility Score: inf
ROOT
ATOM      1  C   UNL A   1      37.356  21.563  24.995  1.00  0.00     0.118 C 
ENDROOT
BRANCH   1   2
ATOM      2  C   UNL A   1      35.969  21.291  25.568  1.00  0.00     0.042 C 
BRANCH   2   3
ATOM      3  C   UNL A   1      34.796  21.534  24.629  1.00  0.00     0.118 C 
BRANCH   3   4
ATOM      4  N   UNL A   1      34.235  22.869  24.710  1.00  0.00    -0.351 N 
ATOM      5  O   UNL A   1      34.484  23.334  22.481  1.00  0.00    -0.269 OA
ATOM      6  C   UNL A   1      33.992  23.610  23.572  1.00  0.00     0.275 C 
ATOM      7  H   UNL A   1      34.023  23.254  25.592  1.00  0.00     0.163 HD
BRANCH   6   8
ATOM      8  C   UNL A   1      33.004  24.764  23.763  1.00  0.00     0.363 C 
BRANCH   8   9
ATOM      9  N   UNL A   1      33.372  26.024  23.085  1.00  0.00    -0.327 N 
ATOM     10  C   UNL A   1      32.817  26.226  21.753  1.00  0.00     0.265 C 
ATOM     11  C   UNL A   1      33.352  27.248  23.873  1.00  0.00     0.265 C 
ATOM     12  H   UNL A   1      34.364  25.829  22.954  1.00  0.00     0.348 HD
ATOM     13  C   UNL A   1      31.402  26.790  21.724  1.00  0.00     0.090 C 
ATOM     14  C   UNL A   1      31.997  27.937  23.994  1.00  0.00     0.090 C 
ATOM     15  C   UNL A   1      31.199  27.952  22.695  1.00  0.00     0.059 C 
ATOM     16  C   UNL A   1      29.685  28.283  22.909  1.00  0.00     0.128 C 
ATOM     17  N   UNL A   1      31.286  29.243  22.012  1.00  0.00    -0.350 N 
ATOM     18  C   UNL A   1      29.954  29.486  22.001  1.00  0.00     0.222 C 
ATOM     19  H   UNL A   1      32.054  29.760  21.674  1.00  0.00     0.164 HD
ATOM     20  O   UNL A   1      29.311  30.336  21.428  1.00  0.00    -0.275 OA
ENDBRANCH   8   9
ENDBRANCH   6   8
ENDBRANCH   3   4
ENDBRANCH   2   3
ENDBRANCH   1   2
BRANCH   1  21
ATOM     21  N   UNL A   1      38.383  20.601  25.378  1.00  0.00    -0.352 N 
ATOM     22  C   UNL A   1      39.527  20.802  26.125  1.00  0.00     0.251 C 
ATOM     23  H   UNL A   1      38.241  19.681  25.061  1.00  0.00     0.163 HD
ATOM     24  O   UNL A   1      40.307  19.875  26.318  1.00  0.00    -0.269 OA
BRANCH  22  25
ATOM     25  C   UNL A   1      39.834  22.153  26.646  1.00  0.00     0.039 A 
ATOM     26  C   UNL A   1      40.863  22.300  27.580  1.00  0.00     0.014 A 
ATOM     27  C   UNL A   1      39.169  23.276  26.153  1.00  0.00     0.014 A 
ATOM     28  C   UNL A   1      41.302  23.581  27.930  1.00  0.00     0.010 A 
ATOM     29  C   UNL A   1      39.668  24.545  26.430  1.00  0.00     0.010 A 
ATOM     30  C   UNL A   1      40.751  24.713  27.309  1.00  0.00    -0.014 A 
BRANCH  30  31
ATOM     31  C   UNL A   1      41.307  26.077  27.522  1.00  0.00     0.031 A 
ATOM     32  C   UNL A   1      42.703  26.403  27.066  1.00  0.00     0.074 A 
ATOM     33  C   UNL A   1      40.606  26.985  28.233  1.00  0.00     0.049 A 
ATOM     34  N   UNL A   1      43.409  27.483  27.275  1.00  0.00    -0.248 NA
ATOM     35  C   UNL A   1      43.412  25.364  26.300  1.00  0.00     0.031 C 
ATOM     36  C   UNL A   1      39.268  26.776  28.791  1.00  0.00     0.029 A 
ATOM     37  N   UNL A   1      40.936  28.256  28.640  1.00  0.00    -0.354 N 
ATOM     38  C   UNL A   1      44.653  27.242  26.706  1.00  0.00     0.074 A 
ATOM     39  C   UNL A   1      44.618  25.897  26.170  1.00  0.00     0.031 C 
ATOM     40  C   UNL A   1      38.893  27.876  29.464  1.00  0.00     0.029 A 
ATOM     41  C   UNL A   1      39.977  28.851  29.430  1.00  0.00     0.049 A 
ATOM     42  H   UNL A   1      41.778  28.701  28.389  1.00  0.00     0.167 HD
ATOM     43  C   UNL A   1      45.722  28.067  26.615  1.00  0.00     0.034 A 
ATOM     44  C   UNL A   1      39.979  30.034  30.076  1.00  0.00     0.034 A 
ATOM     45  C   UNL A   1      45.745  29.413  27.119  1.00  0.00     0.049 A 
ATOM     46  C   UNL A   1      41.176  30.938  29.954  1.00  0.00     0.074 A 
ATOM     47  C   UNL A   1      46.751  30.356  27.002  1.00  0.00     0.029 A 
ATOM     48  N   UNL A   1      44.725  30.005  27.848  1.00  0.00    -0.354 N 
ATOM     49  N   UNL A   1      42.291  30.743  29.293  1.00  0.00    -0.248 NA
ATOM     50  C   UNL A   1      41.107  32.236  30.641  1.00  0.00     0.031 C 
ATOM     51  C   UNL A   1      46.357  31.502  27.697  1.00  0.00     0.029 A 
ATOM     52  C   UNL A   1      45.085  31.293  28.203  1.00  0.00     0.049 A 
ATOM     53  H   UNL A   1      43.872  29.572  28.079  1.00  0.00     0.167 HD
ATOM     54  C   UNL A   1      43.033  31.909  29.445  1.00  0.00     0.074 A 
ATOM     55  C   UNL A   1      42.240  32.809  30.254  1.00  0.00     0.031 C 
ATOM     56  C   UNL A   1      44.264  32.202  28.960  1.00  0.00     0.034 A 
BRANCH  43  57
ATOM     57  C   UNL A   1      46.953  27.550  25.916  1.00  0.00     0.023 A 
ATOM     58  C   UNL A   1      47.871  26.743  26.617  1.00  0.00     0.012 A 
ATOM     59  C   UNL A   1      47.168  27.812  24.549  1.00  0.00     0.148 A 
ATOM     60  C   UNL A   1      49.004  26.237  25.981  1.00  0.00     0.002 A 
ATOM     61  C   UNL A   1      48.273  27.265  23.908  1.00  0.00     0.091 A 
ATOM     62  F   UNL A   1      46.294  28.598  23.902  1.00  0.00    -0.205 F 
ATOM     63  C   UNL A   1      49.198  26.489  24.626  1.00  0.00     0.022 A 
BRANCH  61  64
ATOM     64  S   UNL A   1      48.569  27.461  22.148  1.00  0.00     0.127 S 
ATOM     65  O   UNL A   1      49.840  28.183  22.142  1.00  0.00    -0.237 OA
ATOM     66  O   UNL A   1      48.654  26.072  21.696  1.00  0.00    -0.237 OA
ATOM     67  O   UNL A   1      47.430  28.202  21.627  1.00  0.00    -0.744 OA
ENDBRANCH  61  64
ENDBRANCH  43  57
BRANCH  44  68
ATOM     68  C   UNL A   1      38.789  30.454  30.872  1.00  0.00     0.023 A 
ATOM     69  C   UNL A   1      38.742  30.176  32.253  1.00  0.00     0.012 A 
ATOM     70  C   UNL A   1      37.712  31.137  30.273  1.00  0.00     0.148 A 
ATOM     71  C   UNL A   1      37.629  30.536  33.014  1.00  0.00     0.002 A 
ATOM     72  C   UNL A   1      36.633  31.544  31.049  1.00  0.00     0.091 A 
ATOM     73  F   UNL A   1      37.772  31.386  28.958  1.00  0.00    -0.205 F 
ATOM     74  C   UNL A   1      36.580  31.227  32.416  1.00  0.00     0.022 A 
BRANCH  72  75
ATOM     75  S   UNL A   1      35.297  32.549  30.392  1.00  0.00     0.127 S 
ATOM     76  O   UNL A   1      34.805  31.714  29.299  1.00  0.00    -0.237 OA
ATOM     77  O   UNL A   1      34.402  32.648  31.545  1.00  0.00    -0.237 OA
ATOM     78  O   UNL A   1      35.909  33.810  29.995  1.00  0.00    -0.744 OA
ENDBRANCH  72  75
ENDBRANCH  44  68
BRANCH  56  79
ATOM     79  C   UNL A   1      44.821  33.577  29.224  1.00  0.00     0.023 A 
ATOM     80  C   UNL A   1      45.656  33.805  30.335  1.00  0.00     0.012 A 
ATOM     81  C   UNL A   1      44.598  34.618  28.300  1.00  0.00     0.148 A 
ATOM     82  C   UNL A   1      46.240  35.055  30.536  1.00  0.00     0.002 A 
ATOM     83  C   UNL A   1      45.227  35.843  28.476  1.00  0.00     0.091 A 
ATOM     84  F   UNL A   1      43.787  34.383  27.259  1.00  0.00    -0.205 F 
ATOM     85  C   UNL A   1      46.039  36.068  29.599  1.00  0.00     0.022 A 
BRANCH  83  86
ATOM     86  S   UNL A   1      45.110  37.170  27.272  1.00  0.00     0.127 S 
ATOM     87  O   UNL A   1      45.594  38.315  28.042  1.00  0.00    -0.237 OA
ATOM     88  O   UNL A   1      46.019  36.713  26.221  1.00  0.00    -0.237 OA
ATOM     89  O   UNL A   1      43.709  37.238  26.877  1.00  0.00    -0.744 OA
ENDBRANCH  83  86
ENDBRANCH  56  79
ENDBRANCH  30  31
ENDBRANCH  22  25
ENDBRANCH   1  21
TORSDOF 14
ENDMDL
MODEL 3
REMARK VINA RESULT:     -12.1      5.367      8.330
REMARK SMILES O=C(C[NH+]1CCC2(CC1)CC(=O)N2)NCCCNC(=O)c1ccc(-c2c3nc(c(-c4cccc(S(=O)(=O)[O-])c4F)c4ccc([nH]4)c(-c4cccc(S(=O)(=O)[O-])c4F)c4nc(c(-c5cccc(S(=O)(=O)[O-])c5F)c5ccc2[nH]5)C=C4)C=C3)cc1
REMARK SMILES IDX 17 1 16 2 15 3 14 4 1 5 2 6 3 8 4 9 5 10 9 11 6 13 8 14 7 15
REMARK SMILES IDX 10 16 13 17 11 18 12 20 18 21 19 22 20 24 21 25 22 26 83 27
REMARK SMILES IDX 23 28 82 29 24 30 25 31 26 32 76 33 27 34 81 35 75 36 77 37
REMARK SMILES IDX 28 38 80 39 74 40 73 41 29 43 61 44 41 45 60 46 42 47 45 48
REMARK SMILES IDX 59 49 78 50 43 51 44 52 58 54 79 55 46 56 30 57 31 58 39 59
REMARK SMILES IDX 32 60 34 61 40 62 33 63 35 64 36 65 37 66 38 67 62 68 63 69
REMARK SMILES IDX 71 70 64 71 66 72 72 73 65 74 67 75 68 76 69 77 70 78 47 79
REMARK SMILES IDX 48 80 56 81 49 82 51 83 57 84 50 85 52 86 53 87 54 88 55 89
REMARK H PARENT 14 7 4 12 13 19 18 23 77 42 45 53
REMARK Flexibility Score: inf
ROOT
ATOM      1  C   UNL A   1      32.236  29.967  26.562  1.00  0.00     0.118 C 
ENDROOT
BRANCH   1   2
ATOM      2  C   UNL A   1      31.986  29.571  25.110  1.00  0.00     0.042 C 
BRANCH   2   3
ATOM      3  C   UNL A   1      31.379  28.193  24.887  1.00  0.00     0.118 C 
BRANCH   3   4
ATOM      4  N   UNL A   1      32.319  27.098  25.031  1.00  0.00    -0.351 N 
ATOM      5  O   UNL A   1      31.380  26.271  26.950  1.00  0.00    -0.269 OA
ATOM      6  C   UNL A   1      32.140  26.128  25.996  1.00  0.00     0.275 C 
ATOM      7  H   UNL A   1      33.098  27.045  24.431  1.00  0.00     0.163 HD
BRANCH   6   8
ATOM      8  C   UNL A   1      32.911  24.830  25.743  1.00  0.00     0.363 C 
BRANCH   8   9
ATOM      9  N   UNL A   1      32.623  23.734  26.692  1.00  0.00    -0.327 N 
ATOM     10  C   UNL A   1      31.507  22.861  26.349  1.00  0.00     0.265 C 
ATOM     11  C   UNL A   1      33.752  22.988  27.228  1.00  0.00     0.265 C 
ATOM     12  H   UNL A   1      32.308  24.305  27.475  1.00  0.00     0.348 HD
ATOM     13  C   UNL A   1      31.845  21.738  25.376  1.00  0.00     0.090 C 
ATOM     14  C   UNL A   1      34.261  21.841  26.360  1.00  0.00     0.090 C 
ATOM     15  C   UNL A   1      33.150  21.021  25.715  1.00  0.00     0.059 C 
ATOM     16  C   UNL A   1      33.654  20.127  24.534  1.00  0.00     0.128 C 
ATOM     17  N   UNL A   1      32.904  19.769  26.431  1.00  0.00    -0.350 N 
ATOM     18  C   UNL A   1      33.145  18.955  25.377  1.00  0.00     0.222 C 
ATOM     19  H   UNL A   1      32.649  19.582  27.364  1.00  0.00     0.164 HD
ATOM     20  O   UNL A   1      32.960  17.767  25.238  1.00  0.00    -0.275 OA
ENDBRANCH   8   9
ENDBRANCH   6   8
ENDBRANCH   3   4
ENDBRANCH   2   3
ENDBRANCH   1   2
BRANCH   1  21
ATOM     21  N   UNL A   1      32.220  31.402  26.823  1.00  0.00    -0.352 N 
ATOM     22  C   UNL A   1      33.201  32.194  27.386  1.00  0.00     0.251 C 
ATOM     23  H   UNL A   1      31.396  31.871  26.561  1.00  0.00     0.163 HD
ATOM     24  O   UNL A   1      32.998  33.390  27.567  1.00  0.00    -0.269 OA
BRANCH  22  25
ATOM     25  C   UNL A   1      34.478  31.582  27.818  1.00  0.00     0.039 A 
ATOM     26  C   UNL A   1      35.574  32.412  28.070  1.00  0.00     0.014 A 
ATOM     27  C   UNL A   1      34.568  30.210  28.054  1.00  0.00     0.014 A 
ATOM     28  C   UNL A   1      36.720  31.879  28.670  1.00  0.00     0.010 A 
ATOM     29  C   UNL A   1      35.670  29.702  28.736  1.00  0.00     0.010 A 
ATOM     30  C   UNL A   1      36.753  30.533  29.066  1.00  0.00    -0.014 A 
BRANCH  30  31
ATOM     31  C   UNL A   1      37.880  29.974  29.862  1.00  0.00     0.031 A 
ATOM     32  C   UNL A   1      38.130  30.461  31.263  1.00  0.00     0.074 A 
ATOM     33  C   UNL A   1      38.751  29.120  29.284  1.00  0.00     0.049 A 
ATOM     34  N   UNL A   1      39.129  30.196  32.063  1.00  0.00    -0.248 NA
ATOM     35  C   UNL A   1      37.142  31.395  31.829  1.00  0.00     0.031 C 
ATOM     36  C   UNL A   1      38.664  28.618  27.911  1.00  0.00     0.029 A 
ATOM     37  N   UNL A   1      39.904  28.549  29.769  1.00  0.00    -0.354 N 
ATOM     38  C   UNL A   1      38.914  30.957  33.206  1.00  0.00     0.074 A 
ATOM     39  C   UNL A   1      37.705  31.721  32.982  1.00  0.00     0.031 C 
ATOM     40  C   UNL A   1      39.713  27.818  27.665  1.00  0.00     0.029 A 
ATOM     41  C   UNL A   1      40.576  27.785  28.841  1.00  0.00     0.049 A 
ATOM     42  H   UNL A   1      40.220  28.674  30.693  1.00  0.00     0.167 HD
ATOM     43  C   UNL A   1      39.641  31.002  34.347  1.00  0.00     0.034 A 
ATOM     44  C   UNL A   1      41.763  27.150  28.916  1.00  0.00     0.034 A 
ATOM     45  C   UNL A   1      40.823  30.219  34.580  1.00  0.00     0.049 A 
ATOM     46  C   UNL A   1      42.549  27.209  30.198  1.00  0.00     0.074 A 
ATOM     47  C   UNL A   1      41.582  30.132  35.734  1.00  0.00     0.029 A 
ATOM     48  N   UNL A   1      41.430  29.399  33.641  1.00  0.00    -0.354 N 
ATOM     49  N   UNL A   1      42.256  27.827  31.316  1.00  0.00    -0.248 NA
ATOM     50  C   UNL A   1      43.815  26.462  30.242  1.00  0.00     0.031 C 
ATOM     51  C   UNL A   1      42.671  29.295  35.479  1.00  0.00     0.029 A 
ATOM     52  C   UNL A   1      42.562  28.817  34.184  1.00  0.00     0.049 A 
ATOM     53  H   UNL A   1      41.103  29.253  32.725  1.00  0.00     0.167 HD
ATOM     54  C   UNL A   1      43.273  27.505  32.208  1.00  0.00     0.074 A 
ATOM     55  C   UNL A   1      44.187  26.632  31.504  1.00  0.00     0.031 C 
ATOM     56  C   UNL A   1      43.435  27.903  33.492  1.00  0.00     0.034 A 
BRANCH  43  57
ATOM     57  C   UNL A   1      39.162  31.909  35.450  1.00  0.00     0.023 A 
ATOM     58  C   UNL A   1      38.222  31.437  36.389  1.00  0.00     0.012 A 
ATOM     59  C   UNL A   1      39.688  33.208  35.595  1.00  0.00     0.148 A 
ATOM     60  C   UNL A   1      37.783  32.255  37.429  1.00  0.00     0.002 A 
ATOM     61  C   UNL A   1      39.285  34.000  36.662  1.00  0.00     0.091 A 
ATOM     62  F   UNL A   1      40.568  33.647  34.682  1.00  0.00    -0.205 F 
ATOM     63  C   UNL A   1      38.323  33.531  37.572  1.00  0.00     0.022 A 
BRANCH  61  64
ATOM     64  S   UNL A   1      39.980  35.624  36.982  1.00  0.00     0.127 S 
ATOM     65  O   UNL A   1      39.297  35.998  38.219  1.00  0.00    -0.237 OA
ATOM     66  O   UNL A   1      41.403  35.323  37.138  1.00  0.00    -0.237 OA
ATOM     67  O   UNL A   1      39.654  36.439  35.820  1.00  0.00    -0.744 OA
ENDBRANCH  61  64
ENDBRANCH  43  57
BRANCH  44  68
ATOM     68  C   UNL A   1      42.269  26.369  27.750  1.00  0.00     0.023 A 
ATOM     69  C   UNL A   1      43.141  26.981  26.828  1.00  0.00     0.012 A 
ATOM     70  C   UNL A   1      41.903  25.022  27.558  1.00  0.00     0.148 A 
ATOM     71  C   UNL A   1      43.609  26.279  25.716  1.00  0.00     0.002 A 
ATOM     72  C   UNL A   1      42.419  24.312  26.480  1.00  0.00     0.091 A 
ATOM     73  F   UNL A   1      41.067  24.460  28.441  1.00  0.00    -0.205 F 
ATOM     74  C   UNL A   1      43.255  24.944  25.547  1.00  0.00     0.022 A 
BRANCH  72  75
ATOM     75  S   UNL A   1      42.121  22.555  26.251  1.00  0.00     0.127 S 
ATOM     76  O   UNL A   1      40.665  22.509  26.152  1.00  0.00    -0.237 OA
ATOM     77  O   UNL A   1      42.836  22.291  25.002  1.00  0.00    -0.237 OA
ATOM     78  O   UNL A   1      42.693  21.902  27.421  1.00  0.00    -0.744 OA
ENDBRANCH  72  75
ENDBRANCH  44  68
BRANCH  56  79
ATOM     79  C   UNL A   1      44.606  27.354  34.264  1.00  0.00     0.023 A 
ATOM     80  C   UNL A   1      45.826  28.057  34.303  1.00  0.00     0.012 A 
ATOM     81  C   UNL A   1      44.456  26.185  35.039  1.00  0.00     0.148 A 
ATOM     82  C   UNL A   1      46.885  27.594  35.083  1.00  0.00     0.002 A 
ATOM     83  C   UNL A   1      45.495  25.760  35.855  1.00  0.00     0.091 A 
ATOM     84  F   UNL A   1      43.292  25.523  34.973  1.00  0.00    -0.205 F 
ATOM     85  C   UNL A   1      46.714  26.456  35.870  1.00  0.00     0.022 A 
BRANCH  83  86
ATOM     86  S   UNL A   1      45.333  24.369  36.979  1.00  0.00     0.127 S 
ATOM     87  O   UNL A   1      46.670  24.303  37.567  1.00  0.00    -0.237 OA
ATOM     88  O   UNL A   1      44.287  24.831  37.892  1.00  0.00    -0.237 OA
ATOM     89  O   UNL A   1      44.960  23.225  36.157  1.00  0.00    -0.744 OA
ENDBRANCH  83  86
ENDBRANCH  56  79
ENDBRANCH  30  31
ENDBRANCH  22  25
ENDBRANCH   1  21
TORSDOF 14
ENDMDL
