MODEL 1
REMARK VINA RESULT:     -11.0      0.000      0.000
REMARK SMILES Cc1noc(C)c1C[NH2+][C@H](C)[C@H](C)C(=O)NCCCNC(=O)c1ccc(-c2c3nc(c(-c4cccc(S(=O)(=O)[O-])c4F)c4ccc([nH]4)c(-c4cccc(S(=O)(=O)[O-])c4F)c4nc(c(-c5cccc(S(=O)(=O)[O-])c5F)c5ccc2[nH]5)C=C4)C=C3)cc1
REMARK SMILES IDX 17 1 16 2 14 3 15 4 12 6 13 7 10 8 11 9 9 10 8 13 7 14 1 15
REMARK SMILES IDX 2 16 3 17 4 18 5 19 6 20 18 21 19 22 20 23 21 24 22 26 23 27
REMARK SMILES IDX 24 28 85 29 25 30 84 31 26 32 27 33 28 34 78 35 29 36 83 37
REMARK SMILES IDX 77 38 79 39 30 40 82 41 76 42 75 43 31 45 63 46 43 47 62 48
REMARK SMILES IDX 44 49 47 50 61 51 80 52 45 53 46 54 60 56 81 57 48 58 32 59
REMARK SMILES IDX 33 60 41 61 34 62 36 63 42 64 35 65 37 66 38 67 39 68 40 69
REMARK SMILES IDX 64 70 65 71 73 72 66 73 68 74 74 75 67 76 69 77 70 78 71 79
REMARK SMILES IDX 72 80 49 81 50 82 58 83 51 84 53 85 59 86 52 87 54 88 55 89
REMARK SMILES IDX 56 90 57 91
REMARK H PARENT 16 5 9 11 9 12 20 25 79 44 47 55
REMARK Flexibility Score: inf
ROOT
ATOM      1  C   UNL A   1      31.734  28.216  26.694  1.00  0.00     0.117 C 
ENDROOT
BRANCH   1   2
ATOM      2  N   UNL A   1      32.039  27.202  25.700  1.00  0.00    -0.356 N 
ATOM      3  C   UNL A   1      32.181  27.295  24.350  1.00  0.00     0.228 C 
ATOM      4  O   UNL A   1      32.448  26.265  23.725  1.00  0.00    -0.275 OA
ATOM      5  H   UNL A   1      32.165  26.296  26.064  1.00  0.00     0.163 HD
BRANCH   3   6
ATOM      6  C   UNL A   1      32.043  28.629  23.623  1.00  0.00     0.133 C 
ATOM      7  C   UNL A   1      33.429  29.049  23.110  1.00  0.00     0.024 C 
BRANCH   6   8
ATOM      8  C   UNL A   1      30.888  28.606  22.575  1.00  0.00     0.191 C 
ATOM      9  C   UNL A   1      29.611  27.964  23.155  1.00  0.00     0.076 C 
BRANCH   8  10
ATOM     10  N   UNL A   1      30.449  29.866  21.954  1.00  0.00    -0.339 N 
ATOM     11  H   UNL A   1      30.724  30.622  22.580  1.00  0.00     0.346 HD
ATOM     12  H   UNL A   1      30.896  29.860  21.036  1.00  0.00     0.346 HD
BRANCH  10  13
ATOM     13  C   UNL A   1      29.042  30.039  21.664  1.00  0.00     0.303 C 
BRANCH  13  14
ATOM     14  C   UNL A   1      28.720  31.466  21.905  1.00  0.00     0.071 A 
ATOM     15  C   UNL A   1      29.456  31.726  24.393  1.00  0.00     0.071 C 
ATOM     16  C   UNL A   1      28.898  32.207  23.106  1.00  0.00     0.090 A 
ATOM     17  N   UNL A   1      28.497  33.476  22.963  1.00  0.00    -0.085 NA
ATOM     18  O   UNL A   1      28.047  33.583  21.661  1.00  0.00    -0.361 OA
ATOM     19  C   UNL A   1      28.180  32.386  21.032  1.00  0.00     0.142 A 
ATOM     20  C   UNL A   1      27.747  32.325  19.625  1.00  0.00     0.091 C 
ENDBRANCH  13  14
ENDBRANCH  10  13
ENDBRANCH   8  10
ENDBRANCH   6   8
ENDBRANCH   3   6
ENDBRANCH   1   2
BRANCH   1  21
ATOM     21  C   UNL A   1      32.962  28.646  27.477  1.00  0.00     0.042 C 
BRANCH  21  22
ATOM     22  C   UNL A   1      33.748  29.763  26.811  1.00  0.00     0.118 C 
BRANCH  22  23
ATOM     23  N   UNL A   1      33.656  31.024  27.536  1.00  0.00    -0.352 N 
ATOM     24  C   UNL A   1      34.475  31.536  28.512  1.00  0.00     0.251 C 
ATOM     25  H   UNL A   1      32.892  31.594  27.289  1.00  0.00     0.163 HD
ATOM     26  O   UNL A   1      34.119  32.533  29.141  1.00  0.00    -0.269 OA
BRANCH  24  27
ATOM     27  C   UNL A   1      35.764  30.883  28.819  1.00  0.00     0.039 A 
ATOM     28  C   UNL A   1      36.932  31.375  28.234  1.00  0.00     0.014 A 
ATOM     29  C   UNL A   1      35.822  29.789  29.684  1.00  0.00     0.014 A 
ATOM     30  C   UNL A   1      38.165  30.811  28.572  1.00  0.00     0.010 A 
ATOM     31  C   UNL A   1      37.055  29.300  30.101  1.00  0.00     0.010 A 
ATOM     32  C   UNL A   1      38.240  29.793  29.538  1.00  0.00    -0.014 A 
BRANCH  32  33
ATOM     33  C   UNL A   1      39.543  29.228  29.968  1.00  0.00     0.031 A 
ATOM     34  C   UNL A   1      40.314  29.871  31.092  1.00  0.00     0.074 A 
ATOM     35  C   UNL A   1      40.074  28.186  29.296  1.00  0.00     0.049 A 
ATOM     36  N   UNL A   1      41.485  29.552  31.576  1.00  0.00    -0.248 NA
ATOM     37  C   UNL A   1      39.703  31.047  31.736  1.00  0.00     0.031 C 
ATOM     38  C   UNL A   1      39.464  27.526  28.139  1.00  0.00     0.029 A 
ATOM     39  N   UNL A   1      41.257  27.514  29.474  1.00  0.00    -0.354 N 
ATOM     40  C   UNL A   1      41.769  30.505  32.547  1.00  0.00     0.074 A 
ATOM     41  C   UNL A   1      40.665  31.439  32.558  1.00  0.00     0.031 C 
ATOM     42  C   UNL A   1      40.269  26.535  27.722  1.00  0.00     0.029 A 
ATOM     43  C   UNL A   1      41.467  26.513  28.555  1.00  0.00     0.049 A 
ATOM     44  H   UNL A   1      41.895  27.729  30.192  1.00  0.00     0.167 HD
ATOM     45  C   UNL A   1      42.837  30.582  33.375  1.00  0.00     0.034 A 
ATOM     46  C   UNL A   1      42.510  25.675  28.396  1.00  0.00     0.034 A 
ATOM     47  C   UNL A   1      43.911  29.628  33.390  1.00  0.00     0.049 A 
ATOM     48  C   UNL A   1      43.667  25.761  29.354  1.00  0.00     0.074 A 
ATOM     49  C   UNL A   1      44.990  29.561  34.255  1.00  0.00     0.029 A 
ATOM     50  N   UNL A   1      44.051  28.580  32.494  1.00  0.00    -0.354 N 
ATOM     51  N   UNL A   1      43.839  26.569  30.371  1.00  0.00    -0.248 NA
ATOM     52  C   UNL A   1      44.757  24.793  29.166  1.00  0.00     0.031 C 
ATOM     53  C   UNL A   1      45.803  28.496  33.856  1.00  0.00     0.029 A 
ATOM     54  C   UNL A   1      45.207  27.871  32.773  1.00  0.00     0.049 A 
ATOM     55  H   UNL A   1      43.422  28.371  31.767  1.00  0.00     0.167 HD
ATOM     56  C   UNL A   1      45.032  26.182  30.968  1.00  0.00     0.074 A 
ATOM     57  C   UNL A   1      45.531  25.053  30.211  1.00  0.00     0.031 C 
ATOM     58  C   UNL A   1      45.665  26.717  32.042  1.00  0.00     0.034 A 
BRANCH  45  59
ATOM     59  C   UNL A   1      42.880  31.719  34.365  1.00  0.00     0.023 A 
ATOM     60  C   UNL A   1      43.462  32.949  33.995  1.00  0.00     0.012 A 
ATOM     61  C   UNL A   1      42.290  31.589  35.636  1.00  0.00     0.148 A 
ATOM     62  C   UNL A   1      43.489  34.020  34.887  1.00  0.00     0.002 A 
ATOM     63  C   UNL A   1      42.276  32.677  36.502  1.00  0.00     0.091 A 
ATOM     64  F   UNL A   1      41.760  30.406  35.978  1.00  0.00    -0.205 F 
ATOM     65  C   UNL A   1      42.887  33.887  36.136  1.00  0.00     0.022 A 
BRANCH  63  66
ATOM     66  S   UNL A   1      41.451  32.635  38.097  1.00  0.00     0.127 S 
ATOM     67  O   UNL A   1      42.261  31.655  38.821  1.00  0.00    -0.237 OA
ATOM     68  O   UNL A   1      41.607  34.015  38.559  1.00  0.00    -0.237 OA
ATOM     69  O   UNL A   1      40.077  32.233  37.831  1.00  0.00    -0.744 OA
ENDBRANCH  63  66
ENDBRANCH  45  59
BRANCH  46  70
ATOM     70  C   UNL A   1      42.483  24.639  27.324  1.00  0.00     0.023 A 
ATOM     71  C   UNL A   1      43.289  24.806  26.180  1.00  0.00     0.012 A 
ATOM     72  C   UNL A   1      41.677  23.490  27.434  1.00  0.00     0.148 A 
ATOM     73  C   UNL A   1      43.259  23.869  25.146  1.00  0.00     0.002 A 
ATOM     74  C   UNL A   1      41.696  22.531  26.427  1.00  0.00     0.091 A 
ATOM     75  F   UNL A   1      40.912  23.354  28.526  1.00  0.00    -0.205 F 
ATOM     76  C   UNL A   1      42.471  22.729  25.273  1.00  0.00     0.022 A 
BRANCH  74  77
ATOM     77  S   UNL A   1      40.815  20.973  26.564  1.00  0.00     0.127 S 
ATOM     78  O   UNL A   1      41.598  20.107  25.686  1.00  0.00    -0.237 OA
ATOM     79  O   UNL A   1      40.941  20.681  27.992  1.00  0.00    -0.237 OA
ATOM     80  O   UNL A   1      39.453  21.251  26.128  1.00  0.00    -0.744 OA
ENDBRANCH  74  77
ENDBRANCH  46  70
BRANCH  58  81
ATOM     81  C   UNL A   1      46.942  26.062  32.501  1.00  0.00     0.023 A 
ATOM     82  C   UNL A   1      48.186  26.531  32.034  1.00  0.00     0.012 A 
ATOM     83  C   UNL A   1      46.907  25.020  33.449  1.00  0.00     0.148 A 
ATOM     84  C   UNL A   1      49.372  25.946  32.474  1.00  0.00     0.002 A 
ATOM     85  C   UNL A   1      48.095  24.481  33.925  1.00  0.00     0.091 A 
ATOM     86  F   UNL A   1      45.712  24.577  33.868  1.00  0.00    -0.205 F 
ATOM     87  C   UNL A   1      49.327  24.931  33.428  1.00  0.00     0.022 A 
BRANCH  85  88
ATOM     88  S   UNL A   1      48.136  23.243  35.226  1.00  0.00     0.127 S 
ATOM     89  O   UNL A   1      49.145  22.314  34.721  1.00  0.00    -0.237 OA
ATOM     90  O   UNL A   1      48.556  24.029  36.387  1.00  0.00    -0.237 OA
ATOM     91  O   UNL A   1      46.784  22.707  35.316  1.00  0.00    -0.744 OA
ENDBRANCH  85  88
ENDBRANCH  58  81
ENDBRANCH  32  33
ENDBRANCH  24  27
ENDBRANCH  22  23
ENDBRANCH  21  22
ENDBRANCH   1  21
TORSDOF 17
ENDMDL
MODEL 2
REMARK VINA RESULT:     -10.9      3.404      6.926
REMARK SMILES Cc1noc(C)c1C[NH2+][C@H](C)[C@H](C)C(=O)NCCCNC(=O)c1ccc(-c2c3nc(c(-c4cccc(S(=O)(=O)[O-])c4F)c4ccc([nH]4)c(-c4cccc(S(=O)(=O)[O-])c4F)c4nc(c(-c5cccc(S(=O)(=O)[O-])c5F)c5ccc2[nH]5)C=C4)C=C3)cc1
REMARK SMILES IDX 17 1 16 2 14 3 15 4 12 6 13 7 10 8 11 9 9 10 8 13 7 14 1 15
REMARK SMILES IDX 2 16 3 17 4 18 5 19 6 20 18 21 19 22 20 23 21 24 22 26 23 27
REMARK SMILES IDX 24 28 85 29 25 30 84 31 26 32 27 33 28 34 78 35 29 36 83 37
REMARK SMILES IDX 77 38 79 39 30 40 82 41 76 42 75 43 31 45 63 46 43 47 62 48
REMARK SMILES IDX 44 49 47 50 61 51 80 52 45 53 46 54 60 56 81 57 48 58 32 59
REMARK SMILES IDX 33 60 41 61 34 62 36 63 42 64 35 65 37 66 38 67 39 68 40 69
REMARK SMILES IDX 64 70 65 71 73 72 66 73 68 74 74 75 67 76 69 77 70 78 71 79
REMARK SMILES IDX 72 80 49 81 50 82 58 83 51 84 53 85 59 86 52 87 54 88 55 89
REMARK SMILES IDX 56 90 57 91
REMARK H PARENT 16 5 9 11 9 12 20 25 79 44 47 55
REMARK Flexibility Score: inf
ROOT
ATOM      1  C   UNL A   1      34.196  35.103  29.873  1.00  0.00     0.117 C 
ENDROOT
BRANCH   1   2
ATOM      2  N   UNL A   1      33.909  34.039  30.818  1.00  0.00    -0.356 N 
ATOM      3  C   UNL A   1      34.382  33.814  32.073  1.00  0.00     0.228 C 
ATOM      4  O   UNL A   1      33.970  32.820  32.677  1.00  0.00    -0.275 OA
ATOM      5  H   UNL A   1      33.263  33.369  30.497  1.00  0.00     0.163 HD
BRANCH   3   6
ATOM      6  C   UNL A   1      35.373  34.767  32.736  1.00  0.00     0.133 C 
ATOM      7  C   UNL A   1      34.595  35.709  33.666  1.00  0.00     0.024 C 
BRANCH   6   8
ATOM      8  C   UNL A   1      36.583  34.007  33.363  1.00  0.00     0.191 C 
ATOM      9  C   UNL A   1      37.887  34.281  32.586  1.00  0.00     0.076 C 
BRANCH   8  10
ATOM     10  N   UNL A   1      36.915  34.222  34.780  1.00  0.00    -0.339 N 
ATOM     11  H   UNL A   1      36.740  35.205  34.985  1.00  0.00     0.346 HD
ATOM     12  H   UNL A   1      36.330  33.550  35.278  1.00  0.00     0.346 HD
BRANCH  10  13
ATOM     13  C   UNL A   1      38.259  33.923  35.227  1.00  0.00     0.303 C 
BRANCH  13  14
ATOM     14  C   UNL A   1      38.156  32.819  36.211  1.00  0.00     0.071 A 
ATOM     15  C   UNL A   1      37.934  30.763  34.623  1.00  0.00     0.071 C 
ATOM     16  C   UNL A   1      38.009  31.429  35.946  1.00  0.00     0.090 A 
ATOM     17  N   UNL A   1      37.948  30.718  37.078  1.00  0.00    -0.085 NA
ATOM     18  O   UNL A   1      38.054  31.637  38.104  1.00  0.00    -0.361 OA
ATOM     19  C   UNL A   1      38.177  32.887  37.587  1.00  0.00     0.142 A 
ATOM     20  C   UNL A   1      38.304  33.994  38.551  1.00  0.00     0.091 C 
ENDBRANCH  13  14
ENDBRANCH  10  13
ENDBRANCH   8  10
ENDBRANCH   6   8
ENDBRANCH   3   6
ENDBRANCH   1   2
BRANCH   1  21
ATOM     21  C   UNL A   1      34.514  34.574  28.485  1.00  0.00     0.042 C 
BRANCH  21  22
ATOM     22  C   UNL A   1      35.118  33.180  28.490  1.00  0.00     0.118 C 
BRANCH  22  23
ATOM     23  N   UNL A   1      34.261  32.195  27.840  1.00  0.00    -0.352 N 
ATOM     24  C   UNL A   1      34.525  30.892  27.498  1.00  0.00     0.251 C 
ATOM     25  H   UNL A   1      33.356  32.512  27.613  1.00  0.00     0.163 HD
ATOM     26  O   UNL A   1      33.735  30.281  26.779  1.00  0.00    -0.269 OA
BRANCH  24  27
ATOM     27  C   UNL A   1      35.760  30.236  27.973  1.00  0.00     0.039 A 
ATOM     28  C   UNL A   1      36.909  30.293  27.181  1.00  0.00     0.014 A 
ATOM     29  C   UNL A   1      35.789  29.568  29.199  1.00  0.00     0.014 A 
ATOM     30  C   UNL A   1      38.102  29.738  27.653  1.00  0.00     0.010 A 
ATOM     31  C   UNL A   1      36.997  29.113  29.712  1.00  0.00     0.010 A 
ATOM     32  C   UNL A   1      38.165  29.177  28.940  1.00  0.00    -0.014 A 
BRANCH  32  33
ATOM     33  C   UNL A   1      39.437  28.647  29.492  1.00  0.00     0.031 A 
ATOM     34  C   UNL A   1      40.083  29.315  30.678  1.00  0.00     0.074 A 
ATOM     35  C   UNL A   1      40.053  27.617  28.878  1.00  0.00     0.049 A 
ATOM     36  N   UNL A   1      41.213  29.027  31.271  1.00  0.00    -0.248 NA
ATOM     37  C   UNL A   1      39.386  30.477  31.255  1.00  0.00     0.031 C 
ATOM     38  C   UNL A   1      39.570  26.936  27.674  1.00  0.00     0.029 A 
ATOM     39  N   UNL A   1      41.231  26.976  29.169  1.00  0.00    -0.354 N 
ATOM     40  C   UNL A   1      41.382  29.991  32.257  1.00  0.00     0.074 A 
ATOM     41  C   UNL A   1      40.258  30.896  32.160  1.00  0.00     0.031 C 
ATOM     42  C   UNL A   1      40.435  25.965  27.340  1.00  0.00     0.029 A 
ATOM     43  C   UNL A   1      41.551  25.977  28.280  1.00  0.00     0.049 A 
ATOM     44  H   UNL A   1      41.795  27.210  29.942  1.00  0.00     0.167 HD
ATOM     45  C   UNL A   1      42.366  30.100  33.180  1.00  0.00     0.034 A 
ATOM     46  C   UNL A   1      42.625  25.165  28.223  1.00  0.00     0.034 A 
ATOM     47  C   UNL A   1      43.457  29.173  33.300  1.00  0.00     0.049 A 
ATOM     48  C   UNL A   1      43.686  25.285  29.284  1.00  0.00     0.074 A 
ATOM     49  C   UNL A   1      44.453  29.138  34.261  1.00  0.00     0.029 A 
ATOM     50  N   UNL A   1      43.706  28.126  32.428  1.00  0.00    -0.354 N 
ATOM     51  N   UNL A   1      43.742  26.102  30.307  1.00  0.00    -0.248 NA
ATOM     52  C   UNL A   1      44.813  24.344  29.204  1.00  0.00     0.031 C 
ATOM     53  C   UNL A   1      45.326  28.092  33.946  1.00  0.00     0.029 A 
ATOM     54  C   UNL A   1      44.849  27.448  32.817  1.00  0.00     0.049 A 
ATOM     55  H   UNL A   1      43.153  27.898  31.647  1.00  0.00     0.167 HD
ATOM     56  C   UNL A   1      44.885  25.747  31.015  1.00  0.00     0.074 A 
ATOM     57  C   UNL A   1      45.479  24.629  30.314  1.00  0.00     0.031 C 
ATOM     58  C   UNL A   1      45.402  26.303  32.138  1.00  0.00     0.034 A 
BRANCH  45  59
ATOM     59  C   UNL A   1      42.288  31.241  34.162  1.00  0.00     0.023 A 
ATOM     60  C   UNL A   1      41.731  31.030  35.440  1.00  0.00     0.012 A 
ATOM     61  C   UNL A   1      42.821  32.504  33.842  1.00  0.00     0.148 A 
ATOM     62  C   UNL A   1      41.671  32.067  36.370  1.00  0.00     0.002 A 
ATOM     63  C   UNL A   1      42.805  33.519  34.792  1.00  0.00     0.091 A 
ATOM     64  F   UNL A   1      43.328  32.692  32.615  1.00  0.00    -0.205 F 
ATOM     65  C   UNL A   1      42.218  33.307  36.050  1.00  0.00     0.022 A 
BRANCH  63  66
ATOM     66  S   UNL A   1      43.560  35.124  34.508  1.00  0.00     0.127 S 
ATOM     67  O   UNL A   1      43.380  35.767  35.810  1.00  0.00    -0.237 OA
ATOM     68  O   UNL A   1      44.942  34.760  34.194  1.00  0.00    -0.237 OA
ATOM     69  O   UNL A   1      42.823  35.728  33.408  1.00  0.00    -0.744 OA
ENDBRANCH  63  66
ENDBRANCH  45  59
BRANCH  46  70
ATOM     70  C   UNL A   1      42.724  24.125  27.160  1.00  0.00     0.023 A 
ATOM     71  C   UNL A   1      43.480  24.389  26.002  1.00  0.00     0.012 A 
ATOM     72  C   UNL A   1      42.084  22.877  27.293  1.00  0.00     0.148 A 
ATOM     73  C   UNL A   1      43.564  23.446  24.975  1.00  0.00     0.002 A 
ATOM     74  C   UNL A   1      42.219  21.920  26.294  1.00  0.00     0.091 A 
ATOM     75  F   UNL A   1      41.363  22.648  28.399  1.00  0.00    -0.205 F 
ATOM     76  C   UNL A   1      42.942  22.210  25.125  1.00  0.00     0.022 A 
BRANCH  74  77
ATOM     77  S   UNL A   1      41.562  20.257  26.458  1.00  0.00     0.127 S 
ATOM     78  O   UNL A   1      40.125  20.490  26.350  1.00  0.00    -0.237 OA
ATOM     79  O   UNL A   1      42.166  19.581  25.309  1.00  0.00    -0.237 OA
ATOM     80  O   UNL A   1      42.030  19.774  27.750  1.00  0.00    -0.744 OA
ENDBRANCH  74  77
ENDBRANCH  46  70
BRANCH  58  81
ATOM     81  C   UNL A   1      46.647  25.683  32.718  1.00  0.00     0.023 A 
ATOM     82  C   UNL A   1      47.917  26.164  32.345  1.00  0.00     0.012 A 
ATOM     83  C   UNL A   1      46.550  24.663  33.686  1.00  0.00     0.148 A 
ATOM     84  C   UNL A   1      49.072  25.612  32.896  1.00  0.00     0.002 A 
ATOM     85  C   UNL A   1      47.703  24.157  34.271  1.00  0.00     0.091 A 
ATOM     86  F   UNL A   1      45.333  24.207  34.014  1.00  0.00    -0.205 F 
ATOM     87  C   UNL A   1      48.965  24.618  33.867  1.00  0.00     0.022 A 
BRANCH  85  88
ATOM     88  S   UNL A   1      47.657  22.950  35.601  1.00  0.00     0.127 S 
ATOM     89  O   UNL A   1      47.103  21.781  34.923  1.00  0.00    -0.237 OA
ATOM     90  O   UNL A   1      49.070  22.834  35.962  1.00  0.00    -0.237 OA
ATOM     91  O   UNL A   1      46.813  23.528  36.640  1.00  0.00    -0.744 OA
ENDBRANCH  85  88
ENDBRANCH  58  81
ENDBRANCH  32  33
ENDBRANCH  24  27
ENDBRANCH  22  23
ENDBRANCH  21  22
ENDBRANCH   1  21
TORSDOF 17
ENDMDL
MODEL 3
REMARK VINA RESULT:     -10.9      5.403      9.877
REMARK SMILES Cc1noc(C)c1C[NH2+][C@H](C)[C@H](C)C(=O)NCCCNC(=O)c1ccc(-c2c3nc(c(-c4cccc(S(=O)(=O)[O-])c4F)c4ccc([nH]4)c(-c4cccc(S(=O)(=O)[O-])c4F)c4nc(c(-c5cccc(S(=O)(=O)[O-])c5F)c5ccc2[nH]5)C=C4)C=C3)cc1
REMARK SMILES IDX 17 1 16 2 14 3 15 4 12 6 13 7 10 8 11 9 9 10 8 13 7 14 1 15
REMARK SMILES IDX 2 16 3 17 4 18 5 19 6 20 18 21 19 22 20 23 21 24 22 26 23 27
REMARK SMILES IDX 24 28 85 29 25 30 84 31 26 32 27 33 28 34 78 35 29 36 83 37
REMARK SMILES IDX 77 38 79 39 30 40 82 41 76 42 75 43 31 45 63 46 43 47 62 48
REMARK SMILES IDX 44 49 47 50 61 51 80 52 45 53 46 54 60 56 81 57 48 58 32 59
REMARK SMILES IDX 33 60 41 61 34 62 36 63 42 64 35 65 37 66 38 67 39 68 40 69
REMARK SMILES IDX 64 70 65 71 73 72 66 73 68 74 74 75 67 76 69 77 70 78 71 79
REMARK SMILES IDX 72 80 49 81 50 82 58 83 51 84 53 85 59 86 52 87 54 88 55 89
REMARK SMILES IDX 56 90 57 91
REMARK H PARENT 16 5 9 11 9 12 20 25 79 44 47 55
REMARK Flexibility Score: inf
ROOT
ATOM      1  C   UNL A   1      34.235  21.863  25.431  1.00  0.00     0.117 C 
ENDROOT
BRANCH   1   2
ATOM      2  N   UNL A   1      34.629  22.315  24.109  1.00  0.00    -0.356 N 
ATOM      3  C   UNL A   1      34.382  23.485  23.459  1.00  0.00     0.228 C 
ATOM      4  O   UNL A   1      34.840  23.622  22.322  1.00  0.00    -0.275 OA
ATOM      5  H   UNL A   1      35.164  21.667  23.596  1.00  0.00     0.163 HD
BRANCH   3   6
ATOM      6  C   UNL A   1      33.588  24.610  24.116  1.00  0.00     0.133 C 
ATOM      7  C   UNL A   1      34.426  25.192  25.264  1.00  0.00     0.024 C 
BRANCH   6   8
ATOM      8  C   UNL A   1      33.039  25.626  23.066  1.00  0.00     0.191 C 
ATOM      9  C   UNL A   1      31.674  25.178  22.506  1.00  0.00     0.076 C 
BRANCH   8  10
ATOM     10  N   UNL A   1      32.867  27.037  23.448  1.00  0.00    -0.339 N 
ATOM     11  H   UNL A   1      33.472  27.208  24.250  1.00  0.00     0.346 HD
ATOM     12  H   UNL A   1      33.093  27.555  22.598  1.00  0.00     0.346 HD
BRANCH  10  13
ATOM     13  C   UNL A   1      31.541  27.498  23.804  1.00  0.00     0.303 C 
BRANCH  13  14
ATOM     14  C   UNL A   1      31.527  27.691  25.273  1.00  0.00     0.071 A 
ATOM     15  C   UNL A   1      30.455  25.447  26.056  1.00  0.00     0.071 C 
ATOM     16  C   UNL A   1      31.046  26.791  26.264  1.00  0.00     0.090 A 
ATOM     17  N   UNL A   1      31.191  27.294  27.496  1.00  0.00    -0.085 NA
ATOM     18  O   UNL A   1      31.771  28.537  27.327  1.00  0.00    -0.361 OA
ATOM     19  C   UNL A   1      31.970  28.772  26.004  1.00  0.00     0.142 A 
ATOM     20  C   UNL A   1      32.587  30.061  25.645  1.00  0.00     0.091 C 
ENDBRANCH  13  14
ENDBRANCH  10  13
ENDBRANCH   8  10
ENDBRANCH   6   8
ENDBRANCH   3   6
ENDBRANCH   1   2
BRANCH   1  21
ATOM     21  C   UNL A   1      35.417  21.743  26.377  1.00  0.00     0.042 C 
BRANCH  21  22
ATOM     22  C   UNL A   1      36.726  22.229  25.779  1.00  0.00     0.118 C 
BRANCH  22  23
ATOM     23  N   UNL A   1      37.802  21.253  25.916  1.00  0.00    -0.352 N 
ATOM     24  C   UNL A   1      39.123  21.444  26.236  1.00  0.00     0.251 C 
ATOM     25  H   UNL A   1      37.540  20.317  25.755  1.00  0.00     0.163 HD
ATOM     26  O   UNL A   1      39.918  20.513  26.111  1.00  0.00    -0.269 OA
BRANCH  24  27
ATOM     27  C   UNL A   1      39.590  22.764  26.707  1.00  0.00     0.039 A 
ATOM     28  C   UNL A   1      40.568  22.824  27.702  1.00  0.00     0.014 A 
ATOM     29  C   UNL A   1      39.068  23.941  26.166  1.00  0.00     0.014 A 
ATOM     30  C   UNL A   1      41.068  24.066  28.104  1.00  0.00     0.010 A 
ATOM     31  C   UNL A   1      39.642  25.165  26.488  1.00  0.00     0.010 A 
ATOM     32  C   UNL A   1      40.636  25.245  27.473  1.00  0.00    -0.014 A 
BRANCH  32  33
ATOM     33  C   UNL A   1      41.206  26.568  27.831  1.00  0.00     0.031 A 
ATOM     34  C   UNL A   1      42.650  26.877  27.531  1.00  0.00     0.074 A 
ATOM     35  C   UNL A   1      40.449  27.462  28.498  1.00  0.00     0.049 A 
ATOM     36  N   UNL A   1      43.337  27.954  27.808  1.00  0.00    -0.248 NA
ATOM     37  C   UNL A   1      43.435  25.826  26.860  1.00  0.00     0.031 C 
ATOM     38  C   UNL A   1      39.061  27.251  28.918  1.00  0.00     0.029 A 
ATOM     39  N   UNL A   1      40.746  28.719  28.961  1.00  0.00    -0.354 N 
ATOM     40  C   UNL A   1      44.635  27.698  27.387  1.00  0.00     0.074 A 
ATOM     41  C   UNL A   1      44.652  26.348  26.868  1.00  0.00     0.031 C 
ATOM     42  C   UNL A   1      38.624  28.346  29.562  1.00  0.00     0.029 A 
ATOM     43  C   UNL A   1      39.708  29.320  29.634  1.00  0.00     0.049 A 
ATOM     44  H   UNL A   1      41.620  29.150  28.825  1.00  0.00     0.167 HD
ATOM     45  C   UNL A   1      45.712  28.519  27.401  1.00  0.00     0.034 A 
ATOM     46  C   UNL A   1      39.638  30.518  30.246  1.00  0.00     0.034 A 
ATOM     47  C   UNL A   1      45.679  29.874  27.876  1.00  0.00     0.049 A 
ATOM     48  C   UNL A   1      40.839  31.425  30.215  1.00  0.00     0.074 A 
ATOM     49  C   UNL A   1      46.689  30.820  27.845  1.00  0.00     0.029 A 
ATOM     50  N   UNL A   1      44.587  30.475  28.481  1.00  0.00    -0.354 N 
ATOM     51  N   UNL A   1      42.011  31.223  29.664  1.00  0.00    -0.248 NA
ATOM     52  C   UNL A   1      40.695  32.739  30.856  1.00  0.00     0.031 C 
ATOM     53  C   UNL A   1      46.219  31.981  28.466  1.00  0.00     0.029 A 
ATOM     54  C   UNL A   1      44.902  31.774  28.843  1.00  0.00     0.049 A 
ATOM     55  H   UNL A   1      43.716  30.042  28.632  1.00  0.00     0.167 HD
ATOM     56  C   UNL A   1      42.728  32.398  29.855  1.00  0.00     0.074 A 
ATOM     57  C   UNL A   1      41.851  33.313  30.555  1.00  0.00     0.031 C 
ATOM     58  C   UNL A   1      44.002  32.691  29.494  1.00  0.00     0.034 A 
BRANCH  45  59
ATOM     59  C   UNL A   1      47.010  27.987  26.849  1.00  0.00     0.023 A 
ATOM     60  C   UNL A   1      47.981  27.460  27.726  1.00  0.00     0.012 A 
ATOM     61  C   UNL A   1      47.242  27.953  25.461  1.00  0.00     0.148 A 
ATOM     62  C   UNL A   1      49.178  26.942  27.233  1.00  0.00     0.002 A 
ATOM     63  C   UNL A   1      48.416  27.388  24.974  1.00  0.00     0.091 A 
ATOM     64  F   UNL A   1      46.318  28.477  24.644  1.00  0.00    -0.205 F 
ATOM     65  C   UNL A   1      49.390  26.896  25.857  1.00  0.00     0.022 A 
BRANCH  63  66
ATOM     66  S   UNL A   1      48.746  27.203  23.218  1.00  0.00     0.127 S 
ATOM     67  O   UNL A   1      50.206  27.291  23.183  1.00  0.00    -0.237 OA
ATOM     68  O   UNL A   1      48.209  25.870  22.944  1.00  0.00    -0.237 OA
ATOM     69  O   UNL A   1      48.041  28.292  22.557  1.00  0.00    -0.744 OA
ENDBRANCH  63  66
ENDBRANCH  45  59
BRANCH  46  70
ATOM     70  C   UNL A   1      38.367  30.959  30.888  1.00  0.00     0.023 A 
ATOM     71  C   UNL A   1      38.162  30.711  32.260  1.00  0.00     0.012 A 
ATOM     72  C   UNL A   1      37.368  31.629  30.156  1.00  0.00     0.148 A 
ATOM     73  C   UNL A   1      36.969  31.083  32.881  1.00  0.00     0.002 A 
ATOM     74  C   UNL A   1      36.206  32.050  30.793  1.00  0.00     0.091 A 
ATOM     75  F   UNL A   1      37.579  31.849  28.851  1.00  0.00    -0.205 F 
ATOM     76  C   UNL A   1      35.996  31.759  32.151  1.00  0.00     0.022 A 
BRANCH  74  77
ATOM     77  S   UNL A   1      34.958  33.039  29.965  1.00  0.00     0.127 S 
ATOM     78  O   UNL A   1      34.393  32.080  29.019  1.00  0.00    -0.237 OA
ATOM     79  O   UNL A   1      34.077  33.403  31.075  1.00  0.00    -0.237 OA
ATOM     80  O   UNL A   1      35.673  34.163  29.374  1.00  0.00    -0.744 OA
ENDBRANCH  74  77
ENDBRANCH  46  70
BRANCH  58  81
ATOM     81  C   UNL A   1      44.516  34.075  29.797  1.00  0.00     0.023 A 
ATOM     82  C   UNL A   1      45.212  34.324  30.996  1.00  0.00     0.012 A 
ATOM     83  C   UNL A   1      44.362  35.114  28.858  1.00  0.00     0.148 A 
ATOM     84  C   UNL A   1      45.713  35.596  31.272  1.00  0.00     0.002 A 
ATOM     85  C   UNL A   1      44.911  36.363  29.115  1.00  0.00     0.091 A 
ATOM     86  F   UNL A   1      43.681  34.861  27.731  1.00  0.00    -0.205 F 
ATOM     87  C   UNL A   1      45.573  36.611  30.327  1.00  0.00     0.022 A 
BRANCH  85  88
ATOM     88  S   UNL A   1      44.870  37.699  27.914  1.00  0.00     0.127 S 
ATOM     89  O   UNL A   1      45.557  38.768  28.635  1.00  0.00    -0.237 OA
ATOM     90  O   UNL A   1      45.625  37.132  26.796  1.00  0.00    -0.237 OA
ATOM     91  O   UNL A   1      43.461  37.941  27.631  1.00  0.00    -0.744 OA
ENDBRANCH  85  88
ENDBRANCH  58  81
ENDBRANCH  32  33
ENDBRANCH  24  27
ENDBRANCH  22  23
ENDBRANCH  21  22
ENDBRANCH   1  21
TORSDOF 17
ENDMDL
