MODEL 1
REMARK VINA RESULT:     -13.8      0.000      0.000
REMARK SMILES O=C(NCCCNC(=O)c1ccccc1Nc1nc(Cl)nc(Nc2ccc(N3CCOCC3=O)cc2)n1)c1ccc(-c2c3nc(c(-c4cccc(S(=O)(=O)[O-])c4F)c4ccc([nH]4)c(-c4cccc(S(=O)(=O)[O-])c4F)c4nc(c(-c5cccc(S(=O)(=O)[O-])c5F)c5ccc2[nH]5)C=C4)C=C3)cc1
REMARK SMILES IDX 6 1 5 2 4 3 3 4 1 5 2 6 38 8 39 9 100 10 40 11 99 12 41 13
REMARK SMILES IDX 42 14 43 15 93 16 44 17 98 18 92 19 94 20 45 21 97 22 91 23
REMARK SMILES IDX 90 24 46 26 78 27 58 28 77 29 59 30 62 31 76 32 95 33 60 34
REMARK SMILES IDX 61 35 75 37 96 38 63 39 47 40 48 41 56 42 49 43 51 44 57 45
REMARK SMILES IDX 50 46 52 47 53 48 54 49 55 50 79 51 80 52 88 53 81 54 83 55
REMARK SMILES IDX 89 56 82 57 84 58 85 59 86 60 87 61 64 62 65 63 73 64 66 65
REMARK SMILES IDX 68 66 74 67 67 68 69 69 70 70 71 71 72 72 7 73 8 74 9 76
REMARK SMILES IDX 10 77 11 78 15 79 12 80 14 81 13 82 16 83 17 85 18 86 37 87
REMARK SMILES IDX 19 88 22 89 20 90 21 91 23 92 24 94 25 95 36 96 26 97 35 98
REMARK SMILES IDX 27 99 28 100 29 101 33 102 30 103 32 104 34 105 31 106
REMARK H PARENT 3 7 94 25 62 36 7 75 16 84 23 93
REMARK Flexibility Score: inf
ROOT
ATOM      1  C   UNL A   1      31.394  30.179  26.211  1.00  0.00     0.118 C 
ENDROOT
BRANCH   1   2
ATOM      2  C   UNL A   1      31.303  31.671  26.475  1.00  0.00     0.042 C 
BRANCH   2   3
ATOM      3  C   UNL A   1      32.646  32.334  26.728  1.00  0.00     0.118 C 
BRANCH   3   4
ATOM      4  N   UNL A   1      32.521  33.676  27.283  1.00  0.00    -0.352 N 
ATOM      5  O   UNL A   1      32.816  35.352  28.753  1.00  0.00    -0.269 OA
ATOM      6  C   UNL A   1      33.203  34.270  28.319  1.00  0.00     0.251 C 
ATOM      7  H   UNL A   1      31.845  34.245  26.848  1.00  0.00     0.163 HD
BRANCH   6   8
ATOM      8  C   UNL A   1      34.376  33.597  28.918  1.00  0.00     0.039 A 
ATOM      9  C   UNL A   1      34.204  32.610  29.889  1.00  0.00     0.014 A 
ATOM     10  C   UNL A   1      35.663  33.942  28.496  1.00  0.00     0.014 A 
ATOM     11  C   UNL A   1      35.306  32.100  30.561  1.00  0.00     0.010 A 
ATOM     12  C   UNL A   1      36.776  33.338  29.093  1.00  0.00     0.010 A 
ATOM     13  C   UNL A   1      36.607  32.432  30.150  1.00  0.00    -0.014 A 
BRANCH  13  14
ATOM     14  C   UNL A   1      37.752  31.716  30.765  1.00  0.00     0.031 A 
ATOM     15  C   UNL A   1      38.539  30.682  30.009  1.00  0.00     0.074 A 
ATOM     16  C   UNL A   1      38.078  32.025  32.037  1.00  0.00     0.049 A 
ATOM     17  N   UNL A   1      39.584  30.002  30.406  1.00  0.00    -0.248 NA
ATOM     18  C   UNL A   1      38.102  30.360  28.641  1.00  0.00     0.031 C 
ATOM     19  C   UNL A   1      37.346  32.973  32.884  1.00  0.00     0.029 A 
ATOM     20  N   UNL A   1      39.097  31.586  32.841  1.00  0.00    -0.354 N 
ATOM     21  C   UNL A   1      39.903  29.142  29.363  1.00  0.00     0.074 A 
ATOM     22  C   UNL A   1      38.943  29.387  28.307  1.00  0.00     0.031 C 
ATOM     23  C   UNL A   1      37.956  33.068  34.072  1.00  0.00     0.029 A 
ATOM     24  C   UNL A   1      39.080  32.143  34.098  1.00  0.00     0.049 A 
ATOM     25  H   UNL A   1      39.776  30.936  32.547  1.00  0.00     0.167 HD
ATOM     26  C   UNL A   1      40.911  28.239  29.294  1.00  0.00     0.034 A 
ATOM     27  C   UNL A   1      39.866  31.919  35.168  1.00  0.00     0.034 A 
ATOM     28  C   UNL A   1      41.889  28.038  30.331  1.00  0.00     0.049 A 
ATOM     29  C   UNL A   1      40.991  30.937  35.041  1.00  0.00     0.074 A 
ATOM     30  C   UNL A   1      43.001  27.215  30.313  1.00  0.00     0.029 A 
ATOM     31  N   UNL A   1      41.867  28.651  31.574  1.00  0.00    -0.354 N 
ATOM     32  N   UNL A   1      41.367  30.250  33.990  1.00  0.00    -0.248 NA
ATOM     33  C   UNL A   1      41.814  30.714  36.236  1.00  0.00     0.031 C 
ATOM     34  C   UNL A   1      43.639  27.312  31.554  1.00  0.00     0.029 A 
ATOM     35  C   UNL A   1      42.933  28.209  32.339  1.00  0.00     0.049 A 
ATOM     36  H   UNL A   1      41.192  29.304  31.869  1.00  0.00     0.167 HD
ATOM     37  C   UNL A   1      42.478  29.520  34.393  1.00  0.00     0.074 A 
ATOM     38  C   UNL A   1      42.737  29.882  35.772  1.00  0.00     0.031 C 
ATOM     39  C   UNL A   1      43.200  28.611  33.696  1.00  0.00     0.034 A 
BRANCH  26  40
ATOM     40  C   UNL A   1      41.050  27.415  28.040  1.00  0.00     0.023 A 
ATOM     41  C   UNL A   1      41.661  27.978  26.902  1.00  0.00     0.012 A 
ATOM     42  C   UNL A   1      40.688  26.053  28.030  1.00  0.00     0.148 A 
ATOM     43  C   UNL A   1      41.901  27.200  25.769  1.00  0.00     0.002 A 
ATOM     44  C   UNL A   1      40.963  25.275  26.910  1.00  0.00     0.091 A 
ATOM     45  F   UNL A   1      40.094  25.542  29.118  1.00  0.00    -0.205 F 
ATOM     46  C   UNL A   1      41.565  25.849  25.778  1.00  0.00     0.022 A 
BRANCH  44  47
ATOM     47  S   UNL A   1      40.638  23.509  26.846  1.00  0.00     0.127 S 
ATOM     48  O   UNL A   1      41.070  23.083  28.177  1.00  0.00    -0.237 OA
ATOM     49  O   UNL A   1      39.191  23.470  26.634  1.00  0.00    -0.237 OA
ATOM     50  O   UNL A   1      41.431  22.992  25.740  1.00  0.00    -0.744 OA
ENDBRANCH  44  47
ENDBRANCH  26  40
BRANCH  27  51
ATOM     51  C   UNL A   1      39.617  32.657  36.438  1.00  0.00     0.023 A 
ATOM     52  C   UNL A   1      40.305  33.859  36.692  1.00  0.00     0.012 A 
ATOM     53  C   UNL A   1      38.671  32.196  37.374  1.00  0.00     0.148 A 
ATOM     54  C   UNL A   1      40.073  34.573  37.868  1.00  0.00     0.002 A 
ATOM     55  C   UNL A   1      38.398  32.946  38.511  1.00  0.00     0.091 A 
ATOM     56  F   UNL A   1      38.041  31.038  37.129  1.00  0.00    -0.205 F 
ATOM     57  C   UNL A   1      39.111  34.126  38.770  1.00  0.00     0.022 A 
BRANCH  55  58
ATOM     58  S   UNL A   1      37.062  32.506  39.628  1.00  0.00     0.127 S 
ATOM     59  O   UNL A   1      35.893  32.630  38.763  1.00  0.00    -0.237 OA
ATOM     60  O   UNL A   1      37.409  31.135  40.005  1.00  0.00    -0.237 OA
ATOM     61  O   UNL A   1      37.157  33.462  40.724  1.00  0.00    -0.744 OA
ENDBRANCH  55  58
ENDBRANCH  27  51
BRANCH  39  62
ATOM     62  C   UNL A   1      44.344  27.948  34.413  1.00  0.00     0.023 A 
ATOM     63  C   UNL A   1      45.611  28.565  34.411  1.00  0.00     0.012 A 
ATOM     64  C   UNL A   1      44.156  26.750  35.126  1.00  0.00     0.148 A 
ATOM     65  C   UNL A   1      46.683  27.981  35.083  1.00  0.00     0.002 A 
ATOM     66  C   UNL A   1      45.218  26.198  35.832  1.00  0.00     0.091 A 
ATOM     67  F   UNL A   1      42.948  26.168  35.095  1.00  0.00    -0.205 F 
ATOM     68  C   UNL A   1      46.484  26.805  35.802  1.00  0.00     0.022 A 
BRANCH  66  69
ATOM     69  S   UNL A   1      45.030  24.734  36.856  1.00  0.00     0.127 S 
ATOM     70  O   UNL A   1      46.386  24.558  37.376  1.00  0.00    -0.237 OA
ATOM     71  O   UNL A   1      44.048  25.171  37.849  1.00  0.00    -0.237 OA
ATOM     72  O   UNL A   1      44.559  23.681  35.966  1.00  0.00    -0.744 OA
ENDBRANCH  66  69
ENDBRANCH  39  62
ENDBRANCH  13  14
ENDBRANCH   6   8
ENDBRANCH   3   4
ENDBRANCH   2   3
ENDBRANCH   1   2
BRANCH   1  73
ATOM     73  N   UNL A   1      32.169  29.860  25.016  1.00  0.00    -0.352 N 
ATOM     74  C   UNL A   1      31.731  29.376  23.809  1.00  0.00     0.253 C 
ATOM     75  H   UNL A   1      33.139  30.014  25.086  1.00  0.00     0.163 HD
ATOM     76  O   UNL A   1      32.530  29.098  22.920  1.00  0.00    -0.269 OA
BRANCH  74  77
ATOM     77  C   UNL A   1      30.287  29.168  23.583  1.00  0.00     0.063 A 
ATOM     78  C   UNL A   1      29.513  30.312  23.346  1.00  0.00     0.016 A 
ATOM     79  C   UNL A   1      29.713  27.883  23.578  1.00  0.00     0.054 A 
ATOM     80  C   UNL A   1      28.162  30.183  23.035  1.00  0.00     0.001 A 
ATOM     81  C   UNL A   1      28.366  27.778  23.204  1.00  0.00     0.027 A 
ATOM     82  C   UNL A   1      27.595  28.915  22.944  1.00  0.00     0.002 A 
BRANCH  79  83
ATOM     83  N   UNL A   1      30.465  26.742  23.895  1.00  0.00    -0.323 N 
ATOM     84  H   UNL A   1      30.228  26.316  24.750  1.00  0.00     0.170 HD
BRANCH  83  85
ATOM     85  C   UNL A   1      31.489  26.119  23.196  1.00  0.00     0.233 A 
ATOM     86  N   UNL A   1      31.478  26.110  21.874  1.00  0.00    -0.182 NA
ATOM     87  N   UNL A   1      32.447  25.570  23.935  1.00  0.00    -0.176 NA
ATOM     88  C   UNL A   1      32.531  25.520  21.337  1.00  0.00     0.228 A 
ATOM     89  C   UNL A   1      33.403  24.920  23.281  1.00  0.00     0.233 A 
ATOM     90  Cl  UNL A   1      32.590  25.494  19.631  1.00  0.00    -0.041 Cl
ATOM     91  N   UNL A   1      33.509  24.892  21.964  1.00  0.00    -0.182 NA
BRANCH  89  92
ATOM     92  N   UNL A   1      34.227  24.125  24.076  1.00  0.00    -0.324 N 
ATOM     93  H   UNL A   1      34.988  24.582  24.502  1.00  0.00     0.170 HD
BRANCH  92  94
ATOM     94  C   UNL A   1      34.105  22.761  24.345  1.00  0.00     0.041 A 
ATOM     95  C   UNL A   1      32.950  22.079  23.949  1.00  0.00     0.028 A 
ATOM     96  C   UNL A   1      35.155  22.029  24.900  1.00  0.00     0.028 A 
ATOM     97  C   UNL A   1      32.852  20.691  24.092  1.00  0.00     0.028 A 
ATOM     98  C   UNL A   1      35.038  20.651  25.099  1.00  0.00     0.028 A 
ATOM     99  C   UNL A   1      33.894  19.965  24.680  1.00  0.00     0.044 A 
BRANCH  99 100
ATOM    100  N   UNL A   1      33.812  18.547  24.797  1.00  0.00    -0.308 N 
ATOM    101  C   UNL A   1      32.472  17.952  24.736  1.00  0.00     0.154 C 
ATOM    102  C   UNL A   1      34.951  17.748  24.646  1.00  0.00     0.253 C 
ATOM    103  C   UNL A   1      32.446  16.491  25.162  1.00  0.00     0.183 C 
ATOM    104  C   UNL A   1      34.703  16.229  24.657  1.00  0.00     0.260 C 
ATOM    105  O   UNL A   1      36.107  18.173  24.614  1.00  0.00    -0.272 OA
ATOM    106  O   UNL A   1      33.392  15.756  24.391  1.00  0.00    -0.370 OA
ENDBRANCH  99 100
ENDBRANCH  92  94
ENDBRANCH  89  92
ENDBRANCH  83  85
ENDBRANCH  79  83
ENDBRANCH  74  77
ENDBRANCH   1  73
TORSDOF 18
ENDMDL
MODEL 2
REMARK VINA RESULT:     -13.4      2.371      7.624
REMARK SMILES O=C(NCCCNC(=O)c1ccccc1Nc1nc(Cl)nc(Nc2ccc(N3CCOCC3=O)cc2)n1)c1ccc(-c2c3nc(c(-c4cccc(S(=O)(=O)[O-])c4F)c4ccc([nH]4)c(-c4cccc(S(=O)(=O)[O-])c4F)c4nc(c(-c5cccc(S(=O)(=O)[O-])c5F)c5ccc2[nH]5)C=C4)C=C3)cc1
REMARK SMILES IDX 6 1 5 2 4 3 3 4 1 5 2 6 38 8 39 9 100 10 40 11 99 12 41 13
REMARK SMILES IDX 42 14 43 15 93 16 44 17 98 18 92 19 94 20 45 21 97 22 91 23
REMARK SMILES IDX 90 24 46 26 78 27 58 28 77 29 59 30 62 31 76 32 95 33 60 34
REMARK SMILES IDX 61 35 75 37 96 38 63 39 47 40 48 41 56 42 49 43 51 44 57 45
REMARK SMILES IDX 50 46 52 47 53 48 54 49 55 50 79 51 80 52 88 53 81 54 83 55
REMARK SMILES IDX 89 56 82 57 84 58 85 59 86 60 87 61 64 62 65 63 73 64 66 65
REMARK SMILES IDX 68 66 74 67 67 68 69 69 70 70 71 71 72 72 7 73 8 74 9 76
REMARK SMILES IDX 10 77 11 78 15 79 12 80 14 81 13 82 16 83 17 85 18 86 37 87
REMARK SMILES IDX 19 88 22 89 20 90 21 91 23 92 24 94 25 95 36 96 26 97 35 98
REMARK SMILES IDX 27 99 28 100 29 101 33 102 30 103 32 104 34 105 31 106
REMARK H PARENT 3 7 94 25 62 36 7 75 16 84 23 93
REMARK Flexibility Score: inf
ROOT
ATOM      1  C   UNL A   1      31.756  29.457  25.839  1.00  0.00     0.118 C 
ENDROOT
BRANCH   1   2
ATOM      2  C   UNL A   1      32.488  28.439  26.694  1.00  0.00     0.042 C 
BRANCH   2   3
ATOM      3  C   UNL A   1      33.746  28.980  27.352  1.00  0.00     0.118 C 
BRANCH   3   4
ATOM      4  N   UNL A   1      33.673  30.410  27.627  1.00  0.00    -0.352 N 
ATOM      5  O   UNL A   1      34.195  32.365  28.608  1.00  0.00    -0.269 OA
ATOM      6  C   UNL A   1      34.535  31.217  28.332  1.00  0.00     0.251 C 
ATOM      7  H   UNL A   1      32.888  30.867  27.250  1.00  0.00     0.163 HD
BRANCH   6   8
ATOM      8  C   UNL A   1      35.848  30.696  28.774  1.00  0.00     0.039 A 
ATOM      9  C   UNL A   1      37.021  31.110  28.142  1.00  0.00     0.014 A 
ATOM     10  C   UNL A   1      35.912  29.797  29.843  1.00  0.00     0.014 A 
ATOM     11  C   UNL A   1      38.226  30.497  28.452  1.00  0.00     0.010 A 
ATOM     12  C   UNL A   1      37.147  29.270  30.234  1.00  0.00     0.010 A 
ATOM     13  C   UNL A   1      38.312  29.594  29.523  1.00  0.00    -0.014 A 
BRANCH  13  14
ATOM     14  C   UNL A   1      39.651  29.115  29.945  1.00  0.00     0.031 A 
ATOM     15  C   UNL A   1      40.407  29.761  31.073  1.00  0.00     0.074 A 
ATOM     16  C   UNL A   1      40.180  28.064  29.285  1.00  0.00     0.049 A 
ATOM     17  N   UNL A   1      41.569  29.427  31.572  1.00  0.00    -0.248 NA
ATOM     18  C   UNL A   1      39.793  30.931  31.720  1.00  0.00     0.031 C 
ATOM     19  C   UNL A   1      39.558  27.395  28.137  1.00  0.00     0.029 A 
ATOM     20  N   UNL A   1      41.347  27.372  29.474  1.00  0.00    -0.354 N 
ATOM     21  C   UNL A   1      41.849  30.367  32.556  1.00  0.00     0.074 A 
ATOM     22  C   UNL A   1      40.731  31.285  32.591  1.00  0.00     0.031 C 
ATOM     23  C   UNL A   1      40.331  26.375  27.746  1.00  0.00     0.029 A 
ATOM     24  C   UNL A   1      41.532  26.353  28.569  1.00  0.00     0.049 A 
ATOM     25  H   UNL A   1      41.991  27.582  30.189  1.00  0.00     0.167 HD
ATOM     26  C   UNL A   1      42.936  30.445  33.361  1.00  0.00     0.034 A 
ATOM     27  C   UNL A   1      42.565  25.507  28.399  1.00  0.00     0.034 A 
ATOM     28  C   UNL A   1      44.020  29.496  33.351  1.00  0.00     0.049 A 
ATOM     29  C   UNL A   1      43.735  25.603  29.331  1.00  0.00     0.074 A 
ATOM     30  C   UNL A   1      45.117  29.438  34.192  1.00  0.00     0.029 A 
ATOM     31  N   UNL A   1      44.153  28.451  32.450  1.00  0.00    -0.354 N 
ATOM     32  N   UNL A   1      43.906  26.403  30.356  1.00  0.00    -0.248 NA
ATOM     33  C   UNL A   1      44.845  24.670  29.100  1.00  0.00     0.031 C 
ATOM     34  C   UNL A   1      45.926  28.372  33.784  1.00  0.00     0.029 A 
ATOM     35  C   UNL A   1      45.324  27.756  32.700  1.00  0.00     0.049 A 
ATOM     36  H   UNL A   1      43.510  28.236  31.736  1.00  0.00     0.167 HD
ATOM     37  C   UNL A   1      45.137  26.063  30.899  1.00  0.00     0.074 A 
ATOM     38  C   UNL A   1      45.649  24.957  30.115  1.00  0.00     0.031 C 
ATOM     39  C   UNL A   1      45.798  26.632  31.936  1.00  0.00     0.034 A 
BRANCH  26  40
ATOM     40  C   UNL A   1      43.009  31.569  34.361  1.00  0.00     0.023 A 
ATOM     41  C   UNL A   1      43.641  32.777  34.005  1.00  0.00     0.012 A 
ATOM     42  C   UNL A   1      42.347  31.474  35.602  1.00  0.00     0.148 A 
ATOM     43  C   UNL A   1      43.623  33.870  34.873  1.00  0.00     0.002 A 
ATOM     44  C   UNL A   1      42.303  32.578  36.446  1.00  0.00     0.091 A 
ATOM     45  F   UNL A   1      41.765  30.310  35.927  1.00  0.00    -0.205 F 
ATOM     46  C   UNL A   1      42.944  33.775  36.084  1.00  0.00     0.022 A 
BRANCH  44  47
ATOM     47  S   UNL A   1      41.392  32.584  37.995  1.00  0.00     0.127 S 
ATOM     48  O   UNL A   1      40.085  32.087  37.570  1.00  0.00    -0.237 OA
ATOM     49  O   UNL A   1      42.165  31.646  38.810  1.00  0.00    -0.237 OA
ATOM     50  O   UNL A   1      41.409  33.961  38.469  1.00  0.00    -0.744 OA
ENDBRANCH  44  47
ENDBRANCH  26  40
BRANCH  27  51
ATOM     51  C   UNL A   1      42.518  24.490  27.312  1.00  0.00     0.023 A 
ATOM     52  C   UNL A   1      43.343  24.640  26.181  1.00  0.00     0.012 A 
ATOM     53  C   UNL A   1      41.692  23.353  27.413  1.00  0.00     0.148 A 
ATOM     54  C   UNL A   1      43.326  23.689  25.160  1.00  0.00     0.002 A 
ATOM     55  C   UNL A   1      41.729  22.379  26.424  1.00  0.00     0.091 A 
ATOM     56  F   UNL A   1      40.896  23.236  28.486  1.00  0.00    -0.205 F 
ATOM     57  C   UNL A   1      42.530  22.553  25.287  1.00  0.00     0.022 A 
BRANCH  55  58
ATOM     58  S   UNL A   1      40.850  20.823  26.606  1.00  0.00     0.127 S 
ATOM     59  O   UNL A   1      40.938  20.594  28.045  1.00  0.00    -0.237 OA
ATOM     60  O   UNL A   1      39.513  21.159  26.115  1.00  0.00    -0.237 OA
ATOM     61  O   UNL A   1      41.571  19.881  25.759  1.00  0.00    -0.744 OA
ENDBRANCH  55  58
ENDBRANCH  27  51
BRANCH  39  62
ATOM     62  C   UNL A   1      47.147  26.064  32.284  1.00  0.00     0.023 A 
ATOM     63  C   UNL A   1      48.289  26.531  31.603  1.00  0.00     0.012 A 
ATOM     64  C   UNL A   1      47.291  25.115  33.312  1.00  0.00     0.148 A 
ATOM     65  C   UNL A   1      49.552  26.035  31.919  1.00  0.00     0.002 A 
ATOM     66  C   UNL A   1      48.559  24.660  33.653  1.00  0.00     0.091 A 
ATOM     67  F   UNL A   1      46.188  24.668  33.932  1.00  0.00    -0.205 F 
ATOM     68  C   UNL A   1      49.689  25.109  32.951  1.00  0.00     0.022 A 
BRANCH  66  69
ATOM     69  S   UNL A   1      48.837  23.534  35.026  1.00  0.00     0.127 S 
ATOM     70  O   UNL A   1      48.186  22.314  34.548  1.00  0.00    -0.237 OA
ATOM     71  O   UNL A   1      50.297  23.465  35.083  1.00  0.00    -0.237 OA
ATOM     72  O   UNL A   1      48.218  24.160  36.187  1.00  0.00    -0.744 OA
ENDBRANCH  66  69
ENDBRANCH  39  62
ENDBRANCH  13  14
ENDBRANCH   6   8
ENDBRANCH   3   4
ENDBRANCH   2   3
ENDBRANCH   1   2
BRANCH   1  73
ATOM     73  N   UNL A   1      32.254  29.511  24.469  1.00  0.00    -0.352 N 
ATOM     74  C   UNL A   1      31.582  29.272  23.296  1.00  0.00     0.253 C 
ATOM     75  H   UNL A   1      33.205  29.753  24.372  1.00  0.00     0.163 HD
ATOM     76  O   UNL A   1      32.172  29.299  22.221  1.00  0.00    -0.269 OA
BRANCH  74  77
ATOM     77  C   UNL A   1      30.139  28.961  23.330  1.00  0.00     0.063 A 
ATOM     78  C   UNL A   1      29.256  30.029  23.125  1.00  0.00     0.016 A 
ATOM     79  C   UNL A   1      29.667  27.650  23.531  1.00  0.00     0.054 A 
ATOM     80  C   UNL A   1      27.886  29.792  23.053  1.00  0.00     0.001 A 
ATOM     81  C   UNL A   1      28.288  27.431  23.394  1.00  0.00     0.027 A 
ATOM     82  C   UNL A   1      27.406  28.491  23.167  1.00  0.00     0.002 A 
BRANCH  79  83
ATOM     83  N   UNL A   1      30.541  26.590  23.818  1.00  0.00    -0.323 N 
ATOM     84  H   UNL A   1      30.424  26.189  24.709  1.00  0.00     0.170 HD
BRANCH  83  85
ATOM     85  C   UNL A   1      31.542  26.019  23.045  1.00  0.00     0.233 A 
ATOM     86  N   UNL A   1      31.454  26.040  21.726  1.00  0.00    -0.182 NA
ATOM     87  N   UNL A   1      32.558  25.485  23.714  1.00  0.00    -0.176 NA
ATOM     88  C   UNL A   1      32.493  25.498  21.115  1.00  0.00     0.228 A 
ATOM     89  C   UNL A   1      33.496  24.883  22.991  1.00  0.00     0.233 A 
ATOM     90  Cl  UNL A   1      32.453  25.514  19.408  1.00  0.00    -0.041 Cl
ATOM     91  N   UNL A   1      33.525  24.889  21.669  1.00  0.00    -0.182 NA
BRANCH  89  92
ATOM     92  N   UNL A   1      34.389  24.098  23.717  1.00  0.00    -0.324 N 
ATOM     93  H   UNL A   1      35.202  24.552  24.036  1.00  0.00     0.170 HD
BRANCH  92  94
ATOM     94  C   UNL A   1      34.273  22.748  24.049  1.00  0.00     0.041 A 
ATOM     95  C   UNL A   1      33.135  22.035  23.657  1.00  0.00     0.028 A 
ATOM     96  C   UNL A   1      35.314  22.055  24.667  1.00  0.00     0.028 A 
ATOM     97  C   UNL A   1      33.047  20.655  23.866  1.00  0.00     0.028 A 
ATOM     98  C   UNL A   1      35.205  20.687  24.931  1.00  0.00     0.028 A 
ATOM     99  C   UNL A   1      34.079  19.970  24.516  1.00  0.00     0.044 A 
BRANCH  99 100
ATOM    100  N   UNL A   1      34.008  18.558  24.701  1.00  0.00    -0.308 N 
ATOM    101  C   UNL A   1      35.244  17.798  24.485  1.00  0.00     0.154 C 
ATOM    102  C   UNL A   1      32.924  17.975  25.367  1.00  0.00     0.253 C 
ATOM    103  C   UNL A   1      35.017  16.294  24.411  1.00  0.00     0.183 C 
ATOM    104  C   UNL A   1      33.037  16.462  25.623  1.00  0.00     0.260 C 
ATOM    105  O   UNL A   1      31.878  18.562  25.652  1.00  0.00    -0.272 OA
ATOM    106  O   UNL A   1      34.322  15.863  25.578  1.00  0.00    -0.370 OA
ENDBRANCH  99 100
ENDBRANCH  92  94
ENDBRANCH  89  92
ENDBRANCH  83  85
ENDBRANCH  79  83
ENDBRANCH  74  77
ENDBRANCH   1  73
TORSDOF 18
ENDMDL
MODEL 3
REMARK VINA RESULT:     -12.9      4.851      7.957
REMARK SMILES O=C(NCCCNC(=O)c1ccccc1Nc1nc(Cl)nc(Nc2ccc(N3CCOCC3=O)cc2)n1)c1ccc(-c2c3nc(c(-c4cccc(S(=O)(=O)[O-])c4F)c4ccc([nH]4)c(-c4cccc(S(=O)(=O)[O-])c4F)c4nc(c(-c5cccc(S(=O)(=O)[O-])c5F)c5ccc2[nH]5)C=C4)C=C3)cc1
REMARK SMILES IDX 6 1 5 2 4 3 3 4 1 5 2 6 38 8 39 9 100 10 40 11 99 12 41 13
REMARK SMILES IDX 42 14 43 15 93 16 44 17 98 18 92 19 94 20 45 21 97 22 91 23
REMARK SMILES IDX 90 24 46 26 78 27 58 28 77 29 59 30 62 31 76 32 95 33 60 34
REMARK SMILES IDX 61 35 75 37 96 38 63 39 47 40 48 41 56 42 49 43 51 44 57 45
REMARK SMILES IDX 50 46 52 47 53 48 54 49 55 50 79 51 80 52 88 53 81 54 83 55
REMARK SMILES IDX 89 56 82 57 84 58 85 59 86 60 87 61 64 62 65 63 73 64 66 65
REMARK SMILES IDX 68 66 74 67 67 68 69 69 70 70 71 71 72 72 7 73 8 74 9 76
REMARK SMILES IDX 10 77 11 78 15 79 12 80 14 81 13 82 16 83 17 85 18 86 37 87
REMARK SMILES IDX 19 88 22 89 20 90 21 91 23 92 24 94 25 95 36 96 26 97 35 98
REMARK SMILES IDX 27 99 28 100 29 101 33 102 30 103 32 104 34 105 31 106
REMARK H PARENT 3 7 94 25 62 36 7 75 16 84 23 93
REMARK Flexibility Score: inf
ROOT
ATOM      1  C   UNL A   1      34.606  25.050  25.403  1.00  0.00     0.118 C 
ENDROOT
BRANCH   1   2
ATOM      2  C   UNL A   1      35.730  24.062  25.151  1.00  0.00     0.042 C 
BRANCH   2   3
ATOM      3  C   UNL A   1      36.238  23.375  26.407  1.00  0.00     0.118 C 
BRANCH   3   4
ATOM      4  N   UNL A   1      37.360  22.481  26.150  1.00  0.00    -0.352 N 
ATOM      5  O   UNL A   1      39.492  21.884  25.755  1.00  0.00    -0.269 OA
ATOM      6  C   UNL A   1      38.713  22.729  26.188  1.00  0.00     0.251 C 
ATOM      7  H   UNL A   1      37.112  21.558  25.915  1.00  0.00     0.163 HD
BRANCH   6   8
ATOM      8  C   UNL A   1      39.218  24.013  26.721  1.00  0.00     0.039 A 
ATOM      9  C   UNL A   1      39.764  24.969  25.864  1.00  0.00     0.014 A 
ATOM     10  C   UNL A   1      39.132  24.276  28.092  1.00  0.00     0.014 A 
ATOM     11  C   UNL A   1      40.381  26.096  26.386  1.00  0.00     0.010 A 
ATOM     12  C   UNL A   1      39.649  25.470  28.604  1.00  0.00     0.010 A 
ATOM     13  C   UNL A   1      40.303  26.379  27.759  1.00  0.00    -0.014 A 
BRANCH  13  14
ATOM     14  C   UNL A   1      40.803  27.688  28.246  1.00  0.00     0.031 A 
ATOM     15  C   UNL A   1      42.265  28.037  28.227  1.00  0.00     0.074 A 
ATOM     16  C   UNL A   1      39.897  28.574  28.709  1.00  0.00     0.049 A 
ATOM     17  N   UNL A   1      42.841  29.154  28.587  1.00  0.00    -0.248 NA
ATOM     18  C   UNL A   1      43.203  27.007  27.752  1.00  0.00     0.031 C 
ATOM     19  C   UNL A   1      38.457  28.319  28.825  1.00  0.00     0.029 A 
ATOM     20  N   UNL A   1      40.040  29.859  29.163  1.00  0.00    -0.354 N 
ATOM     21  C   UNL A   1      44.207  28.951  28.430  1.00  0.00     0.074 A 
ATOM     22  C   UNL A   1      44.377  27.603  27.934  1.00  0.00     0.031 C 
ATOM     23  C   UNL A   1      37.848  29.418  29.288  1.00  0.00     0.029 A 
ATOM     24  C   UNL A   1      38.856  30.434  29.562  1.00  0.00     0.049 A 
ATOM     25  H   UNL A   1      40.906  30.326  29.200  1.00  0.00     0.167 HD
ATOM     26  C   UNL A   1      45.220  29.818  28.670  1.00  0.00     0.034 A 
ATOM     27  C   UNL A   1      38.605  31.636  30.112  1.00  0.00     0.034 A 
ATOM     28  C   UNL A   1      45.035  31.175  29.117  1.00  0.00     0.049 A 
ATOM     29  C   UNL A   1      39.749  32.580  30.330  1.00  0.00     0.074 A 
ATOM     30  C   UNL A   1      45.994  32.157  29.296  1.00  0.00     0.029 A 
ATOM     31  N   UNL A   1      43.818  31.737  29.469  1.00  0.00    -0.354 N 
ATOM     32  N   UNL A   1      41.014  32.422  30.027  1.00  0.00    -0.248 NA
ATOM     33  C   UNL A   1      39.431  33.875  30.945  1.00  0.00     0.031 C 
ATOM     34  C   UNL A   1      45.359  33.306  29.780  1.00  0.00     0.029 A 
ATOM     35  C   UNL A   1      44.003  33.045  29.886  1.00  0.00     0.049 A 
ATOM     36  H   UNL A   1      42.950  31.274  29.430  1.00  0.00     0.167 HD
ATOM     37  C   UNL A   1      41.643  33.601  30.404  1.00  0.00     0.074 A 
ATOM     38  C   UNL A   1      40.612  34.478  30.919  1.00  0.00     0.031 C 
ATOM     39  C   UNL A   1      42.959  33.918  30.355  1.00  0.00     0.034 A 
BRANCH  26  40
ATOM     40  C   UNL A   1      46.632  29.358  28.419  1.00  0.00     0.023 A 
ATOM     41  C   UNL A   1      47.177  29.460  27.123  1.00  0.00     0.012 A 
ATOM     42  C   UNL A   1      47.454  28.941  29.485  1.00  0.00     0.148 A 
ATOM     43  C   UNL A   1      48.516  29.144  26.890  1.00  0.00     0.002 A 
ATOM     44  C   UNL A   1      48.797  28.662  29.251  1.00  0.00     0.091 A 
ATOM     45  F   UNL A   1      46.912  28.836  30.707  1.00  0.00    -0.205 F 
ATOM     46  C   UNL A   1      49.327  28.759  27.954  1.00  0.00     0.022 A 
BRANCH  44  47
ATOM     47  S   UNL A   1      49.945  28.231  30.565  1.00  0.00     0.127 S 
ATOM     48  O   UNL A   1      51.191  28.053  29.820  1.00  0.00    -0.237 OA
ATOM     49  O   UNL A   1      49.906  29.423  31.411  1.00  0.00    -0.237 OA
ATOM     50  O   UNL A   1      49.415  27.024  31.185  1.00  0.00    -0.744 OA
ENDBRANCH  44  47
ENDBRANCH  26  40
BRANCH  27  51
ATOM     51  C   UNL A   1      37.208  32.009  30.472  1.00  0.00     0.023 A 
ATOM     52  C   UNL A   1      36.737  31.770  31.776  1.00  0.00     0.012 A 
ATOM     53  C   UNL A   1      36.360  32.639  29.540  1.00  0.00     0.148 A 
ATOM     54  C   UNL A   1      35.438  32.128  32.138  1.00  0.00     0.002 A 
ATOM     55  C   UNL A   1      35.091  33.051  29.926  1.00  0.00     0.091 A 
ATOM     56  F   UNL A   1      36.816  32.840  28.296  1.00  0.00    -0.205 F 
ATOM     57  C   UNL A   1      34.619  32.780  31.218  1.00  0.00     0.022 A 
BRANCH  55  58
ATOM     58  S   UNL A   1      34.053  34.035  28.839  1.00  0.00     0.127 S 
ATOM     59  O   UNL A   1      33.561  33.031  27.902  1.00  0.00    -0.237 OA
ATOM     60  O   UNL A   1      33.047  34.563  29.763  1.00  0.00    -0.237 OA
ATOM     61  O   UNL A   1      34.940  35.051  28.288  1.00  0.00    -0.744 OA
ENDBRANCH  55  58
ENDBRANCH  27  51
BRANCH  39  62
ATOM     62  C   UNL A   1      43.357  35.275  30.870  1.00  0.00     0.023 A 
ATOM     63  C   UNL A   1      43.691  35.426  32.230  1.00  0.00     0.012 A 
ATOM     64  C   UNL A   1      43.451  36.379  30.003  1.00  0.00     0.148 A 
ATOM     65  C   UNL A   1      44.081  36.668  32.728  1.00  0.00     0.002 A 
ATOM     66  C   UNL A   1      43.885  37.604  30.498  1.00  0.00     0.091 A 
ATOM     67  F   UNL A   1      43.107  36.217  28.717  1.00  0.00    -0.205 F 
ATOM     68  C   UNL A   1      44.189  37.753  31.861  1.00  0.00     0.022 A 
BRANCH  66  69
ATOM     69  S   UNL A   1      44.137  39.031  29.436  1.00  0.00     0.127 S 
ATOM     70  O   UNL A   1      44.992  38.475  28.388  1.00  0.00    -0.237 OA
ATOM     71  O   UNL A   1      42.775  39.348  29.009  1.00  0.00    -0.237 OA
ATOM     72  O   UNL A   1      44.757  40.048  30.276  1.00  0.00    -0.744 OA
ENDBRANCH  66  69
ENDBRANCH  39  62
ENDBRANCH  13  14
ENDBRANCH   6   8
ENDBRANCH   3   4
ENDBRANCH   2   3
ENDBRANCH   1   2
BRANCH   1  73
ATOM     73  N   UNL A   1      34.261  25.832  24.221  1.00  0.00    -0.352 N 
ATOM     74  C   UNL A   1      33.642  27.055  24.146  1.00  0.00     0.253 C 
ATOM     75  H   UNL A   1      34.506  25.426  23.357  1.00  0.00     0.163 HD
ATOM     76  O   UNL A   1      33.365  27.550  23.058  1.00  0.00    -0.269 OA
BRANCH  74  77
ATOM     77  C   UNL A   1      33.288  27.774  25.386  1.00  0.00     0.063 A 
ATOM     78  C   UNL A   1      34.300  28.535  25.987  1.00  0.00     0.016 A 
ATOM     79  C   UNL A   1      31.990  27.723  25.930  1.00  0.00     0.054 A 
ATOM     80  C   UNL A   1      34.011  29.310  27.107  1.00  0.00     0.001 A 
ATOM     81  C   UNL A   1      31.713  28.559  27.021  1.00  0.00     0.027 A 
ATOM     82  C   UNL A   1      32.714  29.337  27.610  1.00  0.00     0.002 A 
BRANCH  79  83
ATOM     83  N   UNL A   1      30.996  26.899  25.381  1.00  0.00    -0.323 N 
ATOM     84  H   UNL A   1      30.311  27.373  24.856  1.00  0.00     0.170 HD
BRANCH  83  85
ATOM     85  C   UNL A   1      30.826  25.524  25.459  1.00  0.00     0.233 A 
ATOM     86  N   UNL A   1      30.121  25.000  26.448  1.00  0.00    -0.182 NA
ATOM     87  N   UNL A   1      31.393  24.812  24.492  1.00  0.00    -0.176 NA
ATOM     88  C   UNL A   1      30.004  23.686  26.379  1.00  0.00     0.228 A 
ATOM     89  C   UNL A   1      31.288  23.491  24.586  1.00  0.00     0.233 A 
ATOM     90  Cl  UNL A   1      29.085  22.947  27.614  1.00  0.00    -0.041 Cl
ATOM     91  N   UNL A   1      30.568  22.872  25.505  1.00  0.00    -0.182 NA
BRANCH  89  92
ATOM     92  N   UNL A   1      32.118  22.770  23.730  1.00  0.00    -0.324 N 
ATOM     93  H   UNL A   1      32.435  23.250  22.931  1.00  0.00     0.170 HD
BRANCH  92  94
ATOM     94  C   UNL A   1      32.556  21.452  23.866  1.00  0.00     0.041 A 
ATOM     95  C   UNL A   1      33.387  21.107  24.937  1.00  0.00     0.028 A 
ATOM     96  C   UNL A   1      32.098  20.439  23.024  1.00  0.00     0.028 A 
ATOM     97  C   UNL A   1      33.740  19.774  25.170  1.00  0.00     0.028 A 
ATOM     98  C   UNL A   1      32.496  19.114  23.218  1.00  0.00     0.028 A 
ATOM     99  C   UNL A   1      33.305  18.765  24.304  1.00  0.00     0.044 A 
BRANCH  99 100
ATOM    100  N   UNL A   1      33.634  17.401  24.556  1.00  0.00    -0.308 N 
ATOM    101  C   UNL A   1      35.053  17.035  24.467  1.00  0.00     0.154 C 
ATOM    102  C   UNL A   1      32.716  16.543  25.171  1.00  0.00     0.253 C 
ATOM    103  C   UNL A   1      35.282  15.530  24.455  1.00  0.00     0.183 C 
ATOM    104  C   UNL A   1      33.245  15.139  25.512  1.00  0.00     0.260 C 
ATOM    105  O   UNL A   1      31.525  16.802  25.350  1.00  0.00    -0.272 OA
ATOM    106  O   UNL A   1      34.649  14.945  25.589  1.00  0.00    -0.370 OA
ENDBRANCH  99 100
ENDBRANCH  92  94
ENDBRANCH  89  92
ENDBRANCH  83  85
ENDBRANCH  79  83
ENDBRANCH  74  77
ENDBRANCH   1  73
TORSDOF 18
ENDMDL
