MODEL 1
REMARK VINA RESULT:     -13.5      0.000      0.000
REMARK SMILES Cc1cc(NC(=O)/C=C/c2ccco2)cc(C(=O)NCCCNC(=O)c2ccc(-c3c4nc(c(-c5cccc(S(=O)(=O)[O-])c5F)c5ccc([nH]5)c(-c5cccc(S(=O)(=O)[O-])c5F)c5nc(c(-c6cccc(S(=O)(=O)[O-])c6F)c6ccc3[nH]6)C=C5)C=C4)cc2)c1O
REMARK SMILES IDX 21 1 20 2 19 3 17 4 18 5 16 7 1 8 2 9 3 10 89 11 4 12 15 13
REMARK SMILES IDX 90 14 5 16 6 17 7 19 8 20 9 21 10 22 11 23 14 24 12 25 13 26
REMARK SMILES IDX 22 27 23 28 24 29 25 31 26 32 27 33 88 34 28 35 87 36 29 37
REMARK SMILES IDX 30 38 31 39 81 40 32 41 86 42 80 43 82 44 33 45 85 46 79 47
REMARK SMILES IDX 78 48 34 50 66 51 46 52 65 53 47 54 50 55 64 56 83 57 48 58
REMARK SMILES IDX 49 59 63 61 84 62 51 63 35 64 36 65 44 66 37 67 39 68 45 69
REMARK SMILES IDX 38 70 40 71 41 72 42 73 43 74 67 75 68 76 76 77 69 78 71 79
REMARK SMILES IDX 77 80 70 81 72 82 73 83 74 84 75 85 52 86 53 87 61 88 54 89
REMARK SMILES IDX 56 90 62 91 55 92 57 93 58 94 59 95 60 96
REMARK H PARENT 19 6 90 15 5 18 23 30 82 49 50 60
REMARK Flexibility Score: inf
ROOT
ATOM      1  C   UNL A   1      31.836  27.846  25.818  1.00  0.00     0.042 C 
ENDROOT
BRANCH   1   2
ATOM      2  C   UNL A   1      32.276  26.516  26.401  1.00  0.00     0.118 C 
BRANCH   2   3
ATOM      3  N   UNL A   1      31.238  25.605  26.846  1.00  0.00    -0.352 N 
ATOM      4  C   UNL A   1      31.028  24.281  26.485  1.00  0.00     0.255 C 
ATOM      5  O   UNL A   1      30.226  23.621  27.143  1.00  0.00    -0.269 OA
ATOM      6  H   UNL A   1      30.594  25.977  27.492  1.00  0.00     0.163 HD
BRANCH   4   7
ATOM      7  C   UNL A   1      31.750  23.665  25.322  1.00  0.00     0.083 A 
ATOM      8  C   UNL A   1      32.482  20.237  23.783  1.00  0.00     0.048 C 
ATOM      9  C   UNL A   1      32.384  21.720  23.997  1.00  0.00    -0.006 A 
ATOM     10  C   UNL A   1      32.889  22.583  23.007  1.00  0.00     0.033 A 
ATOM     11  C   UNL A   1      31.791  22.276  25.146  1.00  0.00     0.131 A 
ATOM     12  C   UNL A   1      32.904  23.967  23.185  1.00  0.00     0.042 A 
ATOM     13  C   UNL A   1      32.398  24.477  24.380  1.00  0.00     0.044 A 
BRANCH  11  14
ATOM     14  O   UNL A   1      31.208  21.463  26.077  1.00  0.00    -0.507 OA
ATOM     15  H   UNL A   1      30.940  21.813  26.904  1.00  0.00     0.293 HD
ENDBRANCH  11  14
BRANCH  12  16
ATOM     16  N   UNL A   1      33.330  24.755  22.091  1.00  0.00    -0.322 N 
ATOM     17  C   UNL A   1      32.665  25.619  21.259  1.00  0.00     0.248 C 
ATOM     18  H   UNL A   1      34.289  24.667  21.887  1.00  0.00     0.170 HD
ATOM     19  O   UNL A   1      33.156  25.996  20.201  1.00  0.00    -0.270 OA
BRANCH  17  20
ATOM     20  C   UNL A   1      31.405  26.185  21.753  1.00  0.00     0.075 C 
ATOM     21  C   UNL A   1      31.384  27.387  22.344  1.00  0.00     0.053 C 
BRANCH  21  22
ATOM     22  C   UNL A   1      30.138  28.068  22.410  1.00  0.00     0.126 A 
ATOM     23  C   UNL A   1      29.047  27.852  23.237  1.00  0.00     0.050 A 
ATOM     24  O   UNL A   1      29.883  29.221  21.692  1.00  0.00    -0.465 OA
ATOM     25  C   UNL A   1      28.145  28.932  23.060  1.00  0.00     0.042 A 
ATOM     26  C   UNL A   1      28.707  29.741  22.109  1.00  0.00     0.195 A 
ENDBRANCH  21  22
ENDBRANCH  17  20
ENDBRANCH  12  16
ENDBRANCH   4   7
ENDBRANCH   2   3
ENDBRANCH   1   2
BRANCH   1  27
ATOM     27  C   UNL A   1      32.858  28.975  25.810  1.00  0.00     0.118 C 
BRANCH  27  28
ATOM     28  N   UNL A   1      32.400  30.254  26.348  1.00  0.00    -0.352 N 
ATOM     29  C   UNL A   1      33.043  31.212  27.105  1.00  0.00     0.251 C 
ATOM     30  H   UNL A   1      31.464  30.471  26.132  1.00  0.00     0.163 HD
ATOM     31  O   UNL A   1      32.456  32.248  27.416  1.00  0.00    -0.269 OA
BRANCH  29  32
ATOM     32  C   UNL A   1      34.420  31.008  27.593  1.00  0.00     0.039 A 
ATOM     33  C   UNL A   1      35.300  32.098  27.643  1.00  0.00     0.014 A 
ATOM     34  C   UNL A   1      34.848  29.750  28.002  1.00  0.00     0.014 A 
ATOM     35  C   UNL A   1      36.568  31.945  28.212  1.00  0.00     0.010 A 
ATOM     36  C   UNL A   1      36.057  29.624  28.667  1.00  0.00     0.010 A 
ATOM     37  C   UNL A   1      36.928  30.718  28.786  1.00  0.00    -0.014 A 
BRANCH  37  38
ATOM     38  C   UNL A   1      38.189  30.511  29.541  1.00  0.00     0.031 A 
ATOM     39  C   UNL A   1      39.221  29.567  28.988  1.00  0.00     0.074 A 
ATOM     40  C   UNL A   1      38.297  30.996  30.794  1.00  0.00     0.049 A 
ATOM     41  N   UNL A   1      40.231  28.997  29.589  1.00  0.00    -0.248 NA
ATOM     42  C   UNL A   1      39.048  29.154  27.583  1.00  0.00     0.031 C 
ATOM     43  C   UNL A   1      37.312  31.849  31.464  1.00  0.00     0.029 A 
ATOM     44  N   UNL A   1      39.256  30.788  31.754  1.00  0.00    -0.354 N 
ATOM     45  C   UNL A   1      40.759  28.100  28.669  1.00  0.00     0.074 A 
ATOM     46  C   UNL A   1      39.946  28.186  27.475  1.00  0.00     0.031 C 
ATOM     47  C   UNL A   1      37.708  32.079  32.725  1.00  0.00     0.029 A 
ATOM     48  C   UNL A   1      38.951  31.358  32.969  1.00  0.00     0.049 A 
ATOM     49  H   UNL A   1      40.084  30.280  31.588  1.00  0.00     0.167 HD
ATOM     50  C   UNL A   1      41.836  27.291  28.801  1.00  0.00     0.034 A 
ATOM     51  C   UNL A   1      39.593  31.289  34.152  1.00  0.00     0.034 A 
ATOM     52  C   UNL A   1      42.683  27.290  29.962  1.00  0.00     0.049 A 
ATOM     53  C   UNL A   1      40.864  30.488  34.231  1.00  0.00     0.074 A 
ATOM     54  C   UNL A   1      43.869  26.609  30.167  1.00  0.00     0.029 A 
ATOM     55  N   UNL A   1      42.438  28.027  31.113  1.00  0.00    -0.354 N 
ATOM     56  N   UNL A   1      41.429  29.749  33.306  1.00  0.00    -0.248 NA
ATOM     57  C   UNL A   1      41.608  30.540  35.496  1.00  0.00     0.031 C 
ATOM     58  C   UNL A   1      44.342  26.936  31.442  1.00  0.00     0.029 A 
ATOM     59  C   UNL A   1      43.456  27.829  32.027  1.00  0.00     0.049 A 
ATOM     60  H   UNL A   1      41.655  28.605  31.258  1.00  0.00     0.167 HD
ATOM     61  C   UNL A   1      42.609  29.275  33.864  1.00  0.00     0.074 A 
ATOM     62  C   UNL A   1      42.688  29.827  35.202  1.00  0.00     0.031 C 
ATOM     63  C   UNL A   1      43.536  28.444  33.328  1.00  0.00     0.034 A 
BRANCH  50  64
ATOM     64  C   UNL A   1      42.197  26.400  27.639  1.00  0.00     0.023 A 
ATOM     65  C   UNL A   1      42.988  26.911  26.589  1.00  0.00     0.012 A 
ATOM     66  C   UNL A   1      41.786  25.052  27.596  1.00  0.00     0.148 A 
ATOM     67  C   UNL A   1      43.324  26.115  25.495  1.00  0.00     0.002 A 
ATOM     68  C   UNL A   1      42.165  24.250  26.525  1.00  0.00     0.091 A 
ATOM     69  F   UNL A   1      41.020  24.584  28.592  1.00  0.00    -0.205 F 
ATOM     70  C   UNL A   1      42.921  24.784  25.467  1.00  0.00     0.022 A 
BRANCH  68  71
ATOM     71  S   UNL A   1      41.764  22.501  26.429  1.00  0.00     0.127 S 
ATOM     72  O   UNL A   1      40.304  22.537  26.352  1.00  0.00    -0.237 OA
ATOM     73  O   UNL A   1      42.428  22.100  25.188  1.00  0.00    -0.237 OA
ATOM     74  O   UNL A   1      42.312  21.897  27.634  1.00  0.00    -0.744 OA
ENDBRANCH  68  71
ENDBRANCH  50  64
BRANCH  51  75
ATOM     75  C   UNL A   1      39.090  32.071  35.317  1.00  0.00     0.023 A 
ATOM     76  C   UNL A   1      39.153  33.478  35.269  1.00  0.00     0.012 A 
ATOM     77  C   UNL A   1      38.493  31.451  36.433  1.00  0.00     0.148 A 
ATOM     78  C   UNL A   1      38.657  34.252  36.319  1.00  0.00     0.002 A 
ATOM     79  C   UNL A   1      37.955  32.230  37.453  1.00  0.00     0.091 A 
ATOM     80  F   UNL A   1      38.449  30.112  36.467  1.00  0.00    -0.205 F 
ATOM     81  C   UNL A   1      38.049  33.630  37.405  1.00  0.00     0.022 A 
BRANCH  79  82
ATOM     82  S   UNL A   1      37.033  31.517  38.821  1.00  0.00     0.127 S 
ATOM     83  O   UNL A   1      37.969  31.676  39.930  1.00  0.00    -0.237 OA
ATOM     84  O   UNL A   1      35.854  32.382  38.882  1.00  0.00    -0.237 OA
ATOM     85  O   UNL A   1      36.746  30.145  38.422  1.00  0.00    -0.744 OA
ENDBRANCH  79  82
ENDBRANCH  51  75
BRANCH  63  86
ATOM     86  C   UNL A   1      44.737  28.110  34.167  1.00  0.00     0.023 A 
ATOM     87  C   UNL A   1      45.923  28.853  34.012  1.00  0.00     0.012 A 
ATOM     88  C   UNL A   1      44.656  27.129  35.175  1.00  0.00     0.148 A 
ATOM     89  C   UNL A   1      47.021  28.610  34.836  1.00  0.00     0.002 A 
ATOM     90  C   UNL A   1      45.738  26.924  36.021  1.00  0.00     0.091 A 
ATOM     91  F   UNL A   1      43.523  26.420  35.289  1.00  0.00    -0.205 F 
ATOM     92  C   UNL A   1      46.923  27.657  35.848  1.00  0.00     0.022 A 
BRANCH  90  93
ATOM     93  S   UNL A   1      45.665  25.787  37.410  1.00  0.00     0.127 S 
ATOM     94  O   UNL A   1      47.057  25.778  37.860  1.00  0.00    -0.237 OA
ATOM     95  O   UNL A   1      44.735  26.462  38.316  1.00  0.00    -0.237 OA
ATOM     96  O   UNL A   1      45.172  24.527  36.870  1.00  0.00    -0.744 OA
ENDBRANCH  90  93
ENDBRANCH  63  86
ENDBRANCH  37  38
ENDBRANCH  29  32
ENDBRANCH  27  28
ENDBRANCH   1  27
TORSDOF 17
ENDMDL
MODEL 2
REMARK VINA RESULT:     -13.3      1.782      3.534
REMARK SMILES Cc1cc(NC(=O)/C=C/c2ccco2)cc(C(=O)NCCCNC(=O)c2ccc(-c3c4nc(c(-c5cccc(S(=O)(=O)[O-])c5F)c5ccc([nH]5)c(-c5cccc(S(=O)(=O)[O-])c5F)c5nc(c(-c6cccc(S(=O)(=O)[O-])c6F)c6ccc3[nH]6)C=C5)C=C4)cc2)c1O
REMARK SMILES IDX 21 1 20 2 19 3 17 4 18 5 16 7 1 8 2 9 3 10 89 11 4 12 15 13
REMARK SMILES IDX 90 14 5 16 6 17 7 19 8 20 9 21 10 22 11 23 14 24 12 25 13 26
REMARK SMILES IDX 22 27 23 28 24 29 25 31 26 32 27 33 88 34 28 35 87 36 29 37
REMARK SMILES IDX 30 38 31 39 81 40 32 41 86 42 80 43 82 44 33 45 85 46 79 47
REMARK SMILES IDX 78 48 34 50 66 51 46 52 65 53 47 54 50 55 64 56 83 57 48 58
REMARK SMILES IDX 49 59 63 61 84 62 51 63 35 64 36 65 44 66 37 67 39 68 45 69
REMARK SMILES IDX 38 70 40 71 41 72 42 73 43 74 67 75 68 76 76 77 69 78 71 79
REMARK SMILES IDX 77 80 70 81 72 82 73 83 74 84 75 85 52 86 53 87 61 88 54 89
REMARK SMILES IDX 56 90 62 91 55 92 57 93 58 94 59 95 60 96
REMARK H PARENT 19 6 90 15 5 18 23 30 82 49 50 60
REMARK Flexibility Score: inf
ROOT
ATOM      1  C   UNL A   1      33.910  29.263  24.191  1.00  0.00     0.042 C 
ENDROOT
BRANCH   1   2
ATOM      2  C   UNL A   1      33.582  28.519  22.909  1.00  0.00     0.118 C 
BRANCH   2   3
ATOM      3  N   UNL A   1      32.276  28.747  22.319  1.00  0.00    -0.352 N 
ATOM      4  C   UNL A   1      31.167  27.914  22.313  1.00  0.00     0.255 C 
ATOM      5  O   UNL A   1      30.090  28.385  21.952  1.00  0.00    -0.269 OA
ATOM      6  H   UNL A   1      32.163  29.611  21.860  1.00  0.00     0.163 HD
BRANCH   4   7
ATOM      7  C   UNL A   1      31.268  26.475  22.728  1.00  0.00     0.083 A 
ATOM      8  C   UNL A   1      33.150  23.266  21.821  1.00  0.00     0.048 C 
ATOM      9  C   UNL A   1      32.277  24.266  22.525  1.00  0.00    -0.006 A 
ATOM     10  C   UNL A   1      31.607  23.872  23.698  1.00  0.00     0.033 A 
ATOM     11  C   UNL A   1      32.118  25.584  22.060  1.00  0.00     0.131 A 
ATOM     12  C   UNL A   1      30.716  24.727  24.349  1.00  0.00     0.042 A 
ATOM     13  C   UNL A   1      30.508  25.992  23.804  1.00  0.00     0.044 A 
BRANCH  11  14
ATOM     14  O   UNL A   1      32.832  26.019  20.978  1.00  0.00    -0.507 OA
ATOM     15  H   UNL A   1      33.385  26.772  21.053  1.00  0.00     0.293 HD
ENDBRANCH  11  14
BRANCH  12  16
ATOM     16  N   UNL A   1      30.177  24.282  25.579  1.00  0.00    -0.322 N 
ATOM     17  C   UNL A   1      30.725  23.606  26.638  1.00  0.00     0.248 C 
ATOM     18  H   UNL A   1      29.225  24.501  25.698  1.00  0.00     0.170 HD
ATOM     19  O   UNL A   1      30.024  23.075  27.493  1.00  0.00    -0.270 OA
BRANCH  17  20
ATOM     20  C   UNL A   1      32.184  23.663  26.786  1.00  0.00     0.075 C 
ATOM     21  C   UNL A   1      32.928  22.560  26.624  1.00  0.00     0.053 C 
BRANCH  21  22
ATOM     22  C   UNL A   1      34.313  22.733  26.351  1.00  0.00     0.126 A 
ATOM     23  C   UNL A   1      35.313  21.790  26.188  1.00  0.00     0.050 A 
ATOM     24  O   UNL A   1      34.860  23.966  26.050  1.00  0.00    -0.465 OA
ATOM     25  C   UNL A   1      36.472  22.459  25.718  1.00  0.00     0.042 A 
ATOM     26  C   UNL A   1      36.138  23.785  25.646  1.00  0.00     0.195 A 
ENDBRANCH  21  22
ENDBRANCH  17  20
ENDBRANCH  12  16
ENDBRANCH   4   7
ENDBRANCH   2   3
ENDBRANCH   1   2
BRANCH   1  27
ATOM     27  C   UNL A   1      33.063  28.946  25.416  1.00  0.00     0.118 C 
BRANCH  27  28
ATOM     28  N   UNL A   1      32.504  30.098  26.120  1.00  0.00    -0.352 N 
ATOM     29  C   UNL A   1      33.066  30.990  27.011  1.00  0.00     0.251 C 
ATOM     30  H   UNL A   1      31.554  30.270  25.922  1.00  0.00     0.163 HD
ATOM     31  O   UNL A   1      32.398  31.924  27.453  1.00  0.00    -0.269 OA
BRANCH  29  32
ATOM     32  C   UNL A   1      34.454  30.828  27.486  1.00  0.00     0.039 A 
ATOM     33  C   UNL A   1      35.267  31.960  27.633  1.00  0.00     0.014 A 
ATOM     34  C   UNL A   1      34.956  29.567  27.787  1.00  0.00     0.014 A 
ATOM     35  C   UNL A   1      36.542  31.835  28.192  1.00  0.00     0.010 A 
ATOM     36  C   UNL A   1      36.171  29.457  28.443  1.00  0.00     0.010 A 
ATOM     37  C   UNL A   1      36.975  30.587  28.660  1.00  0.00    -0.014 A 
BRANCH  37  38
ATOM     38  C   UNL A   1      38.247  30.392  29.399  1.00  0.00     0.031 A 
ATOM     39  C   UNL A   1      39.268  29.434  28.850  1.00  0.00     0.074 A 
ATOM     40  C   UNL A   1      38.375  30.901  30.641  1.00  0.00     0.049 A 
ATOM     41  N   UNL A   1      40.286  28.874  29.447  1.00  0.00    -0.248 NA
ATOM     42  C   UNL A   1      39.073  28.994  27.456  1.00  0.00     0.031 C 
ATOM     43  C   UNL A   1      37.402  31.770  31.309  1.00  0.00     0.029 A 
ATOM     44  N   UNL A   1      39.348  30.710  31.590  1.00  0.00    -0.354 N 
ATOM     45  C   UNL A   1      40.798  27.957  28.537  1.00  0.00     0.074 A 
ATOM     46  C   UNL A   1      39.967  28.021  27.354  1.00  0.00     0.031 C 
ATOM     47  C   UNL A   1      37.818  32.024  32.559  1.00  0.00     0.029 A 
ATOM     48  C   UNL A   1      39.063  31.305  32.798  1.00  0.00     0.049 A 
ATOM     49  H   UNL A   1      40.173  30.197  31.422  1.00  0.00     0.167 HD
ATOM     50  C   UNL A   1      41.876  27.148  28.669  1.00  0.00     0.034 A 
ATOM     51  C   UNL A   1      39.723  31.258  33.972  1.00  0.00     0.034 A 
ATOM     52  C   UNL A   1      42.739  27.169  29.817  1.00  0.00     0.049 A 
ATOM     53  C   UNL A   1      40.993  30.456  34.048  1.00  0.00     0.074 A 
ATOM     54  C   UNL A   1      43.927  26.489  30.018  1.00  0.00     0.029 A 
ATOM     55  N   UNL A   1      42.514  27.929  30.957  1.00  0.00    -0.354 N 
ATOM     56  N   UNL A   1      41.542  29.697  33.130  1.00  0.00    -0.248 NA
ATOM     57  C   UNL A   1      41.756  30.531  35.301  1.00  0.00     0.031 C 
ATOM     58  C   UNL A   1      44.420  26.840  31.279  1.00  0.00     0.029 A 
ATOM     59  C   UNL A   1      43.545  27.747  31.859  1.00  0.00     0.049 A 
ATOM     60  H   UNL A   1      41.734  28.511  31.102  1.00  0.00     0.167 HD
ATOM     61  C   UNL A   1      42.729  29.231  33.679  1.00  0.00     0.074 A 
ATOM     62  C   UNL A   1      42.830  29.810  35.004  1.00  0.00     0.031 C 
ATOM     63  C   UNL A   1      43.646  28.387  33.146  1.00  0.00     0.034 A 
BRANCH  50  64
ATOM     64  C   UNL A   1      42.216  26.234  27.520  1.00  0.00     0.023 A 
ATOM     65  C   UNL A   1      42.957  26.733  26.429  1.00  0.00     0.012 A 
ATOM     66  C   UNL A   1      41.837  24.876  27.529  1.00  0.00     0.148 A 
ATOM     67  C   UNL A   1      43.274  25.914  25.346  1.00  0.00     0.002 A 
ATOM     68  C   UNL A   1      42.197  24.053  26.467  1.00  0.00     0.091 A 
ATOM     69  F   UNL A   1      41.117  24.418  28.563  1.00  0.00    -0.205 F 
ATOM     70  C   UNL A   1      42.902  24.574  25.369  1.00  0.00     0.022 A 
BRANCH  68  71
ATOM     71  S   UNL A   1      41.834  22.293  26.433  1.00  0.00     0.127 S 
ATOM     72  O   UNL A   1      40.378  22.294  26.299  1.00  0.00    -0.237 OA
ATOM     73  O   UNL A   1      42.555  21.853  25.238  1.00  0.00    -0.237 OA
ATOM     74  O   UNL A   1      42.347  21.754  27.684  1.00  0.00    -0.744 OA
ENDBRANCH  68  71
ENDBRANCH  50  64
BRANCH  51  75
ATOM     75  C   UNL A   1      39.239  32.065  35.129  1.00  0.00     0.023 A 
ATOM     76  C   UNL A   1      38.344  31.475  36.043  1.00  0.00     0.012 A 
ATOM     77  C   UNL A   1      39.699  33.374  35.371  1.00  0.00     0.148 A 
ATOM     78  C   UNL A   1      37.896  32.179  37.161  1.00  0.00     0.002 A 
ATOM     79  C   UNL A   1      39.288  34.053  36.516  1.00  0.00     0.091 A 
ATOM     80  F   UNL A   1      40.542  33.926  34.488  1.00  0.00    -0.205 F 
ATOM     81  C   UNL A   1      38.375  33.462  37.404  1.00  0.00     0.022 A 
BRANCH  79  82
ATOM     82  S   UNL A   1      39.961  35.654  36.976  1.00  0.00     0.127 S 
ATOM     83  O   UNL A   1      39.250  35.933  38.221  1.00  0.00    -0.237 OA
ATOM     84  O   UNL A   1      41.385  35.355  37.135  1.00  0.00    -0.237 OA
ATOM     85  O   UNL A   1      39.659  36.539  35.858  1.00  0.00    -0.744 OA
ENDBRANCH  79  82
ENDBRANCH  51  75
BRANCH  63  86
ATOM     86  C   UNL A   1      44.859  28.067  33.973  1.00  0.00     0.023 A 
ATOM     87  C   UNL A   1      45.996  28.894  33.891  1.00  0.00     0.012 A 
ATOM     88  C   UNL A   1      44.833  27.008  34.902  1.00  0.00     0.148 A 
ATOM     89  C   UNL A   1      47.100  28.659  34.709  1.00  0.00     0.002 A 
ATOM     90  C   UNL A   1      45.919  26.808  35.744  1.00  0.00     0.091 A 
ATOM     91  F   UNL A   1      43.747  26.222  34.946  1.00  0.00    -0.205 F 
ATOM     92  C   UNL A   1      47.055  27.626  35.644  1.00  0.00     0.022 A 
BRANCH  90  93
ATOM     93  S   UNL A   1      45.908  25.565  37.041  1.00  0.00     0.127 S 
ATOM     94  O   UNL A   1      45.828  24.328  36.267  1.00  0.00    -0.237 OA
ATOM     95  O   UNL A   1      47.194  25.791  37.701  1.00  0.00    -0.237 OA
ATOM     96  O   UNL A   1      44.747  25.862  37.870  1.00  0.00    -0.744 OA
ENDBRANCH  90  93
ENDBRANCH  63  86
ENDBRANCH  37  38
ENDBRANCH  29  32
ENDBRANCH  27  28
ENDBRANCH   1  27
TORSDOF 17
ENDMDL
MODEL 3
REMARK VINA RESULT:     -13.1      5.317      9.742
REMARK SMILES Cc1cc(NC(=O)/C=C/c2ccco2)cc(C(=O)NCCCNC(=O)c2ccc(-c3c4nc(c(-c5cccc(S(=O)(=O)[O-])c5F)c5ccc([nH]5)c(-c5cccc(S(=O)(=O)[O-])c5F)c5nc(c(-c6cccc(S(=O)(=O)[O-])c6F)c6ccc3[nH]6)C=C5)C=C4)cc2)c1O
REMARK SMILES IDX 21 1 20 2 19 3 17 4 18 5 16 7 1 8 2 9 3 10 89 11 4 12 15 13
REMARK SMILES IDX 90 14 5 16 6 17 7 19 8 20 9 21 10 22 11 23 14 24 12 25 13 26
REMARK SMILES IDX 22 27 23 28 24 29 25 31 26 32 27 33 88 34 28 35 87 36 29 37
REMARK SMILES IDX 30 38 31 39 81 40 32 41 86 42 80 43 82 44 33 45 85 46 79 47
REMARK SMILES IDX 78 48 34 50 66 51 46 52 65 53 47 54 50 55 64 56 83 57 48 58
REMARK SMILES IDX 49 59 63 61 84 62 51 63 35 64 36 65 44 66 37 67 39 68 45 69
REMARK SMILES IDX 38 70 40 71 41 72 42 73 43 74 67 75 68 76 76 77 69 78 71 79
REMARK SMILES IDX 77 80 70 81 72 82 73 83 74 84 75 85 52 86 53 87 61 88 54 89
REMARK SMILES IDX 56 90 62 91 55 92 57 93 58 94 59 95 60 96
REMARK H PARENT 19 6 90 15 5 18 23 30 82 49 50 60
REMARK Flexibility Score: inf
ROOT
ATOM      1  C   UNL A   1      35.656  22.848  25.344  1.00  0.00     0.042 C 
ENDROOT
BRANCH   1   2
ATOM      2  C   UNL A   1      35.222  21.760  26.309  1.00  0.00     0.118 C 
BRANCH   2   3
ATOM      3  N   UNL A   1      34.590  20.581  25.748  1.00  0.00    -0.352 N 
ATOM      4  C   UNL A   1      33.578  20.504  24.802  1.00  0.00     0.255 C 
ATOM      5  O   UNL A   1      33.337  19.408  24.298  1.00  0.00    -0.269 OA
ATOM      6  H   UNL A   1      34.926  19.718  26.084  1.00  0.00     0.163 HD
BRANCH   4   7
ATOM      7  C   UNL A   1      32.786  21.715  24.403  1.00  0.00     0.083 A 
ATOM      8  C   UNL A   1      30.308  24.237  25.870  1.00  0.00     0.048 C 
ATOM      9  C   UNL A   1      31.268  23.542  24.948  1.00  0.00    -0.006 A 
ATOM     10  C   UNL A   1      31.531  24.112  23.689  1.00  0.00     0.033 A 
ATOM     11  C   UNL A   1      31.924  22.350  25.306  1.00  0.00     0.131 A 
ATOM     12  C   UNL A   1      32.347  23.471  22.756  1.00  0.00     0.042 A 
ATOM     13  C   UNL A   1      32.901  22.241  23.108  1.00  0.00     0.044 A 
BRANCH  11  14
ATOM     14  O   UNL A   1      31.759  21.827  26.559  1.00  0.00    -0.507 OA
ATOM     15  H   UNL A   1      31.393  20.971  26.665  1.00  0.00     0.293 HD
ENDBRANCH  11  14
BRANCH  12  16
ATOM     16  N   UNL A   1      32.640  24.173  21.563  1.00  0.00    -0.322 N 
ATOM     17  C   UNL A   1      32.948  25.486  21.316  1.00  0.00     0.248 C 
ATOM     18  H   UNL A   1      32.621  23.611  20.756  1.00  0.00     0.170 HD
ATOM     19  O   UNL A   1      32.902  25.953  20.183  1.00  0.00    -0.270 OA
BRANCH  17  20
ATOM     20  C   UNL A   1      33.473  26.274  22.438  1.00  0.00     0.075 C 
ATOM     21  C   UNL A   1      32.835  27.377  22.851  1.00  0.00     0.053 C 
BRANCH  21  22
ATOM     22  C   UNL A   1      33.116  27.848  24.163  1.00  0.00     0.126 A 
ATOM     23  C   UNL A   1      33.654  27.183  25.252  1.00  0.00     0.050 A 
ATOM     24  O   UNL A   1      33.009  29.181  24.510  1.00  0.00    -0.465 OA
ATOM     25  C   UNL A   1      33.936  28.145  26.255  1.00  0.00     0.042 A 
ATOM     26  C   UNL A   1      33.528  29.350  25.748  1.00  0.00     0.195 A 
ENDBRANCH  21  22
ENDBRANCH  17  20
ENDBRANCH  12  16
ENDBRANCH   4   7
ENDBRANCH   2   3
ENDBRANCH   1   2
BRANCH   1  27
ATOM     27  C   UNL A   1      36.941  22.612  24.561  1.00  0.00     0.118 C 
BRANCH  27  28
ATOM     28  N   UNL A   1      37.732  21.452  24.967  1.00  0.00    -0.352 N 
ATOM     29  C   UNL A   1      38.799  21.329  25.834  1.00  0.00     0.251 C 
ATOM     30  H   UNL A   1      37.453  20.606  24.547  1.00  0.00     0.163 HD
ATOM     31  O   UNL A   1      39.290  20.222  26.054  1.00  0.00    -0.269 OA
BRANCH  29  32
ATOM     32  C   UNL A   1      39.402  22.509  26.482  1.00  0.00     0.039 A 
ATOM     33  C   UNL A   1      40.386  22.327  27.463  1.00  0.00     0.014 A 
ATOM     34  C   UNL A   1      39.003  23.793  26.127  1.00  0.00     0.014 A 
ATOM     35  C   UNL A   1      41.048  23.435  28.000  1.00  0.00     0.010 A 
ATOM     36  C   UNL A   1      39.734  24.881  26.573  1.00  0.00     0.010 A 
ATOM     37  C   UNL A   1      40.768  24.717  27.508  1.00  0.00    -0.014 A 
BRANCH  37  38
ATOM     38  C   UNL A   1      41.526  25.927  27.912  1.00  0.00     0.031 A 
ATOM     39  C   UNL A   1      40.820  27.002  28.693  1.00  0.00     0.074 A 
ATOM     40  C   UNL A   1      42.754  26.142  27.397  1.00  0.00     0.049 A 
ATOM     41  N   UNL A   1      41.162  28.247  28.887  1.00  0.00    -0.248 NA
ATOM     42  C   UNL A   1      39.514  26.640  29.274  1.00  0.00     0.031 C 
ATOM     43  C   UNL A   1      43.497  25.203  26.551  1.00  0.00     0.029 A 
ATOM     44  N   UNL A   1      43.569  27.244  27.458  1.00  0.00    -0.354 N 
ATOM     45  C   UNL A   1      40.082  28.837  29.534  1.00  0.00     0.074 A 
ATOM     46  C   UNL A   1      39.066  27.818  29.682  1.00  0.00     0.031 C 
ATOM     47  C   UNL A   1      44.647  25.774  26.161  1.00  0.00     0.029 A 
ATOM     48  C   UNL A   1      44.706  27.130  26.691  1.00  0.00     0.049 A 
ATOM     49  H   UNL A   1      43.359  28.042  27.998  1.00  0.00     0.167 HD
ATOM     50  C   UNL A   1      39.959  30.108  29.981  1.00  0.00     0.034 A 
ATOM     51  C   UNL A   1      45.677  28.028  26.429  1.00  0.00     0.034 A 
ATOM     52  C   UNL A   1      41.017  31.077  29.905  1.00  0.00     0.049 A 
ATOM     53  C   UNL A   1      45.577  29.393  27.053  1.00  0.00     0.074 A 
ATOM     54  C   UNL A   1      41.059  32.356  30.429  1.00  0.00     0.029 A 
ATOM     55  N   UNL A   1      42.236  30.861  29.275  1.00  0.00    -0.354 N 
ATOM     56  N   UNL A   1      44.608  29.895  27.780  1.00  0.00    -0.248 NA
ATOM     57  C   UNL A   1      46.714  30.301  26.856  1.00  0.00     0.031 C 
ATOM     58  C   UNL A   1      42.304  32.912  30.117  1.00  0.00     0.029 A 
ATOM     59  C   UNL A   1      43.041  31.976  29.408  1.00  0.00     0.049 A 
ATOM     60  H   UNL A   1      42.488  30.036  28.802  1.00  0.00     0.167 HD
ATOM     61  C   UNL A   1      45.030  31.163  28.157  1.00  0.00     0.074 A 
ATOM     62  C   UNL A   1      46.353  31.345  27.592  1.00  0.00     0.031 C 
ATOM     63  C   UNL A   1      44.379  32.101  28.887  1.00  0.00     0.034 A 
BRANCH  50  64
ATOM     64  C   UNL A   1      38.666  30.498  30.652  1.00  0.00     0.023 A 
ATOM     65  C   UNL A   1      38.481  30.219  32.022  1.00  0.00     0.012 A 
ATOM     66  C   UNL A   1      37.647  31.167  29.944  1.00  0.00     0.148 A 
ATOM     67  C   UNL A   1      37.291  30.554  32.665  1.00  0.00     0.002 A 
ATOM     68  C   UNL A   1      36.480  31.541  30.604  1.00  0.00     0.091 A 
ATOM     69  F   UNL A   1      37.827  31.410  28.638  1.00  0.00    -0.205 F 
ATOM     70  C   UNL A   1      36.295  31.222  31.959  1.00  0.00     0.022 A 
BRANCH  68  71
ATOM     71  S   UNL A   1      35.168  32.474  29.806  1.00  0.00     0.127 S 
ATOM     72  O   UNL A   1      34.251  32.707  30.921  1.00  0.00    -0.237 OA
ATOM     73  O   UNL A   1      35.876  33.667  29.341  1.00  0.00    -0.237 OA
ATOM     74  O   UNL A   1      34.657  31.619  28.744  1.00  0.00    -0.744 OA
ENDBRANCH  68  71
ENDBRANCH  50  64
BRANCH  51  75
ATOM     75  C   UNL A   1      46.861  27.625  25.616  1.00  0.00     0.023 A 
ATOM     76  C   UNL A   1      46.828  27.827  24.223  1.00  0.00     0.012 A 
ATOM     77  C   UNL A   1      48.033  27.112  26.206  1.00  0.00     0.148 A 
ATOM     78  C   UNL A   1      47.929  27.503  23.427  1.00  0.00     0.002 A 
ATOM     79  C   UNL A   1      49.144  26.838  25.414  1.00  0.00     0.091 A 
ATOM     80  F   UNL A   1      48.044  26.917  27.532  1.00  0.00    -0.205 F 
ATOM     81  C   UNL A   1      49.089  27.019  24.023  1.00  0.00     0.022 A 
BRANCH  79  82
ATOM     82  S   UNL A   1      50.724  26.343  26.114  1.00  0.00     0.127 S 
ATOM     83  O   UNL A   1      50.405  25.033  26.678  1.00  0.00    -0.237 OA
ATOM     84  O   UNL A   1      51.588  26.310  24.933  1.00  0.00    -0.237 OA
ATOM     85  O   UNL A   1      51.066  27.383  27.075  1.00  0.00    -0.744 OA
ENDBRANCH  79  82
ENDBRANCH  51  75
BRANCH  63  86
ATOM     86  C   UNL A   1      45.097  33.394  29.155  1.00  0.00     0.023 A 
ATOM     87  C   UNL A   1      45.916  33.512  30.294  1.00  0.00     0.012 A 
ATOM     88  C   UNL A   1      45.037  34.452  28.226  1.00  0.00     0.148 A 
ATOM     89  C   UNL A   1      46.651  34.675  30.517  1.00  0.00     0.002 A 
ATOM     90  C   UNL A   1      45.807  35.589  28.432  1.00  0.00     0.091 A 
ATOM     91  F   UNL A   1      44.233  34.323  27.160  1.00  0.00    -0.205 F 
ATOM     92  C   UNL A   1      46.607  35.706  29.580  1.00  0.00     0.022 A 
BRANCH  90  93
ATOM     93  S   UNL A   1      45.886  36.922  27.230  1.00  0.00     0.127 S 
ATOM     94  O   UNL A   1      44.487  37.339  27.156  1.00  0.00    -0.237 OA
ATOM     95  O   UNL A   1      46.775  37.881  27.886  1.00  0.00    -0.237 OA
ATOM     96  O   UNL A   1      46.430  36.332  26.015  1.00  0.00    -0.744 OA
ENDBRANCH  90  93
ENDBRANCH  63  86
ENDBRANCH  37  38
ENDBRANCH  29  32
ENDBRANCH  27  28
ENDBRANCH   1  27
TORSDOF 17
ENDMDL
