MODEL 1
REMARK VINA RESULT:     -11.9      0.000      0.000
REMARK SMILES COc1ccc2cc([C@@H](C)C(=O)NCCCNC(=O)c3ccc(-c4c5nc(c(-c6cccc(S(=O)(=O)[O-])c6F)c6ccc([nH]6)c(-c6cccc(S(=O)(=O)[O-])c6F)c6nc(c(-c7cccc(S(=O)(=O)[O-])c7F)c7ccc4[nH]7)C=C6)C=C5)cc3)ccc2c1
REMARK SMILES IDX 15 1 14 2 13 3 11 4 12 5 9 7 10 8 8 9 3 10 4 11 86 12 5 13
REMARK SMILES IDX 85 14 6 15 84 16 7 17 83 18 2 19 1 20 16 21 17 22 18 23
REMARK SMILES IDX 19 25 20 26 21 27 82 28 22 29 81 30 23 31 24 32 25 33 75 34
REMARK SMILES IDX 26 35 80 36 74 37 76 38 27 39 79 40 73 41 72 42 28 44 60 45
REMARK SMILES IDX 40 46 59 47 41 48 44 49 58 50 77 51 42 52 43 53 57 55 78 56
REMARK SMILES IDX 45 57 29 58 30 59 38 60 31 61 33 62 39 63 32 64 34 65 35 66
REMARK SMILES IDX 36 67 37 68 61 69 62 70 70 71 63 72 65 73 71 74 64 75 66 76
REMARK SMILES IDX 67 77 68 78 69 79 46 80 47 81 55 82 48 83 50 84 56 85 49 86
REMARK SMILES IDX 51 87 52 88 53 89 54 90
REMARK H PARENT 13 6 17 24 76 43 44 54
REMARK Flexibility Score: inf
ROOT
ATOM      1  C   UNL A   1      33.213  27.785  26.790  1.00  0.00     0.042 C 
ENDROOT
BRANCH   1   2
ATOM      2  C   UNL A   1      31.743  27.584  26.434  1.00  0.00     0.117 C 
BRANCH   2   3
ATOM      3  N   UNL A   1      31.250  26.281  26.836  1.00  0.00    -0.356 N 
ATOM      4  C   UNL A   1      30.790  25.216  26.125  1.00  0.00     0.227 C 
ATOM      5  O   UNL A   1      30.395  24.250  26.792  1.00  0.00    -0.274 OA
ATOM      6  H   UNL A   1      31.250  26.139  27.810  1.00  0.00     0.163 HD
BRANCH   4   7
ATOM      7  C   UNL A   1      30.759  25.145  24.590  1.00  0.00     0.105 C 
ATOM      8  C   UNL A   1      32.113  24.875  23.937  1.00  0.00     0.023 C 
BRANCH   7   9
ATOM      9  C   UNL A   1      29.924  26.238  23.942  1.00  0.00    -0.035 A 
ATOM     10  C   UNL A   1      28.208  30.542  21.823  1.00  0.00     0.119 A 
ATOM     11  C   UNL A   1      29.586  30.534  21.634  1.00  0.00     0.047 A 
ATOM     12  C   UNL A   1      27.599  29.473  22.489  1.00  0.00     0.055 A 
ATOM     13  C   UNL A   1      30.342  29.437  22.056  1.00  0.00     0.012 A 
ATOM     14  C   UNL A   1      28.350  28.381  22.952  1.00  0.00    -0.015 A 
ATOM     15  C   UNL A   1      29.735  28.348  22.706  1.00  0.00    -0.018 A 
ATOM     16  C   UNL A   1      27.762  27.329  23.669  1.00  0.00     0.009 A 
ATOM     17  C   UNL A   1      30.487  27.247  23.150  1.00  0.00     0.013 A 
ATOM     18  C   UNL A   1      28.543  26.288  24.181  1.00  0.00     0.005 A 
BRANCH  10  19
ATOM     19  O   UNL A   1      27.349  31.524  21.423  1.00  0.00    -0.497 OA
ATOM     20  C   UNL A   1      27.862  32.520  20.537  1.00  0.00     0.278 C 
ENDBRANCH  10  19
ENDBRANCH   7   9
ENDBRANCH   4   7
ENDBRANCH   2   3
ENDBRANCH   1   2
BRANCH   1  21
ATOM     21  C   UNL A   1      33.924  28.824  25.937  1.00  0.00     0.118 C 
BRANCH  21  22
ATOM     22  N   UNL A   1      33.775  30.170  26.473  1.00  0.00    -0.352 N 
ATOM     23  C   UNL A   1      34.475  30.820  27.461  1.00  0.00     0.251 C 
ATOM     24  H   UNL A   1      33.054  30.700  26.062  1.00  0.00     0.163 HD
ATOM     25  O   UNL A   1      34.028  31.876  27.904  1.00  0.00    -0.269 OA
BRANCH  23  26
ATOM     26  C   UNL A   1      35.744  30.273  27.999  1.00  0.00     0.039 A 
ATOM     27  C   UNL A   1      35.735  29.672  29.263  1.00  0.00     0.014 A 
ATOM     28  C   UNL A   1      36.951  30.399  27.308  1.00  0.00     0.014 A 
ATOM     29  C   UNL A   1      36.919  29.163  29.807  1.00  0.00     0.010 A 
ATOM     30  C   UNL A   1      38.110  29.812  27.808  1.00  0.00     0.010 A 
ATOM     31  C   UNL A   1      38.115  29.209  29.073  1.00  0.00    -0.014 A 
BRANCH  31  32
ATOM     32  C   UNL A   1      39.382  28.656  29.620  1.00  0.00     0.031 A 
ATOM     33  C   UNL A   1      40.011  29.266  30.846  1.00  0.00     0.074 A 
ATOM     34  C   UNL A   1      40.007  27.651  28.974  1.00  0.00     0.049 A 
ATOM     35  N   UNL A   1      41.133  28.953  31.443  1.00  0.00    -0.248 NA
ATOM     36  C   UNL A   1      39.302  30.397  31.467  1.00  0.00     0.031 C 
ATOM     37  C   UNL A   1      39.542  27.022  27.738  1.00  0.00     0.029 A 
ATOM     38  N   UNL A   1      41.179  26.996  29.259  1.00  0.00    -0.354 N 
ATOM     39  C   UNL A   1      41.282  29.867  32.480  1.00  0.00     0.074 A 
ATOM     40  C   UNL A   1      40.158  30.773  32.405  1.00  0.00     0.031 C 
ATOM     41  C   UNL A   1      40.407  26.060  27.380  1.00  0.00     0.029 A 
ATOM     42  C   UNL A   1      41.504  26.023  28.343  1.00  0.00     0.049 A 
ATOM     43  H   UNL A   1      41.736  27.204  30.045  1.00  0.00     0.167 HD
ATOM     44  C   UNL A   1      42.243  29.927  33.433  1.00  0.00     0.034 A 
ATOM     45  C   UNL A   1      42.564  25.194  28.287  1.00  0.00     0.034 A 
ATOM     46  C   UNL A   1      43.331  28.994  33.535  1.00  0.00     0.049 A 
ATOM     47  C   UNL A   1      43.604  25.259  29.373  1.00  0.00     0.074 A 
ATOM     48  C   UNL A   1      44.309  28.914  34.511  1.00  0.00     0.029 A 
ATOM     49  N   UNL A   1      43.589  27.978  32.628  1.00  0.00    -0.354 N 
ATOM     50  N   UNL A   1      43.645  26.032  30.430  1.00  0.00    -0.248 NA
ATOM     51  C   UNL A   1      44.726  24.313  29.275  1.00  0.00     0.031 C 
ATOM     52  C   UNL A   1      45.167  27.858  34.184  1.00  0.00     0.029 A 
ATOM     53  C   UNL A   1      44.712  27.267  33.016  1.00  0.00     0.049 A 
ATOM     54  H   UNL A   1      43.051  27.789  31.825  1.00  0.00     0.167 HD
ATOM     55  C   UNL A   1      44.773  25.642  31.144  1.00  0.00     0.074 A 
ATOM     56  C   UNL A   1      45.377  24.551  30.406  1.00  0.00     0.031 C 
ATOM     57  C   UNL A   1      45.270  26.149  32.299  1.00  0.00     0.034 A 
BRANCH  44  58
ATOM     58  C   UNL A   1      42.119  31.008  34.478  1.00  0.00     0.023 A 
ATOM     59  C   UNL A   1      41.426  30.734  35.677  1.00  0.00     0.012 A 
ATOM     60  C   UNL A   1      42.704  32.275  34.295  1.00  0.00     0.148 A 
ATOM     61  C   UNL A   1      41.278  31.718  36.654  1.00  0.00     0.002 A 
ATOM     62  C   UNL A   1      42.592  33.236  35.295  1.00  0.00     0.091 A 
ATOM     63  F   UNL A   1      43.340  32.528  33.143  1.00  0.00    -0.205 F 
ATOM     64  C   UNL A   1      41.867  32.964  36.467  1.00  0.00     0.022 A 
BRANCH  62  65
ATOM     65  S   UNL A   1      43.385  34.844  35.181  1.00  0.00     0.127 S 
ATOM     66  O   UNL A   1      42.812  35.538  36.332  1.00  0.00    -0.237 OA
ATOM     67  O   UNL A   1      44.802  34.503  35.319  1.00  0.00    -0.237 OA
ATOM     68  O   UNL A   1      43.017  35.377  33.876  1.00  0.00    -0.744 OA
ENDBRANCH  62  65
ENDBRANCH  44  58
BRANCH  45  69
ATOM     69  C   UNL A   1      42.649  24.171  27.206  1.00  0.00     0.023 A 
ATOM     70  C   UNL A   1      43.378  24.467  26.037  1.00  0.00     0.012 A 
ATOM     71  C   UNL A   1      42.053  22.904  27.342  1.00  0.00     0.148 A 
ATOM     72  C   UNL A   1      43.488  23.529  25.011  1.00  0.00     0.002 A 
ATOM     73  C   UNL A   1      42.208  21.956  26.336  1.00  0.00     0.091 A 
ATOM     74  F   UNL A   1      41.384  22.635  28.472  1.00  0.00    -0.205 F 
ATOM     75  C   UNL A   1      42.907  22.273  25.161  1.00  0.00     0.022 A 
BRANCH  73  76
ATOM     76  S   UNL A   1      41.592  20.278  26.488  1.00  0.00     0.127 S 
ATOM     77  O   UNL A   1      42.189  19.844  27.749  1.00  0.00    -0.237 OA
ATOM     78  O   UNL A   1      40.147  20.497  26.529  1.00  0.00    -0.237 OA
ATOM     79  O   UNL A   1      42.070  19.573  25.307  1.00  0.00    -0.744 OA
ENDBRANCH  73  76
ENDBRANCH  45  69
BRANCH  57  80
ATOM     80  C   UNL A   1      46.513  25.510  32.863  1.00  0.00     0.023 A 
ATOM     81  C   UNL A   1      47.778  26.048  32.557  1.00  0.00     0.012 A 
ATOM     82  C   UNL A   1      46.419  24.425  33.757  1.00  0.00     0.148 A 
ATOM     83  C   UNL A   1      48.934  25.495  33.107  1.00  0.00     0.002 A 
ATOM     84  C   UNL A   1      47.572  23.909  34.337  1.00  0.00     0.091 A 
ATOM     85  F   UNL A   1      45.208  23.914  34.020  1.00  0.00    -0.205 F 
ATOM     86  C   UNL A   1      48.831  24.436  34.005  1.00  0.00     0.022 A 
BRANCH  84  87
ATOM     87  S   UNL A   1      47.525  22.609  35.577  1.00  0.00     0.127 S 
ATOM     88  O   UNL A   1      46.667  23.204  36.600  1.00  0.00    -0.237 OA
ATOM     89  O   UNL A   1      46.917  21.500  34.842  1.00  0.00    -0.237 OA
ATOM     90  O   UNL A   1      48.909  22.384  35.973  1.00  0.00    -0.744 OA
ENDBRANCH  84  87
ENDBRANCH  57  80
ENDBRANCH  31  32
ENDBRANCH  23  26
ENDBRANCH  21  22
ENDBRANCH   1  21
TORSDOF 15
ENDMDL
MODEL 2
REMARK VINA RESULT:     -11.9      3.644      6.954
REMARK SMILES COc1ccc2cc([C@@H](C)C(=O)NCCCNC(=O)c3ccc(-c4c5nc(c(-c6cccc(S(=O)(=O)[O-])c6F)c6ccc([nH]6)c(-c6cccc(S(=O)(=O)[O-])c6F)c6nc(c(-c7cccc(S(=O)(=O)[O-])c7F)c7ccc4[nH]7)C=C6)C=C5)cc3)ccc2c1
REMARK SMILES IDX 15 1 14 2 13 3 11 4 12 5 9 7 10 8 8 9 3 10 4 11 86 12 5 13
REMARK SMILES IDX 85 14 6 15 84 16 7 17 83 18 2 19 1 20 16 21 17 22 18 23
REMARK SMILES IDX 19 25 20 26 21 27 82 28 22 29 81 30 23 31 24 32 25 33 75 34
REMARK SMILES IDX 26 35 80 36 74 37 76 38 27 39 79 40 73 41 72 42 28 44 60 45
REMARK SMILES IDX 40 46 59 47 41 48 44 49 58 50 77 51 42 52 43 53 57 55 78 56
REMARK SMILES IDX 45 57 29 58 30 59 38 60 31 61 33 62 39 63 32 64 34 65 35 66
REMARK SMILES IDX 36 67 37 68 61 69 62 70 70 71 63 72 65 73 71 74 64 75 66 76
REMARK SMILES IDX 67 77 68 78 69 79 46 80 47 81 55 82 48 83 50 84 56 85 49 86
REMARK SMILES IDX 51 87 52 88 53 89 54 90
REMARK H PARENT 13 6 17 24 76 43 44 54
REMARK Flexibility Score: inf
ROOT
ATOM      1  C   UNL A   1      34.157  34.546  29.211  1.00  0.00     0.042 C 
ENDROOT
BRANCH   1   2
ATOM      2  C   UNL A   1      34.166  34.130  30.680  1.00  0.00     0.117 C 
BRANCH   2   3
ATOM      3  N   UNL A   1      34.295  35.266  31.574  1.00  0.00    -0.356 N 
ATOM      4  C   UNL A   1      34.951  35.432  32.754  1.00  0.00     0.227 C 
ATOM      5  O   UNL A   1      34.820  36.538  33.295  1.00  0.00    -0.274 OA
ATOM      6  H   UNL A   1      33.818  36.070  31.267  1.00  0.00     0.163 HD
BRANCH   4   7
ATOM      7  C   UNL A   1      35.836  34.362  33.415  1.00  0.00     0.105 C 
ATOM      8  C   UNL A   1      35.524  34.099  34.887  1.00  0.00     0.023 C 
BRANCH   7   9
ATOM      9  C   UNL A   1      37.311  34.487  33.069  1.00  0.00    -0.035 A 
ATOM     10  C   UNL A   1      41.896  34.323  30.853  1.00  0.00     0.119 A 
ATOM     11  C   UNL A   1      40.961  34.224  29.828  1.00  0.00     0.047 A 
ATOM     12  C   UNL A   1      41.456  34.442  32.175  1.00  0.00     0.055 A 
ATOM     13  C   UNL A   1      39.596  34.304  30.118  1.00  0.00     0.012 A 
ATOM     14  C   UNL A   1      40.087  34.486  32.486  1.00  0.00    -0.015 A 
ATOM     15  C   UNL A   1      39.146  34.447  31.441  1.00  0.00    -0.018 A 
ATOM     16  C   UNL A   1      39.632  34.551  33.810  1.00  0.00     0.009 A 
ATOM     17  C   UNL A   1      37.776  34.512  31.748  1.00  0.00     0.013 A 
ATOM     18  C   UNL A   1      38.264  34.522  34.098  1.00  0.00     0.005 A 
BRANCH  10  19
ATOM     19  O   UNL A   1      43.253  34.304  30.706  1.00  0.00    -0.497 OA
ATOM     20  C   UNL A   1      43.793  33.395  29.746  1.00  0.00     0.278 C 
ENDBRANCH  10  19
ENDBRANCH   7   9
ENDBRANCH   4   7
ENDBRANCH   2   3
ENDBRANCH   1   2
BRANCH   1  21
ATOM     21  C   UNL A   1      34.921  33.604  28.294  1.00  0.00     0.118 C 
BRANCH  21  22
ATOM     22  N   UNL A   1      34.107  32.473  27.868  1.00  0.00    -0.352 N 
ATOM     23  C   UNL A   1      34.432  31.147  27.715  1.00  0.00     0.251 C 
ATOM     24  H   UNL A   1      33.172  32.695  27.655  1.00  0.00     0.163 HD
ATOM     25  O   UNL A   1      33.643  30.409  27.128  1.00  0.00    -0.269 OA
BRANCH  23  26
ATOM     26  C   UNL A   1      35.708  30.597  28.234  1.00  0.00     0.039 A 
ATOM     27  C   UNL A   1      35.672  29.752  29.349  1.00  0.00     0.014 A 
ATOM     28  C   UNL A   1      36.940  30.951  27.681  1.00  0.00     0.014 A 
ATOM     29  C   UNL A   1      36.860  29.232  29.874  1.00  0.00     0.010 A 
ATOM     30  C   UNL A   1      38.113  30.361  28.146  1.00  0.00     0.010 A 
ATOM     31  C   UNL A   1      38.091  29.515  29.263  1.00  0.00    -0.014 A 
BRANCH  31  32
ATOM     32  C   UNL A   1      39.365  28.957  29.789  1.00  0.00     0.031 A 
ATOM     33  C   UNL A   1      40.004  29.551  31.018  1.00  0.00     0.074 A 
ATOM     34  C   UNL A   1      39.987  27.965  29.122  1.00  0.00     0.049 A 
ATOM     35  N   UNL A   1      41.133  29.232  31.599  1.00  0.00    -0.248 NA
ATOM     36  C   UNL A   1      39.298  30.671  31.663  1.00  0.00     0.031 C 
ATOM     37  C   UNL A   1      39.511  27.352  27.881  1.00  0.00     0.029 A 
ATOM     38  N   UNL A   1      41.163  27.309  29.386  1.00  0.00    -0.354 N 
ATOM     39  C   UNL A   1      41.289  30.132  32.648  1.00  0.00     0.074 A 
ATOM     40  C   UNL A   1      40.161  31.036  32.598  1.00  0.00     0.031 C 
ATOM     41  C   UNL A   1      40.375  26.398  27.501  1.00  0.00     0.029 A 
ATOM     42  C   UNL A   1      41.482  26.350  28.453  1.00  0.00     0.049 A 
ATOM     43  H   UNL A   1      41.727  27.506  30.169  1.00  0.00     0.167 HD
ATOM     44  C   UNL A   1      42.259  30.180  33.593  1.00  0.00     0.034 A 
ATOM     45  C   UNL A   1      42.543  25.525  28.374  1.00  0.00     0.034 A 
ATOM     46  C   UNL A   1      43.351  29.249  33.671  1.00  0.00     0.049 A 
ATOM     47  C   UNL A   1      43.594  25.577  29.451  1.00  0.00     0.074 A 
ATOM     48  C   UNL A   1      44.338  29.157  34.635  1.00  0.00     0.029 A 
ATOM     49  N   UNL A   1      43.603  28.248  32.746  1.00  0.00    -0.354 N 
ATOM     50  N   UNL A   1      43.643  26.335  30.519  1.00  0.00    -0.248 NA
ATOM     51  C   UNL A   1      44.717  24.637  29.327  1.00  0.00     0.031 C 
ATOM     52  C   UNL A   1      45.196  28.109  34.285  1.00  0.00     0.029 A 
ATOM     53  C   UNL A   1      44.732  27.535  33.112  1.00  0.00     0.049 A 
ATOM     54  H   UNL A   1      43.058  28.069  31.945  1.00  0.00     0.167 HD
ATOM     55  C   UNL A   1      44.779  25.938  31.216  1.00  0.00     0.074 A 
ATOM     56  C   UNL A   1      45.379  24.860  30.456  1.00  0.00     0.031 C 
ATOM     57  C   UNL A   1      45.286  26.429  32.374  1.00  0.00     0.034 A 
BRANCH  44  58
ATOM     58  C   UNL A   1      42.142  31.245  34.655  1.00  0.00     0.023 A 
ATOM     59  C   UNL A   1      41.220  31.072  35.710  1.00  0.00     0.012 A 
ATOM     60  C   UNL A   1      42.953  32.396  34.633  1.00  0.00     0.148 A 
ATOM     61  C   UNL A   1      41.074  32.046  36.696  1.00  0.00     0.002 A 
ATOM     62  C   UNL A   1      42.835  33.341  35.647  1.00  0.00     0.091 A 
ATOM     63  F   UNL A   1      43.809  32.558  33.614  1.00  0.00    -0.205 F 
ATOM     64  C   UNL A   1      41.887  33.175  36.669  1.00  0.00     0.022 A 
BRANCH  62  65
ATOM     65  S   UNL A   1      43.893  34.789  35.743  1.00  0.00     0.127 S 
ATOM     66  O   UNL A   1      43.337  35.486  36.901  1.00  0.00    -0.237 OA
ATOM     67  O   UNL A   1      45.213  34.197  35.966  1.00  0.00    -0.237 OA
ATOM     68  O   UNL A   1      43.748  35.473  34.465  1.00  0.00    -0.744 OA
ENDBRANCH  62  65
ENDBRANCH  44  58
BRANCH  45  69
ATOM     69  C   UNL A   1      42.621  24.519  27.277  1.00  0.00     0.023 A 
ATOM     70  C   UNL A   1      43.348  24.830  26.111  1.00  0.00     0.012 A 
ATOM     71  C   UNL A   1      42.021  23.252  27.395  1.00  0.00     0.148 A 
ATOM     72  C   UNL A   1      43.450  23.908  25.069  1.00  0.00     0.002 A 
ATOM     73  C   UNL A   1      42.169  22.320  26.375  1.00  0.00     0.091 A 
ATOM     74  F   UNL A   1      41.355  22.969  28.523  1.00  0.00    -0.205 F 
ATOM     75  C   UNL A   1      42.865  22.652  25.202  1.00  0.00     0.022 A 
BRANCH  73  76
ATOM     76  S   UNL A   1      41.547  20.642  26.503  1.00  0.00     0.127 S 
ATOM     77  O   UNL A   1      42.006  20.244  27.831  1.00  0.00    -0.237 OA
ATOM     78  O   UNL A   1      40.105  20.852  26.382  1.00  0.00    -0.237 OA
ATOM     79  O   UNL A   1      42.153  19.911  25.399  1.00  0.00    -0.744 OA
ENDBRANCH  73  76
ENDBRANCH  45  69
BRANCH  57  80
ATOM     80  C   UNL A   1      46.535  25.785  32.916  1.00  0.00     0.023 A 
ATOM     81  C   UNL A   1      47.794  26.353  32.638  1.00  0.00     0.012 A 
ATOM     82  C   UNL A   1      46.455  24.663  33.764  1.00  0.00     0.148 A 
ATOM     83  C   UNL A   1      48.956  25.795  33.168  1.00  0.00     0.002 A 
ATOM     84  C   UNL A   1      47.613  24.141  34.328  1.00  0.00     0.091 A 
ATOM     85  F   UNL A   1      45.250  24.125  34.001  1.00  0.00    -0.205 F 
ATOM     86  C   UNL A   1      48.865  24.699  34.022  1.00  0.00     0.022 A 
BRANCH  84  87
ATOM     87  S   UNL A   1      47.581  22.790  35.513  1.00  0.00     0.127 S 
ATOM     88  O   UNL A   1      47.089  21.685  34.691  1.00  0.00    -0.237 OA
ATOM     89  O   UNL A   1      48.988  22.682  35.900  1.00  0.00    -0.237 OA
ATOM     90  O   UNL A   1      46.691  23.219  36.583  1.00  0.00    -0.744 OA
ENDBRANCH  84  87
ENDBRANCH  57  80
ENDBRANCH  31  32
ENDBRANCH  23  26
ENDBRANCH  21  22
ENDBRANCH   1  21
TORSDOF 15
ENDMDL
MODEL 3
REMARK VINA RESULT:     -11.8      5.467     10.446
REMARK SMILES COc1ccc2cc([C@@H](C)C(=O)NCCCNC(=O)c3ccc(-c4c5nc(c(-c6cccc(S(=O)(=O)[O-])c6F)c6ccc([nH]6)c(-c6cccc(S(=O)(=O)[O-])c6F)c6nc(c(-c7cccc(S(=O)(=O)[O-])c7F)c7ccc4[nH]7)C=C6)C=C5)cc3)ccc2c1
REMARK SMILES IDX 15 1 14 2 13 3 11 4 12 5 9 7 10 8 8 9 3 10 4 11 86 12 5 13
REMARK SMILES IDX 85 14 6 15 84 16 7 17 83 18 2 19 1 20 16 21 17 22 18 23
REMARK SMILES IDX 19 25 20 26 21 27 82 28 22 29 81 30 23 31 24 32 25 33 75 34
REMARK SMILES IDX 26 35 80 36 74 37 76 38 27 39 79 40 73 41 72 42 28 44 60 45
REMARK SMILES IDX 40 46 59 47 41 48 44 49 58 50 77 51 42 52 43 53 57 55 78 56
REMARK SMILES IDX 45 57 29 58 30 59 38 60 31 61 33 62 39 63 32 64 34 65 35 66
REMARK SMILES IDX 36 67 37 68 61 69 62 70 70 71 63 72 65 73 71 74 64 75 66 76
REMARK SMILES IDX 67 77 68 78 69 79 46 80 47 81 55 82 48 83 50 84 56 85 49 86
REMARK SMILES IDX 51 87 52 88 53 89 54 90
REMARK H PARENT 13 6 17 24 76 43 44 54
REMARK Flexibility Score: inf
ROOT
ATOM      1  C   UNL A   1      35.988  22.411  24.244  1.00  0.00     0.042 C 
ENDROOT
BRANCH   1   2
ATOM      2  C   UNL A   1      35.299  23.710  23.834  1.00  0.00     0.117 C 
BRANCH   2   3
ATOM      3  N   UNL A   1      34.288  24.123  24.788  1.00  0.00    -0.356 N 
ATOM      4  C   UNL A   1      32.928  24.081  24.757  1.00  0.00     0.227 C 
ATOM      5  O   UNL A   1      32.349  24.566  25.738  1.00  0.00    -0.274 OA
ATOM      6  H   UNL A   1      34.655  24.505  25.617  1.00  0.00     0.163 HD
BRANCH   4   7
ATOM      7  C   UNL A   1      32.103  23.461  23.617  1.00  0.00     0.105 C 
ATOM      8  C   UNL A   1      30.722  24.083  23.419  1.00  0.00     0.023 C 
BRANCH   7   9
ATOM      9  C   UNL A   1      32.150  21.942  23.581  1.00  0.00    -0.035 A 
ATOM     10  C   UNL A   1      32.949  17.001  24.534  1.00  0.00     0.119 A 
ATOM     11  C   UNL A   1      33.055  17.658  25.756  1.00  0.00     0.047 A 
ATOM     12  C   UNL A   1      32.666  17.738  23.380  1.00  0.00     0.055 A 
ATOM     13  C   UNL A   1      32.821  19.035  25.831  1.00  0.00     0.012 A 
ATOM     14  C   UNL A   1      32.465  19.127  23.433  1.00  0.00    -0.015 A 
ATOM     15  C   UNL A   1      32.514  19.779  24.679  1.00  0.00    -0.018 A 
ATOM     16  C   UNL A   1      32.234  19.885  22.277  1.00  0.00     0.009 A 
ATOM     17  C   UNL A   1      32.292  21.165  24.738  1.00  0.00     0.013 A 
ATOM     18  C   UNL A   1      32.108  21.276  22.347  1.00  0.00     0.005 A 
BRANCH  10  19
ATOM     19  O   UNL A   1      33.108  15.662  24.328  1.00  0.00    -0.497 OA
ATOM     20  C   UNL A   1      32.811  14.792  25.421  1.00  0.00     0.278 C 
ENDBRANCH  10  19
ENDBRANCH   7   9
ENDBRANCH   4   7
ENDBRANCH   2   3
ENDBRANCH   1   2
BRANCH   1  21
ATOM     21  C   UNL A   1      36.538  22.419  25.661  1.00  0.00     0.118 C 
BRANCH  21  22
ATOM     22  N   UNL A   1      37.552  21.393  25.863  1.00  0.00    -0.352 N 
ATOM     23  C   UNL A   1      38.889  21.505  26.157  1.00  0.00     0.251 C 
ATOM     24  H   UNL A   1      37.225  20.468  25.772  1.00  0.00     0.163 HD
ATOM     25  O   UNL A   1      39.600  20.506  26.060  1.00  0.00    -0.269 OA
BRANCH  23  26
ATOM     26  C   UNL A   1      39.484  22.795  26.580  1.00  0.00     0.039 A 
ATOM     27  C   UNL A   1      39.140  23.957  25.880  1.00  0.00     0.014 A 
ATOM     28  C   UNL A   1      40.421  22.870  27.613  1.00  0.00     0.014 A 
ATOM     29  C   UNL A   1      39.699  25.187  26.242  1.00  0.00     0.010 A 
ATOM     30  C   UNL A   1      40.906  24.106  28.033  1.00  0.00     0.010 A 
ATOM     31  C   UNL A   1      40.571  25.276  27.338  1.00  0.00    -0.014 A 
BRANCH  31  32
ATOM     32  C   UNL A   1      41.161  26.575  27.757  1.00  0.00     0.031 A 
ATOM     33  C   UNL A   1      42.606  26.883  27.462  1.00  0.00     0.074 A 
ATOM     34  C   UNL A   1      40.419  27.449  28.466  1.00  0.00     0.049 A 
ATOM     35  N   UNL A   1      43.310  27.938  27.786  1.00  0.00    -0.248 NA
ATOM     36  C   UNL A   1      43.372  25.858  26.733  1.00  0.00     0.031 C 
ATOM     37  C   UNL A   1      39.031  27.240  28.880  1.00  0.00     0.029 A 
ATOM     38  N   UNL A   1      40.736  28.681  28.980  1.00  0.00    -0.354 N 
ATOM     39  C   UNL A   1      44.601  27.688  27.337  1.00  0.00     0.074 A 
ATOM     40  C   UNL A   1      44.595  26.364  26.756  1.00  0.00     0.031 C 
ATOM     41  C   UNL A   1      38.609  28.313  29.566  1.00  0.00     0.029 A 
ATOM     42  C   UNL A   1      39.704  29.274  29.669  1.00  0.00     0.049 A 
ATOM     43  H   UNL A   1      41.620  29.101  28.867  1.00  0.00     0.167 HD
ATOM     44  C   UNL A   1      45.687  28.498  27.368  1.00  0.00     0.034 A 
ATOM     45  C   UNL A   1      39.645  30.458  30.309  1.00  0.00     0.034 A 
ATOM     46  C   UNL A   1      45.678  29.833  27.900  1.00  0.00     0.049 A 
ATOM     47  C   UNL A   1      40.855  31.354  30.304  1.00  0.00     0.074 A 
ATOM     48  C   UNL A   1      46.698  30.768  27.903  1.00  0.00     0.029 A 
ATOM     49  N   UNL A   1      44.593  30.426  28.529  1.00  0.00    -0.354 N 
ATOM     50  N   UNL A   1      42.022  31.161  29.741  1.00  0.00    -0.248 NA
ATOM     51  C   UNL A   1      40.726  32.645  30.996  1.00  0.00     0.031 C 
ATOM     52  C   UNL A   1      46.234  31.920  28.547  1.00  0.00     0.029 A 
ATOM     53  C   UNL A   1      44.918  31.711  28.928  1.00  0.00     0.049 A 
ATOM     54  H   UNL A   1      43.719  29.995  28.670  1.00  0.00     0.167 HD
ATOM     55  C   UNL A   1      42.755  32.320  29.975  1.00  0.00     0.074 A 
ATOM     56  C   UNL A   1      41.891  33.216  30.718  1.00  0.00     0.031 C 
ATOM     57  C   UNL A   1      44.030  32.611  29.618  1.00  0.00     0.034 A 
BRANCH  44  58
ATOM     58  C   UNL A   1      46.961  27.977  26.750  1.00  0.00     0.023 A 
ATOM     59  C   UNL A   1      47.990  27.498  27.588  1.00  0.00     0.012 A 
ATOM     60  C   UNL A   1      47.133  27.930  25.353  1.00  0.00     0.148 A 
ATOM     61  C   UNL A   1      49.187  27.027  27.048  1.00  0.00     0.002 A 
ATOM     62  C   UNL A   1      48.310  27.415  24.821  1.00  0.00     0.091 A 
ATOM     63  F   UNL A   1      46.155  28.408  24.570  1.00  0.00    -0.205 F 
ATOM     64  C   UNL A   1      49.343  26.978  25.667  1.00  0.00     0.022 A 
BRANCH  62  65
ATOM     65  S   UNL A   1      48.573  27.236  23.053  1.00  0.00     0.127 S 
ATOM     66  O   UNL A   1      49.989  27.573  22.929  1.00  0.00    -0.237 OA
ATOM     67  O   UNL A   1      48.263  25.822  22.834  1.00  0.00    -0.237 OA
ATOM     68  O   UNL A   1      47.645  28.161  22.418  1.00  0.00    -0.744 OA
ENDBRANCH  62  65
ENDBRANCH  44  58
BRANCH  45  69
ATOM     69  C   UNL A   1      38.367  30.901  30.934  1.00  0.00     0.023 A 
ATOM     70  C   UNL A   1      38.156  30.664  32.307  1.00  0.00     0.012 A 
ATOM     71  C   UNL A   1      37.384  31.585  30.196  1.00  0.00     0.148 A 
ATOM     72  C   UNL A   1      36.977  31.074  32.927  1.00  0.00     0.002 A 
ATOM     73  C   UNL A   1      36.232  32.035  30.831  1.00  0.00     0.091 A 
ATOM     74  F   UNL A   1      37.615  31.821  28.897  1.00  0.00    -0.205 F 
ATOM     75  C   UNL A   1      36.016  31.764  32.191  1.00  0.00     0.022 A 
BRANCH  73  76
ATOM     76  S   UNL A   1      34.993  33.026  29.993  1.00  0.00     0.127 S 
ATOM     77  O   UNL A   1      35.799  34.091  29.402  1.00  0.00    -0.237 OA
ATOM     78  O   UNL A   1      34.440  32.064  29.041  1.00  0.00    -0.237 OA
ATOM     79  O   UNL A   1      34.067  33.460  31.031  1.00  0.00    -0.744 OA
ENDBRANCH  73  76
ENDBRANCH  45  69
BRANCH  57  80
ATOM     80  C   UNL A   1      44.566  33.968  29.992  1.00  0.00     0.023 A 
ATOM     81  C   UNL A   1      45.322  34.122  31.171  1.00  0.00     0.012 A 
ATOM     82  C   UNL A   1      44.385  35.072  29.137  1.00  0.00     0.148 A 
ATOM     83  C   UNL A   1      45.862  35.362  31.509  1.00  0.00     0.002 A 
ATOM     84  C   UNL A   1      44.967  36.294  29.456  1.00  0.00     0.091 A 
ATOM     85  F   UNL A   1      43.647  34.910  28.030  1.00  0.00    -0.205 F 
ATOM     86  C   UNL A   1      45.696  36.443  30.647  1.00  0.00     0.022 A 
BRANCH  84  87
ATOM     87  S   UNL A   1      44.885  37.714  28.357  1.00  0.00     0.127 S 
ATOM     88  O   UNL A   1      45.497  37.183  27.139  1.00  0.00    -0.237 OA
ATOM     89  O   UNL A   1      43.444  37.950  28.261  1.00  0.00    -0.237 OA
ATOM     90  O   UNL A   1      45.628  38.776  29.020  1.00  0.00    -0.744 OA
ENDBRANCH  84  87
ENDBRANCH  57  80
ENDBRANCH  31  32
ENDBRANCH  23  26
ENDBRANCH  21  22
ENDBRANCH   1  21
TORSDOF 15
ENDMDL
