MODEL 1
REMARK VINA RESULT:     -11.6      0.000      0.000
REMARK SMILES C[C@@H]1CN(C(=O)C[NH+]2CCC(CC(=O)NCCCNC(=O)c3ccc(-c4c5nc(c(-c6cccc(S(=O)(=O)[O-])c6F)c6ccc([nH]6)c(-c6cccc(S(=O)(=O)[O-])c6F)c6nc(c(-c7cccc(S(=O)(=O)[O-])c7F)c7ccc4[nH]7)C=C6)C=C5)cc3)CC2)C[C@@H](C)O1
REMARK SMILES IDX 17 1 16 2 15 3 13 4 14 5 12 7 11 8 8 9 9 10 86 11 10 13
REMARK SMILES IDX 85 14 7 15 5 16 1 17 2 18 3 19 90 20 4 21 88 22 87 23 89 24
REMARK SMILES IDX 6 25 18 26 19 27 20 28 21 30 22 31 23 32 84 33 24 34 83 35
REMARK SMILES IDX 25 36 26 37 27 38 77 39 28 40 82 41 76 42 78 43 29 44 81 45
REMARK SMILES IDX 75 46 74 47 30 49 62 50 42 51 61 52 43 53 46 54 60 55 79 56
REMARK SMILES IDX 44 57 45 58 59 60 80 61 47 62 31 63 32 64 40 65 33 66 35 67
REMARK SMILES IDX 41 68 34 69 36 70 37 71 38 72 39 73 63 74 64 75 72 76 65 77
REMARK SMILES IDX 67 78 73 79 66 80 68 81 69 82 70 83 71 84 48 85 49 86 57 87
REMARK SMILES IDX 50 88 52 89 58 90 51 91 53 92 54 93 55 94 56 95
REMARK H PARENT 15 6 8 12 19 29 78 48 46 59
REMARK Flexibility Score: inf
ROOT
ATOM      1  C   UNL A   1      32.782  28.853  25.461  1.00  0.00     0.042 C 
ENDROOT
BRANCH   1   2
ATOM      2  C   UNL A   1      32.913  29.229  23.986  1.00  0.00     0.117 C 
BRANCH   2   3
ATOM      3  N   UNL A   1      31.643  29.170  23.274  1.00  0.00    -0.356 N 
ATOM      4  C   UNL A   1      31.063  28.166  22.561  1.00  0.00     0.220 C 
ATOM      5  O   UNL A   1      29.959  28.368  22.053  1.00  0.00    -0.275 OA
ATOM      6  H   UNL A   1      31.115  29.999  23.314  1.00  0.00     0.163 HD
BRANCH   4   7
ATOM      7  C   UNL A   1      31.750  26.827  22.408  1.00  0.00     0.104 C 
BRANCH   7   8
ATOM      8  C   UNL A   1      31.038  25.674  23.138  1.00  0.00     0.009 C 
ATOM      9  N   UNL A   1      31.409  23.549  25.188  1.00  0.00    -0.327 N 
ATOM     10  C   UNL A   1      30.618  24.750  25.453  1.00  0.00     0.262 C 
ATOM     11  C   UNL A   1      31.293  23.174  23.775  1.00  0.00     0.262 C 
ATOM     12  H   UNL A   1      31.018  22.795  25.752  1.00  0.00     0.348 HD
ATOM     13  C   UNL A   1      31.070  25.956  24.644  1.00  0.00     0.066 C 
ATOM     14  C   UNL A   1      31.667  24.312  22.819  1.00  0.00     0.066 C 
BRANCH   9  15
ATOM     15  C   UNL A   1      32.813  23.652  25.642  1.00  0.00     0.363 C 
BRANCH  15  16
ATOM     16  C   UNL A   1      33.484  22.269  25.712  1.00  0.00     0.277 C 
ATOM     17  C   UNL A   1      36.918  23.887  25.590  1.00  0.00     0.040 C 
ATOM     18  C   UNL A   1      36.649  23.179  24.262  1.00  0.00     0.135 C 
ATOM     19  C   UNL A   1      35.160  22.988  23.949  1.00  0.00     0.151 C 
ATOM     20  O   UNL A   1      37.319  21.909  24.189  1.00  0.00    -0.372 OA
ATOM     21  N   UNL A   1      34.555  22.022  24.864  1.00  0.00    -0.333 N 
ATOM     22  C   UNL A   1      36.778  20.933  25.107  1.00  0.00     0.135 C 
ATOM     23  C   UNL A   1      35.259  20.736  24.896  1.00  0.00     0.151 C 
ATOM     24  C   UNL A   1      37.537  19.639  24.850  1.00  0.00     0.040 C 
ATOM     25  O   UNL A   1      33.016  21.402  26.455  1.00  0.00    -0.268 OA
ENDBRANCH  15  16
ENDBRANCH   9  15
ENDBRANCH   7   8
ENDBRANCH   4   7
ENDBRANCH   2   3
ENDBRANCH   1   2
BRANCH   1  26
ATOM     26  C   UNL A   1      33.999  29.203  26.302  1.00  0.00     0.118 C 
BRANCH  26  27
ATOM     27  N   UNL A   1      33.871  30.518  26.902  1.00  0.00    -0.352 N 
ATOM     28  C   UNL A   1      34.601  31.080  27.923  1.00  0.00     0.251 C 
ATOM     29  H   UNL A   1      33.161  31.088  26.526  1.00  0.00     0.163 HD
ATOM     30  O   UNL A   1      34.173  32.089  28.477  1.00  0.00    -0.269 OA
BRANCH  28  31
ATOM     31  C   UNL A   1      35.890  30.485  28.357  1.00  0.00     0.039 A 
ATOM     32  C   UNL A   1      35.917  29.712  29.523  1.00  0.00     0.014 A 
ATOM     33  C   UNL A   1      37.080  30.733  27.667  1.00  0.00     0.014 A 
ATOM     34  C   UNL A   1      37.125  29.174  29.979  1.00  0.00     0.010 A 
ATOM     35  C   UNL A   1      38.267  30.124  28.073  1.00  0.00     0.010 A 
ATOM     36  C   UNL A   1      38.310  29.366  29.252  1.00  0.00    -0.014 A 
BRANCH  36  37
ATOM     37  C   UNL A   1      39.608  28.813  29.724  1.00  0.00     0.031 A 
ATOM     38  C   UNL A   1      40.367  29.497  30.831  1.00  0.00     0.074 A 
ATOM     39  C   UNL A   1      40.150  27.747  29.104  1.00  0.00     0.049 A 
ATOM     40  N   UNL A   1      41.532  29.192  31.346  1.00  0.00    -0.248 NA
ATOM     41  C   UNL A   1      39.755  30.702  31.414  1.00  0.00     0.031 C 
ATOM     42  C   UNL A   1      39.568  27.054  27.954  1.00  0.00     0.029 A 
ATOM     43  N   UNL A   1      41.330  27.084  29.332  1.00  0.00    -0.354 N 
ATOM     44  C   UNL A   1      41.811  30.189  32.274  1.00  0.00     0.074 A 
ATOM     45  C   UNL A   1      40.711  31.127  32.226  1.00  0.00     0.031 C 
ATOM     46  C   UNL A   1      40.396  26.070  27.570  1.00  0.00     0.029 A 
ATOM     47  C   UNL A   1      41.576  26.073  28.431  1.00  0.00     0.049 A 
ATOM     48  H   UNL A   1      41.943  27.309  30.068  1.00  0.00     0.167 HD
ATOM     49  C   UNL A   1      42.868  30.300  33.114  1.00  0.00     0.034 A 
ATOM     50  C   UNL A   1      42.633  25.246  28.306  1.00  0.00     0.034 A 
ATOM     51  C   UNL A   1      43.929  29.333  33.204  1.00  0.00     0.049 A 
ATOM     52  C   UNL A   1      43.754  25.330  29.305  1.00  0.00     0.074 A 
ATOM     53  C   UNL A   1      44.975  29.285  34.108  1.00  0.00     0.029 A 
ATOM     54  N   UNL A   1      44.083  28.248  32.356  1.00  0.00    -0.354 N 
ATOM     55  N   UNL A   1      43.906  26.165  30.305  1.00  0.00    -0.248 NA
ATOM     56  C   UNL A   1      44.828  24.333  29.189  1.00  0.00     0.031 C 
ATOM     57  C   UNL A   1      45.774  28.180  33.792  1.00  0.00     0.029 A 
ATOM     58  C   UNL A   1      45.213  27.529  32.704  1.00  0.00     0.049 A 
ATOM     59  H   UNL A   1      43.476  28.021  31.613  1.00  0.00     0.167 HD
ATOM     60  C   UNL A   1      45.076  25.783  30.949  1.00  0.00     0.074 A 
ATOM     61  C   UNL A   1      45.581  24.623  30.243  1.00  0.00     0.031 C 
ATOM     62  C   UNL A   1      45.685  26.350  32.021  1.00  0.00     0.034 A 
BRANCH  49  63
ATOM     63  C   UNL A   1      42.893  31.485  34.047  1.00  0.00     0.023 A 
ATOM     64  C   UNL A   1      43.432  32.710  33.602  1.00  0.00     0.012 A 
ATOM     65  C   UNL A   1      42.362  31.399  35.348  1.00  0.00     0.148 A 
ATOM     66  C   UNL A   1      43.487  33.814  34.451  1.00  0.00     0.002 A 
ATOM     67  C   UNL A   1      42.379  32.518  36.174  1.00  0.00     0.091 A 
ATOM     68  F   UNL A   1      41.874  30.222  35.767  1.00  0.00    -0.205 F 
ATOM     69  C   UNL A   1      42.953  33.721  35.732  1.00  0.00     0.022 A 
BRANCH  67  70
ATOM     70  S   UNL A   1      41.641  32.512  37.812  1.00  0.00     0.127 S 
ATOM     71  O   UNL A   1      41.906  33.878  38.262  1.00  0.00    -0.237 OA
ATOM     72  O   UNL A   1      40.234  32.230  37.520  1.00  0.00    -0.237 OA
ATOM     73  O   UNL A   1      42.325  31.458  38.548  1.00  0.00    -0.744 OA
ENDBRANCH  67  70
ENDBRANCH  49  63
BRANCH  50  74
ATOM     74  C   UNL A   1      42.626  24.218  27.227  1.00  0.00     0.023 A 
ATOM     75  C   UNL A   1      43.299  24.478  26.019  1.00  0.00     0.012 A 
ATOM     76  C   UNL A   1      42.028  22.958  27.425  1.00  0.00     0.148 A 
ATOM     77  C   UNL A   1      43.363  23.506  25.018  1.00  0.00     0.002 A 
ATOM     78  C   UNL A   1      42.142  21.976  26.449  1.00  0.00     0.091 A 
ATOM     79  F   UNL A   1      41.384  22.737  28.580  1.00  0.00    -0.205 F 
ATOM     80  C   UNL A   1      42.798  22.253  25.238  1.00  0.00     0.022 A 
BRANCH  78  81
ATOM     81  S   UNL A   1      41.565  20.292  26.696  1.00  0.00     0.127 S 
ATOM     82  O   UNL A   1      41.886  19.675  25.412  1.00  0.00    -0.237 OA
ATOM     83  O   UNL A   1      42.393  19.849  27.817  1.00  0.00    -0.237 OA
ATOM     84  O   UNL A   1      40.145  20.404  27.005  1.00  0.00    -0.744 OA
ENDBRANCH  78  81
ENDBRANCH  50  74
BRANCH  62  85
ATOM     85  C   UNL A   1      46.965  25.726  32.512  1.00  0.00     0.023 A 
ATOM     86  C   UNL A   1      48.194  26.128  31.954  1.00  0.00     0.012 A 
ATOM     87  C   UNL A   1      46.958  24.808  33.580  1.00  0.00     0.148 A 
ATOM     88  C   UNL A   1      49.396  25.606  32.432  1.00  0.00     0.002 A 
ATOM     89  C   UNL A   1      48.162  24.324  34.082  1.00  0.00     0.091 A 
ATOM     90  F   UNL A   1      45.778  24.421  34.085  1.00  0.00    -0.205 F 
ATOM     91  C   UNL A   1      49.381  24.714  33.503  1.00  0.00     0.022 A 
BRANCH  89  92
ATOM     92  S   UNL A   1      48.241  23.247  35.517  1.00  0.00     0.127 S 
ATOM     93  O   UNL A   1      47.577  24.058  36.536  1.00  0.00    -0.237 OA
ATOM     94  O   UNL A   1      47.479  22.078  35.075  1.00  0.00    -0.237 OA
ATOM     95  O   UNL A   1      49.657  22.989  35.745  1.00  0.00    -0.744 OA
ENDBRANCH  89  92
ENDBRANCH  62  85
ENDBRANCH  36  37
ENDBRANCH  28  31
ENDBRANCH  26  27
ENDBRANCH   1  26
TORSDOF 16
ENDMDL
MODEL 2
REMARK VINA RESULT:     -11.6      5.234      8.836
REMARK SMILES C[C@@H]1CN(C(=O)C[NH+]2CCC(CC(=O)NCCCNC(=O)c3ccc(-c4c5nc(c(-c6cccc(S(=O)(=O)[O-])c6F)c6ccc([nH]6)c(-c6cccc(S(=O)(=O)[O-])c6F)c6nc(c(-c7cccc(S(=O)(=O)[O-])c7F)c7ccc4[nH]7)C=C6)C=C5)cc3)CC2)C[C@@H](C)O1
REMARK SMILES IDX 17 1 16 2 15 3 13 4 14 5 12 7 11 8 8 9 9 10 86 11 10 13
REMARK SMILES IDX 85 14 7 15 5 16 1 17 2 18 3 19 90 20 4 21 88 22 87 23 89 24
REMARK SMILES IDX 6 25 18 26 19 27 20 28 21 30 22 31 23 32 84 33 24 34 83 35
REMARK SMILES IDX 25 36 26 37 27 38 77 39 28 40 82 41 76 42 78 43 29 44 81 45
REMARK SMILES IDX 75 46 74 47 30 49 62 50 42 51 61 52 43 53 46 54 60 55 79 56
REMARK SMILES IDX 44 57 45 58 59 60 80 61 47 62 31 63 32 64 40 65 33 66 35 67
REMARK SMILES IDX 41 68 34 69 36 70 37 71 38 72 39 73 63 74 64 75 72 76 65 77
REMARK SMILES IDX 67 78 73 79 66 80 68 81 69 82 70 83 71 84 48 85 49 86 57 87
REMARK SMILES IDX 50 88 52 89 58 90 51 91 53 92 54 93 55 94 56 95
REMARK H PARENT 15 6 8 12 19 29 78 48 46 59
REMARK Flexibility Score: inf
ROOT
ATOM      1  C   UNL A   1      37.491  19.566  24.988  1.00  0.00     0.042 C 
ENDROOT
BRANCH   1   2
ATOM      2  C   UNL A   1      36.208  20.394  25.027  1.00  0.00     0.117 C 
BRANCH   2   3
ATOM      3  N   UNL A   1      35.012  19.575  25.165  1.00  0.00    -0.356 N 
ATOM      4  C   UNL A   1      33.765  19.717  24.640  1.00  0.00     0.220 C 
ATOM      5  O   UNL A   1      32.914  18.866  24.907  1.00  0.00    -0.275 OA
ATOM      6  H   UNL A   1      35.125  18.782  25.738  1.00  0.00     0.163 HD
BRANCH   4   7
ATOM      7  C   UNL A   1      33.433  20.883  23.735  1.00  0.00     0.104 C 
BRANCH   7   8
ATOM      8  C   UNL A   1      32.074  21.539  24.038  1.00  0.00     0.009 C 
ATOM      9  N   UNL A   1      30.792  24.020  25.065  1.00  0.00    -0.327 N 
ATOM     10  C   UNL A   1      30.768  23.668  23.646  1.00  0.00     0.262 C 
ATOM     11  C   UNL A   1      30.768  22.805  25.885  1.00  0.00     0.262 C 
ATOM     12  H   UNL A   1      29.948  24.556  25.261  1.00  0.00     0.348 HD
ATOM     13  C   UNL A   1      31.962  22.829  23.217  1.00  0.00     0.066 C 
ATOM     14  C   UNL A   1      31.889  21.820  25.535  1.00  0.00     0.066 C 
BRANCH   9  15
ATOM     15  C   UNL A   1      31.895  24.937  25.430  1.00  0.00     0.363 C 
BRANCH  15  16
ATOM     16  C   UNL A   1      31.367  26.210  26.115  1.00  0.00     0.277 C 
ATOM     17  C   UNL A   1      32.676  28.338  23.255  1.00  0.00     0.040 C 
ATOM     18  C   UNL A   1      33.535  28.582  24.496  1.00  0.00     0.135 C 
ATOM     19  C   UNL A   1      33.507  27.430  25.509  1.00  0.00     0.151 C 
ATOM     20  O   UNL A   1      33.182  29.808  25.158  1.00  0.00    -0.372 OA
ATOM     21  N   UNL A   1      32.193  27.325  26.140  1.00  0.00    -0.333 N 
ATOM     22  C   UNL A   1      31.871  29.762  25.765  1.00  0.00     0.135 C 
ATOM     23  C   UNL A   1      31.744  28.579  26.753  1.00  0.00     0.151 C 
ATOM     24  C   UNL A   1      31.686  31.093  26.481  1.00  0.00     0.040 C 
ATOM     25  O   UNL A   1      30.270  26.186  26.679  1.00  0.00    -0.268 OA
ENDBRANCH  15  16
ENDBRANCH   9  15
ENDBRANCH   7   8
ENDBRANCH   4   7
ENDBRANCH   2   3
ENDBRANCH   1   2
BRANCH   1  26
ATOM     26  C   UNL A   1      38.701  20.263  25.589  1.00  0.00     0.118 C 
BRANCH  26  27
ATOM     27  N   UNL A   1      39.754  19.317  25.911  1.00  0.00    -0.352 N 
ATOM     28  C   UNL A   1      41.087  19.553  26.151  1.00  0.00     0.251 C 
ATOM     29  H   UNL A   1      39.475  18.374  25.964  1.00  0.00     0.163 HD
ATOM     30  O   UNL A   1      41.873  18.609  26.135  1.00  0.00    -0.269 OA
BRANCH  28  31
ATOM     31  C   UNL A   1      41.582  20.925  26.429  1.00  0.00     0.039 A 
ATOM     32  C   UNL A   1      41.784  21.313  27.758  1.00  0.00     0.014 A 
ATOM     33  C   UNL A   1      41.788  21.851  25.402  1.00  0.00     0.014 A 
ATOM     34  C   UNL A   1      42.210  22.613  28.051  1.00  0.00     0.010 A 
ATOM     35  C   UNL A   1      42.297  23.117  25.689  1.00  0.00     0.010 A 
ATOM     36  C   UNL A   1      42.481  23.524  27.018  1.00  0.00    -0.014 A 
BRANCH  36  37
ATOM     37  C   UNL A   1      42.924  24.914  27.308  1.00  0.00     0.031 A 
ATOM     38  C   UNL A   1      41.977  25.896  27.948  1.00  0.00     0.074 A 
ATOM     39  C   UNL A   1      44.147  25.325  26.919  1.00  0.00     0.049 A 
ATOM     40  N   UNL A   1      42.165  27.159  28.236  1.00  0.00    -0.248 NA
ATOM     41  C   UNL A   1      40.630  25.403  28.279  1.00  0.00     0.031 C 
ATOM     42  C   UNL A   1      45.122  24.506  26.199  1.00  0.00     0.029 A 
ATOM     43  N   UNL A   1      44.762  26.546  27.042  1.00  0.00    -0.354 N 
ATOM     44  C   UNL A   1      40.951  27.621  28.732  1.00  0.00     0.074 A 
ATOM     45  C   UNL A   1      40.024  26.512  28.675  1.00  0.00     0.031 C 
ATOM     46  C   UNL A   1      46.210  25.248  25.936  1.00  0.00     0.029 A 
ATOM     47  C   UNL A   1      46.002  26.600  26.449  1.00  0.00     0.049 A 
ATOM     48  H   UNL A   1      44.355  27.310  27.510  1.00  0.00     0.167 HD
ATOM     49  C   UNL A   1      40.642  28.845  29.223  1.00  0.00     0.034 A 
ATOM     50  C   UNL A   1      46.872  27.622  26.324  1.00  0.00     0.034 A 
ATOM     51  C   UNL A   1      41.583  29.927  29.338  1.00  0.00     0.049 A 
ATOM     52  C   UNL A   1      46.545  28.948  26.955  1.00  0.00     0.074 A 
ATOM     53  C   UNL A   1      41.406  31.162  29.937  1.00  0.00     0.029 A 
ATOM     54  N   UNL A   1      42.875  29.907  28.837  1.00  0.00    -0.354 N 
ATOM     55  N   UNL A   1      45.459  29.309  27.596  1.00  0.00    -0.248 NA
ATOM     56  C   UNL A   1      47.575  29.994  26.884  1.00  0.00     0.031 C 
ATOM     57  C   UNL A   1      42.587  31.896  29.780  1.00  0.00     0.029 A 
ATOM     58  C   UNL A   1      43.505  31.111  29.099  1.00  0.00     0.049 A 
ATOM     59  H   UNL A   1      43.285  29.147  28.362  1.00  0.00     0.167 HD
ATOM     60  C   UNL A   1      45.683  30.612  28.025  1.00  0.00     0.074 A 
ATOM     61  C   UNL A   1      47.020  30.968  27.593  1.00  0.00     0.031 C 
ATOM     62  C   UNL A   1      44.851  31.442  28.703  1.00  0.00     0.034 A 
BRANCH  49  63
ATOM     63  C   UNL A   1      39.237  29.056  29.730  1.00  0.00     0.023 A 
ATOM     64  C   UNL A   1      38.897  28.635  31.032  1.00  0.00     0.012 A 
ATOM     65  C   UNL A   1      38.264  29.692  28.936  1.00  0.00     0.148 A 
ATOM     66  C   UNL A   1      37.599  28.798  31.517  1.00  0.00     0.002 A 
ATOM     67  C   UNL A   1      36.985  29.893  29.443  1.00  0.00     0.091 A 
ATOM     68  F   UNL A   1      38.595  30.067  27.691  1.00  0.00    -0.205 F 
ATOM     69  C   UNL A   1      36.648  29.435  30.727  1.00  0.00     0.022 A 
BRANCH  67  70
ATOM     70  S   UNL A   1      35.717  30.775  28.525  1.00  0.00     0.127 S 
ATOM     71  O   UNL A   1      34.845  31.244  29.601  1.00  0.00    -0.237 OA
ATOM     72  O   UNL A   1      36.487  31.829  27.862  1.00  0.00    -0.237 OA
ATOM     73  O   UNL A   1      35.135  29.796  27.618  1.00  0.00    -0.744 OA
ENDBRANCH  67  70
ENDBRANCH  49  63
BRANCH  50  74
ATOM     74  C   UNL A   1      48.170  27.388  25.631  1.00  0.00     0.023 A 
ATOM     75  C   UNL A   1      49.279  26.937  26.370  1.00  0.00     0.012 A 
ATOM     76  C   UNL A   1      48.286  27.531  24.234  1.00  0.00     0.148 A 
ATOM     77  C   UNL A   1      50.488  26.648  25.733  1.00  0.00     0.002 A 
ATOM     78  C   UNL A   1      49.473  27.190  23.599  1.00  0.00     0.091 A 
ATOM     79  F   UNL A   1      47.219  27.972  23.552  1.00  0.00    -0.205 F 
ATOM     80  C   UNL A   1      50.580  26.761  24.348  1.00  0.00     0.022 A 
BRANCH  78  81
ATOM     81  S   UNL A   1      49.645  27.173  21.810  1.00  0.00     0.127 S 
ATOM     82  O   UNL A   1      49.378  28.568  21.471  1.00  0.00    -0.237 OA
ATOM     83  O   UNL A   1      51.036  26.753  21.642  1.00  0.00    -0.237 OA
ATOM     84  O   UNL A   1      48.665  26.207  21.329  1.00  0.00    -0.744 OA
ENDBRANCH  78  81
ENDBRANCH  50  74
BRANCH  62  85
ATOM     85  C   UNL A   1      45.356  32.822  29.035  1.00  0.00     0.023 A 
ATOM     86  C   UNL A   1      46.027  33.043  30.254  1.00  0.00     0.012 A 
ATOM     87  C   UNL A   1      45.243  33.875  28.107  1.00  0.00     0.148 A 
ATOM     88  C   UNL A   1      46.552  34.299  30.557  1.00  0.00     0.002 A 
ATOM     89  C   UNL A   1      45.808  35.113  28.395  1.00  0.00     0.091 A 
ATOM     90  F   UNL A   1      44.584  33.651  26.961  1.00  0.00    -0.205 F 
ATOM     91  C   UNL A   1      46.454  35.330  29.624  1.00  0.00     0.022 A 
BRANCH  89  92
ATOM     92  S   UNL A   1      45.811  36.467  27.215  1.00  0.00     0.127 S 
ATOM     93  O   UNL A   1      44.387  36.783  27.119  1.00  0.00    -0.237 OA
ATOM     94  O   UNL A   1      46.616  37.479  27.900  1.00  0.00    -0.237 OA
ATOM     95  O   UNL A   1      46.419  35.936  26.002  1.00  0.00    -0.744 OA
ENDBRANCH  89  92
ENDBRANCH  62  85
ENDBRANCH  36  37
ENDBRANCH  28  31
ENDBRANCH  26  27
ENDBRANCH   1  26
TORSDOF 16
ENDMDL
MODEL 3
REMARK VINA RESULT:     -11.6      3.311      8.513
REMARK SMILES C[C@@H]1CN(C(=O)C[NH+]2CCC(CC(=O)NCCCNC(=O)c3ccc(-c4c5nc(c(-c6cccc(S(=O)(=O)[O-])c6F)c6ccc([nH]6)c(-c6cccc(S(=O)(=O)[O-])c6F)c6nc(c(-c7cccc(S(=O)(=O)[O-])c7F)c7ccc4[nH]7)C=C6)C=C5)cc3)CC2)C[C@@H](C)O1
REMARK SMILES IDX 17 1 16 2 15 3 13 4 14 5 12 7 11 8 8 9 9 10 86 11 10 13
REMARK SMILES IDX 85 14 7 15 5 16 1 17 2 18 3 19 90 20 4 21 88 22 87 23 89 24
REMARK SMILES IDX 6 25 18 26 19 27 20 28 21 30 22 31 23 32 84 33 24 34 83 35
REMARK SMILES IDX 25 36 26 37 27 38 77 39 28 40 82 41 76 42 78 43 29 44 81 45
REMARK SMILES IDX 75 46 74 47 30 49 62 50 42 51 61 52 43 53 46 54 60 55 79 56
REMARK SMILES IDX 44 57 45 58 59 60 80 61 47 62 31 63 32 64 40 65 33 66 35 67
REMARK SMILES IDX 41 68 34 69 36 70 37 71 38 72 39 73 63 74 64 75 72 76 65 77
REMARK SMILES IDX 67 78 73 79 66 80 68 81 69 82 70 83 71 84 48 85 49 86 57 87
REMARK SMILES IDX 50 88 52 89 58 90 51 91 53 92 54 93 55 94 56 95
REMARK H PARENT 15 6 8 12 19 29 78 48 46 59
REMARK Flexibility Score: inf
ROOT
ATOM      1  C   UNL A   1      31.336  31.959  26.651  1.00  0.00     0.042 C 
ENDROOT
BRANCH   1   2
ATOM      2  C   UNL A   1      31.477  30.767  25.707  1.00  0.00     0.117 C 
BRANCH   2   3
ATOM      3  N   UNL A   1      30.551  30.823  24.584  1.00  0.00    -0.356 N 
ATOM      4  C   UNL A   1      30.068  29.843  23.772  1.00  0.00     0.220 C 
ATOM      5  O   UNL A   1      29.274  30.155  22.883  1.00  0.00    -0.275 OA
ATOM      6  H   UNL A   1      30.217  31.725  24.376  1.00  0.00     0.163 HD
BRANCH   4   7
ATOM      7  C   UNL A   1      30.484  28.402  23.965  1.00  0.00     0.104 C 
BRANCH   7   8
ATOM      8  C   UNL A   1      31.312  27.831  22.801  1.00  0.00     0.009 C 
ATOM      9  N   UNL A   1      33.498  25.927  22.128  1.00  0.00    -0.327 N 
ATOM     10  C   UNL A   1      32.099  25.641  21.812  1.00  0.00     0.262 C 
ATOM     11  C   UNL A   1      33.747  27.369  22.042  1.00  0.00     0.262 C 
ATOM     12  H   UNL A   1      34.071  25.460  21.426  1.00  0.00     0.348 HD
ATOM     13  C   UNL A   1      31.121  26.310  22.765  1.00  0.00     0.066 C 
ATOM     14  C   UNL A   1      32.798  28.197  22.914  1.00  0.00     0.066 C 
BRANCH   9  15
ATOM     15  C   UNL A   1      33.948  25.342  23.410  1.00  0.00     0.363 C 
BRANCH  15  16
ATOM     16  C   UNL A   1      34.128  23.817  23.300  1.00  0.00     0.277 C 
ATOM     17  C   UNL A   1      30.839  23.259  25.114  1.00  0.00     0.040 C 
ATOM     18  C   UNL A   1      31.992  22.867  26.036  1.00  0.00     0.135 C 
ATOM     19  C   UNL A   1      33.324  23.546  25.691  1.00  0.00     0.151 C 
ATOM     20  O   UNL A   1      32.181  21.443  26.080  1.00  0.00    -0.372 OA
ATOM     21  N   UNL A   1      33.848  23.048  24.421  1.00  0.00    -0.333 N 
ATOM     22  C   UNL A   1      32.663  20.900  24.829  1.00  0.00     0.135 C 
ATOM     23  C   UNL A   1      33.973  21.587  24.380  1.00  0.00     0.151 C 
ATOM     24  C   UNL A   1      32.881  19.412  25.066  1.00  0.00     0.040 C 
ATOM     25  O   UNL A   1      34.580  23.331  22.260  1.00  0.00    -0.268 OA
ENDBRANCH  15  16
ENDBRANCH   9  15
ENDBRANCH   7   8
ENDBRANCH   4   7
ENDBRANCH   2   3
ENDBRANCH   1   2
BRANCH   1  26
ATOM     26  C   UNL A   1      32.653  32.462  27.220  1.00  0.00     0.118 C 
BRANCH  26  27
ATOM     27  N   UNL A   1      32.584  33.872  27.554  1.00  0.00    -0.352 N 
ATOM     28  C   UNL A   1      33.213  34.555  28.569  1.00  0.00     0.251 C 
ATOM     29  H   UNL A   1      32.005  34.418  26.973  1.00  0.00     0.163 HD
ATOM     30  O   UNL A   1      32.822  35.682  28.862  1.00  0.00    -0.269 OA
BRANCH  28  31
ATOM     31  C   UNL A   1      34.350  33.949  29.307  1.00  0.00     0.039 A 
ATOM     32  C   UNL A   1      35.650  34.377  29.012  1.00  0.00     0.014 A 
ATOM     33  C   UNL A   1      34.156  32.922  30.235  1.00  0.00     0.014 A 
ATOM     34  C   UNL A   1      36.743  33.795  29.662  1.00  0.00     0.010 A 
ATOM     35  C   UNL A   1      35.239  32.404  30.945  1.00  0.00     0.010 A 
ATOM     36  C   UNL A   1      36.547  32.810  30.643  1.00  0.00    -0.014 A 
BRANCH  36  37
ATOM     37  C   UNL A   1      37.696  32.169  31.338  1.00  0.00     0.031 A 
ATOM     38  C   UNL A   1      38.457  31.050  30.675  1.00  0.00     0.074 A 
ATOM     39  C   UNL A   1      38.003  32.529  32.599  1.00  0.00     0.049 A 
ATOM     40  N   UNL A   1      39.454  30.340  31.139  1.00  0.00    -0.248 NA
ATOM     41  C   UNL A   1      38.020  30.655  29.327  1.00  0.00     0.031 C 
ATOM     42  C   UNL A   1      37.283  33.525  33.392  1.00  0.00     0.029 A 
ATOM     43  N   UNL A   1      38.982  32.070  33.447  1.00  0.00    -0.354 N 
ATOM     44  C   UNL A   1      39.729  29.388  30.164  1.00  0.00     0.074 A 
ATOM     45  C   UNL A   1      38.771  29.588  29.099  1.00  0.00     0.031 C 
ATOM     46  C   UNL A   1      37.835  33.597  34.614  1.00  0.00     0.029 A 
ATOM     47  C   UNL A   1      38.935  32.639  34.699  1.00  0.00     0.049 A 
ATOM     48  H   UNL A   1      39.651  31.399  33.185  1.00  0.00     0.167 HD
ATOM     49  C   UNL A   1      40.709  28.452  30.139  1.00  0.00     0.034 A 
ATOM     50  C   UNL A   1      39.687  32.413  35.794  1.00  0.00     0.034 A 
ATOM     51  C   UNL A   1      41.699  28.297  31.170  1.00  0.00     0.049 A 
ATOM     52  C   UNL A   1      40.825  31.433  35.716  1.00  0.00     0.074 A 
ATOM     53  C   UNL A   1      42.806  27.468  31.182  1.00  0.00     0.029 A 
ATOM     54  N   UNL A   1      41.696  28.978  32.377  1.00  0.00    -0.354 N 
ATOM     55  N   UNL A   1      41.192  30.676  34.710  1.00  0.00    -0.248 NA
ATOM     56  C   UNL A   1      41.681  31.306  36.904  1.00  0.00     0.031 C 
ATOM     57  C   UNL A   1      43.464  27.636  32.406  1.00  0.00     0.029 A 
ATOM     58  C   UNL A   1      42.775  28.582  33.149  1.00  0.00     0.049 A 
ATOM     59  H   UNL A   1      41.025  29.647  32.647  1.00  0.00     0.167 HD
ATOM     60  C   UNL A   1      42.331  30.001  35.133  1.00  0.00     0.074 A 
ATOM     61  C   UNL A   1      42.609  30.459  36.479  1.00  0.00     0.031 C 
ATOM     62  C   UNL A   1      43.070  29.075  34.471  1.00  0.00     0.034 A 
BRANCH  49  63
ATOM     63  C   UNL A   1      40.790  27.564  28.923  1.00  0.00     0.023 A 
ATOM     64  C   UNL A   1      39.888  26.488  28.786  1.00  0.00     0.012 A 
ATOM     65  C   UNL A   1      41.734  27.805  27.907  1.00  0.00     0.148 A 
ATOM     66  C   UNL A   1      39.956  25.638  27.683  1.00  0.00     0.002 A 
ATOM     67  C   UNL A   1      41.765  26.980  26.787  1.00  0.00     0.091 A 
ATOM     68  F   UNL A   1      42.600  28.817  28.060  1.00  0.00    -0.205 F 
ATOM     69  C   UNL A   1      40.887  25.890  26.680  1.00  0.00     0.022 A 
BRANCH  67  70
ATOM     70  S   UNL A   1      42.879  27.277  25.409  1.00  0.00     0.127 S 
ATOM     71  O   UNL A   1      42.816  26.002  24.696  1.00  0.00    -0.237 OA
ATOM     72  O   UNL A   1      42.230  28.394  24.717  1.00  0.00    -0.237 OA
ATOM     73  O   UNL A   1      44.165  27.608  26.006  1.00  0.00    -0.744 OA
ENDBRANCH  67  70
ENDBRANCH  49  63
BRANCH  50  74
ATOM     74  C   UNL A   1      39.418  33.197  37.033  1.00  0.00     0.023 A 
ATOM     75  C   UNL A   1      39.947  34.494  37.161  1.00  0.00     0.012 A 
ATOM     76  C   UNL A   1      38.575  32.695  38.044  1.00  0.00     0.148 A 
ATOM     77  C   UNL A   1      39.656  35.274  38.281  1.00  0.00     0.002 A 
ATOM     78  C   UNL A   1      38.244  33.496  39.130  1.00  0.00     0.091 A 
ATOM     79  F   UNL A   1      38.091  31.453  37.905  1.00  0.00    -0.205 F 
ATOM     80  C   UNL A   1      38.794  34.781  39.258  1.00  0.00     0.022 A 
BRANCH  78  81
ATOM     81  S   UNL A   1      37.039  33.000  40.368  1.00  0.00     0.127 S 
ATOM     82  O   UNL A   1      35.864  32.724  39.547  1.00  0.00    -0.237 OA
ATOM     83  O   UNL A   1      37.673  31.819  40.953  1.00  0.00    -0.237 OA
ATOM     84  O   UNL A   1      36.921  34.132  41.279  1.00  0.00    -0.744 OA
ENDBRANCH  78  81
ENDBRANCH  50  74
BRANCH  62  85
ATOM     85  C   UNL A   1      44.263  28.493  35.182  1.00  0.00     0.023 A 
ATOM     86  C   UNL A   1      45.545  29.028  34.944  1.00  0.00     0.012 A 
ATOM     87  C   UNL A   1      44.107  27.478  36.146  1.00  0.00     0.148 A 
ATOM     88  C   UNL A   1      46.656  28.542  35.633  1.00  0.00     0.002 A 
ATOM     89  C   UNL A   1      45.211  27.029  36.862  1.00  0.00     0.091 A 
ATOM     90  F   UNL A   1      42.883  26.967  36.345  1.00  0.00    -0.205 F 
ATOM     91  C   UNL A   1      46.488  27.553  36.600  1.00  0.00     0.022 A 
BRANCH  89  92
ATOM     92  S   UNL A   1      45.073  25.826  38.189  1.00  0.00     0.127 S 
ATOM     93  O   UNL A   1      44.093  26.463  39.067  1.00  0.00    -0.237 OA
ATOM     94  O   UNL A   1      44.582  24.639  37.486  1.00  0.00    -0.237 OA
ATOM     95  O   UNL A   1      46.413  25.686  38.741  1.00  0.00    -0.744 OA
ENDBRANCH  89  92
ENDBRANCH  62  85
ENDBRANCH  36  37
ENDBRANCH  28  31
ENDBRANCH  26  27
ENDBRANCH   1  26
TORSDOF 16
ENDMDL
