MODEL 1
REMARK VINA RESULT:     -12.4      0.000      0.000
REMARK SMILES C[NH+](C)CCc1nc(Nc2ccc(O)c(C(=O)NCCCNC(=O)c3ccc(-c4c5nc(c(-c6cccc(S(=O)(=O)[O-])c6F)c6ccc([nH]6)c(-c6cccc(S(=O)(=O)[O-])c6F)c6nc(c(-c7cccc(S(=O)(=O)[O-])c7F)c7ccc4[nH]7)C=C6)C=C5)cc3)c2)c2ccccc2n1
REMARK SMILES IDX 19 1 18 2 16 3 17 4 15 6 10 7 11 8 88 9 12 10 13 11 9 12
REMARK SMILES IDX 8 14 6 15 7 16 95 17 94 18 89 19 93 20 90 21 92 22 91 23
REMARK SMILES IDX 5 24 4 25 2 26 1 27 3 28 14 30 20 32 21 33 22 34 23 35 24 37
REMARK SMILES IDX 25 38 26 39 87 40 27 41 86 42 28 43 29 44 30 45 80 46 31 47
REMARK SMILES IDX 85 48 79 49 81 50 32 51 84 52 78 53 77 54 33 56 65 57 45 58
REMARK SMILES IDX 64 59 46 60 49 61 63 62 82 63 47 64 48 65 62 67 83 68 50 69
REMARK SMILES IDX 34 70 35 71 43 72 36 73 38 74 44 75 37 76 39 77 40 78 41 79
REMARK SMILES IDX 42 80 66 81 67 82 75 83 68 84 70 85 76 86 69 87 71 88 72 89
REMARK SMILES IDX 73 90 74 91 51 92 52 93 60 94 53 95 55 96 61 97 54 98 56 99
REMARK SMILES IDX 57 100 58 101 59 102
REMARK H PARENT 18 5 9 13 2 29 14 31 22 36 81 55 49 66
REMARK Flexibility Score: inf
ROOT
ATOM      1  C   UNL A   1      32.347  27.514  26.894  1.00  0.00     0.118 C 
ENDROOT
BRANCH   1   2
ATOM      2  N   UNL A   1      31.300  26.516  26.897  1.00  0.00    -0.352 N 
ATOM      3  C   UNL A   1      30.711  25.783  25.903  1.00  0.00     0.255 C 
ATOM      4  O   UNL A   1      29.786  25.047  26.269  1.00  0.00    -0.269 OA
ATOM      5  H   UNL A   1      30.939  26.325  27.793  1.00  0.00     0.163 HD
BRANCH   3   6
ATOM      6  C   UNL A   1      31.138  25.725  24.469  1.00  0.00     0.083 A 
ATOM      7  C   UNL A   1      32.216  24.236  22.823  1.00  0.00     0.041 A 
ATOM      8  C   UNL A   1      32.127  25.243  21.866  1.00  0.00     0.030 A 
ATOM      9  C   UNL A   1      31.738  24.498  24.112  1.00  0.00     0.043 A 
ATOM     10  C   UNL A   1      31.502  26.449  22.172  1.00  0.00     0.049 A 
ATOM     11  C   UNL A   1      30.985  26.678  23.455  1.00  0.00     0.128 A 
BRANCH   7  12
ATOM     12  N   UNL A   1      32.824  23.003  22.548  1.00  0.00    -0.340 N 
ATOM     13  H   UNL A   1      32.878  22.744  21.599  1.00  0.00     0.168 HD
BRANCH  12  14
ATOM     14  C   UNL A   1      33.364  22.090  23.476  1.00  0.00     0.142 A 
ATOM     15  C   UNL A   1      33.182  20.103  24.619  1.00  0.00     0.137 A 
ATOM     16  N   UNL A   1      32.628  21.015  23.813  1.00  0.00    -0.215 NA
ATOM     17  N   UNL A   1      34.444  20.165  25.057  1.00  0.00    -0.233 NA
ATOM     18  C   UNL A   1      35.135  21.279  24.805  1.00  0.00     0.076 A 
ATOM     19  C   UNL A   1      34.633  22.322  24.025  1.00  0.00     0.043 A 
ATOM     20  C   UNL A   1      36.392  21.419  25.381  1.00  0.00     0.029 A 
ATOM     21  C   UNL A   1      35.397  23.507  23.867  1.00  0.00     0.014 A 
ATOM     22  C   UNL A   1      37.142  22.589  25.237  1.00  0.00     0.002 A 
ATOM     23  C   UNL A   1      36.639  23.640  24.484  1.00  0.00     0.001 A 
BRANCH  15  24
ATOM     24  C   UNL A   1      32.279  18.987  25.072  1.00  0.00     0.138 C 
BRANCH  24  25
ATOM     25  C   UNL A   1      32.882  17.575  25.195  1.00  0.00     0.269 C 
BRANCH  25  26
ATOM     26  N   UNL A   1      34.161  17.227  24.544  1.00  0.00    -0.339 N 
ATOM     27  C   UNL A   1      34.896  16.174  25.236  1.00  0.00     0.332 C 
ATOM     28  C   UNL A   1      34.031  16.913  23.126  1.00  0.00     0.332 C 
ATOM     29  H   UNL A   1      34.711  18.083  24.613  1.00  0.00     0.347 HD
ENDBRANCH  25  26
ENDBRANCH  24  25
ENDBRANCH  15  24
ENDBRANCH  12  14
ENDBRANCH   7  12
BRANCH  11  30
ATOM     30  O   UNL A   1      30.298  27.839  23.631  1.00  0.00    -0.507 OA
ATOM     31  H   UNL A   1      29.638  28.091  23.016  1.00  0.00     0.293 HD
ENDBRANCH  11  30
ENDBRANCH   3   6
ENDBRANCH   1   2
BRANCH   1  32
ATOM     32  C   UNL A   1      31.777  28.895  26.567  1.00  0.00     0.042 C 
BRANCH  32  33
ATOM     33  C   UNL A   1      32.736  29.784  25.784  1.00  0.00     0.118 C 
BRANCH  33  34
ATOM     34  N   UNL A   1      32.569  31.187  26.126  1.00  0.00    -0.352 N 
ATOM     35  C   UNL A   1      33.167  31.936  27.107  1.00  0.00     0.251 C 
ATOM     36  H   UNL A   1      31.926  31.678  25.565  1.00  0.00     0.163 HD
ATOM     37  O   UNL A   1      32.694  33.034  27.390  1.00  0.00    -0.269 OA
BRANCH  35  38
ATOM     38  C   UNL A   1      34.366  31.443  27.825  1.00  0.00     0.039 A 
ATOM     39  C   UNL A   1      35.443  32.319  28.001  1.00  0.00     0.014 A 
ATOM     40  C   UNL A   1      34.471  30.120  28.263  1.00  0.00     0.014 A 
ATOM     41  C   UNL A   1      36.604  31.879  28.644  1.00  0.00     0.010 A 
ATOM     42  C   UNL A   1      35.600  29.702  28.968  1.00  0.00     0.010 A 
ATOM     43  C   UNL A   1      36.684  30.573  29.152  1.00  0.00    -0.014 A 
BRANCH  43  44
ATOM     44  C   UNL A   1      37.891  30.117  29.889  1.00  0.00     0.031 A 
ATOM     45  C   UNL A   1      38.165  30.595  31.290  1.00  0.00     0.074 A 
ATOM     46  C   UNL A   1      38.779  29.319  29.264  1.00  0.00     0.049 A 
ATOM     47  N   UNL A   1      39.163  30.298  32.080  1.00  0.00    -0.248 NA
ATOM     48  C   UNL A   1      37.206  31.549  31.872  1.00  0.00     0.031 C 
ATOM     49  C   UNL A   1      38.671  28.863  27.876  1.00  0.00     0.029 A 
ATOM     50  N   UNL A   1      39.955  28.766  29.704  1.00  0.00    -0.354 N 
ATOM     51  C   UNL A   1      38.975  31.047  33.235  1.00  0.00     0.074 A 
ATOM     52  C   UNL A   1      37.780  31.838  33.032  1.00  0.00     0.031 C 
ATOM     53  C   UNL A   1      39.732  28.095  27.582  1.00  0.00     0.029 A 
ATOM     54  C   UNL A   1      40.605  28.021  28.749  1.00  0.00     0.049 A 
ATOM     55  H   UNL A   1      40.301  28.892  30.617  1.00  0.00     0.167 HD
ATOM     56  C   UNL A   1      39.709  31.054  34.373  1.00  0.00     0.034 A 
ATOM     57  C   UNL A   1      41.773  27.351  28.806  1.00  0.00     0.034 A 
ATOM     58  C   UNL A   1      40.870  30.232  34.586  1.00  0.00     0.049 A 
ATOM     59  C   UNL A   1      42.537  27.327  30.101  1.00  0.00     0.074 A 
ATOM     60  C   UNL A   1      41.624  30.089  35.738  1.00  0.00     0.029 A 
ATOM     61  N   UNL A   1      41.451  29.418  33.626  1.00  0.00    -0.354 N 
ATOM     62  N   UNL A   1      42.242  27.900  31.243  1.00  0.00    -0.248 NA
ATOM     63  C   UNL A   1      43.773  26.531  30.129  1.00  0.00     0.031 C 
ATOM     64  C   UNL A   1      42.674  29.205  35.467  1.00  0.00     0.029 A 
ATOM     65  C   UNL A   1      42.562  28.780  34.153  1.00  0.00     0.049 A 
ATOM     66  H   UNL A   1      41.122  29.310  32.704  1.00  0.00     0.167 HD
ATOM     67  C   UNL A   1      43.238  27.514  32.131  1.00  0.00     0.074 A 
ATOM     68  C   UNL A   1      44.128  26.633  31.402  1.00  0.00     0.031 C 
ATOM     69  C   UNL A   1      43.413  27.871  33.428  1.00  0.00     0.034 A 
BRANCH  56  70
ATOM     70  C   UNL A   1      39.245  31.937  35.504  1.00  0.00     0.023 A 
ATOM     71  C   UNL A   1      38.357  31.419  36.469  1.00  0.00     0.012 A 
ATOM     72  C   UNL A   1      39.733  33.251  35.651  1.00  0.00     0.148 A 
ATOM     73  C   UNL A   1      37.936  32.202  37.543  1.00  0.00     0.002 A 
ATOM     74  C   UNL A   1      39.343  34.011  36.748  1.00  0.00     0.091 A 
ATOM     75  F   UNL A   1      40.562  33.734  34.715  1.00  0.00    -0.205 F 
ATOM     76  C   UNL A   1      38.437  33.493  37.688  1.00  0.00     0.022 A 
BRANCH  74  77
ATOM     77  S   UNL A   1      39.991  35.657  37.068  1.00  0.00     0.127 S 
ATOM     78  O   UNL A   1      39.287  36.017  38.298  1.00  0.00    -0.237 OA
ATOM     79  O   UNL A   1      41.421  35.397  37.239  1.00  0.00    -0.237 OA
ATOM     80  O   UNL A   1      39.654  36.454  35.897  1.00  0.00    -0.744 OA
ENDBRANCH  74  77
ENDBRANCH  56  70
BRANCH  57  81
ATOM     81  C   UNL A   1      42.245  26.584  27.618  1.00  0.00     0.023 A 
ATOM     82  C   UNL A   1      43.047  27.226  26.655  1.00  0.00     0.012 A 
ATOM     83  C   UNL A   1      41.941  25.219  27.458  1.00  0.00     0.148 A 
ATOM     84  C   UNL A   1      43.514  26.531  25.540  1.00  0.00     0.002 A 
ATOM     85  C   UNL A   1      42.456  24.517  26.374  1.00  0.00     0.091 A 
ATOM     86  F   UNL A   1      41.166  24.628  28.379  1.00  0.00    -0.205 F 
ATOM     87  C   UNL A   1      43.229  25.175  25.404  1.00  0.00     0.022 A 
BRANCH  85  88
ATOM     88  S   UNL A   1      42.258  22.740  26.198  1.00  0.00     0.127 S 
ATOM     89  O   UNL A   1      42.935  22.487  24.930  1.00  0.00    -0.237 OA
ATOM     90  O   UNL A   1      42.954  22.236  27.382  1.00  0.00    -0.237 OA
ATOM     91  O   UNL A   1      40.818  22.506  26.209  1.00  0.00    -0.744 OA
ENDBRANCH  85  88
ENDBRANCH  57  81
BRANCH  69  92
ATOM     92  C   UNL A   1      44.604  27.299  34.151  1.00  0.00     0.023 A 
ATOM     93  C   UNL A   1      45.836  27.984  34.116  1.00  0.00     0.012 A 
ATOM     94  C   UNL A   1      44.490  26.119  34.912  1.00  0.00     0.148 A 
ATOM     95  C   UNL A   1      46.944  27.485  34.797  1.00  0.00     0.002 A 
ATOM     96  C   UNL A   1      45.587  25.654  35.628  1.00  0.00     0.091 A 
ATOM     97  F   UNL A   1      43.316  25.471  34.917  1.00  0.00    -0.205 F 
ATOM     98  C   UNL A   1      46.817  26.327  35.561  1.00  0.00     0.022 A 
BRANCH  96  99
ATOM     99  S   UNL A   1      45.488  24.224  36.711  1.00  0.00     0.127 S 
ATOM    100  O   UNL A   1      44.473  24.648  37.674  1.00  0.00    -0.237 OA
ATOM    101  O   UNL A   1      45.055  23.168  35.795  1.00  0.00    -0.237 OA
ATOM    102  O   UNL A   1      46.828  24.039  37.251  1.00  0.00    -0.744 OA
ENDBRANCH  96  99
ENDBRANCH  69  92
ENDBRANCH  43  44
ENDBRANCH  35  38
ENDBRANCH  33  34
ENDBRANCH  32  33
ENDBRANCH   1  32
TORSDOF 19
ENDMDL
MODEL 2
REMARK VINA RESULT:     -11.3      2.355      3.562
REMARK SMILES C[NH+](C)CCc1nc(Nc2ccc(O)c(C(=O)NCCCNC(=O)c3ccc(-c4c5nc(c(-c6cccc(S(=O)(=O)[O-])c6F)c6ccc([nH]6)c(-c6cccc(S(=O)(=O)[O-])c6F)c6nc(c(-c7cccc(S(=O)(=O)[O-])c7F)c7ccc4[nH]7)C=C6)C=C5)cc3)c2)c2ccccc2n1
REMARK SMILES IDX 19 1 18 2 16 3 17 4 15 6 10 7 11 8 88 9 12 10 13 11 9 12
REMARK SMILES IDX 8 14 6 15 7 16 95 17 94 18 89 19 93 20 90 21 92 22 91 23
REMARK SMILES IDX 5 24 4 25 2 26 1 27 3 28 14 30 20 32 21 33 22 34 23 35 24 37
REMARK SMILES IDX 25 38 26 39 87 40 27 41 86 42 28 43 29 44 30 45 80 46 31 47
REMARK SMILES IDX 85 48 79 49 81 50 32 51 84 52 78 53 77 54 33 56 65 57 45 58
REMARK SMILES IDX 64 59 46 60 49 61 63 62 82 63 47 64 48 65 62 67 83 68 50 69
REMARK SMILES IDX 34 70 35 71 43 72 36 73 38 74 44 75 37 76 39 77 40 78 41 79
REMARK SMILES IDX 42 80 66 81 67 82 75 83 68 84 70 85 76 86 69 87 71 88 72 89
REMARK SMILES IDX 73 90 74 91 51 92 52 93 60 94 53 95 55 96 61 97 54 98 56 99
REMARK SMILES IDX 57 100 58 101 59 102
REMARK H PARENT 18 5 9 13 2 29 14 31 22 36 81 55 49 66
REMARK Flexibility Score: inf
ROOT
ATOM      1  C   UNL A   1      34.130  30.516  27.399  1.00  0.00     0.118 C 
ENDROOT
BRANCH   1   2
ATOM      2  N   UNL A   1      32.899  29.813  27.687  1.00  0.00    -0.352 N 
ATOM      3  C   UNL A   1      32.315  28.701  27.145  1.00  0.00     0.255 C 
ATOM      4  O   UNL A   1      31.207  28.408  27.611  1.00  0.00    -0.269 OA
ATOM      5  H   UNL A   1      32.378  30.214  28.419  1.00  0.00     0.163 HD
BRANCH   3   6
ATOM      6  C   UNL A   1      32.923  27.779  26.134  1.00  0.00     0.083 A 
ATOM      7  C   UNL A   1      33.554  25.419  25.788  1.00  0.00     0.041 A 
ATOM      8  C   UNL A   1      34.063  25.747  24.535  1.00  0.00     0.030 A 
ATOM      9  C   UNL A   1      33.010  26.441  26.575  1.00  0.00     0.043 A 
ATOM     10  C   UNL A   1      33.955  27.047  24.052  1.00  0.00     0.049 A 
ATOM     11  C   UNL A   1      33.364  28.051  24.833  1.00  0.00     0.128 A 
BRANCH   7  12
ATOM     12  N   UNL A   1      33.629  24.117  26.303  1.00  0.00    -0.340 N 
ATOM     13  H   UNL A   1      32.989  23.892  27.017  1.00  0.00     0.168 HD
BRANCH  12  14
ATOM     14  C   UNL A   1      34.517  23.094  25.916  1.00  0.00     0.142 A 
ATOM     15  C   UNL A   1      36.673  22.303  25.783  1.00  0.00     0.137 A 
ATOM     16  N   UNL A   1      35.838  23.311  26.062  1.00  0.00    -0.215 NA
ATOM     17  N   UNL A   1      36.270  21.077  25.432  1.00  0.00    -0.233 NA
ATOM     18  C   UNL A   1      34.970  20.896  25.191  1.00  0.00     0.076 A 
ATOM     19  C   UNL A   1      34.015  21.896  25.390  1.00  0.00     0.043 A 
ATOM     20  C   UNL A   1      34.559  19.671  24.681  1.00  0.00     0.029 A 
ATOM     21  C   UNL A   1      32.663  21.652  25.037  1.00  0.00     0.014 A 
ATOM     22  C   UNL A   1      33.230  19.431  24.322  1.00  0.00     0.002 A 
ATOM     23  C   UNL A   1      32.280  20.427  24.493  1.00  0.00     0.001 A 
BRANCH  15  24
ATOM     24  C   UNL A   1      38.141  22.630  25.835  1.00  0.00     0.138 C 
BRANCH  24  25
ATOM     25  C   UNL A   1      39.139  21.460  25.931  1.00  0.00     0.269 C 
BRANCH  25  26
ATOM     26  N   UNL A   1      40.372  21.569  26.736  1.00  0.00    -0.339 N 
ATOM     27  C   UNL A   1      40.837  20.289  27.258  1.00  0.00     0.332 C 
ATOM     28  C   UNL A   1      41.457  22.268  26.056  1.00  0.00     0.332 C 
ATOM     29  H   UNL A   1      40.096  22.144  27.531  1.00  0.00     0.347 HD
ENDBRANCH  25  26
ENDBRANCH  24  25
ENDBRANCH  15  24
ENDBRANCH  12  14
ENDBRANCH   7  12
BRANCH  11  30
ATOM     30  O   UNL A   1      33.205  29.264  24.238  1.00  0.00    -0.507 OA
ATOM     31  H   UNL A   1      33.706  29.999  24.532  1.00  0.00     0.293 HD
ENDBRANCH  11  30
ENDBRANCH   3   6
ENDBRANCH   1   2
BRANCH   1  32
ATOM     32  C   UNL A   1      33.851  31.985  27.075  1.00  0.00     0.042 C 
BRANCH  32  33
ATOM     33  C   UNL A   1      32.475  32.461  27.526  1.00  0.00     0.118 C 
BRANCH  33  34
ATOM     34  N   UNL A   1      32.477  33.878  27.853  1.00  0.00    -0.352 N 
ATOM     35  C   UNL A   1      33.223  34.572  28.770  1.00  0.00     0.251 C 
ATOM     36  H   UNL A   1      31.844  34.425  27.333  1.00  0.00     0.163 HD
ATOM     37  O   UNL A   1      32.885  35.716  29.068  1.00  0.00    -0.269 OA
BRANCH  35  38
ATOM     38  C   UNL A   1      34.419  33.969  29.403  1.00  0.00     0.039 A 
ATOM     39  C   UNL A   1      34.235  33.100  30.484  1.00  0.00     0.014 A 
ATOM     40  C   UNL A   1      35.714  34.298  28.993  1.00  0.00     0.014 A 
ATOM     41  C   UNL A   1      35.341  32.538  31.126  1.00  0.00     0.010 A 
ATOM     42  C   UNL A   1      36.816  33.682  29.587  1.00  0.00     0.010 A 
ATOM     43  C   UNL A   1      36.641  32.808  30.669  1.00  0.00    -0.014 A 
BRANCH  43  44
ATOM     44  C   UNL A   1      37.819  32.167  31.310  1.00  0.00     0.031 A 
ATOM     45  C   UNL A   1      38.380  32.703  32.600  1.00  0.00     0.074 A 
ATOM     46  C   UNL A   1      38.424  31.136  30.689  1.00  0.00     0.049 A 
ATOM     47  N   UNL A   1      39.396  32.267  33.299  1.00  0.00    -0.248 NA
ATOM     48  C   UNL A   1      37.732  33.896  33.169  1.00  0.00     0.031 C 
ATOM     49  C   UNL A   1      38.031  30.586  29.390  1.00  0.00     0.029 A 
ATOM     50  N   UNL A   1      39.510  30.380  31.054  1.00  0.00    -0.354 N 
ATOM     51  C   UNL A   1      39.531  33.145  34.368  1.00  0.00     0.074 A 
ATOM     52  C   UNL A   1      38.511  34.159  34.209  1.00  0.00     0.031 C 
ATOM     53  C   UNL A   1      38.856  29.577  29.071  1.00  0.00     0.029 A 
ATOM     54  C   UNL A   1      39.850  29.422  30.128  1.00  0.00     0.049 A 
ATOM     55  H   UNL A   1      39.999  30.511  31.898  1.00  0.00     0.167 HD
ATOM     56  C   UNL A   1      40.403  33.096  35.403  1.00  0.00     0.034 A 
ATOM     57  C   UNL A   1      40.849  28.517  30.131  1.00  0.00     0.034 A 
ATOM     58  C   UNL A   1      41.386  32.060  35.579  1.00  0.00     0.049 A 
ATOM     59  C   UNL A   1      41.765  28.446  31.321  1.00  0.00     0.074 A 
ATOM     60  C   UNL A   1      42.248  31.863  36.643  1.00  0.00     0.029 A 
ATOM     61  N   UNL A   1      41.644  31.051  34.665  1.00  0.00    -0.354 N 
ATOM     62  N   UNL A   1      41.759  29.177  32.410  1.00  0.00    -0.248 NA
ATOM     63  C   UNL A   1      42.799  27.402  31.302  1.00  0.00     0.031 C 
ATOM     64  C   UNL A   1      43.042  30.746  36.363  1.00  0.00     0.029 A 
ATOM     65  C   UNL A   1      42.660  30.235  35.133  1.00  0.00     0.049 A 
ATOM     66  H   UNL A   1      41.173  30.932  33.808  1.00  0.00     0.167 HD
ATOM     67  C   UNL A   1      42.767  28.665  33.217  1.00  0.00     0.074 A 
ATOM     68  C   UNL A   1      43.343  27.542  32.503  1.00  0.00     0.031 C 
ATOM     69  C   UNL A   1      43.194  29.095  34.431  1.00  0.00     0.034 A 
BRANCH  56  70
ATOM     70  C   UNL A   1      40.297  34.164  36.463  1.00  0.00     0.023 A 
ATOM     71  C   UNL A   1      40.673  35.488  36.154  1.00  0.00     0.012 A 
ATOM     72  C   UNL A   1      39.766  33.878  37.736  1.00  0.00     0.148 A 
ATOM     73  C   UNL A   1      40.555  36.501  37.103  1.00  0.00     0.002 A 
ATOM     74  C   UNL A   1      39.611  34.902  38.664  1.00  0.00     0.091 A 
ATOM     75  F   UNL A   1      39.431  32.611  38.020  1.00  0.00    -0.205 F 
ATOM     76  C   UNL A   1      40.015  36.211  38.353  1.00  0.00     0.022 A 
BRANCH  74  77
ATOM     77  S   UNL A   1      38.854  34.647  40.273  1.00  0.00     0.127 S 
ATOM     78  O   UNL A   1      38.540  36.018  40.672  1.00  0.00    -0.237 OA
ATOM     79  O   UNL A   1      37.687  33.829  39.939  1.00  0.00    -0.237 OA
ATOM     80  O   UNL A   1      39.856  33.972  41.085  1.00  0.00    -0.744 OA
ENDBRANCH  74  77
ENDBRANCH  56  70
BRANCH  57  81
ATOM     81  C   UNL A   1      40.979  27.556  28.999  1.00  0.00     0.023 A 
ATOM     82  C   UNL A   1      40.155  26.414  28.963  1.00  0.00     0.012 A 
ATOM     83  C   UNL A   1      41.880  27.785  27.941  1.00  0.00     0.148 A 
ATOM     84  C   UNL A   1      40.245  25.504  27.911  1.00  0.00     0.002 A 
ATOM     85  C   UNL A   1      41.925  26.904  26.867  1.00  0.00     0.091 A 
ATOM     86  F   UNL A   1      42.665  28.870  28.000  1.00  0.00    -0.205 F 
ATOM     87  C   UNL A   1      41.121  25.753  26.858  1.00  0.00     0.022 A 
BRANCH  85  88
ATOM     88  S   UNL A   1      42.919  27.222  25.405  1.00  0.00     0.127 S 
ATOM     89  O   UNL A   1      44.229  27.497  25.986  1.00  0.00    -0.237 OA
ATOM     90  O   UNL A   1      42.817  25.953  24.684  1.00  0.00    -0.237 OA
ATOM     91  O   UNL A   1      42.274  28.343  24.731  1.00  0.00    -0.744 OA
ENDBRANCH  85  88
ENDBRANCH  57  81
BRANCH  69  92
ATOM     92  C   UNL A   1      44.328  28.343  35.075  1.00  0.00     0.023 A 
ATOM     93  C   UNL A   1      45.656  28.627  34.696  1.00  0.00     0.012 A 
ATOM     94  C   UNL A   1      44.087  27.402  36.094  1.00  0.00     0.148 A 
ATOM     95  C   UNL A   1      46.723  27.961  35.296  1.00  0.00     0.002 A 
ATOM     96  C   UNL A   1      45.158  26.776  36.722  1.00  0.00     0.091 A 
ATOM     97  F   UNL A   1      42.817  27.130  36.427  1.00  0.00    -0.205 F 
ATOM     98  C   UNL A   1      46.475  27.044  36.315  1.00  0.00     0.022 A 
BRANCH  96  99
ATOM     99  S   UNL A   1      44.936  25.653  38.106  1.00  0.00     0.127 S 
ATOM    100  O   UNL A   1      44.038  26.417  38.969  1.00  0.00    -0.237 OA
ATOM    101  O   UNL A   1      44.321  24.488  37.467  1.00  0.00    -0.237 OA
ATOM    102  O   UNL A   1      46.268  25.411  38.642  1.00  0.00    -0.744 OA
ENDBRANCH  96  99
ENDBRANCH  69  92
ENDBRANCH  43  44
ENDBRANCH  35  38
ENDBRANCH  33  34
ENDBRANCH  32  33
ENDBRANCH   1  32
TORSDOF 19
ENDMDL
MODEL 3
REMARK VINA RESULT:     -11.3      1.498      2.658
REMARK SMILES C[NH+](C)CCc1nc(Nc2ccc(O)c(C(=O)NCCCNC(=O)c3ccc(-c4c5nc(c(-c6cccc(S(=O)(=O)[O-])c6F)c6ccc([nH]6)c(-c6cccc(S(=O)(=O)[O-])c6F)c6nc(c(-c7cccc(S(=O)(=O)[O-])c7F)c7ccc4[nH]7)C=C6)C=C5)cc3)c2)c2ccccc2n1
REMARK SMILES IDX 19 1 18 2 16 3 17 4 15 6 10 7 11 8 88 9 12 10 13 11 9 12
REMARK SMILES IDX 8 14 6 15 7 16 95 17 94 18 89 19 93 20 90 21 92 22 91 23
REMARK SMILES IDX 5 24 4 25 2 26 1 27 3 28 14 30 20 32 21 33 22 34 23 35 24 37
REMARK SMILES IDX 25 38 26 39 87 40 27 41 86 42 28 43 29 44 30 45 80 46 31 47
REMARK SMILES IDX 85 48 79 49 81 50 32 51 84 52 78 53 77 54 33 56 65 57 45 58
REMARK SMILES IDX 64 59 46 60 49 61 63 62 82 63 47 64 48 65 62 67 83 68 50 69
REMARK SMILES IDX 34 70 35 71 43 72 36 73 38 74 44 75 37 76 39 77 40 78 41 79
REMARK SMILES IDX 42 80 66 81 67 82 75 83 68 84 70 85 76 86 69 87 71 88 72 89
REMARK SMILES IDX 73 90 74 91 51 92 52 93 60 94 53 95 55 96 61 97 54 98 56 99
REMARK SMILES IDX 57 100 58 101 59 102
REMARK H PARENT 18 5 9 13 2 29 14 31 22 36 81 55 49 66
REMARK Flexibility Score: inf
ROOT
ATOM      1  C   UNL A   1      33.560  27.832  26.149  1.00  0.00     0.118 C 
ENDROOT
BRANCH   1   2
ATOM      2  N   UNL A   1      32.204  27.328  26.194  1.00  0.00    -0.352 N 
ATOM      3  C   UNL A   1      31.430  26.660  25.285  1.00  0.00     0.255 C 
ATOM      4  O   UNL A   1      30.271  26.429  25.649  1.00  0.00    -0.269 OA
ATOM      5  H   UNL A   1      31.748  27.499  27.049  1.00  0.00     0.163 HD
BRANCH   3   6
ATOM      6  C   UNL A   1      31.879  26.116  23.964  1.00  0.00     0.083 A 
ATOM      7  C   UNL A   1      32.191  23.995  22.742  1.00  0.00     0.041 A 
ATOM      8  C   UNL A   1      32.692  24.705  21.654  1.00  0.00     0.030 A 
ATOM      9  C   UNL A   1      31.811  24.708  23.885  1.00  0.00     0.043 A 
ATOM     10  C   UNL A   1      32.732  26.095  21.682  1.00  0.00     0.049 A 
ATOM     11  C   UNL A   1      32.303  26.798  22.817  1.00  0.00     0.128 A 
BRANCH   7  12
ATOM     12  N   UNL A   1      32.120  22.594  22.746  1.00  0.00    -0.340 N 
ATOM     13  H   UNL A   1      31.579  22.183  22.032  1.00  0.00     0.168 HD
BRANCH  12  14
ATOM     14  C   UNL A   1      32.733  21.709  23.654  1.00  0.00     0.142 A 
ATOM     15  C   UNL A   1      33.863  21.386  25.631  1.00  0.00     0.137 A 
ATOM     16  N   UNL A   1      33.366  22.231  24.721  1.00  0.00    -0.215 NA
ATOM     17  N   UNL A   1      33.712  20.058  25.575  1.00  0.00    -0.233 NA
ATOM     18  C   UNL A   1      33.175  19.540  24.468  1.00  0.00     0.076 A 
ATOM     19  C   UNL A   1      32.677  20.327  23.427  1.00  0.00     0.043 A 
ATOM     20  C   UNL A   1      33.150  18.157  24.332  1.00  0.00     0.029 A 
ATOM     21  C   UNL A   1      32.192  19.703  22.249  1.00  0.00     0.014 A 
ATOM     22  C   UNL A   1      32.683  17.540  23.169  1.00  0.00     0.002 A 
ATOM     23  C   UNL A   1      32.210  18.315  22.120  1.00  0.00     0.001 A 
BRANCH  15  24
ATOM     24  C   UNL A   1      34.673  22.007  26.736  1.00  0.00     0.138 C 
BRANCH  24  25
ATOM     25  C   UNL A   1      35.675  23.116  26.362  1.00  0.00     0.269 C 
BRANCH  25  26
ATOM     26  N   UNL A   1      37.123  22.841  26.265  1.00  0.00    -0.339 N 
ATOM     27  C   UNL A   1      37.484  22.044  25.097  1.00  0.00     0.332 C 
ATOM     28  C   UNL A   1      37.954  24.037  26.344  1.00  0.00     0.332 C 
ATOM     29  H   UNL A   1      37.322  22.281  27.094  1.00  0.00     0.347 HD
ENDBRANCH  25  26
ENDBRANCH  24  25
ENDBRANCH  15  24
ENDBRANCH  12  14
ENDBRANCH   7  12
BRANCH  11  30
ATOM     30  O   UNL A   1      32.277  28.154  22.714  1.00  0.00    -0.507 OA
ATOM     31  H   UNL A   1      33.072  28.628  22.567  1.00  0.00     0.293 HD
ENDBRANCH  11  30
ENDBRANCH   3   6
ENDBRANCH   1   2
BRANCH   1  32
ATOM     32  C   UNL A   1      33.565  29.357  26.021  1.00  0.00     0.042 C 
BRANCH  32  33
ATOM     33  C   UNL A   1      32.749  30.065  27.096  1.00  0.00     0.118 C 
BRANCH  33  34
ATOM     34  N   UNL A   1      32.889  31.510  27.012  1.00  0.00    -0.352 N 
ATOM     35  C   UNL A   1      33.795  32.346  27.613  1.00  0.00     0.251 C 
ATOM     36  H   UNL A   1      32.232  31.958  26.433  1.00  0.00     0.163 HD
ATOM     37  O   UNL A   1      33.578  33.556  27.614  1.00  0.00    -0.269 OA
BRANCH  35  38
ATOM     38  C   UNL A   1      35.021  31.817  28.255  1.00  0.00     0.039 A 
ATOM     39  C   UNL A   1      34.933  30.622  28.977  1.00  0.00     0.014 A 
ATOM     40  C   UNL A   1      36.234  32.512  28.213  1.00  0.00     0.014 A 
ATOM     41  C   UNL A   1      36.061  30.110  29.623  1.00  0.00     0.010 A 
ATOM     42  C   UNL A   1      37.376  31.965  28.798  1.00  0.00     0.010 A 
ATOM     43  C   UNL A   1      37.298  30.767  29.521  1.00  0.00    -0.014 A 
BRANCH  43  44
ATOM     44  C   UNL A   1      38.515  30.197  30.156  1.00  0.00     0.031 A 
ATOM     45  C   UNL A   1      38.930  30.618  31.540  1.00  0.00     0.074 A 
ATOM     46  C   UNL A   1      39.283  29.342  29.453  1.00  0.00     0.049 A 
ATOM     47  N   UNL A   1      39.956  30.221  32.248  1.00  0.00    -0.248 NA
ATOM     48  C   UNL A   1      38.101  31.634  32.209  1.00  0.00     0.031 C 
ATOM     49  C   UNL A   1      39.036  28.928  28.070  1.00  0.00     0.029 A 
ATOM     50  N   UNL A   1      40.438  28.684  29.794  1.00  0.00    -0.354 N 
ATOM     51  C   UNL A   1      39.917  30.957  33.426  1.00  0.00     0.074 A 
ATOM     52  C   UNL A   1      38.781  31.849  33.327  1.00  0.00     0.031 C 
ATOM     53  C   UNL A   1      40.003  28.082  27.684  1.00  0.00     0.029 A 
ATOM     54  C   UNL A   1      40.951  27.910  28.780  1.00  0.00     0.049 A 
ATOM     55  H   UNL A   1      40.860  28.761  30.680  1.00  0.00     0.167 HD
ATOM     56  C   UNL A   1      40.732  30.878  34.506  1.00  0.00     0.034 A 
ATOM     57  C   UNL A   1      42.059  27.145  28.737  1.00  0.00     0.034 A 
ATOM     58  C   UNL A   1      41.832  29.958  34.616  1.00  0.00     0.049 A 
ATOM     59  C   UNL A   1      42.913  27.028  29.970  1.00  0.00     0.074 A 
ATOM     60  C   UNL A   1      42.655  29.727  35.705  1.00  0.00     0.029 A 
ATOM     61  N   UNL A   1      42.270  29.121  33.602  1.00  0.00    -0.354 N 
ATOM     62  N   UNL A   1      42.752  27.598  31.141  1.00  0.00    -0.248 NA
ATOM     63  C   UNL A   1      44.075  26.133  29.891  1.00  0.00     0.031 C 
ATOM     64  C   UNL A   1      43.604  28.766  35.341  1.00  0.00     0.029 A 
ATOM     65  C   UNL A   1      43.359  28.382  34.032  1.00  0.00     0.049 A 
ATOM     66  H   UNL A   1      41.865  29.061  32.706  1.00  0.00     0.167 HD
ATOM     67  C   UNL A   1      43.775  27.111  31.945  1.00  0.00     0.074 A 
ATOM     68  C   UNL A   1      44.531  26.176  31.135  1.00  0.00     0.031 C 
ATOM     69  C   UNL A   1      44.075  27.422  33.230  1.00  0.00     0.034 A 
BRANCH  56  70
ATOM     70  C   UNL A   1      40.429  31.770  35.682  1.00  0.00     0.023 A 
ATOM     71  C   UNL A   1      41.285  32.853  35.971  1.00  0.00     0.012 A 
ATOM     72  C   UNL A   1      39.269  31.584  36.460  1.00  0.00     0.148 A 
ATOM     73  C   UNL A   1      41.013  33.713  37.033  1.00  0.00     0.002 A 
ATOM     74  C   UNL A   1      38.980  32.472  37.490  1.00  0.00     0.091 A 
ATOM     75  F   UNL A   1      38.475  30.539  36.185  1.00  0.00    -0.205 F 
ATOM     76  C   UNL A   1      39.856  33.529  37.785  1.00  0.00     0.022 A 
BRANCH  74  77
ATOM     77  S   UNL A   1      37.477  32.368  38.469  1.00  0.00     0.127 S 
ATOM     78  O   UNL A   1      37.867  33.077  39.686  1.00  0.00    -0.237 OA
ATOM     79  O   UNL A   1      36.514  33.083  37.630  1.00  0.00    -0.237 OA
ATOM     80  O   UNL A   1      37.202  30.948  38.631  1.00  0.00    -0.744 OA
ENDBRANCH  74  77
ENDBRANCH  56  70
BRANCH  57  81
ATOM     81  C   UNL A   1      42.376  26.369  27.504  1.00  0.00     0.023 A 
ATOM     82  C   UNL A   1      43.011  27.014  26.426  1.00  0.00     0.012 A 
ATOM     83  C   UNL A   1      42.092  24.993  27.410  1.00  0.00     0.148 A 
ATOM     84  C   UNL A   1      43.332  26.310  25.265  1.00  0.00     0.002 A 
ATOM     85  C   UNL A   1      42.464  24.285  26.273  1.00  0.00     0.091 A 
ATOM     86  F   UNL A   1      41.474  24.400  28.442  1.00  0.00    -0.205 F 
ATOM     87  C   UNL A   1      43.069  24.946  25.192  1.00  0.00     0.022 A 
BRANCH  85  88
ATOM     88  S   UNL A   1      42.292  22.501  26.153  1.00  0.00     0.127 S 
ATOM     89  O   UNL A   1      40.842  22.341  26.117  1.00  0.00    -0.237 OA
ATOM     90  O   UNL A   1      42.977  22.213  24.892  1.00  0.00    -0.237 OA
ATOM     91  O   UNL A   1      42.963  21.965  27.331  1.00  0.00    -0.744 OA
ENDBRANCH  85  88
ENDBRANCH  57  81
BRANCH  69  92
ATOM     92  C   UNL A   1      45.263  26.737  33.851  1.00  0.00     0.023 A 
ATOM     93  C   UNL A   1      46.529  27.356  33.800  1.00  0.00     0.012 A 
ATOM     94  C   UNL A   1      45.118  25.515  34.535  1.00  0.00     0.148 A 
ATOM     95  C   UNL A   1      47.638  26.751  34.389  1.00  0.00     0.002 A 
ATOM     96  C   UNL A   1      46.219  24.942  35.162  1.00  0.00     0.091 A 
ATOM     97  F   UNL A   1      43.911  24.932  34.556  1.00  0.00    -0.205 F 
ATOM     98  C   UNL A   1      47.481  25.551  35.079  1.00  0.00     0.022 A 
BRANCH  96  99
ATOM     99  S   UNL A   1      46.090  23.447  36.149  1.00  0.00     0.127 S 
ATOM    100  O   UNL A   1      47.470  22.966  36.146  1.00  0.00    -0.237 OA
ATOM    101  O   UNL A   1      45.627  23.963  37.439  1.00  0.00    -0.237 OA
ATOM    102  O   UNL A   1      45.127  22.597  35.463  1.00  0.00    -0.744 OA
ENDBRANCH  96  99
ENDBRANCH  69  92
ENDBRANCH  43  44
ENDBRANCH  35  38
ENDBRANCH  33  34
ENDBRANCH  32  33
ENDBRANCH   1  32
TORSDOF 19
ENDMDL
