MODEL 1
REMARK VINA RESULT:     -12.7      0.000      0.000
REMARK SMILES O=C(NCCCNC(=O)c1cc(Br)cn(Cc2cccc(F)c2)c1=O)c1ccc(-c2c3nc(c(-c4cccc(S(=O)(=O)[O-])c4F)c4ccc([nH]4)c(-c4cccc(S(=O)(=O)[O-])c4F)c4nc(c(-c5cccc(S(=O)(=O)[O-])c5F)c5ccc2[nH]5)C=C4)C=C3)cc1
REMARK SMILES IDX 4 1 3 2 1 3 2 4 26 6 27 7 88 8 28 9 87 10 29 11 30 12 31 13
REMARK SMILES IDX 81 14 32 15 86 16 80 17 82 18 33 19 85 20 79 21 78 22 34 24
REMARK SMILES IDX 66 25 46 26 65 27 47 28 50 29 64 30 83 31 48 32 49 33 63 35
REMARK SMILES IDX 84 36 51 37 35 38 36 39 44 40 37 41 39 42 45 43 38 44 40 45
REMARK SMILES IDX 41 46 42 47 43 48 67 49 68 50 76 51 69 52 71 53 77 54 70 55
REMARK SMILES IDX 72 56 73 57 74 58 75 59 52 60 53 61 61 62 54 63 56 64 62 65
REMARK SMILES IDX 55 66 57 67 58 68 59 69 60 70 5 71 6 72 7 73 8 74 9 76 10 77
REMARK SMILES IDX 11 78 24 79 12 80 15 81 25 82 13 83 14 84 16 85 17 86 18 87
REMARK SMILES IDX 23 88 19 89 21 90 20 91 22 92
REMARK H PARENT 3 5 82 23 50 34 7 75
REMARK Flexibility Score: inf
ROOT
ATOM      1  C   UNL A   1      33.183  28.937  25.096  1.00  0.00     0.118 C 
ENDROOT
BRANCH   1   2
ATOM      2  N   UNL A   1      32.695  30.178  25.678  1.00  0.00    -0.352 N 
ATOM      3  O   UNL A   1      32.421  31.796  27.199  1.00  0.00    -0.269 OA
ATOM      4  C   UNL A   1      33.135  30.897  26.759  1.00  0.00     0.251 C 
ATOM      5  H   UNL A   1      31.917  30.567  25.218  1.00  0.00     0.163 HD
BRANCH   4   6
ATOM      6  C   UNL A   1      34.444  30.625  27.396  1.00  0.00     0.039 A 
ATOM      7  C   UNL A   1      34.712  29.324  27.841  1.00  0.00     0.014 A 
ATOM      8  C   UNL A   1      35.360  31.647  27.659  1.00  0.00     0.014 A 
ATOM      9  C   UNL A   1      35.894  29.047  28.535  1.00  0.00     0.010 A 
ATOM     10  C   UNL A   1      36.569  31.358  28.287  1.00  0.00     0.010 A 
ATOM     11  C   UNL A   1      36.831  30.065  28.762  1.00  0.00    -0.014 A 
BRANCH  11  12
ATOM     12  C   UNL A   1      38.046  29.835  29.581  1.00  0.00     0.031 A 
ATOM     13  C   UNL A   1      39.126  28.927  29.059  1.00  0.00     0.074 A 
ATOM     14  C   UNL A   1      38.164  30.385  30.804  1.00  0.00     0.049 A 
ATOM     15  N   UNL A   1      40.185  28.465  29.669  1.00  0.00    -0.248 NA
ATOM     16  C   UNL A   1      38.979  28.458  27.670  1.00  0.00     0.031 C 
ATOM     17  C   UNL A   1      37.185  31.271  31.432  1.00  0.00     0.029 A 
ATOM     18  N   UNL A   1      39.155  30.259  31.744  1.00  0.00    -0.354 N 
ATOM     19  C   UNL A   1      40.806  27.620  28.759  1.00  0.00     0.074 A 
ATOM     20  C   UNL A   1      39.994  27.615  27.561  1.00  0.00     0.031 C 
ATOM     21  C   UNL A   1      37.629  31.618  32.651  1.00  0.00     0.029 A 
ATOM     22  C   UNL A   1      38.903  30.950  32.904  1.00  0.00     0.049 A 
ATOM     23  H   UNL A   1      39.970  29.724  31.600  1.00  0.00     0.167 HD
ATOM     24  C   UNL A   1      41.963  26.932  28.891  1.00  0.00     0.034 A 
ATOM     25  C   UNL A   1      39.614  31.028  34.046  1.00  0.00     0.034 A 
ATOM     26  C   UNL A   1      42.807  26.985  30.052  1.00  0.00     0.049 A 
ATOM     27  C   UNL A   1      40.905  30.269  34.169  1.00  0.00     0.074 A 
ATOM     28  C   UNL A   1      44.018  26.351  30.266  1.00  0.00     0.029 A 
ATOM     29  N   UNL A   1      42.539  27.732  31.188  1.00  0.00    -0.354 N 
ATOM     30  N   UNL A   1      41.500  29.508  33.283  1.00  0.00    -0.248 NA
ATOM     31  C   UNL A   1      41.631  30.391  35.442  1.00  0.00     0.031 C 
ATOM     32  C   UNL A   1      44.487  26.724  31.531  1.00  0.00     0.029 A 
ATOM     33  C   UNL A   1      43.565  27.586  32.104  1.00  0.00     0.049 A 
ATOM     34  H   UNL A   1      41.735  28.284  31.323  1.00  0.00     0.167 HD
ATOM     35  C   UNL A   1      42.670  29.062  33.885  1.00  0.00     0.074 A 
ATOM     36  C   UNL A   1      42.715  29.661  35.205  1.00  0.00     0.031 C 
ATOM     37  C   UNL A   1      43.611  28.217  33.398  1.00  0.00     0.034 A 
BRANCH  24  38
ATOM     38  C   UNL A   1      42.416  26.119  27.711  1.00  0.00     0.023 A 
ATOM     39  C   UNL A   1      43.236  26.726  26.739  1.00  0.00     0.012 A 
ATOM     40  C   UNL A   1      42.049  24.768  27.566  1.00  0.00     0.148 A 
ATOM     41  C   UNL A   1      43.666  26.007  25.626  1.00  0.00     0.002 A 
ATOM     42  C   UNL A   1      42.505  24.050  26.466  1.00  0.00     0.091 A 
ATOM     43  F   UNL A   1      41.242  24.221  28.487  1.00  0.00    -0.205 F 
ATOM     44  C   UNL A   1      43.307  24.668  25.493  1.00  0.00     0.022 A 
BRANCH  42  45
ATOM     45  S   UNL A   1      42.133  22.308  26.229  1.00  0.00     0.127 S 
ATOM     46  O   UNL A   1      42.865  22.015  24.997  1.00  0.00    -0.237 OA
ATOM     47  O   UNL A   1      42.700  21.702  27.434  1.00  0.00    -0.237 OA
ATOM     48  O   UNL A   1      40.683  22.219  26.133  1.00  0.00    -0.744 OA
ENDBRANCH  42  45
ENDBRANCH  24  38
BRANCH  25  49
ATOM     49  C   UNL A   1      39.132  31.918  35.135  1.00  0.00     0.023 A 
ATOM     50  C   UNL A   1      38.214  31.408  36.072  1.00  0.00     0.012 A 
ATOM     51  C   UNL A   1      39.643  33.219  35.303  1.00  0.00     0.148 A 
ATOM     52  C   UNL A   1      37.810  32.180  37.161  1.00  0.00     0.002 A 
ATOM     53  C   UNL A   1      39.265  33.969  36.410  1.00  0.00     0.091 A 
ATOM     54  F   UNL A   1      40.524  33.674  34.402  1.00  0.00    -0.205 F 
ATOM     55  C   UNL A   1      38.341  33.455  37.335  1.00  0.00     0.022 A 
BRANCH  53  56
ATOM     56  S   UNL A   1      39.968  35.580  36.781  1.00  0.00     0.127 S 
ATOM     57  O   UNL A   1      39.286  35.927  38.027  1.00  0.00    -0.237 OA
ATOM     58  O   UNL A   1      41.387  35.256  36.924  1.00  0.00    -0.237 OA
ATOM     59  O   UNL A   1      39.642  36.428  35.643  1.00  0.00    -0.744 OA
ENDBRANCH  53  56
ENDBRANCH  25  49
BRANCH  37  60
ATOM     60  C   UNL A   1      44.765  27.865  34.294  1.00  0.00     0.023 A 
ATOM     61  C   UNL A   1      45.917  28.674  34.273  1.00  0.00     0.012 A 
ATOM     62  C   UNL A   1      44.676  26.807  35.218  1.00  0.00     0.148 A 
ATOM     63  C   UNL A   1      46.970  28.429  35.153  1.00  0.00     0.002 A 
ATOM     64  C   UNL A   1      45.717  26.586  36.113  1.00  0.00     0.091 A 
ATOM     65  F   UNL A   1      43.577  26.038  35.206  1.00  0.00    -0.205 F 
ATOM     66  C   UNL A   1      46.866  27.394  36.080  1.00  0.00     0.022 A 
BRANCH  64  67
ATOM     67  S   UNL A   1      45.638  25.320  37.386  1.00  0.00     0.127 S 
ATOM     68  O   UNL A   1      44.418  25.693  38.100  1.00  0.00    -0.237 OA
ATOM     69  O   UNL A   1      45.533  24.090  36.600  1.00  0.00    -0.237 OA
ATOM     70  O   UNL A   1      46.873  25.444  38.147  1.00  0.00    -0.744 OA
ENDBRANCH  64  67
ENDBRANCH  37  60
ENDBRANCH  11  12
ENDBRANCH   4   6
ENDBRANCH   1   2
BRANCH   1  71
ATOM     71  C   UNL A   1      32.443  27.717  25.630  1.00  0.00     0.042 C 
BRANCH  71  72
ATOM     72  C   UNL A   1      32.932  26.386  25.075  1.00  0.00     0.118 C 
BRANCH  72  73
ATOM     73  N   UNL A   1      33.118  26.406  23.631  1.00  0.00    -0.352 N 
ATOM     74  C   UNL A   1      33.489  25.395  22.786  1.00  0.00     0.256 C 
ATOM     75  H   UNL A   1      32.952  27.275  23.199  1.00  0.00     0.163 HD
ATOM     76  O   UNL A   1      33.645  25.618  21.593  1.00  0.00    -0.269 OA
BRANCH  74  77
ATOM     77  C   UNL A   1      33.801  24.070  23.362  1.00  0.00     0.106 A 
ATOM     78  C   UNL A   1      35.082  23.850  23.707  1.00  0.00     0.036 A 
ATOM     79  C   UNL A   1      32.766  23.027  23.612  1.00  0.00     0.263 A 
ATOM     80  C   UNL A   1      35.459  22.641  24.396  1.00  0.00     0.035 A 
ATOM     81  N   UNL A   1      33.180  21.943  24.391  1.00  0.00    -0.309 N 
ATOM     82  O   UNL A   1      31.616  23.161  23.192  1.00  0.00    -0.268 OA
ATOM     83  Br  UNL A   1      37.252  22.397  24.836  1.00  0.00    -0.049 Br
ATOM     84  C   UNL A   1      34.510  21.764  24.748  1.00  0.00     0.105 A 
BRANCH  81  85
ATOM     85  C   UNL A   1      32.176  20.974  24.825  1.00  0.00     0.161 C 
BRANCH  85  86
ATOM     86  C   UNL A   1      32.532  19.555  24.453  1.00  0.00    -0.025 A 
ATOM     87  C   UNL A   1      32.479  19.131  23.114  1.00  0.00     0.006 A 
ATOM     88  C   UNL A   1      32.900  18.632  25.441  1.00  0.00     0.044 A 
ATOM     89  C   UNL A   1      32.787  17.813  22.770  1.00  0.00     0.003 A 
ATOM     90  C   UNL A   1      33.219  17.324  25.085  1.00  0.00     0.123 A 
ATOM     91  C   UNL A   1      33.162  16.908  23.760  1.00  0.00     0.039 A 
ATOM     92  F   UNL A   1      33.587  16.452  26.033  1.00  0.00    -0.207 F 
ENDBRANCH  85  86
ENDBRANCH  81  85
ENDBRANCH  74  77
ENDBRANCH  72  73
ENDBRANCH  71  72
ENDBRANCH   1  71
TORSDOF 15
ENDMDL
MODEL 2
REMARK VINA RESULT:     -12.7      5.161     10.216
REMARK SMILES O=C(NCCCNC(=O)c1cc(Br)cn(Cc2cccc(F)c2)c1=O)c1ccc(-c2c3nc(c(-c4cccc(S(=O)(=O)[O-])c4F)c4ccc([nH]4)c(-c4cccc(S(=O)(=O)[O-])c4F)c4nc(c(-c5cccc(S(=O)(=O)[O-])c5F)c5ccc2[nH]5)C=C4)C=C3)cc1
REMARK SMILES IDX 4 1 3 2 1 3 2 4 26 6 27 7 88 8 28 9 87 10 29 11 30 12 31 13
REMARK SMILES IDX 81 14 32 15 86 16 80 17 82 18 33 19 85 20 79 21 78 22 34 24
REMARK SMILES IDX 66 25 46 26 65 27 47 28 50 29 64 30 83 31 48 32 49 33 63 35
REMARK SMILES IDX 84 36 51 37 35 38 36 39 44 40 37 41 39 42 45 43 38 44 40 45
REMARK SMILES IDX 41 46 42 47 43 48 67 49 68 50 76 51 69 52 71 53 77 54 70 55
REMARK SMILES IDX 72 56 73 57 74 58 75 59 52 60 53 61 61 62 54 63 56 64 62 65
REMARK SMILES IDX 55 66 57 67 58 68 59 69 60 70 5 71 6 72 7 73 8 74 9 76 10 77
REMARK SMILES IDX 11 78 24 79 12 80 15 81 25 82 13 83 14 84 16 85 17 86 18 87
REMARK SMILES IDX 23 88 19 89 21 90 20 91 22 92
REMARK H PARENT 3 5 82 23 50 34 7 75
REMARK Flexibility Score: inf
ROOT
ATOM      1  C   UNL A   1      35.804  22.112  26.134  1.00  0.00     0.118 C 
ENDROOT
BRANCH   1   2
ATOM      2  N   UNL A   1      36.849  21.135  25.871  1.00  0.00    -0.352 N 
ATOM      3  O   UNL A   1      38.884  20.347  25.376  1.00  0.00    -0.269 OA
ATOM      4  C   UNL A   1      38.214  21.262  25.850  1.00  0.00     0.251 C 
ATOM      5  H   UNL A   1      36.520  20.228  25.676  1.00  0.00     0.163 HD
BRANCH   4   6
ATOM      6  C   UNL A   1      38.892  22.463  26.389  1.00  0.00     0.039 A 
ATOM      7  C   UNL A   1      38.404  23.725  26.026  1.00  0.00     0.014 A 
ATOM      8  C   UNL A   1      40.060  22.368  27.149  1.00  0.00     0.014 A 
ATOM      9  C   UNL A   1      39.074  24.883  26.432  1.00  0.00     0.010 A 
ATOM     10  C   UNL A   1      40.689  23.521  27.614  1.00  0.00     0.010 A 
ATOM     11  C   UNL A   1      40.223  24.787  27.230  1.00  0.00    -0.014 A 
BRANCH  11  12
ATOM     12  C   UNL A   1      41.019  25.984  27.595  1.00  0.00     0.031 A 
ATOM     13  C   UNL A   1      40.373  27.082  28.395  1.00  0.00     0.074 A 
ATOM     14  C   UNL A   1      42.289  26.119  27.171  1.00  0.00     0.049 A 
ATOM     15  N   UNL A   1      40.829  28.272  28.685  1.00  0.00    -0.248 NA
ATOM     16  C   UNL A   1      39.024  26.810  28.919  1.00  0.00     0.031 C 
ATOM     17  C   UNL A   1      43.027  25.136  26.378  1.00  0.00     0.029 A 
ATOM     18  N   UNL A   1      43.176  27.154  27.335  1.00  0.00    -0.354 N 
ATOM     19  C   UNL A   1      39.810  28.906  29.384  1.00  0.00     0.074 A 
ATOM     20  C   UNL A   1      38.703  27.977  29.458  1.00  0.00     0.031 C 
ATOM     21  C   UNL A   1      44.259  25.610  26.132  1.00  0.00     0.029 A 
ATOM     22  C   UNL A   1      44.385  26.943  26.717  1.00  0.00     0.049 A 
ATOM     23  H   UNL A   1      42.966  27.968  27.846  1.00  0.00     0.167 HD
ATOM     24  C   UNL A   1      39.802  30.138  29.943  1.00  0.00     0.034 A 
ATOM     25  C   UNL A   1      45.468  27.739  26.623  1.00  0.00     0.034 A 
ATOM     26  C   UNL A   1      40.921  31.039  29.931  1.00  0.00     0.049 A 
ATOM     27  C   UNL A   1      45.447  29.098  27.265  1.00  0.00     0.074 A 
ATOM     28  C   UNL A   1      41.021  32.295  30.501  1.00  0.00     0.029 A 
ATOM     29  N   UNL A   1      42.142  30.770  29.334  1.00  0.00    -0.354 N 
ATOM     30  N   UNL A   1      44.490  29.665  27.959  1.00  0.00    -0.248 NA
ATOM     31  C   UNL A   1      46.657  29.921  27.123  1.00  0.00     0.031 C 
ATOM     32  C   UNL A   1      42.311  32.782  30.257  1.00  0.00     0.029 A 
ATOM     33  C   UNL A   1      43.009  31.830  29.530  1.00  0.00     0.049 A 
ATOM     34  H   UNL A   1      42.361  29.946  28.841  1.00  0.00     0.167 HD
ATOM     35  C   UNL A   1      44.981  30.908  28.342  1.00  0.00     0.074 A 
ATOM     36  C   UNL A   1      46.332  31.001  27.824  1.00  0.00     0.031 C 
ATOM     37  C   UNL A   1      44.361  31.892  29.039  1.00  0.00     0.034 A 
BRANCH  24  38
ATOM     38  C   UNL A   1      38.559  30.548  30.681  1.00  0.00     0.023 A 
ATOM     39  C   UNL A   1      38.395  30.140  32.021  1.00  0.00     0.012 A 
ATOM     40  C   UNL A   1      37.567  31.336  30.068  1.00  0.00     0.148 A 
ATOM     41  C   UNL A   1      37.251  30.492  32.733  1.00  0.00     0.002 A 
ATOM     42  C   UNL A   1      36.441  31.706  30.795  1.00  0.00     0.091 A 
ATOM     43  F   UNL A   1      37.730  31.685  28.784  1.00  0.00    -0.205 F 
ATOM     44  C   UNL A   1      36.278  31.280  32.124  1.00  0.00     0.022 A 
BRANCH  42  45
ATOM     45  S   UNL A   1      35.153  32.755  30.112  1.00  0.00     0.127 S 
ATOM     46  O   UNL A   1      34.627  31.915  29.036  1.00  0.00    -0.237 OA
ATOM     47  O   UNL A   1      34.251  32.922  31.252  1.00  0.00    -0.237 OA
ATOM     48  O   UNL A   1      35.819  33.978  29.685  1.00  0.00    -0.744 OA
ENDBRANCH  42  45
ENDBRANCH  24  38
BRANCH  25  49
ATOM     49  C   UNL A   1      46.684  27.224  25.942  1.00  0.00     0.023 A 
ATOM     50  C   UNL A   1      46.821  27.423  24.556  1.00  0.00     0.012 A 
ATOM     51  C   UNL A   1      47.737  26.629  26.663  1.00  0.00     0.148 A 
ATOM     52  C   UNL A   1      47.988  27.038  23.896  1.00  0.00     0.002 A 
ATOM     53  C   UNL A   1      48.911  26.282  26.006  1.00  0.00     0.091 A 
ATOM     54  F   UNL A   1      47.583  26.461  27.984  1.00  0.00    -0.205 F 
ATOM     55  C   UNL A   1      49.034  26.477  24.621  1.00  0.00     0.022 A 
BRANCH  53  56
ATOM     56  S   UNL A   1      50.355  25.646  26.865  1.00  0.00     0.127 S 
ATOM     57  O   UNL A   1      49.818  24.453  27.518  1.00  0.00    -0.237 OA
ATOM     58  O   UNL A   1      51.266  25.381  25.751  1.00  0.00    -0.237 OA
ATOM     59  O   UNL A   1      50.780  26.705  27.769  1.00  0.00    -0.744 OA
ENDBRANCH  53  56
ENDBRANCH  25  49
BRANCH  37  60
ATOM     60  C   UNL A   1      45.121  33.167  29.273  1.00  0.00     0.023 A 
ATOM     61  C   UNL A   1      45.950  33.269  30.407  1.00  0.00     0.012 A 
ATOM     62  C   UNL A   1      45.095  34.215  28.334  1.00  0.00     0.148 A 
ATOM     63  C   UNL A   1      46.736  34.403  30.609  1.00  0.00     0.002 A 
ATOM     64  C   UNL A   1      45.903  35.330  28.526  1.00  0.00     0.091 A 
ATOM     65  F   UNL A   1      44.283  34.103  27.273  1.00  0.00    -0.205 F 
ATOM     66  C   UNL A   1      46.722  35.427  29.664  1.00  0.00     0.022 A 
BRANCH  64  67
ATOM     67  S   UNL A   1      46.001  36.664  27.326  1.00  0.00     0.127 S 
ATOM     68  O   UNL A   1      46.984  37.551  27.947  1.00  0.00    -0.237 OA
ATOM     69  O   UNL A   1      46.475  35.973  26.126  1.00  0.00    -0.237 OA
ATOM     70  O   UNL A   1      44.652  37.201  27.218  1.00  0.00    -0.744 OA
ENDBRANCH  64  67
ENDBRANCH  37  60
ENDBRANCH  11  12
ENDBRANCH   4   6
ENDBRANCH   1   2
BRANCH   1  71
ATOM     71  C   UNL A   1      34.931  22.369  24.912  1.00  0.00     0.042 C 
BRANCH  71  72
ATOM     72  C   UNL A   1      34.012  23.577  25.033  1.00  0.00     0.118 C 
BRANCH  72  73
ATOM     73  N   UNL A   1      32.939  23.381  25.997  1.00  0.00    -0.352 N 
ATOM     74  C   UNL A   1      31.939  24.236  26.375  1.00  0.00     0.256 C 
ATOM     75  H   UNL A   1      32.930  22.502  26.442  1.00  0.00     0.163 HD
ATOM     76  O   UNL A   1      31.149  23.910  27.250  1.00  0.00    -0.269 OA
BRANCH  74  77
ATOM     77  C   UNL A   1      31.909  25.592  25.787  1.00  0.00     0.106 A 
ATOM     78  C   UNL A   1      32.569  26.554  26.455  1.00  0.00     0.036 A 
ATOM     79  C   UNL A   1      31.236  25.903  24.492  1.00  0.00     0.263 A 
ATOM     80  C   UNL A   1      32.706  27.875  25.895  1.00  0.00     0.035 A 
ATOM     81  N   UNL A   1      31.519  27.163  23.955  1.00  0.00    -0.309 N 
ATOM     82  O   UNL A   1      30.526  25.070  23.931  1.00  0.00    -0.268 OA
ATOM     83  Br  UNL A   1      33.626  29.162  26.880  1.00  0.00    -0.049 Br
ATOM     84  C   UNL A   1      32.225  28.121  24.669  1.00  0.00     0.105 A 
BRANCH  81  85
ATOM     85  C   UNL A   1      31.041  27.468  22.609  1.00  0.00     0.161 C 
BRANCH  85  86
ATOM     86  C   UNL A   1      29.852  28.399  22.606  1.00  0.00    -0.025 A 
ATOM     87  C   UNL A   1      29.967  29.705  22.101  1.00  0.00     0.006 A 
ATOM     88  C   UNL A   1      28.621  27.980  23.128  1.00  0.00     0.044 A 
ATOM     89  C   UNL A   1      28.874  30.574  22.117  1.00  0.00     0.003 A 
ATOM     90  C   UNL A   1      27.535  28.850  23.125  1.00  0.00     0.123 A 
ATOM     91  C   UNL A   1      27.652  30.143  22.628  1.00  0.00     0.039 A 
ATOM     92  F   UNL A   1      26.355  28.438  23.609  1.00  0.00    -0.207 F 
ENDBRANCH  85  86
ENDBRANCH  81  85
ENDBRANCH  74  77
ENDBRANCH  72  73
ENDBRANCH  71  72
ENDBRANCH   1  71
TORSDOF 15
ENDMDL
MODEL 3
REMARK VINA RESULT:     -12.6      5.550     10.330
REMARK SMILES O=C(NCCCNC(=O)c1cc(Br)cn(Cc2cccc(F)c2)c1=O)c1ccc(-c2c3nc(c(-c4cccc(S(=O)(=O)[O-])c4F)c4ccc([nH]4)c(-c4cccc(S(=O)(=O)[O-])c4F)c4nc(c(-c5cccc(S(=O)(=O)[O-])c5F)c5ccc2[nH]5)C=C4)C=C3)cc1
REMARK SMILES IDX 4 1 3 2 1 3 2 4 26 6 27 7 88 8 28 9 87 10 29 11 30 12 31 13
REMARK SMILES IDX 81 14 32 15 86 16 80 17 82 18 33 19 85 20 79 21 78 22 34 24
REMARK SMILES IDX 66 25 46 26 65 27 47 28 50 29 64 30 83 31 48 32 49 33 63 35
REMARK SMILES IDX 84 36 51 37 35 38 36 39 44 40 37 41 39 42 45 43 38 44 40 45
REMARK SMILES IDX 41 46 42 47 43 48 67 49 68 50 76 51 69 52 71 53 77 54 70 55
REMARK SMILES IDX 72 56 73 57 74 58 75 59 52 60 53 61 61 62 54 63 56 64 62 65
REMARK SMILES IDX 55 66 57 67 58 68 59 69 60 70 5 71 6 72 7 73 8 74 9 76 10 77
REMARK SMILES IDX 11 78 24 79 12 80 15 81 25 82 13 83 14 84 16 85 17 86 18 87
REMARK SMILES IDX 23 88 19 89 21 90 20 91 22 92
REMARK H PARENT 3 5 82 23 50 34 7 75
REMARK Flexibility Score: inf
ROOT
ATOM      1  C   UNL A   1      35.898  22.314  26.092  1.00  0.00     0.118 C 
ENDROOT
BRANCH   1   2
ATOM      2  N   UNL A   1      36.933  21.316  25.867  1.00  0.00    -0.352 N 
ATOM      3  O   UNL A   1      38.967  20.489  25.437  1.00  0.00    -0.269 OA
ATOM      4  C   UNL A   1      38.300  21.420  25.884  1.00  0.00     0.251 C 
ATOM      5  H   UNL A   1      36.594  20.414  25.670  1.00  0.00     0.163 HD
BRANCH   4   6
ATOM      6  C   UNL A   1      38.984  22.614  26.432  1.00  0.00     0.039 A 
ATOM      7  C   UNL A   1      38.541  23.880  26.028  1.00  0.00     0.014 A 
ATOM      8  C   UNL A   1      40.116  22.504  27.243  1.00  0.00     0.014 A 
ATOM      9  C   UNL A   1      39.221  25.029  26.444  1.00  0.00     0.010 A 
ATOM     10  C   UNL A   1      40.752  23.651  27.715  1.00  0.00     0.010 A 
ATOM     11  C   UNL A   1      40.333  24.920  27.292  1.00  0.00    -0.014 A 
BRANCH  11  12
ATOM     12  C   UNL A   1      41.141  26.105  27.671  1.00  0.00     0.031 A 
ATOM     13  C   UNL A   1      40.510  27.194  28.495  1.00  0.00     0.074 A 
ATOM     14  C   UNL A   1      42.408  26.237  27.239  1.00  0.00     0.049 A 
ATOM     15  N   UNL A   1      40.978  28.375  28.801  1.00  0.00    -0.248 NA
ATOM     16  C   UNL A   1      39.163  26.923  29.025  1.00  0.00     0.031 C 
ATOM     17  C   UNL A   1      43.132  25.262  26.424  1.00  0.00     0.029 A 
ATOM     18  N   UNL A   1      43.305  27.262  27.413  1.00  0.00    -0.354 N 
ATOM     19  C   UNL A   1      39.969  29.004  29.520  1.00  0.00     0.074 A 
ATOM     20  C   UNL A   1      38.856  28.083  29.587  1.00  0.00     0.031 C 
ATOM     21  C   UNL A   1      44.366  25.731  26.176  1.00  0.00     0.029 A 
ATOM     22  C   UNL A   1      44.507  27.052  26.782  1.00  0.00     0.049 A 
ATOM     23  H   UNL A   1      43.105  28.069  27.941  1.00  0.00     0.167 HD
ATOM     24  C   UNL A   1      39.976  30.226  30.100  1.00  0.00     0.034 A 
ATOM     25  C   UNL A   1      45.596  27.841  26.694  1.00  0.00     0.034 A 
ATOM     26  C   UNL A   1      41.102  31.118  30.094  1.00  0.00     0.049 A 
ATOM     27  C   UNL A   1      45.590  29.189  27.359  1.00  0.00     0.074 A 
ATOM     28  C   UNL A   1      41.217  32.364  30.686  1.00  0.00     0.029 A 
ATOM     29  N   UNL A   1      42.316  30.850  29.483  1.00  0.00    -0.354 N 
ATOM     30  N   UNL A   1      44.644  29.752  28.071  1.00  0.00    -0.248 NA
ATOM     31  C   UNL A   1      46.807  30.005  27.222  1.00  0.00     0.031 C 
ATOM     32  C   UNL A   1      42.508  32.844  30.439  1.00  0.00     0.029 A 
ATOM     33  C   UNL A   1      43.193  31.901  29.691  1.00  0.00     0.049 A 
ATOM     34  H   UNL A   1      42.524  30.034  28.974  1.00  0.00     0.167 HD
ATOM     35  C   UNL A   1      45.148  30.984  28.471  1.00  0.00     0.074 A 
ATOM     36  C   UNL A   1      46.496  31.075  27.943  1.00  0.00     0.031 C 
ATOM     37  C   UNL A   1      44.542  31.960  29.190  1.00  0.00     0.034 A 
BRANCH  24  38
ATOM     38  C   UNL A   1      38.742  30.633  30.855  1.00  0.00     0.023 A 
ATOM     39  C   UNL A   1      38.633  30.292  32.219  1.00  0.00     0.012 A 
ATOM     40  C   UNL A   1      37.705  31.353  30.233  1.00  0.00     0.148 A 
ATOM     41  C   UNL A   1      37.499  30.643  32.948  1.00  0.00     0.002 A 
ATOM     42  C   UNL A   1      36.588  31.723  30.976  1.00  0.00     0.091 A 
ATOM     43  F   UNL A   1      37.816  31.638  28.928  1.00  0.00    -0.205 F 
ATOM     44  C   UNL A   1      36.481  31.364  32.330  1.00  0.00     0.022 A 
BRANCH  42  45
ATOM     45  S   UNL A   1      35.244  32.690  30.280  1.00  0.00     0.127 S 
ATOM     46  O   UNL A   1      34.324  32.776  31.414  1.00  0.00    -0.237 OA
ATOM     47  O   UNL A   1      35.910  33.948  29.939  1.00  0.00    -0.237 OA
ATOM     48  O   UNL A   1      34.759  31.934  29.135  1.00  0.00    -0.744 OA
ENDBRANCH  42  45
ENDBRANCH  24  38
BRANCH  25  49
ATOM     49  C   UNL A   1      46.802  27.328  25.994  1.00  0.00     0.023 A 
ATOM     50  C   UNL A   1      47.592  26.353  26.630  1.00  0.00     0.012 A 
ATOM     51  C   UNL A   1      47.116  27.724  24.680  1.00  0.00     0.148 A 
ATOM     52  C   UNL A   1      48.678  25.778  25.970  1.00  0.00     0.002 A 
ATOM     53  C   UNL A   1      48.176  27.121  24.014  1.00  0.00     0.091 A 
ATOM     54  F   UNL A   1      46.340  28.647  24.095  1.00  0.00    -0.205 F 
ATOM     55  C   UNL A   1      48.964  26.155  24.661  1.00  0.00     0.022 A 
BRANCH  53  56
ATOM     56  S   UNL A   1      48.565  27.461  22.293  1.00  0.00     0.127 S 
ATOM     57  O   UNL A   1      48.654  26.114  21.732  1.00  0.00    -0.237 OA
ATOM     58  O   UNL A   1      47.393  28.227  21.873  1.00  0.00    -0.237 OA
ATOM     59  O   UNL A   1      49.816  28.207  22.307  1.00  0.00    -0.744 OA
ENDBRANCH  53  56
ENDBRANCH  25  49
BRANCH  37  60
ATOM     60  C   UNL A   1      45.313  33.225  29.440  1.00  0.00     0.023 A 
ATOM     61  C   UNL A   1      46.218  33.271  30.518  1.00  0.00     0.012 A 
ATOM     62  C   UNL A   1      45.221  34.322  28.562  1.00  0.00     0.148 A 
ATOM     63  C   UNL A   1      47.014  34.397  30.727  1.00  0.00     0.002 A 
ATOM     64  C   UNL A   1      46.039  35.429  28.759  1.00  0.00     0.091 A 
ATOM     65  F   UNL A   1      44.339  34.262  27.554  1.00  0.00    -0.205 F 
ATOM     66  C   UNL A   1      46.933  35.470  29.842  1.00  0.00     0.022 A 
BRANCH  64  67
ATOM     67  S   UNL A   1      46.052  36.826  27.628  1.00  0.00     0.127 S 
ATOM     68  O   UNL A   1      44.931  37.622  28.126  1.00  0.00    -0.237 OA
ATOM     69  O   UNL A   1      47.372  37.412  27.869  1.00  0.00    -0.237 OA
ATOM     70  O   UNL A   1      45.879  36.261  26.297  1.00  0.00    -0.744 OA
ENDBRANCH  64  67
ENDBRANCH  37  60
ENDBRANCH  11  12
ENDBRANCH   4   6
ENDBRANCH   1   2
BRANCH   1  71
ATOM     71  C   UNL A   1      35.165  22.685  24.810  1.00  0.00     0.042 C 
BRANCH  71  72
ATOM     72  C   UNL A   1      34.192  23.850  24.950  1.00  0.00     0.118 C 
BRANCH  72  73
ATOM     73  N   UNL A   1      33.157  23.608  25.944  1.00  0.00    -0.352 N 
ATOM     74  C   UNL A   1      32.132  24.419  26.350  1.00  0.00     0.256 C 
ATOM     75  H   UNL A   1      33.199  22.731  26.391  1.00  0.00     0.163 HD
ATOM     76  O   UNL A   1      31.382  24.060  27.247  1.00  0.00    -0.269 OA
BRANCH  74  77
ATOM     77  C   UNL A   1      32.024  25.771  25.761  1.00  0.00     0.106 A 
ATOM     78  C   UNL A   1      32.620  26.771  26.435  1.00  0.00     0.036 A 
ATOM     79  C   UNL A   1      31.345  26.042  24.461  1.00  0.00     0.263 A 
ATOM     80  C   UNL A   1      32.682  28.098  25.876  1.00  0.00     0.035 A 
ATOM     81  N   UNL A   1      31.556  27.316  23.926  1.00  0.00    -0.309 N 
ATOM     82  O   UNL A   1      30.691  25.167  23.894  1.00  0.00    -0.268 OA
ATOM     83  Br  UNL A   1      33.515  29.437  26.868  1.00  0.00    -0.049 Br
ATOM     84  C   UNL A   1      32.197  28.315  24.646  1.00  0.00     0.105 A 
BRANCH  81  85
ATOM     85  C   UNL A   1      31.071  27.592  22.576  1.00  0.00     0.161 C 
BRANCH  85  86
ATOM     86  C   UNL A   1      29.875  28.513  22.560  1.00  0.00    -0.025 A 
ATOM     87  C   UNL A   1      29.968  29.799  22.001  1.00  0.00     0.006 A 
ATOM     88  C   UNL A   1      28.657  28.106  23.122  1.00  0.00     0.044 A 
ATOM     89  C   UNL A   1      28.868  30.659  22.004  1.00  0.00     0.003 A 
ATOM     90  C   UNL A   1      27.564  28.967  23.107  1.00  0.00     0.123 A 
ATOM     91  C   UNL A   1      27.661  30.240  22.556  1.00  0.00     0.039 A 
ATOM     92  F   UNL A   1      26.398  28.564  23.630  1.00  0.00    -0.207 F 
ENDBRANCH  85  86
ENDBRANCH  81  85
ENDBRANCH  74  77
ENDBRANCH  72  73
ENDBRANCH  71  72
ENDBRANCH   1  71
TORSDOF 15
ENDMDL
