MODEL 1
REMARK VINA RESULT:     -12.1      0.000      0.000
REMARK SMILES O=C(/C=N/O)Nc1cccc(C(=O)NCCCNC(=O)c2ccc(-c3c4nc(c(-c5cccc(S(=O)(=O)[O-])c5F)c5ccc([nH]5)c(-c5cccc(S(=O)(=O)[O-])c5F)c5nc(c(-c6cccc(S(=O)(=O)[O-])c6F)c6ccc3[nH]6)C=C5)C=C4)cc2)c1
REMARK SMILES IDX 16 1 15 2 14 3 12 4 13 5 11 7 7 8 8 9 84 10 9 11 10 12 6 13
REMARK SMILES IDX 1 14 2 15 3 17 4 18 5 19 17 21 18 22 19 23 20 25 21 26 22 27
REMARK SMILES IDX 83 28 23 29 82 30 24 31 25 32 26 33 76 34 27 35 81 36 75 37
REMARK SMILES IDX 77 38 28 39 80 40 74 41 73 42 29 44 61 45 41 46 60 47 42 48
REMARK SMILES IDX 45 49 59 50 78 51 43 52 44 53 58 55 79 56 46 57 30 58 31 59
REMARK SMILES IDX 39 60 32 61 34 62 40 63 33 64 35 65 36 66 37 67 38 68 62 69
REMARK SMILES IDX 63 70 71 71 64 72 66 73 72 74 65 75 67 76 68 77 69 78 70 79
REMARK SMILES IDX 47 80 48 81 56 82 49 83 51 84 57 85 50 86 52 87 53 88 54 89
REMARK SMILES IDX 55 90
REMARK H PARENT 14 6 6 16 5 20 18 24 77 43 45 54
REMARK Flexibility Score: inf
ROOT
ATOM      1  C   UNL A   1      31.671  31.654  26.756  1.00  0.00     0.042 C 
ENDROOT
BRANCH   1   2
ATOM      2  C   UNL A   1      31.767  30.144  26.892  1.00  0.00     0.118 C 
BRANCH   2   3
ATOM      3  N   UNL A   1      32.941  29.548  26.256  1.00  0.00    -0.352 N 
ATOM      4  C   UNL A   1      33.107  28.866  25.068  1.00  0.00     0.251 C 
ATOM      5  O   UNL A   1      34.231  28.459  24.773  1.00  0.00    -0.269 OA
ATOM      6  H   UNL A   1      33.771  29.652  26.775  1.00  0.00     0.163 HD
BRANCH   4   7
ATOM      7  C   UNL A   1      31.966  28.545  24.170  1.00  0.00     0.041 A 
ATOM      8  C   UNL A   1      30.346  29.277  22.529  1.00  0.00     0.042 A 
ATOM      9  C   UNL A   1      29.552  28.166  22.825  1.00  0.00     0.026 A 
ATOM     10  C   UNL A   1      31.612  29.368  23.104  1.00  0.00     0.040 A 
ATOM     11  C   UNL A   1      30.000  27.205  23.738  1.00  0.00     0.003 A 
ATOM     12  C   UNL A   1      31.186  27.417  24.443  1.00  0.00     0.014 A 
BRANCH   8  13
ATOM     13  N   UNL A   1      29.784  30.338  21.785  1.00  0.00    -0.321 N 
ATOM     14  O   UNL A   1      28.835  31.700  23.450  1.00  0.00    -0.268 OA
ATOM     15  C   UNL A   1      28.994  31.356  22.290  1.00  0.00     0.270 C 
ATOM     16  H   UNL A   1      29.973  30.355  20.819  1.00  0.00     0.170 HD
BRANCH  15  17
ATOM     17  C   UNL A   1      28.209  32.111  21.251  1.00  0.00     0.225 C 
ATOM     18  N   UNL A   1      27.807  33.323  21.462  1.00  0.00    -0.092 NA
BRANCH  18  19
ATOM     19  O   UNL A   1      27.158  33.770  20.301  1.00  0.00    -0.411 OA
ATOM     20  H   UNL A   1      27.061  33.196  19.567  1.00  0.00     0.330 HD
ENDBRANCH  18  19
ENDBRANCH  15  17
ENDBRANCH   8  13
ENDBRANCH   4   7
ENDBRANCH   2   3
ENDBRANCH   1   2
BRANCH   1  21
ATOM     21  C   UNL A   1      32.883  32.417  27.258  1.00  0.00     0.118 C 
BRANCH  21  22
ATOM     22  N   UNL A   1      32.590  33.806  27.595  1.00  0.00    -0.352 N 
ATOM     23  C   UNL A   1      33.113  34.626  28.569  1.00  0.00     0.251 C 
ATOM     24  H   UNL A   1      31.903  34.228  27.031  1.00  0.00     0.163 HD
ATOM     25  O   UNL A   1      32.593  35.719  28.783  1.00  0.00    -0.269 OA
BRANCH  23  26
ATOM     26  C   UNL A   1      34.276  34.195  29.376  1.00  0.00     0.039 A 
ATOM     27  C   UNL A   1      34.066  33.431  30.529  1.00  0.00     0.014 A 
ATOM     28  C   UNL A   1      35.574  34.545  29.005  1.00  0.00     0.014 A 
ATOM     29  C   UNL A   1      35.161  32.948  31.252  1.00  0.00     0.010 A 
ATOM     30  C   UNL A   1      36.659  33.972  29.658  1.00  0.00     0.010 A 
ATOM     31  C   UNL A   1      36.468  33.174  30.794  1.00  0.00    -0.014 A 
BRANCH  31  32
ATOM     32  C   UNL A   1      37.657  32.597  31.475  1.00  0.00     0.031 A 
ATOM     33  C   UNL A   1      38.403  31.452  30.841  1.00  0.00     0.074 A 
ATOM     34  C   UNL A   1      37.991  33.018  32.712  1.00  0.00     0.049 A 
ATOM     35  N   UNL A   1      39.377  30.729  31.330  1.00  0.00    -0.248 NA
ATOM     36  C   UNL A   1      37.973  31.040  29.493  1.00  0.00     0.031 C 
ATOM     37  C   UNL A   1      37.299  34.065  33.467  1.00  0.00     0.029 A 
ATOM     38  N   UNL A   1      38.975  32.590  33.569  1.00  0.00    -0.354 N 
ATOM     39  C   UNL A   1      39.642  29.754  30.375  1.00  0.00     0.074 A 
ATOM     40  C   UNL A   1      38.701  29.952  29.296  1.00  0.00     0.031 C 
ATOM     41  C   UNL A   1      37.880  34.201  34.670  1.00  0.00     0.029 A 
ATOM     42  C   UNL A   1      38.957  33.223  34.791  1.00  0.00     0.049 A 
ATOM     43  H   UNL A   1      39.632  31.896  33.331  1.00  0.00     0.167 HD
ATOM     44  C   UNL A   1      40.598  28.796  30.383  1.00  0.00     0.034 A 
ATOM     45  C   UNL A   1      39.708  33.027  35.893  1.00  0.00     0.034 A 
ATOM     46  C   UNL A   1      41.563  28.634  31.436  1.00  0.00     0.049 A 
ATOM     47  C   UNL A   1      40.789  31.978  35.861  1.00  0.00     0.074 A 
ATOM     48  C   UNL A   1      42.631  27.757  31.497  1.00  0.00     0.029 A 
ATOM     49  N   UNL A   1      41.569  29.357  32.619  1.00  0.00    -0.354 N 
ATOM     50  N   UNL A   1      41.121  31.165  34.887  1.00  0.00    -0.248 NA
ATOM     51  C   UNL A   1      41.620  31.842  37.066  1.00  0.00     0.031 C 
ATOM     52  C   UNL A   1      43.265  27.928  32.731  1.00  0.00     0.029 A 
ATOM     53  C   UNL A   1      42.617  28.939  33.421  1.00  0.00     0.049 A 
ATOM     54  H   UNL A   1      40.926  30.064  32.853  1.00  0.00     0.167 HD
ATOM     55  C   UNL A   1      42.223  30.452  35.346  1.00  0.00     0.074 A 
ATOM     56  C   UNL A   1      42.512  30.940  36.678  1.00  0.00     0.031 C 
ATOM     57  C   UNL A   1      42.925  29.473  34.723  1.00  0.00     0.034 A 
BRANCH  44  58
ATOM     58  C   UNL A   1      40.681  27.876  29.191  1.00  0.00     0.023 A 
ATOM     59  C   UNL A   1      39.826  26.757  29.110  1.00  0.00     0.012 A 
ATOM     60  C   UNL A   1      41.565  28.147  28.128  1.00  0.00     0.148 A 
ATOM     61  C   UNL A   1      39.876  25.902  28.011  1.00  0.00     0.002 A 
ATOM     62  C   UNL A   1      41.573  27.317  27.013  1.00  0.00     0.091 A 
ATOM     63  F   UNL A   1      42.383  29.203  28.230  1.00  0.00    -0.205 F 
ATOM     64  C   UNL A   1      40.740  26.188  26.959  1.00  0.00     0.022 A 
BRANCH  62  65
ATOM     65  S   UNL A   1      42.588  27.645  25.568  1.00  0.00     0.127 S 
ATOM     66  O   UNL A   1      41.985  28.876  25.058  1.00  0.00    -0.237 OA
ATOM     67  O   UNL A   1      43.916  27.815  26.156  1.00  0.00    -0.237 OA
ATOM     68  O   UNL A   1      42.449  26.479  24.705  1.00  0.00    -0.744 OA
ENDBRANCH  62  65
ENDBRANCH  44  58
BRANCH  45  69
ATOM     69  C   UNL A   1      39.504  33.878  37.100  1.00  0.00     0.023 A 
ATOM     70  C   UNL A   1      39.960  35.211  37.091  1.00  0.00     0.012 A 
ATOM     71  C   UNL A   1      38.844  33.387  38.243  1.00  0.00     0.148 A 
ATOM     72  C   UNL A   1      39.797  36.028  38.210  1.00  0.00     0.002 A 
ATOM     73  C   UNL A   1      38.633  34.223  39.334  1.00  0.00     0.091 A 
ATOM     74  F   UNL A   1      38.424  32.114  38.236  1.00  0.00    -0.205 F 
ATOM     75  C   UNL A   1      39.125  35.538  39.327  1.00  0.00     0.022 A 
BRANCH  73  76
ATOM     76  S   UNL A   1      37.665  33.723  40.762  1.00  0.00     0.127 S 
ATOM     77  O   UNL A   1      38.569  32.786  41.423  1.00  0.00    -0.237 OA
ATOM     78  O   UNL A   1      37.477  34.995  41.460  1.00  0.00    -0.237 OA
ATOM     79  O   UNL A   1      36.439  33.147  40.226  1.00  0.00    -0.744 OA
ENDBRANCH  73  76
ENDBRANCH  45  69
BRANCH  57  80
ATOM     80  C   UNL A   1      44.113  28.892  35.445  1.00  0.00     0.023 A 
ATOM     81  C   UNL A   1      45.383  29.483  35.304  1.00  0.00     0.012 A 
ATOM     82  C   UNL A   1      43.945  27.813  36.335  1.00  0.00     0.148 A 
ATOM     83  C   UNL A   1      46.475  28.991  36.018  1.00  0.00     0.002 A 
ATOM     84  C   UNL A   1      45.025  27.362  37.081  1.00  0.00     0.091 A 
ATOM     85  F   UNL A   1      42.730  27.255  36.441  1.00  0.00    -0.205 F 
ATOM     86  C   UNL A   1      46.294  27.941  36.915  1.00  0.00     0.022 A 
BRANCH  84  87
ATOM     87  S   UNL A   1      44.866  26.085  38.335  1.00  0.00     0.127 S 
ATOM     88  O   UNL A   1      43.843  26.655  39.211  1.00  0.00    -0.237 OA
ATOM     89  O   UNL A   1      44.424  24.934  37.549  1.00  0.00    -0.237 OA
ATOM     90  O   UNL A   1      46.186  25.939  38.934  1.00  0.00    -0.744 OA
ENDBRANCH  84  87
ENDBRANCH  57  80
ENDBRANCH  31  32
ENDBRANCH  23  26
ENDBRANCH  21  22
ENDBRANCH   1  21
TORSDOF 16
ENDMDL
MODEL 2
REMARK VINA RESULT:     -11.8      2.195      2.862
REMARK SMILES O=C(/C=N/O)Nc1cccc(C(=O)NCCCNC(=O)c2ccc(-c3c4nc(c(-c5cccc(S(=O)(=O)[O-])c5F)c5ccc([nH]5)c(-c5cccc(S(=O)(=O)[O-])c5F)c5nc(c(-c6cccc(S(=O)(=O)[O-])c6F)c6ccc3[nH]6)C=C5)C=C4)cc2)c1
REMARK SMILES IDX 16 1 15 2 14 3 12 4 13 5 11 7 7 8 8 9 84 10 9 11 10 12 6 13
REMARK SMILES IDX 1 14 2 15 3 17 4 18 5 19 17 21 18 22 19 23 20 25 21 26 22 27
REMARK SMILES IDX 83 28 23 29 82 30 24 31 25 32 26 33 76 34 27 35 81 36 75 37
REMARK SMILES IDX 77 38 28 39 80 40 74 41 73 42 29 44 61 45 41 46 60 47 42 48
REMARK SMILES IDX 45 49 59 50 78 51 43 52 44 53 58 55 79 56 46 57 30 58 31 59
REMARK SMILES IDX 39 60 32 61 34 62 40 63 33 64 35 65 36 66 37 67 38 68 62 69
REMARK SMILES IDX 63 70 71 71 64 72 66 73 72 74 65 75 67 76 68 77 69 78 70 79
REMARK SMILES IDX 47 80 48 81 56 82 49 83 51 84 57 85 50 86 52 87 53 88 54 89
REMARK SMILES IDX 55 90
REMARK H PARENT 14 6 6 16 5 20 18 24 77 43 45 54
REMARK Flexibility Score: inf
ROOT
ATOM      1  C   UNL A   1      33.140  29.187  25.069  1.00  0.00     0.042 C 
ENDROOT
BRANCH   1   2
ATOM      2  C   UNL A   1      33.653  27.758  25.016  1.00  0.00     0.118 C 
BRANCH   2   3
ATOM      3  N   UNL A   1      33.846  27.229  23.666  1.00  0.00    -0.352 N 
ATOM      4  C   UNL A   1      32.966  26.973  22.635  1.00  0.00     0.251 C 
ATOM      5  O   UNL A   1      33.409  26.513  21.582  1.00  0.00    -0.269 OA
ATOM      6  H   UNL A   1      34.784  27.015  23.453  1.00  0.00     0.163 HD
BRANCH   4   7
ATOM      7  C   UNL A   1      31.498  27.164  22.777  1.00  0.00     0.041 A 
ATOM      8  C   UNL A   1      29.601  28.662  22.871  1.00  0.00     0.042 A 
ATOM      9  C   UNL A   1      28.852  27.664  23.501  1.00  0.00     0.026 A 
ATOM     10  C   UNL A   1      30.868  28.344  22.388  1.00  0.00     0.040 A 
ATOM     11  C   UNL A   1      29.401  26.393  23.700  1.00  0.00     0.003 A 
ATOM     12  C   UNL A   1      30.739  26.156  23.378  1.00  0.00     0.014 A 
BRANCH   8  13
ATOM     13  N   UNL A   1      29.116  29.989  22.883  1.00  0.00    -0.321 N 
ATOM     14  O   UNL A   1      28.028  30.168  20.807  1.00  0.00    -0.268 OA
ATOM     15  C   UNL A   1      28.502  30.640  21.828  1.00  0.00     0.270 C 
ATOM     16  H   UNL A   1      29.224  30.496  23.720  1.00  0.00     0.170 HD
BRANCH  15  17
ATOM     17  C   UNL A   1      28.448  32.138  21.965  1.00  0.00     0.225 C 
ATOM     18  N   UNL A   1      28.386  32.705  23.126  1.00  0.00    -0.092 NA
BRANCH  18  19
ATOM     19  O   UNL A   1      28.403  34.094  22.930  1.00  0.00    -0.411 OA
ATOM     20  H   UNL A   1      29.186  34.582  23.093  1.00  0.00     0.330 HD
ENDBRANCH  18  19
ENDBRANCH  15  17
ENDBRANCH   8  13
ENDBRANCH   4   7
ENDBRANCH   2   3
ENDBRANCH   1   2
BRANCH   1  21
ATOM     21  C   UNL A   1      32.368  29.539  26.327  1.00  0.00     0.118 C 
BRANCH  21  22
ATOM     22  N   UNL A   1      32.185  30.976  26.507  1.00  0.00    -0.352 N 
ATOM     23  C   UNL A   1      32.939  31.901  27.192  1.00  0.00     0.251 C 
ATOM     24  H   UNL A   1      31.388  31.346  26.062  1.00  0.00     0.163 HD
ATOM     25  O   UNL A   1      32.502  33.038  27.352  1.00  0.00    -0.269 OA
BRANCH  23  26
ATOM     26  C   UNL A   1      34.255  31.533  27.758  1.00  0.00     0.039 A 
ATOM     27  C   UNL A   1      35.217  32.528  27.962  1.00  0.00     0.014 A 
ATOM     28  C   UNL A   1      34.550  30.209  28.083  1.00  0.00     0.014 A 
ATOM     29  C   UNL A   1      36.434  32.206  28.572  1.00  0.00     0.010 A 
ATOM     30  C   UNL A   1      35.710  29.911  28.791  1.00  0.00     0.010 A 
ATOM     31  C   UNL A   1      36.670  30.903  29.036  1.00  0.00    -0.014 A 
BRANCH  31  32
ATOM     32  C   UNL A   1      37.905  30.538  29.778  1.00  0.00     0.031 A 
ATOM     33  C   UNL A   1      38.887  29.569  29.173  1.00  0.00     0.074 A 
ATOM     34  C   UNL A   1      38.086  30.982  31.039  1.00  0.00     0.049 A 
ATOM     35  N   UNL A   1      39.950  29.027  29.708  1.00  0.00    -0.248 NA
ATOM     36  C   UNL A   1      38.617  29.120  27.795  1.00  0.00     0.031 C 
ATOM     37  C   UNL A   1      37.169  31.863  31.767  1.00  0.00     0.029 A 
ATOM     38  N   UNL A   1      39.083  30.722  31.947  1.00  0.00    -0.354 N 
ATOM     39  C   UNL A   1      40.445  28.143  28.756  1.00  0.00     0.074 A 
ATOM     40  C   UNL A   1      39.545  28.191  27.626  1.00  0.00     0.031 C 
ATOM     41  C   UNL A   1      37.647  32.073  33.004  1.00  0.00     0.029 A 
ATOM     42  C   UNL A   1      38.878  31.309  33.175  1.00  0.00     0.049 A 
ATOM     43  H   UNL A   1      39.870  30.169  31.738  1.00  0.00     0.167 HD
ATOM     44  C   UNL A   1      41.562  27.379  28.807  1.00  0.00     0.034 A 
ATOM     45  C   UNL A   1      39.590  31.228  34.316  1.00  0.00     0.034 A 
ATOM     46  C   UNL A   1      42.479  27.371  29.913  1.00  0.00     0.049 A 
ATOM     47  C   UNL A   1      40.848  30.399  34.333  1.00  0.00     0.074 A 
ATOM     48  C   UNL A   1      43.687  26.707  30.025  1.00  0.00     0.029 A 
ATOM     49  N   UNL A   1      42.284  28.053  31.105  1.00  0.00    -0.354 N 
ATOM     50  N   UNL A   1      41.379  29.687  33.369  1.00  0.00    -0.248 NA
ATOM     51  C   UNL A   1      41.621  30.388  35.583  1.00  0.00     0.031 C 
ATOM     52  C   UNL A   1      44.208  26.961  31.296  1.00  0.00     0.029 A 
ATOM     53  C   UNL A   1      43.344  27.816  31.962  1.00  0.00     0.049 A 
ATOM     54  H   UNL A   1      41.508  28.621  31.311  1.00  0.00     0.167 HD
ATOM     55  C   UNL A   1      42.568  29.179  33.882  1.00  0.00     0.074 A 
ATOM     56  C   UNL A   1      42.686  29.678  35.236  1.00  0.00     0.031 C 
ATOM     57  C   UNL A   1      43.475  28.364  33.287  1.00  0.00     0.034 A 
BRANCH  44  58
ATOM     58  C   UNL A   1      41.881  26.522  27.609  1.00  0.00     0.023 A 
ATOM     59  C   UNL A   1      42.521  27.093  26.489  1.00  0.00     0.012 A 
ATOM     60  C   UNL A   1      41.599  25.141  27.611  1.00  0.00     0.148 A 
ATOM     61  C   UNL A   1      42.838  26.316  25.377  1.00  0.00     0.002 A 
ATOM     62  C   UNL A   1      41.964  24.363  26.519  1.00  0.00     0.091 A 
ATOM     63  F   UNL A   1      40.974  24.618  28.675  1.00  0.00    -0.205 F 
ATOM     64  C   UNL A   1      42.570  24.950  25.396  1.00  0.00     0.022 A 
BRANCH  62  65
ATOM     65  S   UNL A   1      41.740  22.582  26.479  1.00  0.00     0.127 S 
ATOM     66  O   UNL A   1      40.289  22.469  26.335  1.00  0.00    -0.237 OA
ATOM     67  O   UNL A   1      42.502  22.202  25.289  1.00  0.00    -0.237 OA
ATOM     68  O   UNL A   1      42.283  22.080  27.734  1.00  0.00    -0.744 OA
ENDBRANCH  62  65
ENDBRANCH  44  58
BRANCH  45  69
ATOM     69  C   UNL A   1      39.163  31.995  35.522  1.00  0.00     0.023 A 
ATOM     70  C   UNL A   1      39.474  33.366  35.614  1.00  0.00     0.012 A 
ATOM     71  C   UNL A   1      38.436  31.385  36.562  1.00  0.00     0.148 A 
ATOM     72  C   UNL A   1      39.101  34.107  36.736  1.00  0.00     0.002 A 
ATOM     73  C   UNL A   1      38.017  32.142  37.651  1.00  0.00     0.091 A 
ATOM     74  F   UNL A   1      38.156  30.078  36.460  1.00  0.00    -0.205 F 
ATOM     75  C   UNL A   1      38.365  33.498  37.748  1.00  0.00     0.022 A 
BRANCH  73  76
ATOM     76  S   UNL A   1      36.954  31.478  38.937  1.00  0.00     0.127 S 
ATOM     77  O   UNL A   1      37.804  31.596  40.119  1.00  0.00    -0.237 OA
ATOM     78  O   UNL A   1      35.820  32.402  38.899  1.00  0.00    -0.237 OA
ATOM     79  O   UNL A   1      36.633  30.119  38.523  1.00  0.00    -0.744 OA
ENDBRANCH  73  76
ENDBRANCH  45  69
BRANCH  57  80
ATOM     80  C   UNL A   1      44.707  27.995  34.070  1.00  0.00     0.023 A 
ATOM     81  C   UNL A   1      45.828  28.849  34.067  1.00  0.00     0.012 A 
ATOM     82  C   UNL A   1      44.715  26.843  34.882  1.00  0.00     0.148 A 
ATOM     83  C   UNL A   1      46.949  28.547  34.839  1.00  0.00     0.002 A 
ATOM     84  C   UNL A   1      45.815  26.576  35.688  1.00  0.00     0.091 A 
ATOM     85  F   UNL A   1      43.645  26.037  34.857  1.00  0.00    -0.205 F 
ATOM     86  C   UNL A   1      46.937  27.420  35.659  1.00  0.00     0.022 A 
BRANCH  84  87
ATOM     87  S   UNL A   1      45.849  25.208  36.851  1.00  0.00     0.127 S 
ATOM     88  O   UNL A   1      44.690  25.505  37.693  1.00  0.00    -0.237 OA
ATOM     89  O   UNL A   1      45.683  24.051  35.971  1.00  0.00    -0.237 OA
ATOM     90  O   UNL A   1      47.140  25.280  37.522  1.00  0.00    -0.744 OA
ENDBRANCH  84  87
ENDBRANCH  57  80
ENDBRANCH  31  32
ENDBRANCH  23  26
ENDBRANCH  21  22
ENDBRANCH   1  21
TORSDOF 16
ENDMDL
MODEL 3
REMARK VINA RESULT:     -11.8      7.215     12.949
REMARK SMILES O=C(/C=N/O)Nc1cccc(C(=O)NCCCNC(=O)c2ccc(-c3c4nc(c(-c5cccc(S(=O)(=O)[O-])c5F)c5ccc([nH]5)c(-c5cccc(S(=O)(=O)[O-])c5F)c5nc(c(-c6cccc(S(=O)(=O)[O-])c6F)c6ccc3[nH]6)C=C5)C=C4)cc2)c1
REMARK SMILES IDX 16 1 15 2 14 3 12 4 13 5 11 7 7 8 8 9 84 10 9 11 10 12 6 13
REMARK SMILES IDX 1 14 2 15 3 17 4 18 5 19 17 21 18 22 19 23 20 25 21 26 22 27
REMARK SMILES IDX 83 28 23 29 82 30 24 31 25 32 26 33 76 34 27 35 81 36 75 37
REMARK SMILES IDX 77 38 28 39 80 40 74 41 73 42 29 44 61 45 41 46 60 47 42 48
REMARK SMILES IDX 45 49 59 50 78 51 43 52 44 53 58 55 79 56 46 57 30 58 31 59
REMARK SMILES IDX 39 60 32 61 34 62 40 63 33 64 35 65 36 66 37 67 38 68 62 69
REMARK SMILES IDX 63 70 71 71 64 72 66 73 72 74 65 75 67 76 68 77 69 78 70 79
REMARK SMILES IDX 47 80 48 81 56 82 49 83 51 84 57 85 50 86 52 87 53 88 54 89
REMARK SMILES IDX 55 90
REMARK H PARENT 14 6 6 16 5 20 18 24 77 43 45 54
REMARK Flexibility Score: inf
ROOT
ATOM      1  C   UNL A   1      37.803  20.361  24.983  1.00  0.00     0.042 C 
ENDROOT
BRANCH   1   2
ATOM      2  C   UNL A   1      37.063  21.575  24.449  1.00  0.00     0.118 C 
BRANCH   2   3
ATOM      3  N   UNL A   1      36.438  22.408  25.476  1.00  0.00    -0.352 N 
ATOM      4  C   UNL A   1      35.147  22.476  25.957  1.00  0.00     0.251 C 
ATOM      5  O   UNL A   1      34.889  23.293  26.841  1.00  0.00    -0.269 OA
ATOM      6  H   UNL A   1      37.057  23.043  25.904  1.00  0.00     0.163 HD
BRANCH   4   7
ATOM      7  C   UNL A   1      34.045  21.649  25.396  1.00  0.00     0.041 A 
ATOM      8  C   UNL A   1      32.909  19.517  25.268  1.00  0.00     0.042 A 
ATOM      9  C   UNL A   1      32.328  19.906  24.058  1.00  0.00     0.026 A 
ATOM     10  C   UNL A   1      33.644  20.454  25.990  1.00  0.00     0.040 A 
ATOM     11  C   UNL A   1      32.545  21.194  23.556  1.00  0.00     0.003 A 
ATOM     12  C   UNL A   1      33.438  22.050  24.203  1.00  0.00     0.014 A 
BRANCH   8  13
ATOM     13  N   UNL A   1      32.864  18.155  25.640  1.00  0.00    -0.321 N 
ATOM     14  O   UNL A   1      34.588  17.203  24.356  1.00  0.00    -0.268 OA
ATOM     15  C   UNL A   1      33.601  17.132  25.071  1.00  0.00     0.270 C 
ATOM     16  H   UNL A   1      32.251  17.912  26.371  1.00  0.00     0.170 HD
BRANCH  15  17
ATOM     17  C   UNL A   1      33.082  15.749  25.365  1.00  0.00     0.225 C 
ATOM     18  N   UNL A   1      33.866  14.720  25.348  1.00  0.00    -0.092 NA
BRANCH  18  19
ATOM     19  O   UNL A   1      33.109  13.595  25.711  1.00  0.00    -0.411 OA
ATOM     20  H   UNL A   1      32.936  13.419  26.615  1.00  0.00     0.330 HD
ENDBRANCH  18  19
ENDBRANCH  15  17
ENDBRANCH   8  13
ENDBRANCH   4   7
ENDBRANCH   2   3
ENDBRANCH   1   2
BRANCH   1  21
ATOM     21  C   UNL A   1      38.993  20.679  25.869  1.00  0.00     0.118 C 
BRANCH  21  22
ATOM     22  N   UNL A   1      39.963  19.592  25.943  1.00  0.00    -0.352 N 
ATOM     23  C   UNL A   1      41.331  19.614  26.093  1.00  0.00     0.251 C 
ATOM     24  H   UNL A   1      39.574  18.690  25.873  1.00  0.00     0.163 HD
ATOM     25  O   UNL A   1      41.971  18.574  25.959  1.00  0.00    -0.269 OA
BRANCH  23  26
ATOM     26  C   UNL A   1      42.038  20.879  26.391  1.00  0.00     0.039 A 
ATOM     27  C   UNL A   1      42.324  21.767  25.348  1.00  0.00     0.014 A 
ATOM     28  C   UNL A   1      42.427  21.193  27.693  1.00  0.00     0.014 A 
ATOM     29  C   UNL A   1      42.917  23.003  25.629  1.00  0.00     0.010 A 
ATOM     30  C   UNL A   1      42.910  22.464  27.984  1.00  0.00     0.010 A 
ATOM     31  C   UNL A   1      43.170  23.381  26.956  1.00  0.00    -0.014 A 
BRANCH  31  32
ATOM     32  C   UNL A   1      43.707  24.722  27.307  1.00  0.00     0.031 A 
ATOM     33  C   UNL A   1      42.781  25.786  27.838  1.00  0.00     0.074 A 
ATOM     34  C   UNL A   1      44.994  25.021  27.039  1.00  0.00     0.049 A 
ATOM     35  N   UNL A   1      43.025  27.048  28.079  1.00  0.00    -0.248 NA
ATOM     36  C   UNL A   1      41.386  25.388  28.095  1.00  0.00     0.031 C 
ATOM     37  C   UNL A   1      45.973  24.102  26.453  1.00  0.00     0.029 A 
ATOM     38  N   UNL A   1      45.692  26.194  27.189  1.00  0.00    -0.354 N 
ATOM     39  C   UNL A   1      41.810  27.601  28.468  1.00  0.00     0.074 A 
ATOM     40  C   UNL A   1      40.822  26.548  28.394  1.00  0.00     0.031 C 
ATOM     41  C   UNL A   1      47.143  24.743  26.297  1.00  0.00     0.029 A 
ATOM     42  C   UNL A   1      46.988  26.128  26.729  1.00  0.00     0.049 A 
ATOM     43  H   UNL A   1      45.303  27.005  27.589  1.00  0.00     0.167 HD
ATOM     44  C   UNL A   1      41.545  28.864  28.876  1.00  0.00     0.034 A 
ATOM     45  C   UNL A   1      47.939  27.079  26.646  1.00  0.00     0.034 A 
ATOM     46  C   UNL A   1      42.539  29.895  28.995  1.00  0.00     0.049 A 
ATOM     47  C   UNL A   1      47.627  28.467  27.140  1.00  0.00     0.074 A 
ATOM     48  C   UNL A   1      42.393  31.179  29.488  1.00  0.00     0.029 A 
ATOM     49  N   UNL A   1      43.863  29.762  28.606  1.00  0.00    -0.354 N 
ATOM     50  N   UNL A   1      46.510  28.931  27.647  1.00  0.00    -0.248 NA
ATOM     51  C   UNL A   1      48.715  29.454  27.084  1.00  0.00     0.031 C 
ATOM     52  C   UNL A   1      43.622  31.834  29.367  1.00  0.00     0.029 A 
ATOM     53  C   UNL A   1      44.544  30.945  28.837  1.00  0.00     0.049 A 
ATOM     54  H   UNL A   1      44.261  28.948  28.223  1.00  0.00     0.167 HD
ATOM     55  C   UNL A   1      46.773  30.249  28.006  1.00  0.00     0.074 A 
ATOM     56  C   UNL A   1      48.159  30.503  27.674  1.00  0.00     0.031 C 
ATOM     57  C   UNL A   1      45.938  31.167  28.552  1.00  0.00     0.034 A 
BRANCH  44  58
ATOM     58  C   UNL A   1      40.127  29.192  29.272  1.00  0.00     0.023 A 
ATOM     59  C   UNL A   1      39.180  29.518  28.279  1.00  0.00     0.012 A 
ATOM     60  C   UNL A   1      39.718  29.124  30.619  1.00  0.00     0.148 A 
ATOM     61  C   UNL A   1      37.862  29.810  28.621  1.00  0.00     0.002 A 
ATOM     62  C   UNL A   1      38.389  29.368  30.946  1.00  0.00     0.091 A 
ATOM     63  F   UNL A   1      40.634  28.831  31.552  1.00  0.00    -0.205 F 
ATOM     64  C   UNL A   1      37.464  29.724  29.952  1.00  0.00     0.022 A 
BRANCH  62  65
ATOM     65  S   UNL A   1      37.757  29.200  32.619  1.00  0.00     0.127 S 
ATOM     66  O   UNL A   1      36.395  29.713  32.472  1.00  0.00    -0.237 OA
ATOM     67  O   UNL A   1      37.843  27.756  32.837  1.00  0.00    -0.237 OA
ATOM     68  O   UNL A   1      38.636  29.996  33.464  1.00  0.00    -0.744 OA
ENDBRANCH  62  65
ENDBRANCH  44  58
BRANCH  45  69
ATOM     69  C   UNL A   1      49.294  26.739  26.124  1.00  0.00     0.023 A 
ATOM     70  C   UNL A   1      50.162  25.959  26.914  1.00  0.00     0.012 A 
ATOM     71  C   UNL A   1      49.719  27.162  24.850  1.00  0.00     0.148 A 
ATOM     72  C   UNL A   1      51.442  25.637  26.459  1.00  0.00     0.002 A 
ATOM     73  C   UNL A   1      50.974  26.789  24.380  1.00  0.00     0.091 A 
ATOM     74  F   UNL A   1      48.883  27.911  24.118  1.00  0.00    -0.205 F 
ATOM     75  C   UNL A   1      51.843  26.043  25.190  1.00  0.00     0.022 A 
BRANCH  73  76
ATOM     76  S   UNL A   1      51.526  27.154  22.709  1.00  0.00     0.127 S 
ATOM     77  O   UNL A   1      52.783  26.413  22.642  1.00  0.00    -0.237 OA
ATOM     78  O   UNL A   1      50.439  26.596  21.904  1.00  0.00    -0.237 OA
ATOM     79  O   UNL A   1      51.641  28.604  22.638  1.00  0.00    -0.744 OA
ENDBRANCH  73  76
ENDBRANCH  45  69
BRANCH  57  80
ATOM     80  C   UNL A   1      46.503  32.524  28.880  1.00  0.00     0.023 A 
ATOM     81  C   UNL A   1      47.094  32.758  30.137  1.00  0.00     0.012 A 
ATOM     82  C   UNL A   1      46.528  33.538  27.902  1.00  0.00     0.148 A 
ATOM     83  C   UNL A   1      47.676  33.992  30.425  1.00  0.00     0.002 A 
ATOM     84  C   UNL A   1      47.156  34.746  28.179  1.00  0.00     0.091 A 
ATOM     85  F   UNL A   1      45.946  33.299  26.719  1.00  0.00    -0.205 F 
ATOM     86  C   UNL A   1      47.720  34.979  29.444  1.00  0.00     0.022 A 
BRANCH  84  87
ATOM     87  S   UNL A   1      47.351  36.037  26.945  1.00  0.00     0.127 S 
ATOM     88  O   UNL A   1      48.209  36.991  27.647  1.00  0.00    -0.237 OA
ATOM     89  O   UNL A   1      48.004  35.321  25.850  1.00  0.00    -0.237 OA
ATOM     90  O   UNL A   1      46.008  36.514  26.643  1.00  0.00    -0.744 OA
ENDBRANCH  84  87
ENDBRANCH  57  80
ENDBRANCH  31  32
ENDBRANCH  23  26
ENDBRANCH  21  22
ENDBRANCH   1  21
TORSDOF 16
ENDMDL
