MODEL 1
REMARK VINA RESULT:     -12.3      0.000      0.000
REMARK SMILES COc1ccc(C(=O)Nc2cc(C(=O)NCCCNC(=O)c3ccc(-c4c5nc(c(-c6cccc(S(=O)(=O)[O-])c6F)c6ccc([nH]6)c(-c6cccc(S(=O)(=O)[O-])c6F)c6nc(c(-c7cccc(S(=O)(=O)[O-])c7F)c7ccc4[nH]7)C=C6)C=C5)cc3)c(Cl)cc2Cl)cc1Cl
REMARK SMILES IDX 17 1 16 2 15 3 13 4 14 5 12 7 10 8 11 9 88 10 87 11 89 12
REMARK SMILES IDX 85 13 86 14 9 15 7 16 8 17 6 19 3 20 4 21 91 22 5 23 90 24
REMARK SMILES IDX 92 25 2 26 1 27 18 28 19 29 20 30 21 32 22 33 23 34 84 35
REMARK SMILES IDX 24 36 83 37 25 38 26 39 27 40 77 41 28 42 82 43 76 44 78 45
REMARK SMILES IDX 29 46 81 47 75 48 74 49 30 51 62 52 42 53 61 54 43 55 46 56
REMARK SMILES IDX 60 57 79 58 44 59 45 60 59 62 80 63 47 64 31 65 32 66 40 67
REMARK SMILES IDX 33 68 35 69 41 70 34 71 36 72 37 73 38 74 39 75 63 76 64 77
REMARK SMILES IDX 72 78 65 79 67 80 73 81 66 82 68 83 69 84 70 85 71 86 48 87
REMARK SMILES IDX 49 88 57 89 50 90 52 91 58 92 51 93 53 94 54 95 55 96 56 97
REMARK H PARENT 15 6 9 18 19 31 78 50 46 61
REMARK Flexibility Score: inf
ROOT
ATOM      1  C   UNL A   1      33.352  28.146  27.087  1.00  0.00     0.042 C 
ENDROOT
BRANCH   1   2
ATOM      2  C   UNL A   1      31.893  28.519  27.362  1.00  0.00     0.118 C 
BRANCH   2   3
ATOM      3  N   UNL A   1      31.029  27.373  27.203  1.00  0.00    -0.352 N 
ATOM      4  C   UNL A   1      30.702  26.517  26.199  1.00  0.00     0.252 C 
ATOM      5  O   UNL A   1      29.928  25.621  26.563  1.00  0.00    -0.269 OA
ATOM      6  H   UNL A   1      30.555  27.156  28.038  1.00  0.00     0.163 HD
BRANCH   4   7
ATOM      7  C   UNL A   1      31.174  26.487  24.770  1.00  0.00     0.060 A 
ATOM      8  C   UNL A   1      31.731  24.838  23.008  1.00  0.00     0.061 A 
ATOM      9  C   UNL A   1      31.459  25.163  24.341  1.00  0.00     0.043 A 
ATOM     10  C   UNL A   1      32.010  25.863  22.114  1.00  0.00     0.066 A 
ATOM     11  C   UNL A   1      31.762  27.174  22.497  1.00  0.00     0.044 A 
ATOM     12  Cl  UNL A   1      32.478  25.545  20.483  1.00  0.00    -0.082 Cl
ATOM     13  C   UNL A   1      31.259  27.478  23.781  1.00  0.00     0.055 A 
ATOM     14  Cl  UNL A   1      30.637  29.077  23.857  1.00  0.00    -0.083 Cl
BRANCH   8  15
ATOM     15  N   UNL A   1      31.624  23.519  22.534  1.00  0.00    -0.321 N 
ATOM     16  C   UNL A   1      32.483  22.441  22.660  1.00  0.00     0.255 C 
ATOM     17  O   UNL A   1      32.241  21.426  22.005  1.00  0.00    -0.269 OA
ATOM     18  H   UNL A   1      30.803  23.330  22.026  1.00  0.00     0.170 HD
BRANCH  16  19
ATOM     19  C   UNL A   1      33.634  22.409  23.621  1.00  0.00     0.041 A 
ATOM     20  C   UNL A   1      35.858  22.495  25.390  1.00  0.00     0.137 A 
ATOM     21  C   UNL A   1      35.962  22.927  24.057  1.00  0.00     0.049 A 
ATOM     22  C   UNL A   1      34.633  21.975  25.816  1.00  0.00     0.083 A 
ATOM     23  C   UNL A   1      34.866  22.899  23.187  1.00  0.00     0.018 A 
ATOM     24  C   UNL A   1      33.563  21.866  24.908  1.00  0.00     0.038 A 
ATOM     25  Cl  UNL A   1      34.251  21.508  27.437  1.00  0.00    -0.080 Cl
BRANCH  20  26
ATOM     26  O   UNL A   1      37.026  22.685  26.074  1.00  0.00    -0.495 OA
ATOM     27  C   UNL A   1      37.800  23.853  25.852  1.00  0.00     0.278 C 
ENDBRANCH  20  26
ENDBRANCH  16  19
ENDBRANCH   8  15
ENDBRANCH   4   7
ENDBRANCH   2   3
ENDBRANCH   1   2
BRANCH   1  28
ATOM     28  C   UNL A   1      34.053  29.118  26.145  1.00  0.00     0.118 C 
BRANCH  28  29
ATOM     29  N   UNL A   1      33.985  30.488  26.648  1.00  0.00    -0.352 N 
ATOM     30  C   UNL A   1      34.676  31.085  27.666  1.00  0.00     0.251 C 
ATOM     31  H   UNL A   1      33.341  31.070  26.183  1.00  0.00     0.163 HD
ATOM     32  O   UNL A   1      34.270  32.157  28.126  1.00  0.00    -0.269 OA
BRANCH  30  33
ATOM     33  C   UNL A   1      35.903  30.468  28.204  1.00  0.00     0.039 A 
ATOM     34  C   UNL A   1      37.114  30.645  27.527  1.00  0.00     0.014 A 
ATOM     35  C   UNL A   1      35.852  29.671  29.351  1.00  0.00     0.014 A 
ATOM     36  C   UNL A   1      38.278  30.057  28.022  1.00  0.00     0.010 A 
ATOM     37  C   UNL A   1      37.025  29.157  29.889  1.00  0.00     0.010 A 
ATOM     38  C   UNL A   1      38.246  29.326  29.220  1.00  0.00    -0.014 A 
BRANCH  38  39
ATOM     39  C   UNL A   1      39.464  28.698  29.789  1.00  0.00     0.031 A 
ATOM     40  C   UNL A   1      40.115  29.308  31.002  1.00  0.00     0.074 A 
ATOM     41  C   UNL A   1      40.039  27.658  29.155  1.00  0.00     0.049 A 
ATOM     42  N   UNL A   1      41.254  29.005  31.567  1.00  0.00    -0.248 NA
ATOM     43  C   UNL A   1      39.410  30.433  31.642  1.00  0.00     0.031 C 
ATOM     44  C   UNL A   1      39.536  27.029  27.932  1.00  0.00     0.029 A 
ATOM     45  N   UNL A   1      41.194  26.971  29.431  1.00  0.00    -0.354 N 
ATOM     46  C   UNL A   1      41.423  29.927  32.596  1.00  0.00     0.074 A 
ATOM     47  C   UNL A   1      40.288  30.823  32.553  1.00  0.00     0.031 C 
ATOM     48  C   UNL A   1      40.383  26.057  27.557  1.00  0.00     0.029 A 
ATOM     49  C   UNL A   1      41.504  26.017  28.490  1.00  0.00     0.049 A 
ATOM     50  H   UNL A   1      41.748  27.145  30.225  1.00  0.00     0.167 HD
ATOM     51  C   UNL A   1      42.417  30.002  33.510  1.00  0.00     0.034 A 
ATOM     52  C   UNL A   1      42.581  25.214  28.382  1.00  0.00     0.034 A 
ATOM     53  C   UNL A   1      43.514  29.076  33.575  1.00  0.00     0.049 A 
ATOM     54  C   UNL A   1      43.649  25.287  29.439  1.00  0.00     0.074 A 
ATOM     55  C   UNL A   1      44.533  29.013  34.507  1.00  0.00     0.029 A 
ATOM     56  N   UNL A   1      43.733  28.049  32.670  1.00  0.00    -0.354 N 
ATOM     57  N   UNL A   1      43.724  26.078  30.482  1.00  0.00    -0.248 NA
ATOM     58  C   UNL A   1      44.761  24.333  29.329  1.00  0.00     0.031 C 
ATOM     59  C   UNL A   1      45.381  27.959  34.154  1.00  0.00     0.029 A 
ATOM     60  C   UNL A   1      44.870  27.344  33.022  1.00  0.00     0.049 A 
ATOM     61  H   UNL A   1      43.163  27.850  31.892  1.00  0.00     0.167 HD
ATOM     62  C   UNL A   1      44.862  25.686  31.177  1.00  0.00     0.074 A 
ATOM     63  C   UNL A   1      45.439  24.580  30.442  1.00  0.00     0.031 C 
ATOM     64  C   UNL A   1      45.388  26.202  32.315  1.00  0.00     0.034 A 
BRANCH  51  65
ATOM     65  C   UNL A   1      42.334  31.089  34.552  1.00  0.00     0.023 A 
ATOM     66  C   UNL A   1      41.733  30.815  35.798  1.00  0.00     0.012 A 
ATOM     67  C   UNL A   1      42.899  32.359  34.323  1.00  0.00     0.148 A 
ATOM     68  C   UNL A   1      41.661  31.797  36.785  1.00  0.00     0.002 A 
ATOM     69  C   UNL A   1      42.867  33.317  35.330  1.00  0.00     0.091 A 
ATOM     70  F   UNL A   1      43.450  32.608  33.126  1.00  0.00    -0.205 F 
ATOM     71  C   UNL A   1      42.237  33.042  36.555  1.00  0.00     0.022 A 
BRANCH  69  72
ATOM     72  S   UNL A   1      43.653  34.924  35.166  1.00  0.00     0.127 S 
ATOM     73  O   UNL A   1      43.168  35.357  33.856  1.00  0.00    -0.237 OA
ATOM     74  O   UNL A   1      43.088  35.658  36.298  1.00  0.00    -0.237 OA
ATOM     75  O   UNL A   1      45.086  34.682  35.251  1.00  0.00    -0.744 OA
ENDBRANCH  69  72
ENDBRANCH  51  65
BRANCH  52  76
ATOM     76  C   UNL A   1      42.675  24.237  27.260  1.00  0.00     0.023 A 
ATOM     77  C   UNL A   1      43.365  24.595  26.085  1.00  0.00     0.012 A 
ATOM     78  C   UNL A   1      42.106  22.952  27.358  1.00  0.00     0.148 A 
ATOM     79  C   UNL A   1      43.452  23.707  25.012  1.00  0.00     0.002 A 
ATOM     80  C   UNL A   1      42.246  22.052  26.307  1.00  0.00     0.091 A 
ATOM     81  F   UNL A   1      41.448  22.632  28.481  1.00  0.00    -0.205 F 
ATOM     82  C   UNL A   1      42.901  22.433  25.126  1.00  0.00     0.022 A 
BRANCH  80  83
ATOM     83  S   UNL A   1      41.684  20.350  26.419  1.00  0.00     0.127 S 
ATOM     84  O   UNL A   1      42.412  19.721  25.319  1.00  0.00    -0.237 OA
ATOM     85  O   UNL A   1      42.137  19.967  27.757  1.00  0.00    -0.237 OA
ATOM     86  O   UNL A   1      40.236  20.405  26.271  1.00  0.00    -0.744 OA
ENDBRANCH  80  83
ENDBRANCH  52  76
BRANCH  64  87
ATOM     87  C   UNL A   1      46.614  25.540  32.885  1.00  0.00     0.023 A 
ATOM     88  C   UNL A   1      47.895  26.031  32.567  1.00  0.00     0.012 A 
ATOM     89  C   UNL A   1      46.482  24.492  33.817  1.00  0.00     0.148 A 
ATOM     90  C   UNL A   1      49.030  25.467  33.148  1.00  0.00     0.002 A 
ATOM     91  C   UNL A   1      47.614  23.971  34.432  1.00  0.00     0.091 A 
ATOM     92  F   UNL A   1      45.253  24.029  34.090  1.00  0.00    -0.205 F 
ATOM     93  C   UNL A   1      48.890  24.449  34.090  1.00  0.00     0.022 A 
BRANCH  91  94
ATOM     94  S   UNL A   1      47.521  22.732  35.729  1.00  0.00     0.127 S 
ATOM     95  O   UNL A   1      46.939  21.597  35.014  1.00  0.00    -0.237 OA
ATOM     96  O   UNL A   1      48.927  22.565  36.096  1.00  0.00    -0.237 OA
ATOM     97  O   UNL A   1      46.686  23.305  36.775  1.00  0.00    -0.744 OA
ENDBRANCH  91  94
ENDBRANCH  64  87
ENDBRANCH  38  39
ENDBRANCH  30  33
ENDBRANCH  28  29
ENDBRANCH   1  28
TORSDOF 16
ENDMDL
MODEL 2
REMARK VINA RESULT:     -12.3      1.797      2.131
REMARK SMILES COc1ccc(C(=O)Nc2cc(C(=O)NCCCNC(=O)c3ccc(-c4c5nc(c(-c6cccc(S(=O)(=O)[O-])c6F)c6ccc([nH]6)c(-c6cccc(S(=O)(=O)[O-])c6F)c6nc(c(-c7cccc(S(=O)(=O)[O-])c7F)c7ccc4[nH]7)C=C6)C=C5)cc3)c(Cl)cc2Cl)cc1Cl
REMARK SMILES IDX 17 1 16 2 15 3 13 4 14 5 12 7 10 8 11 9 88 10 87 11 89 12
REMARK SMILES IDX 85 13 86 14 9 15 7 16 8 17 6 19 3 20 4 21 91 22 5 23 90 24
REMARK SMILES IDX 92 25 2 26 1 27 18 28 19 29 20 30 21 32 22 33 23 34 84 35
REMARK SMILES IDX 24 36 83 37 25 38 26 39 27 40 77 41 28 42 82 43 76 44 78 45
REMARK SMILES IDX 29 46 81 47 75 48 74 49 30 51 62 52 42 53 61 54 43 55 46 56
REMARK SMILES IDX 60 57 79 58 44 59 45 60 59 62 80 63 47 64 31 65 32 66 40 67
REMARK SMILES IDX 33 68 35 69 41 70 34 71 36 72 37 73 38 74 39 75 63 76 64 77
REMARK SMILES IDX 72 78 65 79 67 80 73 81 66 82 68 83 69 84 70 85 71 86 48 87
REMARK SMILES IDX 49 88 57 89 50 90 52 91 58 92 51 93 53 94 54 95 55 96 56 97
REMARK H PARENT 15 6 9 18 19 31 78 50 46 61
REMARK Flexibility Score: inf
ROOT
ATOM      1  C   UNL A   1      33.394  28.098  26.980  1.00  0.00     0.042 C 
ENDROOT
BRANCH   1   2
ATOM      2  C   UNL A   1      31.974  28.476  27.409  1.00  0.00     0.118 C 
BRANCH   2   3
ATOM      3  N   UNL A   1      31.070  27.363  27.236  1.00  0.00    -0.352 N 
ATOM      4  C   UNL A   1      30.723  26.524  26.224  1.00  0.00     0.252 C 
ATOM      5  O   UNL A   1      29.913  25.655  26.576  1.00  0.00    -0.269 OA
ATOM      6  H   UNL A   1      30.579  27.160  28.065  1.00  0.00     0.163 HD
BRANCH   4   7
ATOM      7  C   UNL A   1      31.209  26.482  24.801  1.00  0.00     0.060 A 
ATOM      8  C   UNL A   1      31.736  24.819  23.042  1.00  0.00     0.061 A 
ATOM      9  C   UNL A   1      31.459  25.150  24.372  1.00  0.00     0.043 A 
ATOM     10  C   UNL A   1      32.056  25.837  22.153  1.00  0.00     0.066 A 
ATOM     11  C   UNL A   1      31.842  27.155  22.535  1.00  0.00     0.044 A 
ATOM     12  Cl  UNL A   1      32.532  25.508  20.527  1.00  0.00    -0.082 Cl
ATOM     13  C   UNL A   1      31.335  27.472  23.814  1.00  0.00     0.055 A 
ATOM     14  Cl  UNL A   1      30.760  29.088  23.887  1.00  0.00    -0.083 Cl
BRANCH   8  15
ATOM     15  N   UNL A   1      31.596  23.505  22.564  1.00  0.00    -0.321 N 
ATOM     16  C   UNL A   1      32.445  22.415  22.653  1.00  0.00     0.255 C 
ATOM     17  O   UNL A   1      32.166  21.408  22.001  1.00  0.00    -0.269 OA
ATOM     18  H   UNL A   1      30.754  23.330  22.085  1.00  0.00     0.170 HD
BRANCH  16  19
ATOM     19  C   UNL A   1      33.629  22.363  23.571  1.00  0.00     0.041 A 
ATOM     20  C   UNL A   1      35.919  22.407  25.255  1.00  0.00     0.137 A 
ATOM     21  C   UNL A   1      35.987  22.812  23.912  1.00  0.00     0.049 A 
ATOM     22  C   UNL A   1      34.694  21.935  25.735  1.00  0.00     0.083 A 
ATOM     23  C   UNL A   1      34.859  22.804  23.083  1.00  0.00     0.018 A 
ATOM     24  C   UNL A   1      33.588  21.845  24.870  1.00  0.00     0.038 A 
ATOM     25  Cl  UNL A   1      34.359  21.509  27.379  1.00  0.00    -0.080 Cl
BRANCH  20  26
ATOM     26  O   UNL A   1      37.118  22.571  25.892  1.00  0.00    -0.495 OA
ATOM     27  C   UNL A   1      37.668  23.869  26.052  1.00  0.00     0.278 C 
ENDBRANCH  20  26
ENDBRANCH  16  19
ENDBRANCH   8  15
ENDBRANCH   4   7
ENDBRANCH   2   3
ENDBRANCH   1   2
BRANCH   1  28
ATOM     28  C   UNL A   1      34.050  29.146  26.088  1.00  0.00     0.118 C 
BRANCH  28  29
ATOM     29  N   UNL A   1      33.902  30.488  26.647  1.00  0.00    -0.352 N 
ATOM     30  C   UNL A   1      34.544  31.076  27.702  1.00  0.00     0.251 C 
ATOM     31  H   UNL A   1      33.236  31.055  26.195  1.00  0.00     0.163 HD
ATOM     32  O   UNL A   1      34.074  32.105  28.198  1.00  0.00    -0.269 OA
BRANCH  30  33
ATOM     33  C   UNL A   1      35.793  30.502  28.235  1.00  0.00     0.039 A 
ATOM     34  C   UNL A   1      35.755  29.750  29.414  1.00  0.00     0.014 A 
ATOM     35  C   UNL A   1      37.014  30.747  27.601  1.00  0.00     0.014 A 
ATOM     36  C   UNL A   1      36.933  29.211  29.932  1.00  0.00     0.010 A 
ATOM     37  C   UNL A   1      38.172  30.140  28.070  1.00  0.00     0.010 A 
ATOM     38  C   UNL A   1      38.148  29.385  29.251  1.00  0.00    -0.014 A 
BRANCH  38  39
ATOM     39  C   UNL A   1      39.421  28.816  29.760  1.00  0.00     0.031 A 
ATOM     40  C   UNL A   1      40.164  29.529  30.859  1.00  0.00     0.074 A 
ATOM     41  C   UNL A   1      39.955  27.733  29.165  1.00  0.00     0.049 A 
ATOM     42  N   UNL A   1      41.352  29.283  31.346  1.00  0.00    -0.248 NA
ATOM     43  C   UNL A   1      39.499  30.696  31.465  1.00  0.00     0.031 C 
ATOM     44  C   UNL A   1      39.358  27.002  28.045  1.00  0.00     0.029 A 
ATOM     45  N   UNL A   1      41.140  27.080  29.393  1.00  0.00    -0.354 N 
ATOM     46  C   UNL A   1      41.594  30.287  32.277  1.00  0.00     0.074 A 
ATOM     47  C   UNL A   1      40.446  31.166  32.262  1.00  0.00     0.031 C 
ATOM     48  C   UNL A   1      40.185  26.010  27.677  1.00  0.00     0.029 A 
ATOM     49  C   UNL A   1      41.383  26.055  28.509  1.00  0.00     0.049 A 
ATOM     50  H   UNL A   1      41.758  27.324  30.120  1.00  0.00     0.167 HD
ATOM     51  C   UNL A   1      42.662  30.446  33.093  1.00  0.00     0.034 A 
ATOM     52  C   UNL A   1      42.459  25.256  28.373  1.00  0.00     0.034 A 
ATOM     53  C   UNL A   1      43.774  29.536  33.137  1.00  0.00     0.049 A 
ATOM     54  C   UNL A   1      43.612  25.424  29.325  1.00  0.00     0.074 A 
ATOM     55  C   UNL A   1      44.871  29.559  33.979  1.00  0.00     0.029 A 
ATOM     56  N   UNL A   1      43.931  28.441  32.302  1.00  0.00    -0.354 N 
ATOM     57  N   UNL A   1      43.765  26.297  30.289  1.00  0.00    -0.248 NA
ATOM     58  C   UNL A   1      44.726  24.473  29.196  1.00  0.00     0.031 C 
ATOM     59  C   UNL A   1      45.701  28.487  33.640  1.00  0.00     0.029 A 
ATOM     60  C   UNL A   1      45.104  27.777  32.610  1.00  0.00     0.049 A 
ATOM     61  H   UNL A   1      43.299  28.174  31.595  1.00  0.00     0.167 HD
ATOM     62  C   UNL A   1      44.964  25.974  30.913  1.00  0.00     0.074 A 
ATOM     63  C   UNL A   1      45.493  24.816  30.222  1.00  0.00     0.031 C 
ATOM     64  C   UNL A   1      45.577  26.585  31.955  1.00  0.00     0.034 A 
BRANCH  51  65
ATOM     65  C   UNL A   1      42.652  31.613  34.047  1.00  0.00     0.023 A 
ATOM     66  C   UNL A   1      43.125  32.870  33.613  1.00  0.00     0.012 A 
ATOM     67  C   UNL A   1      42.127  31.486  35.347  1.00  0.00     0.148 A 
ATOM     68  C   UNL A   1      43.109  33.970  34.469  1.00  0.00     0.002 A 
ATOM     69  C   UNL A   1      42.069  32.598  36.178  1.00  0.00     0.091 A 
ATOM     70  F   UNL A   1      41.700  30.279  35.749  1.00  0.00    -0.205 F 
ATOM     71  C   UNL A   1      42.572  33.837  35.745  1.00  0.00     0.022 A 
BRANCH  69  72
ATOM     72  S   UNL A   1      41.321  32.554  37.810  1.00  0.00     0.127 S 
ATOM     73  O   UNL A   1      41.450  33.949  38.231  1.00  0.00    -0.237 OA
ATOM     74  O   UNL A   1      39.953  32.134  37.509  1.00  0.00    -0.237 OA
ATOM     75  O   UNL A   1      42.097  31.596  38.584  1.00  0.00    -0.744 OA
ENDBRANCH  69  72
ENDBRANCH  51  65
BRANCH  52  76
ATOM     76  C   UNL A   1      42.471  24.190  27.331  1.00  0.00     0.023 A 
ATOM     77  C   UNL A   1      43.178  24.404  26.130  1.00  0.00     0.012 A 
ATOM     78  C   UNL A   1      41.808  22.963  27.527  1.00  0.00     0.148 A 
ATOM     79  C   UNL A   1      43.191  23.432  25.129  1.00  0.00     0.002 A 
ATOM     80  C   UNL A   1      41.873  21.977  26.550  1.00  0.00     0.091 A 
ATOM     81  F   UNL A   1      41.136  22.781  28.672  1.00  0.00    -0.205 F 
ATOM     82  C   UNL A   1      42.546  22.216  25.341  1.00  0.00     0.022 A 
BRANCH  80  83
ATOM     83  S   UNL A   1      41.185  20.336  26.792  1.00  0.00     0.127 S 
ATOM     84  O   UNL A   1      42.290  19.482  26.365  1.00  0.00    -0.237 OA
ATOM     85  O   UNL A   1      40.920  20.328  28.232  1.00  0.00    -0.237 OA
ATOM     86  O   UNL A   1      39.988  20.286  25.964  1.00  0.00    -0.744 OA
ENDBRANCH  80  83
ENDBRANCH  52  76
BRANCH  64  87
ATOM     87  C   UNL A   1      46.858  25.983  32.468  1.00  0.00     0.023 A 
ATOM     88  C   UNL A   1      46.838  25.126  33.585  1.00  0.00     0.012 A 
ATOM     89  C   UNL A   1      48.066  26.194  31.775  1.00  0.00     0.148 A 
ATOM     90  C   UNL A   1      48.010  24.509  34.022  1.00  0.00     0.002 A 
ATOM     91  C   UNL A   1      49.218  25.534  32.183  1.00  0.00     0.091 A 
ATOM     92  F   UNL A   1      48.064  27.028  30.725  1.00  0.00    -0.205 F 
ATOM     93  C   UNL A   1      49.195  24.701  33.314  1.00  0.00     0.022 A 
BRANCH  91  94
ATOM     94  S   UNL A   1      50.763  25.640  31.272  1.00  0.00     0.127 S 
ATOM     95  O   UNL A   1      51.604  24.695  32.004  1.00  0.00    -0.237 OA
ATOM     96  O   UNL A   1      50.364  25.195  29.937  1.00  0.00    -0.237 OA
ATOM     97  O   UNL A   1      51.180  27.033  31.347  1.00  0.00    -0.744 OA
ENDBRANCH  91  94
ENDBRANCH  64  87
ENDBRANCH  38  39
ENDBRANCH  30  33
ENDBRANCH  28  29
ENDBRANCH   1  28
TORSDOF 16
ENDMDL
MODEL 3
REMARK VINA RESULT:     -12.1      3.581      8.411
REMARK SMILES COc1ccc(C(=O)Nc2cc(C(=O)NCCCNC(=O)c3ccc(-c4c5nc(c(-c6cccc(S(=O)(=O)[O-])c6F)c6ccc([nH]6)c(-c6cccc(S(=O)(=O)[O-])c6F)c6nc(c(-c7cccc(S(=O)(=O)[O-])c7F)c7ccc4[nH]7)C=C6)C=C5)cc3)c(Cl)cc2Cl)cc1Cl
REMARK SMILES IDX 17 1 16 2 15 3 13 4 14 5 12 7 10 8 11 9 88 10 87 11 89 12
REMARK SMILES IDX 85 13 86 14 9 15 7 16 8 17 6 19 3 20 4 21 91 22 5 23 90 24
REMARK SMILES IDX 92 25 2 26 1 27 18 28 19 29 20 30 21 32 22 33 23 34 84 35
REMARK SMILES IDX 24 36 83 37 25 38 26 39 27 40 77 41 28 42 82 43 76 44 78 45
REMARK SMILES IDX 29 46 81 47 75 48 74 49 30 51 62 52 42 53 61 54 43 55 46 56
REMARK SMILES IDX 60 57 79 58 44 59 45 60 59 62 80 63 47 64 31 65 32 66 40 67
REMARK SMILES IDX 33 68 35 69 41 70 34 71 36 72 37 73 38 74 39 75 63 76 64 77
REMARK SMILES IDX 72 78 65 79 67 80 73 81 66 82 68 83 69 84 70 85 71 86 48 87
REMARK SMILES IDX 49 88 57 89 50 90 52 91 58 92 51 93 53 94 54 95 55 96 56 97
REMARK H PARENT 15 6 9 18 19 31 78 50 46 61
REMARK Flexibility Score: inf
ROOT
ATOM      1  C   UNL A   1      31.384  32.167  26.478  1.00  0.00     0.042 C 
ENDROOT
BRANCH   1   2
ATOM      2  C   UNL A   1      31.382  30.676  26.131  1.00  0.00     0.118 C 
BRANCH   2   3
ATOM      3  N   UNL A   1      32.715  30.128  26.206  1.00  0.00    -0.352 N 
ATOM      4  C   UNL A   1      33.324  28.964  25.852  1.00  0.00     0.252 C 
ATOM      5  O   UNL A   1      34.543  28.973  26.073  1.00  0.00    -0.269 OA
ATOM      6  H   UNL A   1      33.346  30.759  26.621  1.00  0.00     0.163 HD
BRANCH   4   7
ATOM      7  C   UNL A   1      32.744  27.733  25.209  1.00  0.00     0.060 A 
ATOM      8  C   UNL A   1      32.120  25.414  25.813  1.00  0.00     0.061 A 
ATOM      9  C   UNL A   1      32.766  26.621  26.094  1.00  0.00     0.043 A 
ATOM     10  C   UNL A   1      31.676  25.179  24.518  1.00  0.00     0.066 A 
ATOM     11  C   UNL A   1      31.652  26.234  23.615  1.00  0.00     0.044 A 
ATOM     12  Cl  UNL A   1      30.981  23.669  24.054  1.00  0.00    -0.082 Cl
ATOM     13  C   UNL A   1      32.095  27.523  23.984  1.00  0.00     0.055 A 
ATOM     14  Cl  UNL A   1      31.569  28.718  22.868  1.00  0.00    -0.083 Cl
BRANCH   8  15
ATOM     15  N   UNL A   1      31.817  24.486  26.824  1.00  0.00    -0.321 N 
ATOM     16  C   UNL A   1      32.345  23.233  27.088  1.00  0.00     0.255 C 
ATOM     17  O   UNL A   1      31.789  22.539  27.941  1.00  0.00    -0.269 OA
ATOM     18  H   UNL A   1      31.113  24.773  27.448  1.00  0.00     0.170 HD
BRANCH  16  19
ATOM     19  C   UNL A   1      33.606  22.719  26.463  1.00  0.00     0.041 A 
ATOM     20  C   UNL A   1      35.914  21.709  25.145  1.00  0.00     0.137 A 
ATOM     21  C   UNL A   1      34.675  21.053  25.064  1.00  0.00     0.049 A 
ATOM     22  C   UNL A   1      35.995  22.859  25.936  1.00  0.00     0.083 A 
ATOM     23  C   UNL A   1      33.533  21.553  25.700  1.00  0.00     0.018 A 
ATOM     24  C   UNL A   1      34.864  23.304  26.645  1.00  0.00     0.038 A 
ATOM     25  Cl  UNL A   1      37.380  23.886  26.073  1.00  0.00    -0.080 Cl
BRANCH  20  26
ATOM     26  O   UNL A   1      36.865  21.087  24.386  1.00  0.00    -0.495 OA
ATOM     27  C   UNL A   1      37.636  20.030  24.935  1.00  0.00     0.278 C 
ENDBRANCH  20  26
ENDBRANCH  16  19
ENDBRANCH   8  15
ENDBRANCH   4   7
ENDBRANCH   2   3
ENDBRANCH   1   2
BRANCH   1  28
ATOM     28  C   UNL A   1      32.591  32.589  27.307  1.00  0.00     0.118 C 
BRANCH  28  29
ATOM     29  N   UNL A   1      32.522  34.004  27.664  1.00  0.00    -0.352 N 
ATOM     30  C   UNL A   1      33.166  34.692  28.656  1.00  0.00     0.251 C 
ATOM     31  H   UNL A   1      31.918  34.544  27.106  1.00  0.00     0.163 HD
ATOM     32  O   UNL A   1      32.755  35.811  28.979  1.00  0.00    -0.269 OA
BRANCH  30  33
ATOM     33  C   UNL A   1      34.347  34.116  29.325  1.00  0.00     0.039 A 
ATOM     34  C   UNL A   1      35.626  34.459  28.873  1.00  0.00     0.014 A 
ATOM     35  C   UNL A   1      34.195  33.197  30.367  1.00  0.00     0.014 A 
ATOM     36  C   UNL A   1      36.750  33.911  29.493  1.00  0.00     0.010 A 
ATOM     37  C   UNL A   1      35.314  32.720  31.037  1.00  0.00     0.010 A 
ATOM     38  C   UNL A   1      36.602  33.054  30.595  1.00  0.00    -0.014 A 
BRANCH  38  39
ATOM     39  C   UNL A   1      37.771  32.463  31.292  1.00  0.00     0.031 A 
ATOM     40  C   UNL A   1      38.498  31.302  30.666  1.00  0.00     0.074 A 
ATOM     41  C   UNL A   1      38.105  32.895  32.523  1.00  0.00     0.049 A 
ATOM     42  N   UNL A   1      39.445  30.554  31.168  1.00  0.00    -0.248 NA
ATOM     43  C   UNL A   1      38.078  30.906  29.310  1.00  0.00     0.031 C 
ATOM     44  C   UNL A   1      37.427  33.965  33.258  1.00  0.00     0.029 A 
ATOM     45  N   UNL A   1      39.075  32.459  33.390  1.00  0.00    -0.354 N 
ATOM     46  C   UNL A   1      39.700  29.575  30.213  1.00  0.00     0.074 A 
ATOM     47  C   UNL A   1      38.783  29.802  29.117  1.00  0.00     0.031 C 
ATOM     48  C   UNL A   1      37.994  34.095  34.467  1.00  0.00     0.029 A 
ATOM     49  C   UNL A   1      39.050  33.097  34.609  1.00  0.00     0.049 A 
ATOM     50  H   UNL A   1      39.725  31.756  33.163  1.00  0.00     0.167 HD
ATOM     51  C   UNL A   1      40.633  28.596  30.232  1.00  0.00     0.034 A 
ATOM     52  C   UNL A   1      39.781  32.887  35.720  1.00  0.00     0.034 A 
ATOM     53  C   UNL A   1      41.574  28.411  31.303  1.00  0.00     0.049 A 
ATOM     54  C   UNL A   1      40.844  31.822  35.698  1.00  0.00     0.074 A 
ATOM     55  C   UNL A   1      42.610  27.500  31.390  1.00  0.00     0.029 A 
ATOM     56  N   UNL A   1      41.591  29.153  32.474  1.00  0.00    -0.354 N 
ATOM     57  N   UNL A   1      41.160  30.993  34.733  1.00  0.00    -0.248 NA
ATOM     58  C   UNL A   1      41.677  31.687  36.901  1.00  0.00     0.031 C 
ATOM     59  C   UNL A   1      43.243  27.679  32.624  1.00  0.00     0.029 A 
ATOM     60  C   UNL A   1      42.622  28.724  33.290  1.00  0.00     0.049 A 
ATOM     61  H   UNL A   1      40.963  29.880  32.692  1.00  0.00     0.167 HD
ATOM     62  C   UNL A   1      42.257  30.272  35.193  1.00  0.00     0.074 A 
ATOM     63  C   UNL A   1      42.557  30.771  36.519  1.00  0.00     0.031 C 
ATOM     64  C   UNL A   1      42.946  29.281  34.577  1.00  0.00     0.034 A 
BRANCH  51  65
ATOM     65  C   UNL A   1      40.722  27.684  29.035  1.00  0.00     0.023 A 
ATOM     66  C   UNL A   1      39.843  26.586  28.930  1.00  0.00     0.012 A 
ATOM     67  C   UNL A   1      41.631  27.942  27.990  1.00  0.00     0.148 A 
ATOM     68  C   UNL A   1      39.892  25.738  27.825  1.00  0.00     0.002 A 
ATOM     69  C   UNL A   1      41.640  27.122  26.869  1.00  0.00     0.091 A 
ATOM     70  F   UNL A   1      42.472  28.979  28.116  1.00  0.00    -0.205 F 
ATOM     71  C   UNL A   1      40.781  26.012  26.790  1.00  0.00     0.022 A 
BRANCH  69  72
ATOM     72  S   UNL A   1      42.689  27.435  25.444  1.00  0.00     0.127 S 
ATOM     73  O   UNL A   1      43.989  27.651  26.078  1.00  0.00    -0.237 OA
ATOM     74  O   UNL A   1      42.575  26.183  24.698  1.00  0.00    -0.237 OA
ATOM     75  O   UNL A   1      42.122  28.597  24.775  1.00  0.00    -0.744 OA
ENDBRANCH  69  72
ENDBRANCH  51  65
BRANCH  52  76
ATOM     76  C   UNL A   1      39.572  33.738  36.926  1.00  0.00     0.023 A 
ATOM     77  C   UNL A   1      40.020  35.074  36.917  1.00  0.00     0.012 A 
ATOM     78  C   UNL A   1      38.915  33.242  38.069  1.00  0.00     0.148 A 
ATOM     79  C   UNL A   1      39.854  35.887  38.039  1.00  0.00     0.002 A 
ATOM     80  C   UNL A   1      38.703  34.074  39.161  1.00  0.00     0.091 A 
ATOM     81  F   UNL A   1      38.502  31.966  38.060  1.00  0.00    -0.205 F 
ATOM     82  C   UNL A   1      39.189  35.391  39.157  1.00  0.00     0.022 A 
BRANCH  80  83
ATOM     83  S   UNL A   1      37.741  33.561  40.589  1.00  0.00     0.127 S 
ATOM     84  O   UNL A   1      38.587  32.516  41.160  1.00  0.00    -0.237 OA
ATOM     85  O   UNL A   1      37.676  34.797  41.370  1.00  0.00    -0.237 OA
ATOM     86  O   UNL A   1      36.458  33.121  40.059  1.00  0.00    -0.744 OA
ENDBRANCH  80  83
ENDBRANCH  52  76
BRANCH  64  87
ATOM     87  C   UNL A   1      44.140  28.706  35.293  1.00  0.00     0.023 A 
ATOM     88  C   UNL A   1      45.421  29.251  35.080  1.00  0.00     0.012 A 
ATOM     89  C   UNL A   1      43.967  27.689  36.251  1.00  0.00     0.148 A 
ATOM     90  C   UNL A   1      46.518  28.770  35.793  1.00  0.00     0.002 A 
ATOM     91  C   UNL A   1      45.055  27.252  36.995  1.00  0.00     0.091 A 
ATOM     92  F   UNL A   1      42.741  27.173  36.423  1.00  0.00    -0.205 F 
ATOM     93  C   UNL A   1      46.334  27.783  36.759  1.00  0.00     0.022 A 
BRANCH  91  94
ATOM     94  S   UNL A   1      44.894  26.060  38.329  1.00  0.00     0.127 S 
ATOM     95  O   UNL A   1      46.273  25.958  38.805  1.00  0.00    -0.237 OA
ATOM     96  O   UNL A   1      43.982  26.744  39.245  1.00  0.00    -0.237 OA
ATOM     97  O   UNL A   1      44.352  24.851  37.726  1.00  0.00    -0.744 OA
ENDBRANCH  91  94
ENDBRANCH  64  87
ENDBRANCH  38  39
ENDBRANCH  30  33
ENDBRANCH  28  29
ENDBRANCH   1  28
TORSDOF 16
ENDMDL
