MODEL 1
REMARK VINA RESULT:     -11.2      0.000      0.000
REMARK SMILES C[NH+]1CCC([N@@H+](CC(=O)NCCCNC(=O)c2ccc(-c3c4nc(c(-c5cccc(S(=O)(=O)[O-])c5F)c5ccc([nH]5)c(-c5cccc(S(=O)(=O)[O-])c5F)c5nc(c(-c6cccc(S(=O)(=O)[O-])c6F)c6ccc3[nH]6)C=C5)C=C4)cc2)C(C)(C)C)CC1
REMARK SMILES IDX 12 1 11 2 10 3 8 4 9 5 7 7 6 8 5 10 1 11 2 12 3 13 85 14
REMARK SMILES IDX 4 16 84 17 80 18 81 19 82 20 83 21 13 22 14 23 15 24 16 26
REMARK SMILES IDX 17 27 18 28 79 29 19 30 78 31 20 32 21 33 22 34 72 35 23 36
REMARK SMILES IDX 77 37 71 38 73 39 24 40 76 41 70 42 69 43 25 45 57 46 37 47
REMARK SMILES IDX 56 48 38 49 41 50 55 51 74 52 39 53 40 54 54 56 75 57 42 58
REMARK SMILES IDX 26 59 27 60 35 61 28 62 30 63 36 64 29 65 31 66 32 67 33 68
REMARK SMILES IDX 34 69 58 70 59 71 67 72 60 73 62 74 68 75 61 76 63 77 64 78
REMARK SMILES IDX 65 79 66 80 43 81 44 82 52 83 45 84 47 85 53 86 46 87 48 88
REMARK SMILES IDX 49 89 50 90 51 91
REMARK H PARENT 10 6 6 9 2 15 14 25 73 44 41 55
REMARK Flexibility Score: inf
ROOT
ATOM      1  C   UNL A   1      31.327  29.138  24.461  1.00  0.00     0.042 C 
ENDROOT
BRANCH   1   2
ATOM      2  C   UNL A   1      31.415  28.591  23.034  1.00  0.00     0.118 C 
BRANCH   2   3
ATOM      3  N   UNL A   1      32.667  27.952  22.676  1.00  0.00    -0.351 N 
ATOM      4  C   UNL A   1      32.972  26.634  22.486  1.00  0.00     0.275 C 
ATOM      5  O   UNL A   1      33.951  26.395  21.771  1.00  0.00    -0.269 OA
ATOM      6  H   UNL A   1      33.423  28.571  22.548  1.00  0.00     0.163 HD
BRANCH   4   7
ATOM      7  C   UNL A   1      32.133  25.508  23.099  1.00  0.00     0.364 C 
BRANCH   7   8
ATOM      8  N   UNL A   1      32.391  25.253  24.539  1.00  0.00    -0.320 N 
ATOM      9  H   UNL A   1      32.769  26.113  24.936  1.00  0.00     0.349 HD
BRANCH   8  10
ATOM     10  C   UNL A   1      33.528  24.335  24.760  1.00  0.00     0.196 C 
ATOM     11  C   UNL A   1      37.039  21.900  24.797  1.00  0.00     0.332 C 
ATOM     12  N   UNL A   1      36.072  22.919  24.381  1.00  0.00    -0.337 N 
ATOM     13  C   UNL A   1      35.944  23.922  25.434  1.00  0.00     0.268 C 
ATOM     14  C   UNL A   1      34.797  22.295  24.017  1.00  0.00     0.268 C 
ATOM     15  H   UNL A   1      36.402  23.402  23.545  1.00  0.00     0.347 HD
ATOM     16  C   UNL A   1      34.861  24.967  25.167  1.00  0.00     0.126 C 
ATOM     17  C   UNL A   1      33.751  23.339  23.610  1.00  0.00     0.126 C 
ENDBRANCH   8  10
BRANCH   8  18
ATOM     18  C   UNL A   1      31.267  25.377  25.506  1.00  0.00     0.090 C 
ATOM     19  C   UNL A   1      31.463  26.426  26.625  1.00  0.00     0.078 C 
ATOM     20  C   UNL A   1      29.939  25.722  24.787  1.00  0.00     0.078 C 
ATOM     21  C   UNL A   1      30.992  24.016  26.205  1.00  0.00     0.078 C 
ENDBRANCH   8  18
ENDBRANCH   7   8
ENDBRANCH   4   7
ENDBRANCH   2   3
ENDBRANCH   1   2
BRANCH   1  22
ATOM     22  C   UNL A   1      32.648  29.596  25.097  1.00  0.00     0.118 C 
BRANCH  22  23
ATOM     23  N   UNL A   1      32.444  30.802  25.880  1.00  0.00    -0.352 N 
ATOM     24  C   UNL A   1      33.068  31.367  26.960  1.00  0.00     0.251 C 
ATOM     25  H   UNL A   1      31.682  31.337  25.562  1.00  0.00     0.163 HD
ATOM     26  O   UNL A   1      32.413  32.213  27.575  1.00  0.00    -0.269 OA
BRANCH  24  27
ATOM     27  C   UNL A   1      34.454  31.073  27.426  1.00  0.00     0.039 A 
ATOM     28  C   UNL A   1      34.721  29.741  27.785  1.00  0.00     0.014 A 
ATOM     29  C   UNL A   1      35.418  32.039  27.723  1.00  0.00     0.014 A 
ATOM     30  C   UNL A   1      35.897  29.387  28.462  1.00  0.00     0.010 A 
ATOM     31  C   UNL A   1      36.627  31.671  28.360  1.00  0.00     0.010 A 
ATOM     32  C   UNL A   1      36.868  30.346  28.773  1.00  0.00    -0.014 A 
BRANCH  32  33
ATOM     33  C   UNL A   1      38.087  29.948  29.555  1.00  0.00     0.031 A 
ATOM     34  C   UNL A   1      38.312  30.437  30.969  1.00  0.00     0.074 A 
ATOM     35  C   UNL A   1      39.002  29.112  29.018  1.00  0.00     0.049 A 
ATOM     36  N   UNL A   1      39.273  30.130  31.810  1.00  0.00    -0.248 NA
ATOM     37  C   UNL A   1      37.337  31.395  31.510  1.00  0.00     0.031 C 
ATOM     38  C   UNL A   1      38.945  28.557  27.668  1.00  0.00     0.029 A 
ATOM     39  N   UNL A   1      40.160  28.584  29.542  1.00  0.00    -0.354 N 
ATOM     40  C   UNL A   1      39.037  30.877  32.961  1.00  0.00     0.074 A 
ATOM     41  C   UNL A   1      37.853  31.670  32.700  1.00  0.00     0.031 C 
ATOM     42  C   UNL A   1      40.011  27.766  27.468  1.00  0.00     0.029 A 
ATOM     43  C   UNL A   1      40.844  27.770  28.668  1.00  0.00     0.049 A 
ATOM     44  H   UNL A   1      40.472  28.772  30.456  1.00  0.00     0.167 HD
ATOM     45  C   UNL A   1      39.723  30.895  34.133  1.00  0.00     0.034 A 
ATOM     46  C   UNL A   1      42.005  27.097  28.802  1.00  0.00     0.034 A 
ATOM     47  C   UNL A   1      40.885  30.092  34.420  1.00  0.00     0.049 A 
ATOM     48  C   UNL A   1      42.754  27.143  30.108  1.00  0.00     0.074 A 
ATOM     49  C   UNL A   1      41.588  29.991  35.610  1.00  0.00     0.029 A 
ATOM     50  N   UNL A   1      41.531  29.269  33.512  1.00  0.00    -0.354 N 
ATOM     51  N   UNL A   1      42.428  27.739  31.228  1.00  0.00    -0.248 NA
ATOM     52  C   UNL A   1      44.017  26.390  30.178  1.00  0.00     0.031 C 
ATOM     53  C   UNL A   1      42.683  29.144  35.408  1.00  0.00     0.029 A 
ATOM     54  C   UNL A   1      42.637  28.678  34.106  1.00  0.00     0.049 A 
ATOM     55  H   UNL A   1      41.247  29.125  32.580  1.00  0.00     0.167 HD
ATOM     56  C   UNL A   1      43.416  27.393  32.146  1.00  0.00     0.074 A 
ATOM     57  C   UNL A   1      44.345  26.525  31.456  1.00  0.00     0.031 C 
ATOM     58  C   UNL A   1      43.539  27.771  33.443  1.00  0.00     0.034 A 
BRANCH  45  59
ATOM     59  C   UNL A   1      39.218  31.810  35.225  1.00  0.00     0.023 A 
ATOM     60  C   UNL A   1      38.254  31.344  36.142  1.00  0.00     0.012 A 
ATOM     61  C   UNL A   1      39.743  33.110  35.381  1.00  0.00     0.148 A 
ATOM     62  C   UNL A   1      37.784  32.170  37.163  1.00  0.00     0.002 A 
ATOM     63  C   UNL A   1      39.304  33.911  36.429  1.00  0.00     0.091 A 
ATOM     64  F   UNL A   1      40.652  33.543  34.496  1.00  0.00    -0.205 F 
ATOM     65  C   UNL A   1      38.314  33.449  37.311  1.00  0.00     0.022 A 
BRANCH  63  66
ATOM     66  S   UNL A   1      39.990  35.539  36.755  1.00  0.00     0.127 S 
ATOM     67  O   UNL A   1      39.377  35.865  38.042  1.00  0.00    -0.237 OA
ATOM     68  O   UNL A   1      41.426  35.263  36.819  1.00  0.00    -0.237 OA
ATOM     69  O   UNL A   1      39.584  36.377  35.636  1.00  0.00    -0.744 OA
ENDBRANCH  63  66
ENDBRANCH  45  59
BRANCH  46  70
ATOM     70  C   UNL A   1      42.513  26.252  27.681  1.00  0.00     0.023 A 
ATOM     71  C   UNL A   1      43.427  26.802  26.760  1.00  0.00     0.012 A 
ATOM     72  C   UNL A   1      42.101  24.915  27.525  1.00  0.00     0.148 A 
ATOM     73  C   UNL A   1      43.896  26.047  25.684  1.00  0.00     0.002 A 
ATOM     74  C   UNL A   1      42.614  24.151  26.484  1.00  0.00     0.091 A 
ATOM     75  F   UNL A   1      41.223  24.415  28.405  1.00  0.00    -0.205 F 
ATOM     76  C   UNL A   1      43.496  24.720  25.552  1.00  0.00     0.022 A 
BRANCH  74  77
ATOM     77  S   UNL A   1      42.254  22.401  26.297  1.00  0.00     0.127 S 
ATOM     78  O   UNL A   1      40.804  22.413  26.106  1.00  0.00    -0.237 OA
ATOM     79  O   UNL A   1      43.029  22.064  25.102  1.00  0.00    -0.237 OA
ATOM     80  O   UNL A   1      42.722  21.767  27.519  1.00  0.00    -0.744 OA
ENDBRANCH  74  77
ENDBRANCH  46  70
BRANCH  58  81
ATOM     81  C   UNL A   1      44.695  27.210  34.237  1.00  0.00     0.023 A 
ATOM     82  C   UNL A   1      45.922  27.902  34.295  1.00  0.00     0.012 A 
ATOM     83  C   UNL A   1      44.546  26.018  34.977  1.00  0.00     0.148 A 
ATOM     84  C   UNL A   1      46.989  27.399  35.039  1.00  0.00     0.002 A 
ATOM     85  C   UNL A   1      45.596  25.550  35.759  1.00  0.00     0.091 A 
ATOM     86  F   UNL A   1      43.381  25.359  34.898  1.00  0.00    -0.205 F 
ATOM     87  C   UNL A   1      46.824  26.231  35.779  1.00  0.00     0.022 A 
BRANCH  85  88
ATOM     88  S   UNL A   1      45.442  24.109  36.822  1.00  0.00     0.127 S 
ATOM     89  O   UNL A   1      46.814  23.941  37.296  1.00  0.00    -0.237 OA
ATOM     90  O   UNL A   1      44.497  24.573  37.838  1.00  0.00    -0.237 OA
ATOM     91  O   UNL A   1      44.938  23.036  35.973  1.00  0.00    -0.744 OA
ENDBRANCH  85  88
ENDBRANCH  58  81
ENDBRANCH  32  33
ENDBRANCH  24  27
ENDBRANCH  22  23
ENDBRANCH   1  22
TORSDOF 16
ENDMDL
MODEL 2
REMARK VINA RESULT:     -10.9      1.843      2.367
REMARK SMILES C[NH+]1CCC([N@@H+](CC(=O)NCCCNC(=O)c2ccc(-c3c4nc(c(-c5cccc(S(=O)(=O)[O-])c5F)c5ccc([nH]5)c(-c5cccc(S(=O)(=O)[O-])c5F)c5nc(c(-c6cccc(S(=O)(=O)[O-])c6F)c6ccc3[nH]6)C=C5)C=C4)cc2)C(C)(C)C)CC1
REMARK SMILES IDX 12 1 11 2 10 3 8 4 9 5 7 7 6 8 5 10 1 11 2 12 3 13 85 14
REMARK SMILES IDX 4 16 84 17 80 18 81 19 82 20 83 21 13 22 14 23 15 24 16 26
REMARK SMILES IDX 17 27 18 28 79 29 19 30 78 31 20 32 21 33 22 34 72 35 23 36
REMARK SMILES IDX 77 37 71 38 73 39 24 40 76 41 70 42 69 43 25 45 57 46 37 47
REMARK SMILES IDX 56 48 38 49 41 50 55 51 74 52 39 53 40 54 54 56 75 57 42 58
REMARK SMILES IDX 26 59 27 60 35 61 28 62 30 63 36 64 29 65 31 66 32 67 33 68
REMARK SMILES IDX 34 69 58 70 59 71 67 72 60 73 62 74 68 75 61 76 63 77 64 78
REMARK SMILES IDX 65 79 66 80 43 81 44 82 52 83 45 84 47 85 53 86 46 87 48 88
REMARK SMILES IDX 49 89 50 90 51 91
REMARK H PARENT 10 6 6 9 2 15 14 25 73 44 41 55
REMARK Flexibility Score: inf
ROOT
ATOM      1  C   UNL A   1      31.824  28.325  26.816  1.00  0.00     0.042 C 
ENDROOT
BRANCH   1   2
ATOM      2  C   UNL A   1      30.938  27.385  25.992  1.00  0.00     0.118 C 
BRANCH   2   3
ATOM      3  N   UNL A   1      30.885  26.007  26.443  1.00  0.00    -0.351 N 
ATOM      4  C   UNL A   1      31.850  25.040  26.469  1.00  0.00     0.275 C 
ATOM      5  O   UNL A   1      31.689  24.127  27.287  1.00  0.00    -0.269 OA
ATOM      6  H   UNL A   1      30.007  25.721  26.788  1.00  0.00     0.163 HD
BRANCH   4   7
ATOM      7  C   UNL A   1      33.080  25.093  25.558  1.00  0.00     0.364 C 
BRANCH   7   8
ATOM      8  N   UNL A   1      33.219  23.942  24.630  1.00  0.00    -0.320 N 
ATOM      9  H   UNL A   1      32.585  23.212  24.957  1.00  0.00     0.349 HD
BRANCH   8  10
ATOM     10  C   UNL A   1      34.517  23.251  24.769  1.00  0.00     0.196 C 
ATOM     11  C   UNL A   1      38.300  21.541  25.786  1.00  0.00     0.332 C 
ATOM     12  N   UNL A   1      37.030  22.261  25.922  1.00  0.00    -0.337 N 
ATOM     13  C   UNL A   1      35.924  21.339  25.680  1.00  0.00     0.268 C 
ATOM     14  C   UNL A   1      37.011  23.433  25.042  1.00  0.00     0.268 C 
ATOM     15  H   UNL A   1      36.923  22.617  26.872  1.00  0.00     0.347 HD
ATOM     16  C   UNL A   1      34.550  22.009  25.664  1.00  0.00     0.126 C 
ATOM     17  C   UNL A   1      35.681  24.189  25.133  1.00  0.00     0.126 C 
ENDBRANCH   8  10
BRANCH   8  18
ATOM     18  C   UNL A   1      32.451  23.946  23.355  1.00  0.00     0.090 C 
ATOM     19  C   UNL A   1      33.136  23.238  22.163  1.00  0.00     0.078 C 
ATOM     20  C   UNL A   1      31.058  23.292  23.533  1.00  0.00     0.078 C 
ATOM     21  C   UNL A   1      32.146  25.402  22.904  1.00  0.00     0.078 C 
ENDBRANCH   8  18
ENDBRANCH   7   8
ENDBRANCH   4   7
ENDBRANCH   2   3
ENDBRANCH   1   2
BRANCH   1  22
ATOM     22  C   UNL A   1      32.874  29.128  26.034  1.00  0.00     0.118 C 
BRANCH  22  23
ATOM     23  N   UNL A   1      32.822  30.531  26.407  1.00  0.00    -0.352 N 
ATOM     24  C   UNL A   1      33.542  31.330  27.253  1.00  0.00     0.251 C 
ATOM     25  H   UNL A   1      32.103  31.020  25.945  1.00  0.00     0.163 HD
ATOM     26  O   UNL A   1      32.999  32.389  27.583  1.00  0.00    -0.269 OA
BRANCH  24  27
ATOM     27  C   UNL A   1      34.910  31.047  27.775  1.00  0.00     0.039 A 
ATOM     28  C   UNL A   1      35.114  29.774  28.333  1.00  0.00     0.014 A 
ATOM     29  C   UNL A   1      35.915  32.003  27.937  1.00  0.00     0.014 A 
ATOM     30  C   UNL A   1      36.268  29.473  29.070  1.00  0.00     0.010 A 
ATOM     31  C   UNL A   1      37.103  31.682  28.637  1.00  0.00     0.010 A 
ATOM     32  C   UNL A   1      37.281  30.425  29.246  1.00  0.00    -0.014 A 
BRANCH  32  33
ATOM     33  C   UNL A   1      38.475  30.094  30.094  1.00  0.00     0.031 A 
ATOM     34  C   UNL A   1      38.638  30.665  31.486  1.00  0.00     0.074 A 
ATOM     35  C   UNL A   1      39.424  29.247  29.640  1.00  0.00     0.049 A 
ATOM     36  N   UNL A   1      39.570  30.424  32.378  1.00  0.00    -0.248 NA
ATOM     37  C   UNL A   1      37.626  31.633  31.936  1.00  0.00     0.031 C 
ATOM     38  C   UNL A   1      39.428  28.617  28.322  1.00  0.00     0.029 A 
ATOM     39  N   UNL A   1      40.570  28.771  30.235  1.00  0.00    -0.354 N 
ATOM     40  C   UNL A   1      39.279  31.229  33.475  1.00  0.00     0.074 A 
ATOM     41  C   UNL A   1      38.092  31.983  33.127  1.00  0.00     0.031 C 
ATOM     42  C   UNL A   1      40.515  27.837  28.207  1.00  0.00     0.029 A 
ATOM     43  C   UNL A   1      41.301  27.923  29.435  1.00  0.00     0.049 A 
ATOM     44  H   UNL A   1      40.844  29.015  31.149  1.00  0.00     0.167 HD
ATOM     45  C   UNL A   1      39.918  31.326  34.670  1.00  0.00     0.034 A 
ATOM     46  C   UNL A   1      42.468  27.281  29.650  1.00  0.00     0.034 A 
ATOM     47  C   UNL A   1      41.082  30.562  35.044  1.00  0.00     0.049 A 
ATOM     48  C   UNL A   1      43.165  27.415  30.979  1.00  0.00     0.074 A 
ATOM     49  C   UNL A   1      41.740  30.541  36.264  1.00  0.00     0.029 A 
ATOM     50  N   UNL A   1      41.776  29.703  34.209  1.00  0.00    -0.354 N 
ATOM     51  N   UNL A   1      42.786  28.065  32.050  1.00  0.00    -0.248 NA
ATOM     52  C   UNL A   1      44.437  26.691  31.138  1.00  0.00     0.031 C 
ATOM     53  C   UNL A   1      42.857  29.705  36.151  1.00  0.00     0.029 A 
ATOM     54  C   UNL A   1      42.869  29.167  34.876  1.00  0.00     0.049 A 
ATOM     55  H   UNL A   1      41.531  29.502  33.277  1.00  0.00     0.167 HD
ATOM     56  C   UNL A   1      43.744  27.791  33.022  1.00  0.00     0.074 A 
ATOM     57  C   UNL A   1      44.714  26.903  32.417  1.00  0.00     0.031 C 
ATOM     58  C   UNL A   1      43.811  28.242  34.300  1.00  0.00     0.034 A 
BRANCH  45  59
ATOM     59  C   UNL A   1      39.357  32.290  35.689  1.00  0.00     0.023 A 
ATOM     60  C   UNL A   1      38.336  31.870  36.565  1.00  0.00     0.012 A 
ATOM     61  C   UNL A   1      39.882  33.593  35.820  1.00  0.00     0.148 A 
ATOM     62  C   UNL A   1      37.812  32.742  37.520  1.00  0.00     0.002 A 
ATOM     63  C   UNL A   1      39.387  34.441  36.805  1.00  0.00     0.091 A 
ATOM     64  F   UNL A   1      40.846  33.982  34.973  1.00  0.00    -0.205 F 
ATOM     65  C   UNL A   1      38.342  34.024  37.644  1.00  0.00     0.022 A 
BRANCH  63  66
ATOM     66  S   UNL A   1      40.066  36.078  37.100  1.00  0.00     0.127 S 
ATOM     67  O   UNL A   1      41.463  35.767  37.402  1.00  0.00    -0.237 OA
ATOM     68  O   UNL A   1      39.855  36.738  35.810  1.00  0.00    -0.237 OA
ATOM     69  O   UNL A   1      39.296  36.639  38.200  1.00  0.00    -0.744 OA
ENDBRANCH  63  66
ENDBRANCH  45  59
BRANCH  46  70
ATOM     70  C   UNL A   1      43.033  26.385  28.598  1.00  0.00     0.023 A 
ATOM     71  C   UNL A   1      42.551  25.065  28.483  1.00  0.00     0.012 A 
ATOM     72  C   UNL A   1      44.036  26.829  27.716  1.00  0.00     0.148 A 
ATOM     73  C   UNL A   1      43.081  24.194  27.531  1.00  0.00     0.002 A 
ATOM     74  C   UNL A   1      44.521  25.974  26.734  1.00  0.00     0.091 A 
ATOM     75  F   UNL A   1      44.488  28.084  27.851  1.00  0.00    -0.205 F 
ATOM     76  C   UNL A   1      44.059  24.651  26.652  1.00  0.00     0.022 A 
BRANCH  74  77
ATOM     77  S   UNL A   1      45.693  26.505  25.481  1.00  0.00     0.127 S 
ATOM     78  O   UNL A   1      46.879  26.797  26.285  1.00  0.00    -0.237 OA
ATOM     79  O   UNL A   1      45.796  25.307  24.645  1.00  0.00    -0.237 OA
ATOM     80  O   UNL A   1      45.081  27.649  24.824  1.00  0.00    -0.744 OA
ENDBRANCH  74  77
ENDBRANCH  46  70
BRANCH  58  81
ATOM     81  C   UNL A   1      44.945  27.748  35.166  1.00  0.00     0.023 A 
ATOM     82  C   UNL A   1      46.136  28.496  35.276  1.00  0.00     0.012 A 
ATOM     83  C   UNL A   1      44.808  26.565  35.922  1.00  0.00     0.148 A 
ATOM     84  C   UNL A   1      47.182  28.055  36.087  1.00  0.00     0.002 A 
ATOM     85  C   UNL A   1      45.833  26.160  36.769  1.00  0.00     0.091 A 
ATOM     86  F   UNL A   1      43.680  25.853  35.794  1.00  0.00    -0.205 F 
ATOM     87  C   UNL A   1      47.027  26.896  36.841  1.00  0.00     0.022 A 
BRANCH  85  88
ATOM     88  S   UNL A   1      45.685  24.733  37.852  1.00  0.00     0.127 S 
ATOM     89  O   UNL A   1      47.016  24.675  38.453  1.00  0.00    -0.237 OA
ATOM     90  O   UNL A   1      44.620  25.147  38.767  1.00  0.00    -0.237 OA
ATOM     91  O   UNL A   1      45.338  23.610  36.992  1.00  0.00    -0.744 OA
ENDBRANCH  85  88
ENDBRANCH  58  81
ENDBRANCH  32  33
ENDBRANCH  24  27
ENDBRANCH  22  23
ENDBRANCH   1  22
TORSDOF 16
ENDMDL
MODEL 3
REMARK VINA RESULT:     -10.8      1.138      2.132
REMARK SMILES C[NH+]1CCC([N@@H+](CC(=O)NCCCNC(=O)c2ccc(-c3c4nc(c(-c5cccc(S(=O)(=O)[O-])c5F)c5ccc([nH]5)c(-c5cccc(S(=O)(=O)[O-])c5F)c5nc(c(-c6cccc(S(=O)(=O)[O-])c6F)c6ccc3[nH]6)C=C5)C=C4)cc2)C(C)(C)C)CC1
REMARK SMILES IDX 12 1 11 2 10 3 8 4 9 5 7 7 6 8 5 10 1 11 2 12 3 13 85 14
REMARK SMILES IDX 4 16 84 17 80 18 81 19 82 20 83 21 13 22 14 23 15 24 16 26
REMARK SMILES IDX 17 27 18 28 79 29 19 30 78 31 20 32 21 33 22 34 72 35 23 36
REMARK SMILES IDX 77 37 71 38 73 39 24 40 76 41 70 42 69 43 25 45 57 46 37 47
REMARK SMILES IDX 56 48 38 49 41 50 55 51 74 52 39 53 40 54 54 56 75 57 42 58
REMARK SMILES IDX 26 59 27 60 35 61 28 62 30 63 36 64 29 65 31 66 32 67 33 68
REMARK SMILES IDX 34 69 58 70 59 71 67 72 60 73 62 74 68 75 61 76 63 77 64 78
REMARK SMILES IDX 65 79 66 80 43 81 44 82 52 83 45 84 47 85 53 86 46 87 48 88
REMARK SMILES IDX 49 89 50 90 51 91
REMARK H PARENT 10 6 6 9 2 15 14 25 73 44 41 55
REMARK Flexibility Score: inf
ROOT
ATOM      1  C   UNL A   1      31.493  28.100  26.587  1.00  0.00     0.042 C 
ENDROOT
BRANCH   1   2
ATOM      2  C   UNL A   1      30.877  26.864  25.926  1.00  0.00     0.118 C 
BRANCH   2   3
ATOM      3  N   UNL A   1      30.780  25.681  26.760  1.00  0.00    -0.351 N 
ATOM      4  C   UNL A   1      31.005  24.365  26.469  1.00  0.00     0.275 C 
ATOM      5  O   UNL A   1      31.288  23.633  27.424  1.00  0.00    -0.269 OA
ATOM      6  H   UNL A   1      30.507  25.855  27.690  1.00  0.00     0.163 HD
BRANCH   4   7
ATOM      7  C   UNL A   1      30.941  23.825  25.037  1.00  0.00     0.364 C 
BRANCH   7   8
ATOM      8  N   UNL A   1      32.261  23.518  24.429  1.00  0.00    -0.320 N 
ATOM      9  H   UNL A   1      32.934  23.436  25.191  1.00  0.00     0.349 HD
BRANCH   8  10
ATOM     10  C   UNL A   1      32.829  24.666  23.692  1.00  0.00     0.196 C 
ATOM     11  C   UNL A   1      34.002  28.356  21.882  1.00  0.00     0.332 C 
ATOM     12  N   UNL A   1      33.317  27.410  22.768  1.00  0.00    -0.337 N 
ATOM     13  C   UNL A   1      34.300  26.739  23.612  1.00  0.00     0.268 C 
ATOM     14  C   UNL A   1      32.494  26.483  21.986  1.00  0.00     0.268 C 
ATOM     15  H   UNL A   1      32.675  27.905  23.388  1.00  0.00     0.347 HD
ATOM     16  C   UNL A   1      33.713  25.631  24.487  1.00  0.00     0.126 C 
ATOM     17  C   UNL A   1      31.790  25.457  22.881  1.00  0.00     0.126 C 
ENDBRANCH   8  10
BRANCH   8  18
ATOM     18  C   UNL A   1      32.583  22.108  24.078  1.00  0.00     0.090 C 
ATOM     19  C   UNL A   1      32.166  21.663  22.657  1.00  0.00     0.078 C 
ATOM     20  C   UNL A   1      34.099  21.825  24.216  1.00  0.00     0.078 C 
ATOM     21  C   UNL A   1      31.908  21.127  25.077  1.00  0.00     0.078 C 
ENDBRANCH   8  18
ENDBRANCH   7   8
ENDBRANCH   4   7
ENDBRANCH   2   3
ENDBRANCH   1   2
BRANCH   1  22
ATOM     22  C   UNL A   1      32.298  29.032  25.668  1.00  0.00     0.118 C 
BRANCH  22  23
ATOM     23  N   UNL A   1      32.190  30.409  26.120  1.00  0.00    -0.352 N 
ATOM     24  C   UNL A   1      32.903  31.199  26.980  1.00  0.00     0.251 C 
ATOM     25  H   UNL A   1      31.428  30.882  25.715  1.00  0.00     0.163 HD
ATOM     26  O   UNL A   1      32.321  32.208  27.388  1.00  0.00    -0.269 OA
BRANCH  24  27
ATOM     27  C   UNL A   1      34.305  30.963  27.431  1.00  0.00     0.039 A 
ATOM     28  C   UNL A   1      34.656  29.630  27.704  1.00  0.00     0.014 A 
ATOM     29  C   UNL A   1      35.206  31.966  27.794  1.00  0.00     0.014 A 
ATOM     30  C   UNL A   1      35.852  29.307  28.361  1.00  0.00     0.010 A 
ATOM     31  C   UNL A   1      36.437  31.635  28.410  1.00  0.00     0.010 A 
ATOM     32  C   UNL A   1      36.761  30.304  28.737  1.00  0.00    -0.014 A 
BRANCH  32  33
ATOM     33  C   UNL A   1      38.003  29.933  29.496  1.00  0.00     0.031 A 
ATOM     34  C   UNL A   1      38.252  30.442  30.899  1.00  0.00     0.074 A 
ATOM     35  C   UNL A   1      38.918  29.105  28.949  1.00  0.00     0.049 A 
ATOM     36  N   UNL A   1      39.235  30.159  31.722  1.00  0.00    -0.248 NA
ATOM     37  C   UNL A   1      37.274  31.392  31.451  1.00  0.00     0.031 C 
ATOM     38  C   UNL A   1      38.839  28.533  27.606  1.00  0.00     0.029 A 
ATOM     39  N   UNL A   1      40.095  28.600  29.452  1.00  0.00    -0.354 N 
ATOM     40  C   UNL A   1      39.014  30.916  32.869  1.00  0.00     0.074 A 
ATOM     41  C   UNL A   1      37.813  31.688  32.626  1.00  0.00     0.031 C 
ATOM     42  C   UNL A   1      39.913  27.756  27.392  1.00  0.00     0.029 A 
ATOM     43  C   UNL A   1      40.772  27.786  28.572  1.00  0.00     0.049 A 
ATOM     44  H   UNL A   1      40.424  28.803  30.357  1.00  0.00     0.167 HD
ATOM     45  C   UNL A   1      39.725  30.958  34.025  1.00  0.00     0.034 A 
ATOM     46  C   UNL A   1      41.946  27.132  28.688  1.00  0.00     0.034 A 
ATOM     47  C   UNL A   1      40.906  30.176  34.295  1.00  0.00     0.049 A 
ATOM     48  C   UNL A   1      42.723  27.205  29.977  1.00  0.00     0.074 A 
ATOM     49  C   UNL A   1      41.636  30.099  35.471  1.00  0.00     0.029 A 
ATOM     50  N   UNL A   1      41.544  29.352  33.383  1.00  0.00    -0.354 N 
ATOM     51  N   UNL A   1      42.413  27.809  31.097  1.00  0.00    -0.248 NA
ATOM     52  C   UNL A   1      43.998  26.472  30.027  1.00  0.00     0.031 C 
ATOM     53  C   UNL A   1      42.740  29.266  35.254  1.00  0.00     0.029 A 
ATOM     54  C   UNL A   1      42.671  28.784  33.958  1.00  0.00     0.049 A 
ATOM     55  H   UNL A   1      41.241  29.193  32.459  1.00  0.00     0.167 HD
ATOM     56  C   UNL A   1      43.426  27.489  31.997  1.00  0.00     0.074 A 
ATOM     57  C   UNL A   1      44.353  26.627  31.295  1.00  0.00     0.031 C 
ATOM     58  C   UNL A   1      43.573  27.884  33.286  1.00  0.00     0.034 A 
BRANCH  45  59
ATOM     59  C   UNL A   1      39.231  31.878  35.118  1.00  0.00     0.023 A 
ATOM     60  C   UNL A   1      38.237  31.435  36.013  1.00  0.00     0.012 A 
ATOM     61  C   UNL A   1      39.795  33.159  35.296  1.00  0.00     0.148 A 
ATOM     62  C   UNL A   1      37.775  32.266  37.035  1.00  0.00     0.002 A 
ATOM     63  C   UNL A   1      39.363  33.963  36.345  1.00  0.00     0.091 A 
ATOM     64  F   UNL A   1      40.733  33.571  34.432  1.00  0.00    -0.205 F 
ATOM     65  C   UNL A   1      38.343  33.525  37.205  1.00  0.00     0.022 A 
BRANCH  63  66
ATOM     66  S   UNL A   1      40.096  35.565  36.700  1.00  0.00     0.127 S 
ATOM     67  O   UNL A   1      39.630  35.806  38.064  1.00  0.00    -0.237 OA
ATOM     68  O   UNL A   1      41.528  35.283  36.587  1.00  0.00    -0.237 OA
ATOM     69  O   UNL A   1      39.577  36.475  35.690  1.00  0.00    -0.744 OA
ENDBRANCH  63  66
ENDBRANCH  45  59
BRANCH  46  70
ATOM     70  C   UNL A   1      42.442  26.281  27.566  1.00  0.00     0.023 A 
ATOM     71  C   UNL A   1      43.323  26.836  26.616  1.00  0.00     0.012 A 
ATOM     72  C   UNL A   1      42.051  24.935  27.437  1.00  0.00     0.148 A 
ATOM     73  C   UNL A   1      43.778  26.075  25.538  1.00  0.00     0.002 A 
ATOM     74  C   UNL A   1      42.552  24.167  26.393  1.00  0.00     0.091 A 
ATOM     75  F   UNL A   1      41.204  24.432  28.346  1.00  0.00    -0.205 F 
ATOM     76  C   UNL A   1      43.400  24.739  25.433  1.00  0.00     0.022 A 
BRANCH  74  77
ATOM     77  S   UNL A   1      42.220  22.409  26.239  1.00  0.00     0.127 S 
ATOM     78  O   UNL A   1      42.980  22.065  25.038  1.00  0.00    -0.237 OA
ATOM     79  O   UNL A   1      42.778  21.891  27.489  1.00  0.00    -0.237 OA
ATOM     80  O   UNL A   1      40.776  22.287  26.125  1.00  0.00    -0.744 OA
ENDBRANCH  74  77
ENDBRANCH  46  70
BRANCH  58  81
ATOM     81  C   UNL A   1      44.754  27.349  34.060  1.00  0.00     0.023 A 
ATOM     82  C   UNL A   1      45.978  28.049  34.065  1.00  0.00     0.012 A 
ATOM     83  C   UNL A   1      44.634  26.176  34.834  1.00  0.00     0.148 A 
ATOM     84  C   UNL A   1      47.069  27.571  34.791  1.00  0.00     0.002 A 
ATOM     85  C   UNL A   1      45.708  25.734  35.597  1.00  0.00     0.091 A 
ATOM     86  F   UNL A   1      43.471  25.509  34.805  1.00  0.00    -0.205 F 
ATOM     87  C   UNL A   1      46.932  26.422  35.565  1.00  0.00     0.022 A 
BRANCH  85  88
ATOM     88  S   UNL A   1      45.594  24.319  36.700  1.00  0.00     0.127 S 
ATOM     89  O   UNL A   1      46.959  24.231  37.214  1.00  0.00    -0.237 OA
ATOM     90  O   UNL A   1      44.602  24.767  37.677  1.00  0.00    -0.237 OA
ATOM     91  O   UNL A   1      45.164  23.199  35.873  1.00  0.00    -0.744 OA
ENDBRANCH  85  88
ENDBRANCH  58  81
ENDBRANCH  32  33
ENDBRANCH  24  27
ENDBRANCH  22  23
ENDBRANCH   1  22
TORSDOF 16
ENDMDL
