MODEL 1
REMARK VINA RESULT:     -12.9      0.000      0.000
REMARK SMILES COc1ccc2c(c1)c(CC(=O)NCCCNC(=O)c1ccc(-c3c4nc(c(-c5cccc(S(=O)(=O)[O-])c5F)c5ccc([nH]5)c(-c5cccc(S(=O)(=O)[O-])c5F)c5nc(c(-c6cccc(S(=O)(=O)[O-])c6F)c6ccc3[nH]6)C=C5)C=C4)cc1)c(C)n2C(=O)c1ccc(Cl)cc1
REMARK SMILES IDX 15 1 14 2 13 3 11 4 12 5 10 7 9 8 3 9 4 10 8 11 5 12 7 13
REMARK SMILES IDX 6 14 85 15 83 16 84 17 2 18 1 19 86 20 87 21 88 22 89 23
REMARK SMILES IDX 94 24 90 25 93 26 91 27 92 28 16 29 17 30 18 31 19 33 20 34
REMARK SMILES IDX 21 35 82 36 22 37 81 38 23 39 24 40 25 41 75 42 26 43 80 44
REMARK SMILES IDX 74 45 76 46 27 47 79 48 73 49 72 50 28 52 60 53 40 54 59 55
REMARK SMILES IDX 41 56 44 57 58 58 77 59 42 60 43 61 57 63 78 64 45 65 29 66
REMARK SMILES IDX 30 67 38 68 31 69 33 70 39 71 32 72 34 73 35 74 36 75 37 76
REMARK SMILES IDX 61 77 62 78 70 79 63 80 65 81 71 82 64 83 66 84 67 85 68 86
REMARK SMILES IDX 69 87 46 88 47 89 55 90 48 91 50 92 56 93 49 94 51 95 52 96
REMARK SMILES IDX 53 97 54 98
REMARK H PARENT 13 6 17 32 76 51 44 62
REMARK Flexibility Score: inf
ROOT
ATOM      1  C   UNL A   1      31.854  29.005  27.242  1.00  0.00     0.042 C 
ENDROOT
BRANCH   1   2
ATOM      2  C   UNL A   1      31.504  27.829  26.328  1.00  0.00     0.117 C 
BRANCH   2   3
ATOM      3  N   UNL A   1      32.509  27.595  25.304  1.00  0.00    -0.356 N 
ATOM      4  C   UNL A   1      33.297  26.499  25.099  1.00  0.00     0.224 C 
ATOM      5  O   UNL A   1      34.068  26.509  24.135  1.00  0.00    -0.275 OA
ATOM      6  H   UNL A   1      32.640  28.333  24.665  1.00  0.00     0.163 HD
BRANCH   4   7
ATOM      7  C   UNL A   1      33.177  25.281  26.001  1.00  0.00     0.138 C 
BRANCH   7   8
ATOM      8  C   UNL A   1      33.467  23.984  25.302  1.00  0.00    -0.009 A 
ATOM      9  C   UNL A   1      37.062  22.743  25.649  1.00  0.00     0.119 A 
ATOM     10  C   UNL A   1      36.909  21.617  24.857  1.00  0.00     0.048 A 
ATOM     11  C   UNL A   1      35.968  23.575  25.889  1.00  0.00     0.057 A 
ATOM     12  C   UNL A   1      35.681  21.330  24.256  1.00  0.00     0.031 A 
ATOM     13  C   UNL A   1      34.711  23.296  25.301  1.00  0.00     0.008 A 
ATOM     14  C   UNL A   1      34.564  22.154  24.507  1.00  0.00     0.057 A 
ATOM     15  N   UNL A   1      33.212  22.066  24.115  1.00  0.00    -0.280 N 
ATOM     16  C   UNL A   1      32.605  23.281  24.470  1.00  0.00     0.028 A 
ATOM     17  C   UNL A   1      31.237  23.718  24.035  1.00  0.00     0.065 C 
BRANCH   9  18
ATOM     18  O   UNL A   1      38.240  23.094  26.252  1.00  0.00    -0.497 OA
ATOM     19  C   UNL A   1      38.311  24.473  26.605  1.00  0.00     0.278 C 
ENDBRANCH   9  18
BRANCH  15  20
ATOM     20  C   UNL A   1      32.584  20.954  23.479  1.00  0.00     0.262 C 
ATOM     21  O   UNL A   1      31.980  21.141  22.420  1.00  0.00    -0.268 OA
BRANCH  20  22
ATOM     22  C   UNL A   1      32.593  19.568  23.975  1.00  0.00     0.040 A 
ATOM     23  C   UNL A   1      32.653  19.297  25.346  1.00  0.00     0.015 A 
ATOM     24  C   UNL A   1      32.595  18.528  23.039  1.00  0.00     0.015 A 
ATOM     25  C   UNL A   1      32.826  17.978  25.774  1.00  0.00     0.021 A 
ATOM     26  C   UNL A   1      32.756  17.212  23.473  1.00  0.00     0.021 A 
ATOM     27  C   UNL A   1      32.900  16.946  24.835  1.00  0.00     0.041 A 
ATOM     28  Cl  UNL A   1      33.216  15.338  25.361  1.00  0.00    -0.084 Cl
ENDBRANCH  20  22
ENDBRANCH  15  20
ENDBRANCH   7   8
ENDBRANCH   4   7
ENDBRANCH   2   3
ENDBRANCH   1   2
BRANCH   1  29
ATOM     29  C   UNL A   1      33.136  29.733  26.835  1.00  0.00     0.118 C 
BRANCH  29  30
ATOM     30  N   UNL A   1      33.412  30.919  27.620  1.00  0.00    -0.352 N 
ATOM     31  C   UNL A   1      34.520  31.492  28.176  1.00  0.00     0.251 C 
ATOM     32  H   UNL A   1      32.597  31.443  27.799  1.00  0.00     0.163 HD
ATOM     33  O   UNL A   1      34.334  32.596  28.696  1.00  0.00    -0.269 OA
BRANCH  31  34
ATOM     34  C   UNL A   1      35.869  30.873  28.264  1.00  0.00     0.039 A 
ATOM     35  C   UNL A   1      36.172  29.534  28.014  1.00  0.00     0.014 A 
ATOM     36  C   UNL A   1      36.899  31.726  28.711  1.00  0.00     0.014 A 
ATOM     37  C   UNL A   1      37.437  29.036  28.316  1.00  0.00     0.010 A 
ATOM     38  C   UNL A   1      38.166  31.237  28.999  1.00  0.00     0.010 A 
ATOM     39  C   UNL A   1      38.412  29.878  28.858  1.00  0.00    -0.014 A 
BRANCH  39  40
ATOM     40  C   UNL A   1      39.715  29.307  29.181  1.00  0.00     0.031 A 
ATOM     41  C   UNL A   1      40.120  29.465  30.606  1.00  0.00     0.074 A 
ATOM     42  C   UNL A   1      40.459  28.614  28.293  1.00  0.00     0.049 A 
ATOM     43  N   UNL A   1      41.096  30.169  31.080  1.00  0.00    -0.248 NA
ATOM     44  C   UNL A   1      39.245  28.884  31.636  1.00  0.00     0.031 C 
ATOM     45  C   UNL A   1      40.079  28.158  26.953  1.00  0.00     0.029 A 
ATOM     46  N   UNL A   1      41.692  28.057  28.462  1.00  0.00    -0.354 N 
ATOM     47  C   UNL A   1      41.094  29.939  32.453  1.00  0.00     0.074 A 
ATOM     48  C   UNL A   1      39.849  29.281  32.757  1.00  0.00     0.031 C 
ATOM     49  C   UNL A   1      40.942  27.199  26.547  1.00  0.00     0.029 A 
ATOM     50  C   UNL A   1      42.006  27.073  27.527  1.00  0.00     0.049 A 
ATOM     51  H   UNL A   1      42.308  28.329  29.181  1.00  0.00     0.167 HD
ATOM     52  C   UNL A   1      42.211  30.099  33.215  1.00  0.00     0.034 A 
ATOM     53  C   UNL A   1      43.022  26.176  27.614  1.00  0.00     0.034 A 
ATOM     54  C   UNL A   1      43.223  30.860  32.541  1.00  0.00     0.049 A 
ATOM     55  C   UNL A   1      44.019  26.759  28.542  1.00  0.00     0.074 A 
ATOM     56  C   UNL A   1      43.304  32.140  32.028  1.00  0.00     0.029 A 
ATOM     57  N   UNL A   1      44.255  30.157  31.971  1.00  0.00    -0.354 N 
ATOM     58  N   UNL A   1      44.694  27.844  28.289  1.00  0.00    -0.248 NA
ATOM     59  C   UNL A   1      43.953  26.367  29.942  1.00  0.00     0.031 C 
ATOM     60  C   UNL A   1      44.053  32.000  30.825  1.00  0.00     0.029 A 
ATOM     61  C   UNL A   1      44.432  30.661  30.711  1.00  0.00     0.049 A 
ATOM     62  H   UNL A   1      44.770  29.429  32.388  1.00  0.00     0.167 HD
ATOM     63  C   UNL A   1      44.751  28.504  29.508  1.00  0.00     0.074 A 
ATOM     64  C   UNL A   1      44.364  27.507  30.504  1.00  0.00     0.031 C 
ATOM     65  C   UNL A   1      44.822  29.863  29.571  1.00  0.00     0.034 A 
BRANCH  52  66
ATOM     66  C   UNL A   1      42.532  29.270  34.430  1.00  0.00     0.023 A 
ATOM     67  C   UNL A   1      43.010  29.932  35.581  1.00  0.00     0.012 A 
ATOM     68  C   UNL A   1      42.652  27.863  34.394  1.00  0.00     0.148 A 
ATOM     69  C   UNL A   1      43.596  29.225  36.637  1.00  0.00     0.002 A 
ATOM     70  C   UNL A   1      43.172  27.160  35.474  1.00  0.00     0.091 A 
ATOM     71  F   UNL A   1      42.391  27.206  33.259  1.00  0.00    -0.205 F 
ATOM     72  C   UNL A   1      43.666  27.837  36.590  1.00  0.00     0.022 A 
BRANCH  70  73
ATOM     73  S   UNL A   1      43.267  25.366  35.469  1.00  0.00     0.127 S 
ATOM     74  O   UNL A   1      44.282  25.132  34.445  1.00  0.00    -0.237 OA
ATOM     75  O   UNL A   1      43.691  25.087  36.841  1.00  0.00    -0.237 OA
ATOM     76  O   UNL A   1      41.921  24.908  35.155  1.00  0.00    -0.744 OA
ENDBRANCH  70  73
ENDBRANCH  52  66
BRANCH  53  77
ATOM     77  C   UNL A   1      43.068  24.738  27.229  1.00  0.00     0.023 A 
ATOM     78  C   UNL A   1      41.915  23.940  27.413  1.00  0.00     0.012 A 
ATOM     79  C   UNL A   1      44.097  24.219  26.414  1.00  0.00     0.148 A 
ATOM     80  C   UNL A   1      41.766  22.710  26.757  1.00  0.00     0.002 A 
ATOM     81  C   UNL A   1      43.951  22.990  25.774  1.00  0.00     0.091 A 
ATOM     82  F   UNL A   1      45.182  24.968  26.180  1.00  0.00    -0.205 F 
ATOM     83  C   UNL A   1      42.778  22.241  25.927  1.00  0.00     0.022 A 
BRANCH  81  84
ATOM     84  S   UNL A   1      45.217  22.329  24.680  1.00  0.00     0.127 S 
ATOM     85  O   UNL A   1      44.483  21.295  23.949  1.00  0.00    -0.237 OA
ATOM     86  O   UNL A   1      45.576  23.501  23.887  1.00  0.00    -0.237 OA
ATOM     87  O   UNL A   1      46.261  21.811  25.555  1.00  0.00    -0.744 OA
ENDBRANCH  81  84
ENDBRANCH  53  77
BRANCH  65  88
ATOM     88  C   UNL A   1      45.061  30.632  28.299  1.00  0.00     0.023 A 
ATOM     89  C   UNL A   1      43.998  31.077  27.485  1.00  0.00     0.012 A 
ATOM     90  C   UNL A   1      46.355  31.128  28.073  1.00  0.00     0.148 A 
ATOM     91  C   UNL A   1      44.223  32.017  26.473  1.00  0.00     0.002 A 
ATOM     92  C   UNL A   1      46.566  32.091  27.095  1.00  0.00     0.091 A 
ATOM     93  F   UNL A   1      47.342  30.697  28.872  1.00  0.00    -0.205 F 
ATOM     94  C   UNL A   1      45.503  32.537  26.291  1.00  0.00     0.022 A 
BRANCH  92  95
ATOM     95  S   UNL A   1      48.155  32.896  26.890  1.00  0.00     0.127 S 
ATOM     96  O   UNL A   1      47.873  33.872  25.839  1.00  0.00    -0.237 OA
ATOM     97  O   UNL A   1      48.382  33.472  28.216  1.00  0.00    -0.237 OA
ATOM     98  O   UNL A   1      49.100  31.849  26.520  1.00  0.00    -0.744 OA
ENDBRANCH  92  95
ENDBRANCH  65  88
ENDBRANCH  39  40
ENDBRANCH  31  34
ENDBRANCH  29  30
ENDBRANCH   1  29
TORSDOF 17
ENDMDL
MODEL 2
REMARK VINA RESULT:     -12.8      3.213      7.986
REMARK SMILES COc1ccc2c(c1)c(CC(=O)NCCCNC(=O)c1ccc(-c3c4nc(c(-c5cccc(S(=O)(=O)[O-])c5F)c5ccc([nH]5)c(-c5cccc(S(=O)(=O)[O-])c5F)c5nc(c(-c6cccc(S(=O)(=O)[O-])c6F)c6ccc3[nH]6)C=C5)C=C4)cc1)c(C)n2C(=O)c1ccc(Cl)cc1
REMARK SMILES IDX 15 1 14 2 13 3 11 4 12 5 10 7 9 8 3 9 4 10 8 11 5 12 7 13
REMARK SMILES IDX 6 14 85 15 83 16 84 17 2 18 1 19 86 20 87 21 88 22 89 23
REMARK SMILES IDX 94 24 90 25 93 26 91 27 92 28 16 29 17 30 18 31 19 33 20 34
REMARK SMILES IDX 21 35 82 36 22 37 81 38 23 39 24 40 25 41 75 42 26 43 80 44
REMARK SMILES IDX 74 45 76 46 27 47 79 48 73 49 72 50 28 52 60 53 40 54 59 55
REMARK SMILES IDX 41 56 44 57 58 58 77 59 42 60 43 61 57 63 78 64 45 65 29 66
REMARK SMILES IDX 30 67 38 68 31 69 33 70 39 71 32 72 34 73 35 74 36 75 37 76
REMARK SMILES IDX 61 77 62 78 70 79 63 80 65 81 71 82 64 83 66 84 67 85 68 86
REMARK SMILES IDX 69 87 46 88 47 89 55 90 48 91 50 92 56 93 49 94 51 95 52 96
REMARK SMILES IDX 53 97 54 98
REMARK H PARENT 13 6 17 32 76 51 44 62
REMARK Flexibility Score: inf
ROOT
ATOM      1  C   UNL A   1      38.031  20.053  24.685  1.00  0.00     0.042 C 
ENDROOT
BRANCH   1   2
ATOM      2  C   UNL A   1      37.700  21.513  25.003  1.00  0.00     0.117 C 
BRANCH   2   3
ATOM      3  N   UNL A   1      37.075  22.203  23.887  1.00  0.00    -0.356 N 
ATOM      4  C   UNL A   1      36.211  23.259  23.897  1.00  0.00     0.224 C 
ATOM      5  O   UNL A   1      35.826  23.708  22.814  1.00  0.00    -0.275 OA
ATOM      6  H   UNL A   1      37.308  21.859  22.994  1.00  0.00     0.163 HD
BRANCH   4   7
ATOM      7  C   UNL A   1      35.788  23.899  25.210  1.00  0.00     0.138 C 
BRANCH   7   8
ATOM      8  C   UNL A   1      34.318  24.198  25.287  1.00  0.00    -0.009 A 
ATOM      9  C   UNL A   1      32.045  21.132  25.148  1.00  0.00     0.119 A 
ATOM     10  C   UNL A   1      30.850  21.830  25.193  1.00  0.00     0.048 A 
ATOM     11  C   UNL A   1      33.255  21.825  25.210  1.00  0.00     0.057 A 
ATOM     12  C   UNL A   1      30.841  23.225  25.254  1.00  0.00     0.031 A 
ATOM     13  C   UNL A   1      33.269  23.239  25.286  1.00  0.00     0.008 A 
ATOM     14  C   UNL A   1      32.057  23.935  25.337  1.00  0.00     0.057 A 
ATOM     15  N   UNL A   1      32.347  25.307  25.490  1.00  0.00    -0.280 N 
ATOM     16  C   UNL A   1      33.728  25.456  25.285  1.00  0.00     0.028 A 
ATOM     17  C   UNL A   1      34.436  26.769  25.121  1.00  0.00     0.065 C 
BRANCH   9  18
ATOM     18  O   UNL A   1      32.127  19.768  25.069  1.00  0.00    -0.497 OA
ATOM     19  C   UNL A   1      33.282  19.228  25.707  1.00  0.00     0.278 C 
ENDBRANCH   9  18
BRANCH  15  20
ATOM     20  C   UNL A   1      31.415  26.343  25.793  1.00  0.00     0.262 C 
ATOM     21  O   UNL A   1      31.195  26.615  26.976  1.00  0.00    -0.268 OA
BRANCH  20  22
ATOM     22  C   UNL A   1      30.675  27.143  24.805  1.00  0.00     0.040 A 
ATOM     23  C   UNL A   1      31.131  28.409  24.419  1.00  0.00     0.015 A 
ATOM     24  C   UNL A   1      29.474  26.631  24.299  1.00  0.00     0.015 A 
ATOM     25  C   UNL A   1      30.321  29.208  23.607  1.00  0.00     0.021 A 
ATOM     26  C   UNL A   1      28.676  27.430  23.479  1.00  0.00     0.021 A 
ATOM     27  C   UNL A   1      29.089  28.724  23.161  1.00  0.00     0.041 A 
ATOM     28  Cl  UNL A   1      28.052  29.749  22.247  1.00  0.00    -0.084 Cl
ENDBRANCH  20  22
ENDBRANCH  15  20
ENDBRANCH   7   8
ENDBRANCH   4   7
ENDBRANCH   2   3
ENDBRANCH   1   2
BRANCH   1  29
ATOM     29  C   UNL A   1      38.777  19.339  25.813  1.00  0.00     0.118 C 
BRANCH  29  30
ATOM     30  N   UNL A   1      40.137  18.970  25.476  1.00  0.00    -0.352 N 
ATOM     31  C   UNL A   1      41.386  19.384  25.841  1.00  0.00     0.251 C 
ATOM     32  H   UNL A   1      40.169  18.237  24.818  1.00  0.00     0.163 HD
ATOM     33  O   UNL A   1      42.316  18.713  25.383  1.00  0.00    -0.269 OA
BRANCH  31  34
ATOM     34  C   UNL A   1      41.700  20.585  26.660  1.00  0.00     0.039 A 
ATOM     35  C   UNL A   1      41.394  20.756  28.010  1.00  0.00     0.014 A 
ATOM     36  C   UNL A   1      42.296  21.656  25.962  1.00  0.00     0.014 A 
ATOM     37  C   UNL A   1      41.568  22.000  28.613  1.00  0.00     0.010 A 
ATOM     38  C   UNL A   1      42.485  22.892  26.563  1.00  0.00     0.010 A 
ATOM     39  C   UNL A   1      42.063  23.077  27.872  1.00  0.00    -0.014 A 
BRANCH  39  40
ATOM     40  C   UNL A   1      42.207  24.366  28.540  1.00  0.00     0.031 A 
ATOM     41  C   UNL A   1      41.079  25.310  28.301  1.00  0.00     0.074 A 
ATOM     42  C   UNL A   1      43.225  24.657  29.376  1.00  0.00     0.049 A 
ATOM     43  N   UNL A   1      41.107  26.433  27.659  1.00  0.00    -0.248 NA
ATOM     44  C   UNL A   1      39.729  24.884  28.704  1.00  0.00     0.031 C 
ATOM     45  C   UNL A   1      44.249  23.751  29.905  1.00  0.00     0.029 A 
ATOM     46  N   UNL A   1      43.484  25.822  30.035  1.00  0.00    -0.354 N 
ATOM     47  C   UNL A   1      39.824  26.962  27.770  1.00  0.00     0.074 A 
ATOM     48  C   UNL A   1      38.986  25.904  28.274  1.00  0.00     0.031 C 
ATOM     49  C   UNL A   1      44.843  24.327  30.975  1.00  0.00     0.029 A 
ATOM     50  C   UNL A   1      44.345  25.682  31.122  1.00  0.00     0.049 A 
ATOM     51  H   UNL A   1      43.097  26.686  29.765  1.00  0.00     0.167 HD
ATOM     52  C   UNL A   1      39.579  28.296  27.657  1.00  0.00     0.034 A 
ATOM     53  C   UNL A   1      44.555  26.596  32.104  1.00  0.00     0.034 A 
ATOM     54  C   UNL A   1      40.678  29.001  27.060  1.00  0.00     0.049 A 
ATOM     55  C   UNL A   1      44.161  27.911  31.545  1.00  0.00     0.074 A 
ATOM     56  C   UNL A   1      41.327  28.945  25.843  1.00  0.00     0.029 A 
ATOM     57  N   UNL A   1      41.517  29.680  27.907  1.00  0.00    -0.354 N 
ATOM     58  N   UNL A   1      44.782  28.491  30.558  1.00  0.00    -0.248 NA
ATOM     59  C   UNL A   1      42.810  28.383  31.808  1.00  0.00     0.031 C 
ATOM     60  C   UNL A   1      42.701  29.146  26.158  1.00  0.00     0.029 A 
ATOM     61  C   UNL A   1      42.796  29.372  27.533  1.00  0.00     0.049 A 
ATOM     62  H   UNL A   1      41.249  30.276  28.645  1.00  0.00     0.167 HD
ATOM     63  C   UNL A   1      43.767  29.064  29.805  1.00  0.00     0.074 A 
ATOM     64  C   UNL A   1      42.589  29.047  30.671  1.00  0.00     0.031 C 
ATOM     65  C   UNL A   1      43.896  29.232  28.459  1.00  0.00     0.034 A 
BRANCH  52  66
ATOM     66  C   UNL A   1      38.496  29.025  28.407  1.00  0.00     0.023 A 
ATOM     67  C   UNL A   1      37.672  29.918  27.689  1.00  0.00     0.012 A 
ATOM     68  C   UNL A   1      38.440  29.083  29.818  1.00  0.00     0.148 A 
ATOM     69  C   UNL A   1      36.845  30.836  28.346  1.00  0.00     0.002 A 
ATOM     70  C   UNL A   1      37.567  29.948  30.465  1.00  0.00     0.091 A 
ATOM     71  F   UNL A   1      39.330  28.398  30.544  1.00  0.00    -0.205 F 
ATOM     72  C   UNL A   1      36.783  30.843  29.735  1.00  0.00     0.022 A 
BRANCH  70  73
ATOM     73  S   UNL A   1      37.435  29.984  32.256  1.00  0.00     0.127 S 
ATOM     74  O   UNL A   1      38.733  30.538  32.632  1.00  0.00    -0.237 OA
ATOM     75  O   UNL A   1      36.295  30.879  32.454  1.00  0.00    -0.237 OA
ATOM     76  O   UNL A   1      37.186  28.604  32.654  1.00  0.00    -0.744 OA
ENDBRANCH  70  73
ENDBRANCH  52  66
BRANCH  53  77
ATOM     77  C   UNL A   1      44.756  26.404  33.567  1.00  0.00     0.023 A 
ATOM     78  C   UNL A   1      45.999  26.757  34.141  1.00  0.00     0.012 A 
ATOM     79  C   UNL A   1      43.672  26.179  34.443  1.00  0.00     0.148 A 
ATOM     80  C   UNL A   1      46.136  26.946  35.524  1.00  0.00     0.002 A 
ATOM     81  C   UNL A   1      43.816  26.356  35.818  1.00  0.00     0.091 A 
ATOM     82  F   UNL A   1      42.470  25.890  33.930  1.00  0.00    -0.205 F 
ATOM     83  C   UNL A   1      45.043  26.759  36.361  1.00  0.00     0.022 A 
BRANCH  81  84
ATOM     84  S   UNL A   1      42.440  26.137  36.956  1.00  0.00     0.127 S 
ATOM     85  O   UNL A   1      43.079  26.346  38.255  1.00  0.00    -0.237 OA
ATOM     86  O   UNL A   1      41.532  27.203  36.543  1.00  0.00    -0.237 OA
ATOM     87  O   UNL A   1      41.963  24.777  36.740  1.00  0.00    -0.744 OA
ENDBRANCH  81  84
ENDBRANCH  53  77
BRANCH  65  88
ATOM     88  C   UNL A   1      45.242  28.992  27.829  1.00  0.00     0.023 A 
ATOM     89  C   UNL A   1      46.266  29.962  27.865  1.00  0.00     0.012 A 
ATOM     90  C   UNL A   1      45.551  27.680  27.434  1.00  0.00     0.148 A 
ATOM     91  C   UNL A   1      47.580  29.621  27.529  1.00  0.00     0.002 A 
ATOM     92  C   UNL A   1      46.863  27.336  27.142  1.00  0.00     0.091 A 
ATOM     93  F   UNL A   1      44.559  26.777  27.425  1.00  0.00    -0.205 F 
ATOM     94  C   UNL A   1      47.882  28.304  27.185  1.00  0.00     0.022 A 
BRANCH  92  95
ATOM     95  S   UNL A   1      47.345  25.640  26.818  1.00  0.00     0.127 S 
ATOM     96  O   UNL A   1      48.761  25.780  26.482  1.00  0.00    -0.237 OA
ATOM     97  O   UNL A   1      47.082  24.994  28.104  1.00  0.00    -0.237 OA
ATOM     98  O   UNL A   1      46.497  25.174  25.727  1.00  0.00    -0.744 OA
ENDBRANCH  92  95
ENDBRANCH  65  88
ENDBRANCH  39  40
ENDBRANCH  31  34
ENDBRANCH  29  30
ENDBRANCH   1  29
TORSDOF 17
ENDMDL
MODEL 3
REMARK VINA RESULT:     -12.8      3.432      9.179
REMARK SMILES COc1ccc2c(c1)c(CC(=O)NCCCNC(=O)c1ccc(-c3c4nc(c(-c5cccc(S(=O)(=O)[O-])c5F)c5ccc([nH]5)c(-c5cccc(S(=O)(=O)[O-])c5F)c5nc(c(-c6cccc(S(=O)(=O)[O-])c6F)c6ccc3[nH]6)C=C5)C=C4)cc1)c(C)n2C(=O)c1ccc(Cl)cc1
REMARK SMILES IDX 15 1 14 2 13 3 11 4 12 5 10 7 9 8 3 9 4 10 8 11 5 12 7 13
REMARK SMILES IDX 6 14 85 15 83 16 84 17 2 18 1 19 86 20 87 21 88 22 89 23
REMARK SMILES IDX 94 24 90 25 93 26 91 27 92 28 16 29 17 30 18 31 19 33 20 34
REMARK SMILES IDX 21 35 82 36 22 37 81 38 23 39 24 40 25 41 75 42 26 43 80 44
REMARK SMILES IDX 74 45 76 46 27 47 79 48 73 49 72 50 28 52 60 53 40 54 59 55
REMARK SMILES IDX 41 56 44 57 58 58 77 59 42 60 43 61 57 63 78 64 45 65 29 66
REMARK SMILES IDX 30 67 38 68 31 69 33 70 39 71 32 72 34 73 35 74 36 75 37 76
REMARK SMILES IDX 61 77 62 78 70 79 63 80 65 81 71 82 64 83 66 84 67 85 68 86
REMARK SMILES IDX 69 87 46 88 47 89 55 90 48 91 50 92 56 93 49 94 51 95 52 96
REMARK SMILES IDX 53 97 54 98
REMARK H PARENT 13 6 17 32 76 51 44 62
REMARK Flexibility Score: inf
ROOT
ATOM      1  C   UNL A   1      36.238  21.489  24.538  1.00  0.00     0.042 C 
ENDROOT
BRANCH   1   2
ATOM      2  C   UNL A   1      34.813  22.043  24.480  1.00  0.00     0.117 C 
BRANCH   2   3
ATOM      3  N   UNL A   1      34.630  23.015  23.416  1.00  0.00    -0.356 N 
ATOM      4  C   UNL A   1      34.299  24.337  23.499  1.00  0.00     0.224 C 
ATOM      5  O   UNL A   1      34.227  24.986  22.452  1.00  0.00    -0.275 OA
ATOM      6  H   UNL A   1      34.764  22.671  22.503  1.00  0.00     0.163 HD
BRANCH   4   7
ATOM      7  C   UNL A   1      34.086  24.997  24.852  1.00  0.00     0.138 C 
BRANCH   7   8
ATOM      8  C   UNL A   1      32.926  25.950  24.880  1.00  0.00    -0.009 A 
ATOM      9  C   UNL A   1      33.611  29.262  26.655  1.00  0.00     0.119 A 
ATOM     10  C   UNL A   1      32.336  29.780  26.500  1.00  0.00     0.048 A 
ATOM     11  C   UNL A   1      33.918  28.011  26.120  1.00  0.00     0.057 A 
ATOM     12  C   UNL A   1      31.340  29.045  25.854  1.00  0.00     0.031 A 
ATOM     13  C   UNL A   1      32.928  27.253  25.449  1.00  0.00     0.008 A 
ATOM     14  C   UNL A   1      31.645  27.787  25.293  1.00  0.00     0.057 A 
ATOM     15  N   UNL A   1      30.884  26.878  24.529  1.00  0.00    -0.280 N 
ATOM     16  C   UNL A   1      31.634  25.695  24.437  1.00  0.00     0.028 A 
ATOM     17  C   UNL A   1      31.116  24.387  23.918  1.00  0.00     0.065 C 
BRANCH   9  18
ATOM     18  O   UNL A   1      34.627  29.920  27.293  1.00  0.00    -0.497 OA
ATOM     19  C   UNL A   1      34.317  31.273  27.615  1.00  0.00     0.278 C 
ENDBRANCH   9  18
BRANCH  15  20
ATOM     20  C   UNL A   1      29.598  27.117  23.960  1.00  0.00     0.262 C 
ATOM     21  O   UNL A   1      28.682  26.330  24.214  1.00  0.00    -0.268 OA
BRANCH  20  22
ATOM     22  C   UNL A   1      29.247  28.245  23.082  1.00  0.00     0.040 A 
ATOM     23  C   UNL A   1      30.226  28.892  22.319  1.00  0.00     0.015 A 
ATOM     24  C   UNL A   1      27.921  28.690  23.070  1.00  0.00     0.015 A 
ATOM     25  C   UNL A   1      29.891  30.058  21.626  1.00  0.00     0.021 A 
ATOM     26  C   UNL A   1      27.590  29.848  22.366  1.00  0.00     0.021 A 
ATOM     27  C   UNL A   1      28.581  30.543  21.672  1.00  0.00     0.041 A 
ATOM     28  Cl  UNL A   1      28.198  32.034  20.902  1.00  0.00    -0.084 Cl
ENDBRANCH  20  22
ENDBRANCH  15  20
ENDBRANCH   7   8
ENDBRANCH   4   7
ENDBRANCH   2   3
ENDBRANCH   1   2
BRANCH   1  29
ATOM     29  C   UNL A   1      37.094  22.124  25.634  1.00  0.00     0.118 C 
BRANCH  29  30
ATOM     30  N   UNL A   1      38.444  21.603  25.700  1.00  0.00    -0.352 N 
ATOM     31  C   UNL A   1      39.610  21.973  26.307  1.00  0.00     0.251 C 
ATOM     32  H   UNL A   1      38.548  20.776  25.176  1.00  0.00     0.163 HD
ATOM     33  O   UNL A   1      40.540  21.169  26.190  1.00  0.00    -0.269 OA
BRANCH  31  34
ATOM     34  C   UNL A   1      39.856  23.261  27.009  1.00  0.00     0.039 A 
ATOM     35  C   UNL A   1      39.131  24.439  26.832  1.00  0.00     0.014 A 
ATOM     36  C   UNL A   1      40.973  23.278  27.870  1.00  0.00     0.014 A 
ATOM     37  C   UNL A   1      39.580  25.627  27.404  1.00  0.00     0.010 A 
ATOM     38  C   UNL A   1      41.415  24.457  28.454  1.00  0.00     0.010 A 
ATOM     39  C   UNL A   1      40.750  25.641  28.169  1.00  0.00    -0.014 A 
BRANCH  39  40
ATOM     40  C   UNL A   1      41.194  26.913  28.728  1.00  0.00     0.031 A 
ATOM     41  C   UNL A   1      42.525  27.368  28.239  1.00  0.00     0.074 A 
ATOM     42  C   UNL A   1      40.432  27.666  29.550  1.00  0.00     0.049 A 
ATOM     43  N   UNL A   1      43.620  27.492  28.918  1.00  0.00    -0.248 NA
ATOM     44  C   UNL A   1      42.692  27.574  26.792  1.00  0.00     0.031 C 
ATOM     45  C   UNL A   1      39.022  27.478  29.902  1.00  0.00     0.029 A 
ATOM     46  N   UNL A   1      40.739  28.848  30.155  1.00  0.00    -0.354 N 
ATOM     47  C   UNL A   1      44.559  28.006  28.027  1.00  0.00     0.074 A 
ATOM     48  C   UNL A   1      43.987  27.882  26.711  1.00  0.00     0.031 C 
ATOM     49  C   UNL A   1      38.540  28.624  30.435  1.00  0.00     0.029 A 
ATOM     50  C   UNL A   1      39.629  29.571  30.589  1.00  0.00     0.049 A 
ATOM     51  H   UNL A   1      41.664  29.164  30.275  1.00  0.00     0.167 HD
ATOM     52  C   UNL A   1      45.647  28.706  28.449  1.00  0.00     0.034 A 
ATOM     53  C   UNL A   1      39.615  30.875  30.964  1.00  0.00     0.034 A 
ATOM     54  C   UNL A   1      45.900  28.526  29.850  1.00  0.00     0.049 A 
ATOM     55  C   UNL A   1      41.006  31.217  31.348  1.00  0.00     0.074 A 
ATOM     56  C   UNL A   1      46.194  27.446  30.658  1.00  0.00     0.029 A 
ATOM     57  N   UNL A   1      45.486  29.528  30.691  1.00  0.00    -0.354 N 
ATOM     58  N   UNL A   1      41.623  30.693  32.369  1.00  0.00    -0.248 NA
ATOM     59  C   UNL A   1      41.858  31.827  30.340  1.00  0.00     0.031 C 
ATOM     60  C   UNL A   1      45.476  27.690  31.863  1.00  0.00     0.029 A 
ATOM     61  C   UNL A   1      44.841  28.928  31.738  1.00  0.00     0.049 A 
ATOM     62  H   UNL A   1      45.627  30.495  30.566  1.00  0.00     0.167 HD
ATOM     63  C   UNL A   1      42.923  30.505  31.924  1.00  0.00     0.074 A 
ATOM     64  C   UNL A   1      43.032  31.307  30.706  1.00  0.00     0.031 C 
ATOM     65  C   UNL A   1      43.699  29.498  32.414  1.00  0.00     0.034 A 
BRANCH  52  66
ATOM     66  C   UNL A   1      46.278  29.835  27.677  1.00  0.00     0.023 A 
ATOM     67  C   UNL A   1      47.685  29.946  27.688  1.00  0.00     0.012 A 
ATOM     68  C   UNL A   1      45.544  30.938  27.187  1.00  0.00     0.148 A 
ATOM     69  C   UNL A   1      48.328  31.108  27.247  1.00  0.00     0.002 A 
ATOM     70  C   UNL A   1      46.189  32.062  26.686  1.00  0.00     0.091 A 
ATOM     71  F   UNL A   1      44.215  30.963  27.328  1.00  0.00    -0.205 F 
ATOM     72  C   UNL A   1      47.581  32.162  26.734  1.00  0.00     0.022 A 
BRANCH  70  73
ATOM     73  S   UNL A   1      45.271  33.443  25.996  1.00  0.00     0.127 S 
ATOM     74  O   UNL A   1      44.662  34.014  27.195  1.00  0.00    -0.237 OA
ATOM     75  O   UNL A   1      46.339  34.243  25.399  1.00  0.00    -0.237 OA
ATOM     76  O   UNL A   1      44.354  32.854  25.029  1.00  0.00    -0.744 OA
ENDBRANCH  70  73
ENDBRANCH  52  66
BRANCH  53  77
ATOM     77  C   UNL A   1      38.596  31.934  30.721  1.00  0.00     0.023 A 
ATOM     78  C   UNL A   1      38.143  32.160  29.401  1.00  0.00     0.012 A 
ATOM     79  C   UNL A   1      37.847  32.501  31.775  1.00  0.00     0.148 A 
ATOM     80  C   UNL A   1      36.956  32.862  29.148  1.00  0.00     0.002 A 
ATOM     81  C   UNL A   1      36.675  33.209  31.518  1.00  0.00     0.091 A 
ATOM     82  F   UNL A   1      38.222  32.267  33.039  1.00  0.00    -0.205 F 
ATOM     83  C   UNL A   1      36.215  33.375  30.206  1.00  0.00     0.022 A 
BRANCH  81  84
ATOM     84  S   UNL A   1      35.665  33.891  32.841  1.00  0.00     0.127 S 
ATOM     85  O   UNL A   1      36.538  34.930  33.390  1.00  0.00    -0.237 OA
ATOM     86  O   UNL A   1      34.504  34.392  32.110  1.00  0.00    -0.237 OA
ATOM     87  O   UNL A   1      35.411  32.784  33.754  1.00  0.00    -0.744 OA
ENDBRANCH  81  84
ENDBRANCH  53  77
BRANCH  65  88
ATOM     88  C   UNL A   1      43.203  28.723  33.607  1.00  0.00     0.023 A 
ATOM     89  C   UNL A   1      42.288  27.657  33.476  1.00  0.00     0.012 A 
ATOM     90  C   UNL A   1      43.873  28.910  34.826  1.00  0.00     0.148 A 
ATOM     91  C   UNL A   1      42.061  26.781  34.543  1.00  0.00     0.002 A 
ATOM     92  C   UNL A   1      43.675  28.014  35.869  1.00  0.00     0.091 A 
ATOM     93  F   UNL A   1      44.747  29.923  34.915  1.00  0.00    -0.205 F 
ATOM     94  C   UNL A   1      42.767  26.950  35.733  1.00  0.00     0.022 A 
BRANCH  92  95
ATOM     95  S   UNL A   1      44.641  28.093  37.377  1.00  0.00     0.127 S 
ATOM     96  O   UNL A   1      44.351  29.443  37.858  1.00  0.00    -0.237 OA
ATOM     97  O   UNL A   1      44.050  27.019  38.178  1.00  0.00    -0.237 OA
ATOM     98  O   UNL A   1      46.027  27.862  36.989  1.00  0.00    -0.744 OA
ENDBRANCH  92  95
ENDBRANCH  65  88
ENDBRANCH  39  40
ENDBRANCH  31  34
ENDBRANCH  29  30
ENDBRANCH   1  29
TORSDOF 17
ENDMDL
