MODEL 1
REMARK VINA RESULT:     -12.1      0.000      0.000
REMARK SMILES C[C@@H](NC(=O)c1cc(C(=O)NCCCNC(=O)c2ccc(-c3c4nc(c(-c5cccc(S(=O)(=O)[O-])c5F)c5ccc([nH]5)c(-c5cccc(S(=O)(=O)[O-])c5F)c5nc(c(-c6cccc(S(=O)(=O)[O-])c6F)c6ccc3[nH]6)C=C5)C=C4)cc2)n(C)n1)c1ccccc1
REMARK SMILES IDX 13 1 12 2 11 3 9 4 10 5 8 7 6 8 7 9 83 10 81 11 82 12 4 13
REMARK SMILES IDX 3 14 5 16 2 17 1 18 84 19 85 20 89 21 86 22 88 23 87 24
REMARK SMILES IDX 14 25 15 26 16 27 17 29 18 30 19 31 80 32 20 33 79 34 21 35
REMARK SMILES IDX 22 36 23 37 73 38 24 39 78 40 72 41 74 42 25 43 77 44 71 45
REMARK SMILES IDX 70 46 26 48 58 49 38 50 57 51 39 52 42 53 56 54 75 55 40 56
REMARK SMILES IDX 41 57 55 59 76 60 43 61 27 62 28 63 36 64 29 65 31 66 37 67
REMARK SMILES IDX 30 68 32 69 33 70 34 71 35 72 59 73 60 74 68 75 61 76 63 77
REMARK SMILES IDX 69 78 62 79 64 80 65 81 66 82 67 83 44 84 45 85 53 86 46 87
REMARK SMILES IDX 48 88 54 89 47 90 49 91 50 92 51 93 52 94
REMARK H PARENT 11 6 3 15 15 28 74 47 42 58
REMARK Flexibility Score: inf
ROOT
ATOM      1  C   UNL A   1      37.610  19.569  24.852  1.00  0.00     0.042 C 
ENDROOT
BRANCH   1   2
ATOM      2  C   UNL A   1      36.227  20.183  25.050  1.00  0.00     0.118 C 
BRANCH   2   3
ATOM      3  N   UNL A   1      35.170  19.202  24.991  1.00  0.00    -0.351 N 
ATOM      4  C   UNL A   1      33.861  19.247  24.605  1.00  0.00     0.269 C 
ATOM      5  O   UNL A   1      33.455  18.152  24.192  1.00  0.00    -0.268 OA
ATOM      6  H   UNL A   1      35.454  18.309  25.294  1.00  0.00     0.163 HD
BRANCH   4   7
ATOM      7  C   UNL A   1      32.956  20.380  24.682  1.00  0.00     0.126 A 
ATOM      8  C   UNL A   1      32.169  22.300  25.567  1.00  0.00     0.151 A 
ATOM      9  C   UNL A   1      32.760  21.063  25.884  1.00  0.00     0.069 A 
ATOM     10  N   UNL A   1      31.802  22.320  24.283  1.00  0.00    -0.167 NA
ATOM     11  N   UNL A   1      32.253  21.146  23.778  1.00  0.00    -0.262 N 
ATOM     12  C   UNL A   1      31.928  20.924  22.393  1.00  0.00     0.174 C 
BRANCH   8  13
ATOM     13  C   UNL A   1      31.923  23.409  26.475  1.00  0.00     0.272 C 
ATOM     14  N   UNL A   1      32.477  24.643  26.250  1.00  0.00    -0.344 N 
ATOM     15  H   UNL A   1      32.255  25.283  26.965  1.00  0.00     0.164 HD
ATOM     16  O   UNL A   1      31.268  23.263  27.513  1.00  0.00    -0.267 OA
BRANCH  14  17
ATOM     17  C   UNL A   1      33.317  25.248  25.211  1.00  0.00     0.109 C 
ATOM     18  C   UNL A   1      32.450  25.689  24.026  1.00  0.00     0.036 C 
BRANCH  17  19
ATOM     19  C   UNL A   1      34.608  24.554  24.827  1.00  0.00    -0.026 A 
ATOM     20  C   UNL A   1      34.731  23.978  23.551  1.00  0.00     0.006 A 
ATOM     21  C   UNL A   1      35.687  24.417  25.718  1.00  0.00     0.006 A 
ATOM     22  C   UNL A   1      35.894  23.299  23.179  1.00  0.00     0.000 A 
ATOM     23  C   UNL A   1      36.844  23.724  25.350  1.00  0.00     0.000 A 
ATOM     24  C   UNL A   1      36.948  23.168  24.079  1.00  0.00     0.000 A 
ENDBRANCH  17  19
ENDBRANCH  14  17
ENDBRANCH   8  13
ENDBRANCH   4   7
ENDBRANCH   2   3
ENDBRANCH   1   2
BRANCH   1  25
ATOM     25  C   UNL A   1      38.697  20.165  25.746  1.00  0.00     0.118 C 
BRANCH  25  26
ATOM     26  N   UNL A   1      39.812  19.253  25.944  1.00  0.00    -0.352 N 
ATOM     27  C   UNL A   1      41.155  19.497  26.089  1.00  0.00     0.251 C 
ATOM     28  H   UNL A   1      39.562  18.301  25.980  1.00  0.00     0.163 HD
ATOM     29  O   UNL A   1      41.942  18.561  25.962  1.00  0.00    -0.269 OA
BRANCH  27  30
ATOM     30  C   UNL A   1      41.670  20.852  26.398  1.00  0.00     0.039 A 
ATOM     31  C   UNL A   1      42.020  21.157  27.719  1.00  0.00     0.014 A 
ATOM     32  C   UNL A   1      41.722  21.851  25.424  1.00  0.00     0.014 A 
ATOM     33  C   UNL A   1      42.454  22.444  28.051  1.00  0.00     0.010 A 
ATOM     34  C   UNL A   1      42.227  23.110  25.739  1.00  0.00     0.010 A 
ATOM     35  C   UNL A   1      42.578  23.429  27.059  1.00  0.00    -0.014 A 
BRANCH  35  36
ATOM     36  C   UNL A   1      43.043  24.805  27.376  1.00  0.00     0.031 A 
ATOM     37  C   UNL A   1      42.104  25.788  28.027  1.00  0.00     0.074 A 
ATOM     38  C   UNL A   1      44.272  25.203  26.990  1.00  0.00     0.049 A 
ATOM     39  N   UNL A   1      42.281  27.059  28.278  1.00  0.00    -0.248 NA
ATOM     40  C   UNL A   1      40.777  25.281  28.417  1.00  0.00     0.031 C 
ATOM     41  C   UNL A   1      45.249  24.369  26.289  1.00  0.00     0.029 A 
ATOM     42  N   UNL A   1      44.894  26.421  27.102  1.00  0.00    -0.354 N 
ATOM     43  C   UNL A   1      41.079  27.514  28.807  1.00  0.00     0.074 A 
ATOM     44  C   UNL A   1      40.170  26.388  28.817  1.00  0.00     0.031 C 
ATOM     45  C   UNL A   1      46.345  25.100  26.028  1.00  0.00     0.029 A 
ATOM     46  C   UNL A   1      46.139  26.460  26.516  1.00  0.00     0.049 A 
ATOM     47  H   UNL A   1      44.489  27.194  27.557  1.00  0.00     0.167 HD
ATOM     48  C   UNL A   1      40.766  28.748  29.271  1.00  0.00     0.034 A 
ATOM     49  C   UNL A   1      47.011  27.478  26.380  1.00  0.00     0.034 A 
ATOM     50  C   UNL A   1      41.693  29.845  29.322  1.00  0.00     0.049 A 
ATOM     51  C   UNL A   1      46.664  28.822  26.962  1.00  0.00     0.074 A 
ATOM     52  C   UNL A   1      41.504  31.107  29.860  1.00  0.00     0.029 A 
ATOM     53  N   UNL A   1      42.984  29.813  28.820  1.00  0.00    -0.354 N 
ATOM     54  N   UNL A   1      45.576  29.191  27.593  1.00  0.00    -0.248 NA
ATOM     55  C   UNL A   1      47.679  29.880  26.845  1.00  0.00     0.031 C 
ATOM     56  C   UNL A   1      42.682  31.840  29.676  1.00  0.00     0.029 A 
ATOM     57  C   UNL A   1      43.607  31.031  29.035  1.00  0.00     0.049 A 
ATOM     58  H   UNL A   1      43.398  29.039  28.376  1.00  0.00     0.167 HD
ATOM     59  C   UNL A   1      45.788  30.509  27.980  1.00  0.00     0.074 A 
ATOM     60  C   UNL A   1      47.117  30.868  27.529  1.00  0.00     0.031 C 
ATOM     61  C   UNL A   1      44.952  31.352  28.634  1.00  0.00     0.034 A 
BRANCH  48  62
ATOM     62  C   UNL A   1      39.379  28.959  29.821  1.00  0.00     0.023 A 
ATOM     63  C   UNL A   1      39.085  28.539  31.135  1.00  0.00     0.012 A 
ATOM     64  C   UNL A   1      38.388  29.618  29.069  1.00  0.00     0.148 A 
ATOM     65  C   UNL A   1      37.816  28.739  31.678  1.00  0.00     0.002 A 
ATOM     66  C   UNL A   1      37.138  29.850  29.632  1.00  0.00     0.091 A 
ATOM     67  F   UNL A   1      38.677  29.991  27.814  1.00  0.00    -0.205 F 
ATOM     68  C   UNL A   1      36.847  29.402  30.931  1.00  0.00     0.022 A 
BRANCH  66  69
ATOM     69  S   UNL A   1      35.846  30.763  28.778  1.00  0.00     0.127 S 
ATOM     70  O   UNL A   1      35.160  29.694  28.054  1.00  0.00    -0.237 OA
ATOM     71  O   UNL A   1      35.083  31.334  29.889  1.00  0.00    -0.237 OA
ATOM     72  O   UNL A   1      36.532  31.743  27.950  1.00  0.00    -0.744 OA
ENDBRANCH  66  69
ENDBRANCH  48  62
BRANCH  49  73
ATOM     73  C   UNL A   1      48.330  27.242  25.728  1.00  0.00     0.023 A 
ATOM     74  C   UNL A   1      49.397  26.741  26.499  1.00  0.00     0.012 A 
ATOM     75  C   UNL A   1      48.524  27.466  24.351  1.00  0.00     0.148 A 
ATOM     76  C   UNL A   1      50.642  26.496  25.918  1.00  0.00     0.002 A 
ATOM     77  C   UNL A   1      49.750  27.168  23.768  1.00  0.00     0.091 A 
ATOM     78  F   UNL A   1      47.501  27.956  23.637  1.00  0.00    -0.205 F 
ATOM     79  C   UNL A   1      50.814  26.698  24.551  1.00  0.00     0.022 A 
BRANCH  77  80
ATOM     80  S   UNL A   1      50.014  27.268  21.993  1.00  0.00     0.127 S 
ATOM     81  O   UNL A   1      51.387  26.782  21.868  1.00  0.00    -0.237 OA
ATOM     82  O   UNL A   1      48.990  26.354  21.481  1.00  0.00    -0.237 OA
ATOM     83  O   UNL A   1      49.798  28.663  21.645  1.00  0.00    -0.744 OA
ENDBRANCH  77  80
ENDBRANCH  49  73
BRANCH  61  84
ATOM     84  C   UNL A   1      45.453  32.739  28.936  1.00  0.00     0.023 A 
ATOM     85  C   UNL A   1      46.170  32.979  30.124  1.00  0.00     0.012 A 
ATOM     86  C   UNL A   1      45.287  33.784  28.005  1.00  0.00     0.148 A 
ATOM     87  C   UNL A   1      46.690  34.244  30.396  1.00  0.00     0.002 A 
ATOM     88  C   UNL A   1      45.846  35.030  28.261  1.00  0.00     0.091 A 
ATOM     89  F   UNL A   1      44.583  33.542  26.889  1.00  0.00    -0.205 F 
ATOM     90  C   UNL A   1      46.539  35.265  29.460  1.00  0.00     0.022 A 
BRANCH  88  91
ATOM     91  S   UNL A   1      45.780  36.374  27.070  1.00  0.00     0.127 S 
ATOM     92  O   UNL A   1      46.628  37.379  27.706  1.00  0.00    -0.237 OA
ATOM     93  O   UNL A   1      46.354  35.759  25.873  1.00  0.00    -0.237 OA
ATOM     94  O   UNL A   1      44.371  36.727  26.947  1.00  0.00    -0.744 OA
ENDBRANCH  88  91
ENDBRANCH  61  84
ENDBRANCH  35  36
ENDBRANCH  27  30
ENDBRANCH  25  26
ENDBRANCH   1  25
TORSDOF 16
ENDMDL
MODEL 2
REMARK VINA RESULT:     -12.0      6.120     11.457
REMARK SMILES C[C@@H](NC(=O)c1cc(C(=O)NCCCNC(=O)c2ccc(-c3c4nc(c(-c5cccc(S(=O)(=O)[O-])c5F)c5ccc([nH]5)c(-c5cccc(S(=O)(=O)[O-])c5F)c5nc(c(-c6cccc(S(=O)(=O)[O-])c6F)c6ccc3[nH]6)C=C5)C=C4)cc2)n(C)n1)c1ccccc1
REMARK SMILES IDX 13 1 12 2 11 3 9 4 10 5 8 7 6 8 7 9 83 10 81 11 82 12 4 13
REMARK SMILES IDX 3 14 5 16 2 17 1 18 84 19 85 20 89 21 86 22 88 23 87 24
REMARK SMILES IDX 14 25 15 26 16 27 17 29 18 30 19 31 80 32 20 33 79 34 21 35
REMARK SMILES IDX 22 36 23 37 73 38 24 39 78 40 72 41 74 42 25 43 77 44 71 45
REMARK SMILES IDX 70 46 26 48 58 49 38 50 57 51 39 52 42 53 56 54 75 55 40 56
REMARK SMILES IDX 41 57 55 59 76 60 43 61 27 62 28 63 36 64 29 65 31 66 37 67
REMARK SMILES IDX 30 68 32 69 33 70 34 71 35 72 59 73 60 74 68 75 61 76 63 77
REMARK SMILES IDX 69 78 62 79 64 80 65 81 66 82 67 83 44 84 45 85 53 86 46 87
REMARK SMILES IDX 48 88 54 89 47 90 49 91 50 92 51 93 52 94
REMARK H PARENT 11 6 3 15 15 28 74 47 42 58
REMARK Flexibility Score: inf
ROOT
ATOM      1  C   UNL A   1      31.028  31.955  26.255  1.00  0.00     0.042 C 
ENDROOT
BRANCH   1   2
ATOM      2  C   UNL A   1      31.116  30.706  25.382  1.00  0.00     0.118 C 
BRANCH   2   3
ATOM      3  N   UNL A   1      30.272  30.784  24.214  1.00  0.00    -0.351 N 
ATOM      4  C   UNL A   1      29.685  29.849  23.410  1.00  0.00     0.269 C 
ATOM      5  O   UNL A   1      28.648  30.270  22.880  1.00  0.00    -0.268 OA
ATOM      6  H   UNL A   1      30.080  31.708  23.937  1.00  0.00     0.163 HD
BRANCH   4   7
ATOM      7  C   UNL A   1      30.169  28.513  23.108  1.00  0.00     0.126 A 
ATOM      8  C   UNL A   1      31.764  26.957  22.760  1.00  0.00     0.151 A 
ATOM      9  C   UNL A   1      31.443  28.314  22.574  1.00  0.00     0.069 A 
ATOM     10  N   UNL A   1      30.690  26.282  23.175  1.00  0.00    -0.167 NA
ATOM     11  N   UNL A   1      29.734  27.227  23.346  1.00  0.00    -0.262 N 
ATOM     12  C   UNL A   1      28.451  26.717  23.755  1.00  0.00     0.174 C 
BRANCH   8  13
ATOM     13  C   UNL A   1      33.047  26.319  22.505  1.00  0.00     0.272 C 
ATOM     14  N   UNL A   1      33.719  25.660  23.502  1.00  0.00    -0.344 N 
ATOM     15  H   UNL A   1      34.587  25.313  23.194  1.00  0.00     0.164 HD
ATOM     16  O   UNL A   1      33.606  26.408  21.407  1.00  0.00    -0.267 OA
BRANCH  14  17
ATOM     17  C   UNL A   1      33.468  25.344  24.912  1.00  0.00     0.109 C 
ATOM     18  C   UNL A   1      32.558  24.114  25.020  1.00  0.00     0.036 C 
BRANCH  17  19
ATOM     19  C   UNL A   1      33.118  26.475  25.858  1.00  0.00    -0.026 A 
ATOM     20  C   UNL A   1      31.835  26.527  26.430  1.00  0.00     0.006 A 
ATOM     21  C   UNL A   1      34.015  27.515  26.158  1.00  0.00     0.006 A 
ATOM     22  C   UNL A   1      31.469  27.576  27.277  1.00  0.00     0.000 A 
ATOM     23  C   UNL A   1      33.643  28.571  26.993  1.00  0.00     0.000 A 
ATOM     24  C   UNL A   1      32.370  28.600  27.555  1.00  0.00     0.000 A 
ENDBRANCH  17  19
ENDBRANCH  14  17
ENDBRANCH   8  13
ENDBRANCH   4   7
ENDBRANCH   2   3
ENDBRANCH   1   2
BRANCH   1  25
ATOM     25  C   UNL A   1      32.339  32.338  26.939  1.00  0.00     0.118 C 
BRANCH  25  26
ATOM     26  N   UNL A   1      32.368  33.737  27.335  1.00  0.00    -0.352 N 
ATOM     27  C   UNL A   1      33.109  34.382  28.294  1.00  0.00     0.251 C 
ATOM     28  H   UNL A   1      31.754  34.319  26.832  1.00  0.00     0.163 HD
ATOM     29  O   UNL A   1      32.767  35.509  28.646  1.00  0.00    -0.269 OA
BRANCH  27  30
ATOM     30  C   UNL A   1      34.306  33.755  28.905  1.00  0.00     0.039 A 
ATOM     31  C   UNL A   1      34.139  32.614  29.699  1.00  0.00     0.014 A 
ATOM     32  C   UNL A   1      35.572  34.331  28.783  1.00  0.00     0.014 A 
ATOM     33  C   UNL A   1      35.241  32.034  30.336  1.00  0.00     0.010 A 
ATOM     34  C   UNL A   1      36.681  33.709  29.354  1.00  0.00     0.010 A 
ATOM     35  C   UNL A   1      36.526  32.567  30.155  1.00  0.00    -0.014 A 
BRANCH  35  36
ATOM     36  C   UNL A   1      37.720  31.973  30.811  1.00  0.00     0.031 A 
ATOM     37  C   UNL A   1      38.529  30.921  30.095  1.00  0.00     0.074 A 
ATOM     38  C   UNL A   1      38.020  32.301  32.083  1.00  0.00     0.049 A 
ATOM     39  N   UNL A   1      39.529  30.204  30.537  1.00  0.00    -0.248 NA
ATOM     40  C   UNL A   1      38.139  30.612  28.709  1.00  0.00     0.031 C 
ATOM     41  C   UNL A   1      37.274  33.253  32.909  1.00  0.00     0.029 A 
ATOM     42  N   UNL A   1      39.011  31.845  32.916  1.00  0.00    -0.354 N 
ATOM     43  C   UNL A   1      39.856  29.330  29.507  1.00  0.00     0.074 A 
ATOM     44  C   UNL A   1      38.929  29.587  28.426  1.00  0.00     0.031 C 
ATOM     45  C   UNL A   1      37.829  33.305  34.131  1.00  0.00     0.029 A 
ATOM     46  C   UNL A   1      38.950  32.373  34.185  1.00  0.00     0.049 A 
ATOM     47  H   UNL A   1      39.700  31.201  32.632  1.00  0.00     0.167 HD
ATOM     48  C   UNL A   1      40.853  28.415  29.453  1.00  0.00     0.034 A 
ATOM     49  C   UNL A   1      39.707  32.126  35.273  1.00  0.00     0.034 A 
ATOM     50  C   UNL A   1      41.813  28.209  30.502  1.00  0.00     0.049 A 
ATOM     51  C   UNL A   1      40.850  31.152  35.165  1.00  0.00     0.074 A 
ATOM     52  C   UNL A   1      42.919  27.375  30.506  1.00  0.00     0.029 A 
ATOM     53  N   UNL A   1      41.786  28.844  31.734  1.00  0.00    -0.354 N 
ATOM     54  N   UNL A   1      41.233  30.443  34.131  1.00  0.00    -0.248 NA
ATOM     55  C   UNL A   1      41.685  30.970  36.361  1.00  0.00     0.031 C 
ATOM     56  C   UNL A   1      43.556  27.502  31.745  1.00  0.00     0.029 A 
ATOM     57  C   UNL A   1      42.855  28.424  32.507  1.00  0.00     0.049 A 
ATOM     58  H   UNL A   1      41.108  29.498  32.016  1.00  0.00     0.167 HD
ATOM     59  C   UNL A   1      42.374  29.760  34.538  1.00  0.00     0.074 A 
ATOM     60  C   UNL A   1      42.629  30.155  35.908  1.00  0.00     0.031 C 
ATOM     61  C   UNL A   1      43.130  28.873  33.847  1.00  0.00     0.034 A 
BRANCH  48  62
ATOM     62  C   UNL A   1      40.997  27.609  28.187  1.00  0.00     0.023 A 
ATOM     63  C   UNL A   1      41.616  28.193  27.061  1.00  0.00     0.012 A 
ATOM     64  C   UNL A   1      40.575  26.268  28.123  1.00  0.00     0.148 A 
ATOM     65  C   UNL A   1      41.780  27.467  25.883  1.00  0.00     0.002 A 
ATOM     66  C   UNL A   1      40.780  25.537  26.957  1.00  0.00     0.091 A 
ATOM     67  F   UNL A   1      39.969  25.734  29.193  1.00  0.00    -0.205 F 
ATOM     68  C   UNL A   1      41.372  26.137  25.834  1.00  0.00     0.022 A 
BRANCH  66  69
ATOM     69  S   UNL A   1      40.356  23.795  26.821  1.00  0.00     0.127 S 
ATOM     70  O   UNL A   1      38.928  23.863  26.513  1.00  0.00    -0.237 OA
ATOM     71  O   UNL A   1      41.200  23.357  25.707  1.00  0.00    -0.237 OA
ATOM     72  O   UNL A   1      40.695  23.201  28.105  1.00  0.00    -0.744 OA
ENDBRANCH  66  69
ENDBRANCH  48  62
BRANCH  49  73
ATOM     73  C   UNL A   1      39.454  32.873  36.537  1.00  0.00     0.023 A 
ATOM     74  C   UNL A   1      40.073  34.123  36.733  1.00  0.00     0.012 A 
ATOM     75  C   UNL A   1      38.576  32.380  37.522  1.00  0.00     0.148 A 
ATOM     76  C   UNL A   1      39.847  34.854  37.899  1.00  0.00     0.002 A 
ATOM     77  C   UNL A   1      38.314  33.139  38.657  1.00  0.00     0.091 A 
ATOM     78  F   UNL A   1      38.007  31.183  37.325  1.00  0.00    -0.205 F 
ATOM     79  C   UNL A   1      38.959  34.369  38.854  1.00  0.00     0.022 A 
BRANCH  77  80
ATOM     80  S   UNL A   1      37.079  32.652  39.868  1.00  0.00     0.127 S 
ATOM     81  O   UNL A   1      35.870  32.578  39.050  1.00  0.00    -0.237 OA
ATOM     82  O   UNL A   1      37.592  31.357  40.323  1.00  0.00    -0.237 OA
ATOM     83  O   UNL A   1      37.098  33.692  40.884  1.00  0.00    -0.744 OA
ENDBRANCH  77  80
ENDBRANCH  49  73
BRANCH  61  84
ATOM     84  C   UNL A   1      44.330  28.287  34.543  1.00  0.00     0.023 A 
ATOM     85  C   UNL A   1      45.540  29.007  34.570  1.00  0.00     0.012 A 
ATOM     86  C   UNL A   1      44.235  27.065  35.237  1.00  0.00     0.148 A 
ATOM     87  C   UNL A   1      46.647  28.507  35.256  1.00  0.00     0.002 A 
ATOM     88  C   UNL A   1      45.328  26.595  35.955  1.00  0.00     0.091 A 
ATOM     89  F   UNL A   1      43.081  26.384  35.181  1.00  0.00    -0.205 F 
ATOM     90  C   UNL A   1      46.537  27.308  35.958  1.00  0.00     0.022 A 
BRANCH  88  91
ATOM     91  S   UNL A   1      45.245  25.109  36.963  1.00  0.00     0.127 S 
ATOM     92  O   UNL A   1      46.655  24.875  37.265  1.00  0.00    -0.237 OA
ATOM     93  O   UNL A   1      44.441  25.548  38.103  1.00  0.00    -0.237 OA
ATOM     94  O   UNL A   1      44.604  24.099  36.130  1.00  0.00    -0.744 OA
ENDBRANCH  88  91
ENDBRANCH  61  84
ENDBRANCH  35  36
ENDBRANCH  27  30
ENDBRANCH  25  26
ENDBRANCH   1  25
TORSDOF 16
ENDMDL
MODEL 3
REMARK VINA RESULT:     -12.0      1.313      2.307
REMARK SMILES C[C@@H](NC(=O)c1cc(C(=O)NCCCNC(=O)c2ccc(-c3c4nc(c(-c5cccc(S(=O)(=O)[O-])c5F)c5ccc([nH]5)c(-c5cccc(S(=O)(=O)[O-])c5F)c5nc(c(-c6cccc(S(=O)(=O)[O-])c6F)c6ccc3[nH]6)C=C5)C=C4)cc2)n(C)n1)c1ccccc1
REMARK SMILES IDX 13 1 12 2 11 3 9 4 10 5 8 7 6 8 7 9 83 10 81 11 82 12 4 13
REMARK SMILES IDX 3 14 5 16 2 17 1 18 84 19 85 20 89 21 86 22 88 23 87 24
REMARK SMILES IDX 14 25 15 26 16 27 17 29 18 30 19 31 80 32 20 33 79 34 21 35
REMARK SMILES IDX 22 36 23 37 73 38 24 39 78 40 72 41 74 42 25 43 77 44 71 45
REMARK SMILES IDX 70 46 26 48 58 49 38 50 57 51 39 52 42 53 56 54 75 55 40 56
REMARK SMILES IDX 41 57 55 59 76 60 43 61 27 62 28 63 36 64 29 65 31 66 37 67
REMARK SMILES IDX 30 68 32 69 33 70 34 71 35 72 59 73 60 74 68 75 61 76 63 77
REMARK SMILES IDX 69 78 62 79 64 80 65 81 66 82 67 83 44 84 45 85 53 86 46 87
REMARK SMILES IDX 48 88 54 89 47 90 49 91 50 92 51 93 52 94
REMARK H PARENT 11 6 3 15 15 28 74 47 42 58
REMARK Flexibility Score: inf
ROOT
ATOM      1  C   UNL A   1      37.705  19.424  25.032  1.00  0.00     0.042 C 
ENDROOT
BRANCH   1   2
ATOM      2  C   UNL A   1      36.490  20.322  24.809  1.00  0.00     0.118 C 
BRANCH   2   3
ATOM      3  N   UNL A   1      36.757  21.705  25.121  1.00  0.00    -0.351 N 
ATOM      4  C   UNL A   1      35.989  22.728  25.599  1.00  0.00     0.269 C 
ATOM      5  O   UNL A   1      36.656  23.563  26.226  1.00  0.00    -0.268 OA
ATOM      6  H   UNL A   1      37.690  21.966  24.954  1.00  0.00     0.163 HD
BRANCH   4   7
ATOM      7  C   UNL A   1      34.565  22.931  25.402  1.00  0.00     0.126 A 
ATOM      8  C   UNL A   1      32.513  23.665  25.988  1.00  0.00     0.151 A 
ATOM      9  C   UNL A   1      33.708  23.116  26.489  1.00  0.00     0.069 A 
ATOM     10  N   UNL A   1      32.512  23.625  24.653  1.00  0.00    -0.167 NA
ATOM     11  N   UNL A   1      33.738  23.151  24.322  1.00  0.00    -0.262 N 
ATOM     12  C   UNL A   1      33.953  22.979  22.908  1.00  0.00     0.174 C 
BRANCH   8  13
ATOM     13  C   UNL A   1      31.390  24.168  26.763  1.00  0.00     0.272 C 
ATOM     14  N   UNL A   1      31.112  25.510  26.814  1.00  0.00    -0.344 N 
ATOM     15  H   UNL A   1      30.350  25.707  27.405  1.00  0.00     0.164 HD
ATOM     16  O   UNL A   1      30.694  23.419  27.456  1.00  0.00    -0.267 OA
BRANCH  14  17
ATOM     17  C   UNL A   1      31.665  26.725  26.207  1.00  0.00     0.109 C 
ATOM     18  C   UNL A   1      32.092  27.711  27.301  1.00  0.00     0.036 C 
BRANCH  17  19
ATOM     19  C   UNL A   1      30.929  27.353  25.041  1.00  0.00    -0.026 A 
ATOM     20  C   UNL A   1      31.252  28.662  24.643  1.00  0.00     0.006 A 
ATOM     21  C   UNL A   1      29.892  26.695  24.357  1.00  0.00     0.006 A 
ATOM     22  C   UNL A   1      30.568  29.283  23.595  1.00  0.00     0.000 A 
ATOM     23  C   UNL A   1      29.197  27.323  23.320  1.00  0.00     0.000 A 
ATOM     24  C   UNL A   1      29.538  28.616  22.937  1.00  0.00     0.000 A 
ENDBRANCH  17  19
ENDBRANCH  14  17
ENDBRANCH   8  13
ENDBRANCH   4   7
ENDBRANCH   2   3
ENDBRANCH   1   2
BRANCH   1  25
ATOM     25  C   UNL A   1      38.866  20.105  25.755  1.00  0.00     0.118 C 
BRANCH  25  26
ATOM     26  N   UNL A   1      39.989  19.206  25.966  1.00  0.00    -0.352 N 
ATOM     27  C   UNL A   1      41.328  19.465  26.119  1.00  0.00     0.251 C 
ATOM     28  H   UNL A   1      39.749  18.252  26.007  1.00  0.00     0.163 HD
ATOM     29  O   UNL A   1      42.126  18.537  26.004  1.00  0.00    -0.269 OA
BRANCH  27  30
ATOM     30  C   UNL A   1      41.828  20.827  26.422  1.00  0.00     0.039 A 
ATOM     31  C   UNL A   1      42.184  21.138  27.740  1.00  0.00     0.014 A 
ATOM     32  C   UNL A   1      41.857  21.826  25.447  1.00  0.00     0.014 A 
ATOM     33  C   UNL A   1      42.603  22.432  28.067  1.00  0.00     0.010 A 
ATOM     34  C   UNL A   1      42.348  23.093  25.757  1.00  0.00     0.010 A 
ATOM     35  C   UNL A   1      42.705  23.417  27.074  1.00  0.00    -0.014 A 
BRANCH  35  36
ATOM     36  C   UNL A   1      43.154  24.800  27.386  1.00  0.00     0.031 A 
ATOM     37  C   UNL A   1      42.201  25.776  28.027  1.00  0.00     0.074 A 
ATOM     38  C   UNL A   1      44.379  25.210  27.003  1.00  0.00     0.049 A 
ATOM     39  N   UNL A   1      42.362  27.050  28.273  1.00  0.00    -0.248 NA
ATOM     40  C   UNL A   1      40.878  25.256  28.414  1.00  0.00     0.031 C 
ATOM     41  C   UNL A   1      45.369  24.382  26.311  1.00  0.00     0.029 A 
ATOM     42  N   UNL A   1      44.988  26.435  27.111  1.00  0.00    -0.354 N 
ATOM     43  C   UNL A   1      41.153  27.494  28.794  1.00  0.00     0.074 A 
ATOM     44  C   UNL A   1      40.257  26.359  28.806  1.00  0.00     0.031 C 
ATOM     45  C   UNL A   1      46.458  25.124  26.050  1.00  0.00     0.029 A 
ATOM     46  C   UNL A   1      46.235  26.485  26.531  1.00  0.00     0.049 A 
ATOM     47  H   UNL A   1      44.572  27.206  27.561  1.00  0.00     0.167 HD
ATOM     48  C   UNL A   1      40.825  28.727  29.250  1.00  0.00     0.034 A 
ATOM     49  C   UNL A   1      47.096  27.512  26.393  1.00  0.00     0.034 A 
ATOM     50  C   UNL A   1      41.739  29.835  29.299  1.00  0.00     0.049 A 
ATOM     51  C   UNL A   1      46.732  28.855  26.966  1.00  0.00     0.074 A 
ATOM     52  C   UNL A   1      41.535  31.097  29.831  1.00  0.00     0.029 A 
ATOM     53  N   UNL A   1      43.033  29.815  28.803  1.00  0.00    -0.354 N 
ATOM     54  N   UNL A   1      45.637  29.215  27.591  1.00  0.00    -0.248 NA
ATOM     55  C   UNL A   1      47.735  29.923  26.848  1.00  0.00     0.031 C 
ATOM     56  C   UNL A   1      42.705  31.842  29.648  1.00  0.00     0.029 A 
ATOM     57  C   UNL A   1      43.641  31.040  29.015  1.00  0.00     0.049 A 
ATOM     58  H   UNL A   1      43.458  29.043  28.366  1.00  0.00     0.167 HD
ATOM     59  C   UNL A   1      45.833  30.538  27.972  1.00  0.00     0.074 A 
ATOM     60  C   UNL A   1      47.159  30.909  27.525  1.00  0.00     0.031 C 
ATOM     61  C   UNL A   1      44.985  31.374  28.618  1.00  0.00     0.034 A 
BRANCH  48  62
ATOM     62  C   UNL A   1      39.433  28.926  29.793  1.00  0.00     0.023 A 
ATOM     63  C   UNL A   1      39.149  28.547  31.122  1.00  0.00     0.012 A 
ATOM     64  C   UNL A   1      38.427  29.533  29.019  1.00  0.00     0.148 A 
ATOM     65  C   UNL A   1      37.876  28.737  31.658  1.00  0.00     0.002 A 
ATOM     66  C   UNL A   1      37.172  29.757  29.574  1.00  0.00     0.091 A 
ATOM     67  F   UNL A   1      38.707  29.867  27.751  1.00  0.00    -0.205 F 
ATOM     68  C   UNL A   1      36.891  29.350  30.889  1.00  0.00     0.022 A 
BRANCH  66  69
ATOM     69  S   UNL A   1      35.859  30.608  28.688  1.00  0.00     0.127 S 
ATOM     70  O   UNL A   1      35.133  29.488  28.091  1.00  0.00    -0.237 OA
ATOM     71  O   UNL A   1      35.146  31.289  29.769  1.00  0.00    -0.237 OA
ATOM     72  O   UNL A   1      36.525  31.497  27.748  1.00  0.00    -0.744 OA
ENDBRANCH  66  69
ENDBRANCH  48  62
BRANCH  49  73
ATOM     73  C   UNL A   1      48.421  27.287  25.748  1.00  0.00     0.023 A 
ATOM     74  C   UNL A   1      49.494  26.816  26.529  1.00  0.00     0.012 A 
ATOM     75  C   UNL A   1      48.614  27.493  24.369  1.00  0.00     0.148 A 
ATOM     76  C   UNL A   1      50.743  26.582  25.955  1.00  0.00     0.002 A 
ATOM     77  C   UNL A   1      49.847  27.206  23.793  1.00  0.00     0.091 A 
ATOM     78  F   UNL A   1      47.585  27.955  23.644  1.00  0.00    -0.205 F 
ATOM     79  C   UNL A   1      50.916  26.765  24.586  1.00  0.00     0.022 A 
BRANCH  77  80
ATOM     80  S   UNL A   1      50.113  27.283  22.017  1.00  0.00     0.127 S 
ATOM     81  O   UNL A   1      51.478  26.771  21.898  1.00  0.00    -0.237 OA
ATOM     82  O   UNL A   1      49.075  26.381  21.513  1.00  0.00    -0.237 OA
ATOM     83  O   UNL A   1      49.922  28.677  21.654  1.00  0.00    -0.744 OA
ENDBRANCH  77  80
ENDBRANCH  49  73
BRANCH  61  84
ATOM     84  C   UNL A   1      45.469  32.769  28.915  1.00  0.00     0.023 A 
ATOM     85  C   UNL A   1      46.131  33.033  30.129  1.00  0.00     0.012 A 
ATOM     86  C   UNL A   1      45.343  33.795  27.957  1.00  0.00     0.148 A 
ATOM     87  C   UNL A   1      46.636  34.305  30.399  1.00  0.00     0.002 A 
ATOM     88  C   UNL A   1      45.888  35.047  28.214  1.00  0.00     0.091 A 
ATOM     89  F   UNL A   1      44.690  33.529  26.816  1.00  0.00    -0.205 F 
ATOM     90  C   UNL A   1      46.526  35.307  29.438  1.00  0.00     0.022 A 
BRANCH  88  91
ATOM     91  S   UNL A   1      45.873  36.367  26.995  1.00  0.00     0.127 S 
ATOM     92  O   UNL A   1      46.238  35.650  25.775  1.00  0.00    -0.237 OA
ATOM     93  O   UNL A   1      44.483  36.822  27.043  1.00  0.00    -0.237 OA
ATOM     94  O   UNL A   1      46.843  37.350  27.461  1.00  0.00    -0.744 OA
ENDBRANCH  88  91
ENDBRANCH  61  84
ENDBRANCH  35  36
ENDBRANCH  27  30
ENDBRANCH  25  26
ENDBRANCH   1  25
TORSDOF 16
ENDMDL
