MODEL 1
REMARK VINA RESULT:     -11.5      0.000      0.000
REMARK SMILES CC[C@@](C)(NC(=O)CCc1ccc(OC)c(Br)c1)C(=O)NCCCNC(=O)c1ccc(-c2c3nc(c(-c4cccc(S(=O)(=O)[O-])c4F)c4ccc([nH]4)c(-c4cccc(S(=O)(=O)[O-])c4F)c4nc(c(-c5cccc(S(=O)(=O)[O-])c5F)c5ccc2[nH]5)C=C4)C=C3)cc1
REMARK SMILES IDX 22 1 21 2 19 3 20 4 3 6 4 7 2 8 1 9 5 10 6 11 7 13 8 14 9 15
REMARK SMILES IDX 10 16 11 17 18 18 12 19 16 20 13 21 17 22 14 23 15 24 23 25
REMARK SMILES IDX 24 26 25 27 26 28 27 30 28 31 29 32 90 33 30 34 89 35 31 36
REMARK SMILES IDX 32 37 33 38 83 39 34 40 88 41 82 42 84 43 35 44 87 45 81 46
REMARK SMILES IDX 80 47 36 49 68 50 48 51 67 52 49 53 52 54 66 55 85 56 50 57
REMARK SMILES IDX 51 58 65 60 86 61 53 62 37 63 38 64 46 65 39 66 41 67 47 68
REMARK SMILES IDX 40 69 42 70 43 71 44 72 45 73 69 74 70 75 78 76 71 77 73 78
REMARK SMILES IDX 79 79 72 80 74 81 75 82 76 83 77 84 54 85 55 86 63 87 56 88
REMARK SMILES IDX 58 89 64 90 57 91 59 92 60 93 61 94 62 95
REMARK H PARENT 21 5 5 12 25 29 84 48 52 59
REMARK Flexibility Score: inf
ROOT
ATOM      1  C   UNL A   1      35.066  23.134  23.749  1.00  0.00     0.117 C 
ENDROOT
BRANCH   1   2
ATOM      2  N   UNL A   1      33.794  22.540  23.350  1.00  0.00    -0.354 N 
ATOM      3  C   UNL A   1      32.756  21.993  24.052  1.00  0.00     0.245 C 
ATOM      4  O   UNL A   1      31.759  21.709  23.387  1.00  0.00    -0.272 OA
ATOM      5  H   UNL A   1      33.656  22.532  22.375  1.00  0.00     0.163 HD
BRANCH   3   6
ATOM      6  C   UNL A   1      32.780  21.897  25.599  1.00  0.00     0.116 C 
ATOM      7  C   UNL A   1      33.530  20.575  25.881  1.00  0.00     0.045 C 
BRANCH   6   8
ATOM      8  C   UNL A   1      33.523  22.976  26.425  1.00  0.00     0.035 C 
ATOM      9  C   UNL A   1      34.175  22.565  27.724  1.00  0.00     0.007 C 
ENDBRANCH   6   8
BRANCH   6  10
ATOM     10  N   UNL A   1      31.391  21.960  26.095  1.00  0.00    -0.342 N 
ATOM     11  C   UNL A   1      30.708  23.136  26.366  1.00  0.00     0.221 C 
ATOM     12  H   UNL A   1      30.916  21.110  26.244  1.00  0.00     0.164 HD
ATOM     13  O   UNL A   1      30.011  23.161  27.383  1.00  0.00    -0.275 OA
BRANCH  11  14
ATOM     14  C   UNL A   1      30.715  24.331  25.393  1.00  0.00     0.105 C 
BRANCH  14  15
ATOM     15  C   UNL A   1      30.280  25.740  25.874  1.00  0.00     0.045 C 
BRANCH  15  16
ATOM     16  C   UNL A   1      31.313  26.859  25.936  1.00  0.00    -0.046 A 
ATOM     17  C   UNL A   1      31.632  27.464  27.163  1.00  0.00     0.007 A 
ATOM     18  C   UNL A   1      31.977  27.331  24.795  1.00  0.00     0.023 A 
ATOM     19  C   UNL A   1      32.693  28.378  27.266  1.00  0.00     0.048 A 
ATOM     20  C   UNL A   1      33.050  28.241  24.895  1.00  0.00     0.060 A 
ATOM     21  C   UNL A   1      33.454  28.718  26.145  1.00  0.00     0.133 A 
ATOM     22  Br  UNL A   1      33.907  28.781  23.286  1.00  0.00    -0.047 Br
BRANCH  21  23
ATOM     23  O   UNL A   1      34.503  29.573  26.364  1.00  0.00    -0.496 OA
ATOM     24  C   UNL A   1      35.287  29.262  27.521  1.00  0.00     0.278 C 
ENDBRANCH  21  23
ENDBRANCH  15  16
ENDBRANCH  14  15
ENDBRANCH  11  14
ENDBRANCH   6  10
ENDBRANCH   3   6
ENDBRANCH   1   2
BRANCH   1  25
ATOM     25  C   UNL A   1      36.180  22.125  23.977  1.00  0.00     0.042 C 
BRANCH  25  26
ATOM     26  C   UNL A   1      37.309  22.636  24.856  1.00  0.00     0.118 C 
BRANCH  26  27
ATOM     27  N   UNL A   1      37.977  21.570  25.589  1.00  0.00    -0.352 N 
ATOM     28  C   UNL A   1      39.116  21.588  26.347  1.00  0.00     0.251 C 
ATOM     29  H   UNL A   1      37.536  20.691  25.530  1.00  0.00     0.163 HD
ATOM     30  O   UNL A   1      39.629  20.519  26.680  1.00  0.00    -0.269 OA
BRANCH  28  31
ATOM     31  C   UNL A   1      39.738  22.864  26.751  1.00  0.00     0.039 A 
ATOM     32  C   UNL A   1      39.283  24.046  26.163  1.00  0.00     0.014 A 
ATOM     33  C   UNL A   1      40.794  22.903  27.666  1.00  0.00     0.014 A 
ATOM     34  C   UNL A   1      39.860  25.265  26.524  1.00  0.00     0.010 A 
ATOM     35  C   UNL A   1      41.296  24.127  28.101  1.00  0.00     0.010 A 
ATOM     36  C   UNL A   1      40.852  25.320  27.518  1.00  0.00    -0.014 A 
BRANCH  36  37
ATOM     37  C   UNL A   1      41.422  26.625  27.938  1.00  0.00     0.031 A 
ATOM     38  C   UNL A   1      42.852  26.983  27.624  1.00  0.00     0.074 A 
ATOM     39  C   UNL A   1      40.653  27.484  28.635  1.00  0.00     0.049 A 
ATOM     40  N   UNL A   1      43.489  28.102  27.855  1.00  0.00    -0.248 NA
ATOM     41  C   UNL A   1      43.683  25.945  26.991  1.00  0.00     0.031 C 
ATOM     42  C   UNL A   1      39.285  27.216  29.087  1.00  0.00     0.029 A 
ATOM     43  N   UNL A   1      40.909  28.752  29.091  1.00  0.00    -0.354 N 
ATOM     44  C   UNL A   1      44.793  27.897  27.421  1.00  0.00     0.074 A 
ATOM     45  C   UNL A   1      44.871  26.531  26.954  1.00  0.00     0.031 C 
ATOM     46  C   UNL A   1      38.813  28.297  29.728  1.00  0.00     0.029 A 
ATOM     47  C   UNL A   1      39.850  29.323  29.757  1.00  0.00     0.049 A 
ATOM     48  H   UNL A   1      41.770  29.210  28.954  1.00  0.00     0.167 HD
ATOM     49  C   UNL A   1      45.826  28.774  27.384  1.00  0.00     0.034 A 
ATOM     50  C   UNL A   1      39.725  30.540  30.322  1.00  0.00     0.034 A 
ATOM     51  C   UNL A   1      45.735  30.141  27.822  1.00  0.00     0.049 A 
ATOM     52  C   UNL A   1      40.867  31.511  30.217  1.00  0.00     0.074 A 
ATOM     53  C   UNL A   1      46.696  31.134  27.750  1.00  0.00     0.029 A 
ATOM     54  N   UNL A   1      44.623  30.707  28.427  1.00  0.00    -0.354 N 
ATOM     55  N   UNL A   1      42.038  31.353  29.649  1.00  0.00    -0.248 NA
ATOM     56  C   UNL A   1      40.654  32.847  30.793  1.00  0.00     0.031 C 
ATOM     57  C   UNL A   1      46.177  32.291  28.341  1.00  0.00     0.029 A 
ATOM     58  C   UNL A   1      44.877  32.031  28.743  1.00  0.00     0.049 A 
ATOM     59  H   UNL A   1      43.777  30.235  28.605  1.00  0.00     0.167 HD
ATOM     60  C   UNL A   1      42.687  32.577  29.767  1.00  0.00     0.074 A 
ATOM     61  C   UNL A   1      41.766  33.474  30.433  1.00  0.00     0.031 C 
ATOM     62  C   UNL A   1      43.937  32.924  29.370  1.00  0.00     0.034 A 
BRANCH  49  63
ATOM     63  C   UNL A   1      47.133  28.294  26.806  1.00  0.00     0.023 A 
ATOM     64  C   UNL A   1      48.200  27.965  27.669  1.00  0.00     0.012 A 
ATOM     65  C   UNL A   1      47.290  28.110  25.418  1.00  0.00     0.148 A 
ATOM     66  C   UNL A   1      49.413  27.499  27.160  1.00  0.00     0.002 A 
ATOM     67  C   UNL A   1      48.483  27.599  24.921  1.00  0.00     0.091 A 
ATOM     68  F   UNL A   1      46.274  28.445  24.610  1.00  0.00    -0.205 F 
ATOM     69  C   UNL A   1      49.550  27.306  25.788  1.00  0.00     0.022 A 
BRANCH  67  70
ATOM     70  S   UNL A   1      48.734  27.233  23.180  1.00  0.00     0.127 S 
ATOM     71  O   UNL A   1      48.169  25.888  23.077  1.00  0.00    -0.237 OA
ATOM     72  O   UNL A   1      47.942  28.279  22.530  1.00  0.00    -0.237 OA
ATOM     73  O   UNL A   1      50.170  27.326  22.952  1.00  0.00    -0.744 OA
ENDBRANCH  67  70
ENDBRANCH  49  63
BRANCH  50  74
ATOM     74  C   UNL A   1      38.442  30.931  30.972  1.00  0.00     0.023 A 
ATOM     75  C   UNL A   1      38.238  30.649  32.337  1.00  0.00     0.012 A 
ATOM     76  C   UNL A   1      37.435  31.601  30.250  1.00  0.00     0.148 A 
ATOM     77  C   UNL A   1      37.037  30.989  32.961  1.00  0.00     0.002 A 
ATOM     78  C   UNL A   1      36.266  31.990  30.893  1.00  0.00     0.091 A 
ATOM     79  F   UNL A   1      37.647  31.854  28.952  1.00  0.00    -0.205 F 
ATOM     80  C   UNL A   1      36.056  31.668  32.243  1.00  0.00     0.022 A 
BRANCH  78  81
ATOM     81  S   UNL A   1      35.011  32.987  30.085  1.00  0.00     0.127 S 
ATOM     82  O   UNL A   1      34.076  33.235  31.181  1.00  0.00    -0.237 OA
ATOM     83  O   UNL A   1      35.783  34.154  29.658  1.00  0.00    -0.237 OA
ATOM     84  O   UNL A   1      34.502  32.171  28.992  1.00  0.00    -0.744 OA
ENDBRANCH  78  81
ENDBRANCH  50  74
BRANCH  62  85
ATOM     85  C   UNL A   1      44.369  34.348  29.613  1.00  0.00     0.023 A 
ATOM     86  C   UNL A   1      45.033  34.692  30.808  1.00  0.00     0.012 A 
ATOM     87  C   UNL A   1      44.147  35.340  28.638  1.00  0.00     0.148 A 
ATOM     88  C   UNL A   1      45.421  36.010  31.050  1.00  0.00     0.002 A 
ATOM     89  C   UNL A   1      44.587  36.639  28.862  1.00  0.00     0.091 A 
ATOM     90  F   UNL A   1      43.499  35.001  27.513  1.00  0.00    -0.205 F 
ATOM     91  C   UNL A   1      45.207  36.980  30.074  1.00  0.00     0.022 A 
BRANCH  89  92
ATOM     92  S   UNL A   1      44.445  37.928  27.619  1.00  0.00     0.127 S 
ATOM     93  O   UNL A   1      43.142  37.628  27.028  1.00  0.00    -0.237 OA
ATOM     94  O   UNL A   1      44.482  39.147  28.429  1.00  0.00    -0.237 OA
ATOM     95  O   UNL A   1      45.589  37.758  26.734  1.00  0.00    -0.744 OA
ENDBRANCH  89  92
ENDBRANCH  62  85
ENDBRANCH  36  37
ENDBRANCH  28  31
ENDBRANCH  26  27
ENDBRANCH  25  26
ENDBRANCH   1  25
TORSDOF 19
ENDMDL
MODEL 2
REMARK VINA RESULT:     -11.3      1.472      2.124
REMARK SMILES CC[C@@](C)(NC(=O)CCc1ccc(OC)c(Br)c1)C(=O)NCCCNC(=O)c1ccc(-c2c3nc(c(-c4cccc(S(=O)(=O)[O-])c4F)c4ccc([nH]4)c(-c4cccc(S(=O)(=O)[O-])c4F)c4nc(c(-c5cccc(S(=O)(=O)[O-])c5F)c5ccc2[nH]5)C=C4)C=C3)cc1
REMARK SMILES IDX 22 1 21 2 19 3 20 4 3 6 4 7 2 8 1 9 5 10 6 11 7 13 8 14 9 15
REMARK SMILES IDX 10 16 11 17 18 18 12 19 16 20 13 21 17 22 14 23 15 24 23 25
REMARK SMILES IDX 24 26 25 27 26 28 27 30 28 31 29 32 90 33 30 34 89 35 31 36
REMARK SMILES IDX 32 37 33 38 83 39 34 40 88 41 82 42 84 43 35 44 87 45 81 46
REMARK SMILES IDX 80 47 36 49 68 50 48 51 67 52 49 53 52 54 66 55 85 56 50 57
REMARK SMILES IDX 51 58 65 60 86 61 53 62 37 63 38 64 46 65 39 66 41 67 47 68
REMARK SMILES IDX 40 69 42 70 43 71 44 72 45 73 69 74 70 75 78 76 71 77 73 78
REMARK SMILES IDX 79 79 72 80 74 81 75 82 76 83 77 84 54 85 55 86 63 87 56 88
REMARK SMILES IDX 58 89 64 90 57 91 59 92 60 93 61 94 62 95
REMARK H PARENT 21 5 5 12 25 29 84 48 52 59
REMARK Flexibility Score: inf
ROOT
ATOM      1  C   UNL A   1      33.430  22.791  27.521  1.00  0.00     0.117 C 
ENDROOT
BRANCH   1   2
ATOM      2  N   UNL A   1      32.061  22.398  27.202  1.00  0.00    -0.354 N 
ATOM      3  C   UNL A   1      31.216  22.706  26.172  1.00  0.00     0.245 C 
ATOM      4  O   UNL A   1      30.160  22.073  26.147  1.00  0.00    -0.272 OA
ATOM      5  H   UNL A   1      31.666  21.786  27.864  1.00  0.00     0.163 HD
BRANCH   3   6
ATOM      6  C   UNL A   1      31.638  23.665  25.030  1.00  0.00     0.116 C 
ATOM      7  C   UNL A   1      32.631  24.638  25.705  1.00  0.00     0.045 C 
BRANCH   6   8
ATOM      8  C   UNL A   1      32.386  23.106  23.794  1.00  0.00     0.035 C 
ATOM      9  C   UNL A   1      32.604  21.615  23.698  1.00  0.00     0.007 C 
ENDBRANCH   6   8
BRANCH   6  10
ATOM     10  N   UNL A   1      30.424  24.285  24.464  1.00  0.00    -0.342 N 
ATOM     11  C   UNL A   1      30.414  25.462  23.729  1.00  0.00     0.221 C 
ATOM     12  H   UNL A   1      29.562  23.834  24.617  1.00  0.00     0.164 HD
ATOM     13  O   UNL A   1      29.502  26.259  23.955  1.00  0.00    -0.275 OA
BRANCH  11  14
ATOM     14  C   UNL A   1      31.423  25.728  22.594  1.00  0.00     0.105 C 
BRANCH  14  15
ATOM     15  C   UNL A   1      32.646  26.652  22.831  1.00  0.00     0.045 C 
BRANCH  15  16
ATOM     16  C   UNL A   1      32.551  27.763  23.869  1.00  0.00    -0.046 A 
ATOM     17  C   UNL A   1      31.471  28.661  23.853  1.00  0.00     0.007 A 
ATOM     18  C   UNL A   1      33.520  27.942  24.868  1.00  0.00     0.023 A 
ATOM     19  C   UNL A   1      31.280  29.585  24.894  1.00  0.00     0.048 A 
ATOM     20  C   UNL A   1      33.327  28.861  25.920  1.00  0.00     0.060 A 
ATOM     21  C   UNL A   1      32.169  29.641  25.970  1.00  0.00     0.133 A 
ATOM     22  Br  UNL A   1      34.686  28.991  27.244  1.00  0.00    -0.047 Br
BRANCH  21  23
ATOM     23  O   UNL A   1      31.861  30.537  26.961  1.00  0.00    -0.496 OA
ATOM     24  C   UNL A   1      31.405  31.808  26.487  1.00  0.00     0.278 C 
ENDBRANCH  21  23
ENDBRANCH  15  16
ENDBRANCH  14  15
ENDBRANCH  11  14
ENDBRANCH   6  10
ENDBRANCH   3   6
ENDBRANCH   1   2
BRANCH   1  25
ATOM     25  C   UNL A   1      34.475  21.740  27.183  1.00  0.00     0.042 C 
BRANCH  25  26
ATOM     26  C   UNL A   1      35.592  22.243  26.284  1.00  0.00     0.118 C 
BRANCH  26  27
ATOM     27  N   UNL A   1      36.538  21.197  25.924  1.00  0.00    -0.352 N 
ATOM     28  C   UNL A   1      37.892  21.247  25.735  1.00  0.00     0.251 C 
ATOM     29  H   UNL A   1      36.137  20.307  25.794  1.00  0.00     0.163 HD
ATOM     30  O   UNL A   1      38.458  20.292  25.201  1.00  0.00    -0.269 OA
BRANCH  28  31
ATOM     31  C   UNL A   1      38.672  22.431  26.148  1.00  0.00     0.039 A 
ATOM     32  C   UNL A   1      38.224  23.696  25.762  1.00  0.00     0.014 A 
ATOM     33  C   UNL A   1      39.863  22.304  26.869  1.00  0.00     0.014 A 
ATOM     34  C   UNL A   1      38.948  24.829  26.134  1.00  0.00     0.010 A 
ATOM     35  C   UNL A   1      40.526  23.439  27.326  1.00  0.00     0.010 A 
ATOM     36  C   UNL A   1      40.091  24.714  26.945  1.00  0.00    -0.014 A 
BRANCH  36  37
ATOM     37  C   UNL A   1      40.825  25.927  27.385  1.00  0.00     0.031 A 
ATOM     38  C   UNL A   1      42.250  26.167  26.960  1.00  0.00     0.074 A 
ATOM     39  C   UNL A   1      40.210  26.808  28.200  1.00  0.00     0.049 A 
ATOM     40  N   UNL A   1      43.015  27.202  27.194  1.00  0.00    -0.248 NA
ATOM     41  C   UNL A   1      42.913  25.099  26.192  1.00  0.00     0.031 C 
ATOM     42  C   UNL A   1      38.867  26.642  28.761  1.00  0.00     0.029 A 
ATOM     43  N   UNL A   1      40.633  28.012  28.702  1.00  0.00    -0.354 N 
ATOM     44  C   UNL A   1      44.249  26.903  26.629  1.00  0.00     0.074 A 
ATOM     45  C   UNL A   1      44.147  25.570  26.079  1.00  0.00     0.031 C 
ATOM     46  C   UNL A   1      38.565  27.718  29.506  1.00  0.00     0.029 A 
ATOM     47  C   UNL A   1      39.700  28.636  29.497  1.00  0.00     0.049 A 
ATOM     48  H   UNL A   1      41.520  28.393  28.512  1.00  0.00     0.167 HD
ATOM     49  C   UNL A   1      45.358  27.677  26.546  1.00  0.00     0.034 A 
ATOM     50  C   UNL A   1      39.748  29.818  30.141  1.00  0.00     0.034 A 
ATOM     51  C   UNL A   1      45.445  29.014  27.069  1.00  0.00     0.049 A 
ATOM     52  C   UNL A   1      40.969  30.681  29.986  1.00  0.00     0.074 A 
ATOM     53  C   UNL A   1      46.492  29.913  26.965  1.00  0.00     0.029 A 
ATOM     54  N   UNL A   1      44.454  29.642  27.808  1.00  0.00    -0.354 N 
ATOM     55  N   UNL A   1      42.064  30.450  29.302  1.00  0.00    -0.248 NA
ATOM     56  C   UNL A   1      40.944  31.989  30.655  1.00  0.00     0.031 C 
ATOM     57  C   UNL A   1      46.146  31.072  27.668  1.00  0.00     0.029 A 
ATOM     58  C   UNL A   1      44.867  30.912  28.175  1.00  0.00     0.049 A 
ATOM     59  H   UNL A   1      43.583  29.243  28.037  1.00  0.00     0.167 HD
ATOM     60  C   UNL A   1      42.842  31.595  29.429  1.00  0.00     0.074 A 
ATOM     61  C   UNL A   1      42.078  32.529  30.230  1.00  0.00     0.031 C 
ATOM     62  C   UNL A   1      44.081  31.847  28.938  1.00  0.00     0.034 A 
BRANCH  49  63
ATOM     63  C   UNL A   1      46.554  27.113  25.821  1.00  0.00     0.023 A 
ATOM     64  C   UNL A   1      47.294  26.062  26.405  1.00  0.00     0.012 A 
ATOM     65  C   UNL A   1      46.914  27.579  24.541  1.00  0.00     0.148 A 
ATOM     66  C   UNL A   1      48.392  25.510  25.745  1.00  0.00     0.002 A 
ATOM     67  C   UNL A   1      47.978  26.991  23.868  1.00  0.00     0.091 A 
ATOM     68  F   UNL A   1      46.213  28.591  24.009  1.00  0.00    -0.205 F 
ATOM     69  C   UNL A   1      48.727  25.967  24.473  1.00  0.00     0.022 A 
BRANCH  67  70
ATOM     70  S   UNL A   1      48.440  27.447  22.193  1.00  0.00     0.127 S 
ATOM     71  O   UNL A   1      49.660  28.219  22.423  1.00  0.00    -0.237 OA
ATOM     72  O   UNL A   1      48.653  26.141  21.568  1.00  0.00    -0.237 OA
ATOM     73  O   UNL A   1      47.316  28.202  21.657  1.00  0.00    -0.744 OA
ENDBRANCH  67  70
ENDBRANCH  49  63
BRANCH  50  74
ATOM     74  C   UNL A   1      38.573  30.286  30.929  1.00  0.00     0.023 A 
ATOM     75  C   UNL A   1      38.487  29.977  32.301  1.00  0.00     0.012 A 
ATOM     76  C   UNL A   1      37.555  31.054  30.332  1.00  0.00     0.148 A 
ATOM     77  C   UNL A   1      37.387  30.388  33.054  1.00  0.00     0.002 A 
ATOM     78  C   UNL A   1      36.492  31.511  31.103  1.00  0.00     0.091 A 
ATOM     79  F   UNL A   1      37.653  31.332  29.026  1.00  0.00    -0.205 F 
ATOM     80  C   UNL A   1      36.396  31.163  32.459  1.00  0.00     0.022 A 
BRANCH  78  81
ATOM     81  S   UNL A   1      35.245  32.628  30.453  1.00  0.00     0.127 S 
ATOM     82  O   UNL A   1      34.342  32.763  31.594  1.00  0.00    -0.237 OA
ATOM     83  O   UNL A   1      36.037  33.819  30.149  1.00  0.00    -0.237 OA
ATOM     84  O   UNL A   1      34.690  31.961  29.283  1.00  0.00    -0.744 OA
ENDBRANCH  78  81
ENDBRANCH  50  74
BRANCH  62  85
ATOM     85  C   UNL A   1      44.674  33.204  29.221  1.00  0.00     0.023 A 
ATOM     86  C   UNL A   1      45.355  33.438  30.433  1.00  0.00     0.012 A 
ATOM     87  C   UNL A   1      44.588  34.237  28.268  1.00  0.00     0.148 A 
ATOM     88  C   UNL A   1      45.893  34.695  30.713  1.00  0.00     0.002 A 
ATOM     89  C   UNL A   1      45.174  35.469  28.530  1.00  0.00     0.091 A 
ATOM     90  F   UNL A   1      43.922  34.003  27.128  1.00  0.00    -0.205 F 
ATOM     91  C   UNL A   1      45.812  35.706  29.759  1.00  0.00     0.022 A 
BRANCH  89  92
ATOM     92  S   UNL A   1      45.206  36.793  27.318  1.00  0.00     0.127 S 
ATOM     93  O   UNL A   1      45.869  36.146  26.188  1.00  0.00    -0.237 OA
ATOM     94  O   UNL A   1      43.782  37.065  27.116  1.00  0.00    -0.237 OA
ATOM     95  O   UNL A   1      45.945  37.885  27.938  1.00  0.00    -0.744 OA
ENDBRANCH  89  92
ENDBRANCH  62  85
ENDBRANCH  36  37
ENDBRANCH  28  31
ENDBRANCH  26  27
ENDBRANCH  25  26
ENDBRANCH   1  25
TORSDOF 19
ENDMDL
MODEL 3
REMARK VINA RESULT:     -11.3      5.461     10.600
REMARK SMILES CC[C@@](C)(NC(=O)CCc1ccc(OC)c(Br)c1)C(=O)NCCCNC(=O)c1ccc(-c2c3nc(c(-c4cccc(S(=O)(=O)[O-])c4F)c4ccc([nH]4)c(-c4cccc(S(=O)(=O)[O-])c4F)c4nc(c(-c5cccc(S(=O)(=O)[O-])c5F)c5ccc2[nH]5)C=C4)C=C3)cc1
REMARK SMILES IDX 22 1 21 2 19 3 20 4 3 6 4 7 2 8 1 9 5 10 6 11 7 13 8 14 9 15
REMARK SMILES IDX 10 16 11 17 18 18 12 19 16 20 13 21 17 22 14 23 15 24 23 25
REMARK SMILES IDX 24 26 25 27 26 28 27 30 28 31 29 32 90 33 30 34 89 35 31 36
REMARK SMILES IDX 32 37 33 38 83 39 34 40 88 41 82 42 84 43 35 44 87 45 81 46
REMARK SMILES IDX 80 47 36 49 68 50 48 51 67 52 49 53 52 54 66 55 85 56 50 57
REMARK SMILES IDX 51 58 65 60 86 61 53 62 37 63 38 64 46 65 39 66 41 67 47 68
REMARK SMILES IDX 40 69 42 70 43 71 44 72 45 73 69 74 70 75 78 76 71 77 73 78
REMARK SMILES IDX 79 79 72 80 74 81 75 82 76 83 77 84 54 85 55 86 63 87 56 88
REMARK SMILES IDX 58 89 64 90 57 91 59 92 60 93 61 94 62 95
REMARK H PARENT 21 5 5 12 25 29 84 48 52 59
REMARK Flexibility Score: inf
ROOT
ATOM      1  C   UNL A   1      31.433  30.099  25.726  1.00  0.00     0.117 C 
ENDROOT
BRANCH   1   2
ATOM      2  N   UNL A   1      32.561  29.766  24.861  1.00  0.00    -0.354 N 
ATOM      3  C   UNL A   1      32.664  29.084  23.680  1.00  0.00     0.245 C 
ATOM      4  O   UNL A   1      33.774  29.113  23.147  1.00  0.00    -0.272 OA
ATOM      5  H   UNL A   1      33.423  30.102  25.196  1.00  0.00     0.163 HD
BRANCH   3   6
ATOM      6  C   UNL A   1      31.425  28.460  22.988  1.00  0.00     0.116 C 
ATOM      7  C   UNL A   1      30.697  27.711  24.126  1.00  0.00     0.045 C 
BRANCH   6   8
ATOM      8  C   UNL A   1      30.354  29.382  22.353  1.00  0.00     0.035 C 
ATOM      9  C   UNL A   1      28.961  29.374  22.933  1.00  0.00     0.007 C 
ENDBRANCH   6   8
BRANCH   6  10
ATOM     10  N   UNL A   1      31.887  27.620  21.865  1.00  0.00    -0.342 N 
ATOM     11  C   UNL A   1      32.693  26.500  22.003  1.00  0.00     0.221 C 
ATOM     12  H   UNL A   1      31.603  27.872  20.955  1.00  0.00     0.164 HD
ATOM     13  O   UNL A   1      33.592  26.348  21.174  1.00  0.00    -0.275 OA
BRANCH  11  14
ATOM     14  C   UNL A   1      32.421  25.421  23.070  1.00  0.00     0.105 C 
BRANCH  14  15
ATOM     15  C   UNL A   1      32.400  23.920  22.682  1.00  0.00     0.045 C 
BRANCH  15  16
ATOM     16  C   UNL A   1      33.404  22.970  23.323  1.00  0.00    -0.046 A 
ATOM     17  C   UNL A   1      34.731  23.376  23.536  1.00  0.00     0.007 A 
ATOM     18  C   UNL A   1      33.058  21.670  23.720  1.00  0.00     0.023 A 
ATOM     19  C   UNL A   1      35.624  22.579  24.271  1.00  0.00     0.048 A 
ATOM     20  C   UNL A   1      33.948  20.870  24.467  1.00  0.00     0.060 A 
ATOM     21  C   UNL A   1      35.216  21.353  24.801  1.00  0.00     0.133 A 
ATOM     22  Br  UNL A   1      33.360  19.139  24.988  1.00  0.00    -0.047 Br
BRANCH  21  23
ATOM     23  O   UNL A   1      36.146  20.680  25.551  1.00  0.00    -0.496 OA
ATOM     24  C   UNL A   1      37.217  20.109  24.791  1.00  0.00     0.278 C 
ENDBRANCH  21  23
ENDBRANCH  15  16
ENDBRANCH  14  15
ENDBRANCH  11  14
ENDBRANCH   6  10
ENDBRANCH   3   6
ENDBRANCH   1   2
BRANCH   1  25
ATOM     25  C   UNL A   1      31.388  31.556  26.156  1.00  0.00     0.042 C 
BRANCH  25  26
ATOM     26  C   UNL A   1      32.534  31.970  27.064  1.00  0.00     0.118 C 
BRANCH  26  27
ATOM     27  N   UNL A   1      32.482  33.378  27.429  1.00  0.00    -0.352 N 
ATOM     28  C   UNL A   1      33.233  34.096  28.319  1.00  0.00     0.251 C 
ATOM     29  H   UNL A   1      31.791  33.900  26.959  1.00  0.00     0.163 HD
ATOM     30  O   UNL A   1      32.859  35.224  28.644  1.00  0.00    -0.269 OA
BRANCH  28  31
ATOM     31  C   UNL A   1      34.468  33.532  28.898  1.00  0.00     0.039 A 
ATOM     32  C   UNL A   1      34.357  32.549  29.884  1.00  0.00     0.014 A 
ATOM     33  C   UNL A   1      35.731  33.993  28.515  1.00  0.00     0.014 A 
ATOM     34  C   UNL A   1      35.510  32.005  30.451  1.00  0.00     0.010 A 
ATOM     35  C   UNL A   1      36.878  33.377  29.006  1.00  0.00     0.010 A 
ATOM     36  C   UNL A   1      36.782  32.393  29.997  1.00  0.00    -0.014 A 
BRANCH  36  37
ATOM     37  C   UNL A   1      38.005  31.770  30.565  1.00  0.00     0.031 A 
ATOM     38  C   UNL A   1      38.551  32.211  31.898  1.00  0.00     0.074 A 
ATOM     39  C   UNL A   1      38.645  30.816  29.859  1.00  0.00     0.049 A 
ATOM     40  N   UNL A   1      39.564  31.729  32.571  1.00  0.00    -0.248 NA
ATOM     41  C   UNL A   1      37.893  33.355  32.551  1.00  0.00     0.031 C 
ATOM     42  C   UNL A   1      38.273  30.370  28.514  1.00  0.00     0.029 A 
ATOM     43  N   UNL A   1      39.743  30.055  30.168  1.00  0.00    -0.354 N 
ATOM     44  C   UNL A   1      39.680  32.520  33.708  1.00  0.00     0.074 A 
ATOM     45  C   UNL A   1      38.664  33.544  33.612  1.00  0.00     0.031 C 
ATOM     46  C   UNL A   1      39.109  29.394  28.127  1.00  0.00     0.029 A 
ATOM     47  C   UNL A   1      40.091  29.163  29.182  1.00  0.00     0.049 A 
ATOM     48  H   UNL A   1      40.235  30.140  31.017  1.00  0.00     0.167 HD
ATOM     49  C   UNL A   1      40.534  32.391  34.752  1.00  0.00     0.034 A 
ATOM     50  C   UNL A   1      41.085  28.255  29.134  1.00  0.00     0.034 A 
ATOM     51  C   UNL A   1      41.524  31.352  34.856  1.00  0.00     0.049 A 
ATOM     52  C   UNL A   1      41.982  28.095  30.329  1.00  0.00     0.074 A 
ATOM     53  C   UNL A   1      42.381  31.083  35.908  1.00  0.00     0.029 A 
ATOM     54  N   UNL A   1      41.802  30.421  33.867  1.00  0.00    -0.354 N 
ATOM     55  N   UNL A   1      41.966  28.744  31.468  1.00  0.00    -0.248 NA
ATOM     56  C   UNL A   1      43.008  27.046  30.250  1.00  0.00     0.031 C 
ATOM     57  C   UNL A   1      43.199  30.007  35.543  1.00  0.00     0.029 A 
ATOM     58  C   UNL A   1      42.823  29.581  34.280  1.00  0.00     0.049 A 
ATOM     59  H   UNL A   1      41.340  30.364  33.000  1.00  0.00     0.167 HD
ATOM     60  C   UNL A   1      42.952  28.159  32.254  1.00  0.00     0.074 A 
ATOM     61  C   UNL A   1      43.525  27.084  31.470  1.00  0.00     0.031 C 
ATOM     62  C   UNL A   1      43.357  28.489  33.506  1.00  0.00     0.034 A 
BRANCH  49  63
ATOM     63  C   UNL A   1      40.403  33.370  35.891  1.00  0.00     0.023 A 
ATOM     64  C   UNL A   1      40.918  34.677  35.752  1.00  0.00     0.012 A 
ATOM     65  C   UNL A   1      39.721  33.022  37.073  1.00  0.00     0.148 A 
ATOM     66  C   UNL A   1      40.791  35.607  36.784  1.00  0.00     0.002 A 
ATOM     67  C   UNL A   1      39.554  33.969  38.077  1.00  0.00     0.091 A 
ATOM     68  F   UNL A   1      39.254  31.771  37.197  1.00  0.00    -0.205 F 
ATOM     69  C   UNL A   1      40.100  35.257  37.940  1.00  0.00     0.022 A 
BRANCH  67  70
ATOM     70  S   UNL A   1      38.609  33.647  39.570  1.00  0.00     0.127 S 
ATOM     71  O   UNL A   1      37.285  33.353  39.024  1.00  0.00    -0.237 OA
ATOM     72  O   UNL A   1      39.308  32.490  40.131  1.00  0.00    -0.237 OA
ATOM     73  O   UNL A   1      38.698  34.860  40.372  1.00  0.00    -0.744 OA
ENDBRANCH  67  70
ENDBRANCH  49  63
BRANCH  50  74
ATOM     74  C   UNL A   1      41.235  27.376  27.939  1.00  0.00     0.023 A 
ATOM     75  C   UNL A   1      41.864  27.876  26.782  1.00  0.00     0.012 A 
ATOM     76  C   UNL A   1      40.778  26.045  27.953  1.00  0.00     0.148 A 
ATOM     77  C   UNL A   1      41.997  27.077  25.645  1.00  0.00     0.002 A 
ATOM     78  C   UNL A   1      40.969  25.236  26.838  1.00  0.00     0.091 A 
ATOM     79  F   UNL A   1      40.178  25.591  29.061  1.00  0.00    -0.205 F 
ATOM     80  C   UNL A   1      41.560  25.756  25.676  1.00  0.00     0.022 A 
BRANCH  78  81
ATOM     81  S   UNL A   1      40.563  23.487  26.838  1.00  0.00     0.127 S 
ATOM     82  O   UNL A   1      41.313  23.007  25.680  1.00  0.00    -0.237 OA
ATOM     83  O   UNL A   1      41.087  23.057  28.134  1.00  0.00    -0.237 OA
ATOM     84  O   UNL A   1      39.112  23.419  26.724  1.00  0.00    -0.744 OA
ENDBRANCH  78  81
ENDBRANCH  50  74
BRANCH  62  85
ATOM     85  C   UNL A   1      44.448  27.653  34.123  1.00  0.00     0.023 A 
ATOM     86  C   UNL A   1      45.799  28.025  33.966  1.00  0.00     0.012 A 
ATOM     87  C   UNL A   1      44.132  26.515  34.891  1.00  0.00     0.148 A 
ATOM     88  C   UNL A   1      46.818  27.248  34.518  1.00  0.00     0.002 A 
ATOM     89  C   UNL A   1      45.149  25.778  35.485  1.00  0.00     0.091 A 
ATOM     90  F   UNL A   1      42.843  26.164  35.017  1.00  0.00    -0.205 F 
ATOM     91  C   UNL A   1      46.493  26.132  35.285  1.00  0.00     0.022 A 
BRANCH  89  92
ATOM     92  S   UNL A   1      44.818  24.387  36.571  1.00  0.00     0.127 S 
ATOM     93  O   UNL A   1      44.124  23.467  35.672  1.00  0.00    -0.237 OA
ATOM     94  O   UNL A   1      46.165  23.965  36.957  1.00  0.00    -0.237 OA
ATOM     95  O   UNL A   1      44.017  24.917  37.666  1.00  0.00    -0.744 OA
ENDBRANCH  89  92
ENDBRANCH  62  85
ENDBRANCH  36  37
ENDBRANCH  28  31
ENDBRANCH  26  27
ENDBRANCH  25  26
ENDBRANCH   1  25
TORSDOF 19
ENDMDL
