MODEL 1
REMARK VINA RESULT:     -13.4      0.000      0.000
REMARK SMILES Cc1nn(C)c(C)c1CCC(=O)Nc1sccc1C(=O)NCCCNC(=O)c1ccc(-c2c3nc(c(-c4cccc(S(=O)(=O)[O-])c4F)c4ccc([nH]4)c(-c4cccc(S(=O)(=O)[O-])c4F)c4nc(c(-c5cccc(S(=O)(=O)[O-])c5F)c5ccc2[nH]5)C=C4)C=C3)cc1
REMARK SMILES IDX 22 1 21 2 19 3 20 4 18 6 14 7 15 8 16 9 17 10 13 11 11 12
REMARK SMILES IDX 12 13 10 15 9 16 8 17 1 18 2 19 3 20 4 21 6 22 5 23 7 24
REMARK SMILES IDX 23 25 24 26 25 27 26 28 27 30 28 31 29 32 90 33 30 34 89 35
REMARK SMILES IDX 31 36 32 37 33 38 83 39 34 40 88 41 82 42 84 43 35 44 87 45
REMARK SMILES IDX 81 46 80 47 36 49 68 50 48 51 67 52 49 53 52 54 66 55 85 56
REMARK SMILES IDX 50 57 51 58 65 60 86 61 53 62 37 63 38 64 46 65 39 66 41 67
REMARK SMILES IDX 47 68 40 69 42 70 43 71 44 72 45 73 69 74 70 75 78 76 71 77
REMARK SMILES IDX 73 78 79 79 72 80 74 81 75 82 76 83 77 84 54 85 55 86 63 87
REMARK SMILES IDX 56 88 58 89 64 90 57 91 59 92 60 93 61 94 62 95
REMARK H PARENT 21 5 13 14 25 29 84 48 52 59
REMARK Flexibility Score: inf
ROOT
ATOM      1  C   UNL A   1      32.329  28.007  27.355  1.00  0.00     0.118 C 
ENDROOT
BRANCH   1   2
ATOM      2  N   UNL A   1      31.450  26.890  26.924  1.00  0.00    -0.352 N 
ATOM      3  C   UNL A   1      30.523  26.548  25.683  1.00  0.00     0.254 C 
ATOM      4  O   UNL A   1      30.200  25.379  26.159  1.00  0.00    -0.269 OA
ATOM      5  H   UNL A   1      31.438  26.165  27.591  1.00  0.00     0.163 HD
BRANCH   3   6
ATOM      6  C   UNL A   1      29.931  27.679  23.924  1.00  0.00     0.074 A 
ATOM      7  C   UNL A   1      30.739  28.459  22.838  1.00  0.00     0.108 A 
ATOM      8  S   UNL A   1      29.886  29.754  22.099  1.00  0.00    -0.126 S 
ATOM      9  C   UNL A   1      28.388  29.100  22.436  1.00  0.00     0.068 A 
ATOM     10  C   UNL A   1      28.466  28.031  23.287  1.00  0.00     0.028 A 
BRANCH   7  11
ATOM     11  N   UNL A   1      32.080  28.655  22.451  1.00  0.00    -0.317 N 
ATOM     12  C   UNL A   1      33.258  28.122  22.888  1.00  0.00     0.225 C 
ATOM     13  O   UNL A   1      34.315  28.726  22.688  1.00  0.00    -0.275 OA
ATOM     14  H   UNL A   1      32.189  29.305  21.721  1.00  0.00     0.170 HD
BRANCH  12  15
ATOM     15  C   UNL A   1      33.286  26.729  23.434  1.00  0.00     0.105 C 
BRANCH  15  16
ATOM     16  C   UNL A   1      33.555  25.678  22.411  1.00  0.00     0.049 C 
BRANCH  16  17
ATOM     17  C   UNL A   1      33.691  24.297  22.961  1.00  0.00    -0.004 A 
ATOM     18  C   UNL A   1      30.619  23.818  23.227  1.00  0.00     0.069 C 
ATOM     19  C   UNL A   1      32.016  23.369  23.403  1.00  0.00     0.063 A 
ATOM     20  N   UNL A   1      32.386  21.820  24.077  1.00  0.00    -0.178 NA
ATOM     21  N   UNL A   1      34.231  21.595  24.118  1.00  0.00    -0.272 N 
ATOM     22  C   UNL A   1      35.078  23.104  23.429  1.00  0.00     0.038 A 
ATOM     23  C   UNL A   1      34.850  20.589  24.950  1.00  0.00     0.174 C 
ATOM     24  C   UNL A   1      36.577  23.035  23.487  1.00  0.00     0.066 C 
ENDBRANCH  16  17
ENDBRANCH  15  16
ENDBRANCH  12  15
ENDBRANCH   7  11
ENDBRANCH   3   6
ENDBRANCH   1   2
BRANCH   1  25
ATOM     25  C   UNL A   1      31.784  29.392  27.099  1.00  0.00     0.042 C 
BRANCH  25  26
ATOM     26  C   UNL A   1      32.883  30.278  26.589  1.00  0.00     0.118 C 
BRANCH  26  27
ATOM     27  N   UNL A   1      32.719  31.686  26.965  1.00  0.00    -0.352 N 
ATOM     28  C   UNL A   1      33.621  32.495  27.624  1.00  0.00     0.251 C 
ATOM     29  H   UNL A   1      31.863  32.104  26.720  1.00  0.00     0.163 HD
ATOM     30  O   UNL A   1      33.326  33.635  27.961  1.00  0.00    -0.269 OA
BRANCH  28  31
ATOM     31  C   UNL A   1      34.936  31.917  27.962  1.00  0.00     0.039 A 
ATOM     32  C   UNL A   1      36.045  32.754  28.064  1.00  0.00     0.014 A 
ATOM     33  C   UNL A   1      35.008  30.583  28.360  1.00  0.00     0.014 A 
ATOM     34  C   UNL A   1      37.208  32.258  28.652  1.00  0.00     0.010 A 
ATOM     35  C   UNL A   1      36.080  30.171  29.128  1.00  0.00     0.010 A 
ATOM     36  C   UNL A   1      37.213  30.983  29.239  1.00  0.00    -0.014 A 
BRANCH  36  37
ATOM     37  C   UNL A   1      38.409  30.443  29.925  1.00  0.00     0.031 A 
ATOM     38  C   UNL A   1      38.721  30.902  31.327  1.00  0.00     0.074 A 
ATOM     39  C   UNL A   1      39.227  29.585  29.283  1.00  0.00     0.049 A 
ATOM     40  N   UNL A   1      39.730  30.580  32.091  1.00  0.00    -0.248 NA
ATOM     41  C   UNL A   1      37.798  31.875  31.946  1.00  0.00     0.031 C 
ATOM     42  C   UNL A   1      39.067  29.127  27.900  1.00  0.00     0.029 A 
ATOM     43  N   UNL A   1      40.363  28.949  29.710  1.00  0.00    -0.354 N 
ATOM     44  C   UNL A   1      39.570  31.318  33.255  1.00  0.00     0.074 A 
ATOM     45  C   UNL A   1      38.418  32.166  33.076  1.00  0.00     0.031 C 
ATOM     46  C   UNL A   1      40.041  28.250  27.609  1.00  0.00     0.029 A 
ATOM     47  C   UNL A   1      40.929  28.131  28.759  1.00  0.00     0.049 A 
ATOM     48  H   UNL A   1      40.739  29.065  30.613  1.00  0.00     0.167 HD
ATOM     49  C   UNL A   1      40.288  31.263  34.399  1.00  0.00     0.034 A 
ATOM     50  C   UNL A   1      42.048  27.384  28.809  1.00  0.00     0.034 A 
ATOM     51  C   UNL A   1      41.419  30.403  34.584  1.00  0.00     0.049 A 
ATOM     52  C   UNL A   1      42.850  27.372  30.084  1.00  0.00     0.074 A 
ATOM     53  C   UNL A   1      42.192  30.235  35.716  1.00  0.00     0.029 A 
ATOM     54  N   UNL A   1      41.947  29.574  33.606  1.00  0.00    -0.354 N 
ATOM     55  N   UNL A   1      42.612  27.989  31.217  1.00  0.00    -0.248 NA
ATOM     56  C   UNL A   1      44.059  26.538  30.099  1.00  0.00     0.031 C 
ATOM     57  C   UNL A   1      43.222  29.345  35.408  1.00  0.00     0.029 A 
ATOM     58  C   UNL A   1      43.047  28.905  34.105  1.00  0.00     0.049 A 
ATOM     59  H   UNL A   1      41.591  29.478  32.694  1.00  0.00     0.167 HD
ATOM     60  C   UNL A   1      43.610  27.576  32.091  1.00  0.00     0.074 A 
ATOM     61  C   UNL A   1      44.441  26.640  31.364  1.00  0.00     0.031 C 
ATOM     62  C   UNL A   1      43.828  27.940  33.378  1.00  0.00     0.034 A 
BRANCH  49  63
ATOM     63  C   UNL A   1      39.846  32.127  35.549  1.00  0.00     0.023 A 
ATOM     64  C   UNL A   1      40.321  33.451  35.655  1.00  0.00     0.012 A 
ATOM     65  C   UNL A   1      38.915  31.648  36.488  1.00  0.00     0.148 A 
ATOM     66  C   UNL A   1      39.896  34.276  36.695  1.00  0.00     0.002 A 
ATOM     67  C   UNL A   1      38.456  32.492  37.490  1.00  0.00     0.091 A 
ATOM     68  F   UNL A   1      38.494  30.380  36.380  1.00  0.00    -0.205 F 
ATOM     69  C   UNL A   1      38.953  33.801  37.602  1.00  0.00     0.022 A 
BRANCH  67  70
ATOM     70  S   UNL A   1      37.188  32.003  38.663  1.00  0.00     0.127 S 
ATOM     71  O   UNL A   1      37.771  32.446  39.928  1.00  0.00    -0.237 OA
ATOM     72  O   UNL A   1      36.039  32.789  38.212  1.00  0.00    -0.237 OA
ATOM     73  O   UNL A   1      37.039  30.562  38.523  1.00  0.00    -0.744 OA
ENDBRANCH  67  70
ENDBRANCH  49  63
BRANCH  50  74
ATOM     74  C   UNL A   1      42.483  26.571  27.636  1.00  0.00     0.023 A 
ATOM     75  C   UNL A   1      43.206  27.180  26.590  1.00  0.00     0.012 A 
ATOM     76  C   UNL A   1      42.136  25.212  27.527  1.00  0.00     0.148 A 
ATOM     77  C   UNL A   1      43.513  26.467  25.430  1.00  0.00     0.002 A 
ATOM     78  C   UNL A   1      42.499  24.491  26.398  1.00  0.00     0.091 A 
ATOM     79  F   UNL A   1      41.449  24.649  28.532  1.00  0.00    -0.205 F 
ATOM     80  C   UNL A   1      43.163  25.124  25.335  1.00  0.00     0.022 A 
BRANCH  78  81
ATOM     81  S   UNL A   1      42.191  22.730  26.240  1.00  0.00     0.127 S 
ATOM     82  O   UNL A   1      42.698  22.457  24.898  1.00  0.00    -0.237 OA
ATOM     83  O   UNL A   1      43.002  22.185  27.329  1.00  0.00    -0.237 OA
ATOM     84  O   UNL A   1      40.755  22.561  26.417  1.00  0.00    -0.744 OA
ENDBRANCH  78  81
ENDBRANCH  50  74
BRANCH  62  85
ATOM     85  C   UNL A   1      44.958  27.271  34.112  1.00  0.00     0.023 A 
ATOM     86  C   UNL A   1      46.240  27.855  34.140  1.00  0.00     0.012 A 
ATOM     87  C   UNL A   1      44.721  26.083  34.831  1.00  0.00     0.148 A 
ATOM     88  C   UNL A   1      47.281  27.238  34.833  1.00  0.00     0.002 A 
ATOM     89  C   UNL A   1      45.744  25.509  35.569  1.00  0.00     0.091 A 
ATOM     90  F   UNL A   1      43.495  25.541  34.783  1.00  0.00    -0.205 F 
ATOM     91  C   UNL A   1      47.030  26.074  35.557  1.00  0.00     0.022 A 
BRANCH  89  92
ATOM     92  S   UNL A   1      45.492  24.068  36.609  1.00  0.00     0.127 S 
ATOM     93  O   UNL A   1      46.829  23.869  37.168  1.00  0.00    -0.237 OA
ATOM     94  O   UNL A   1      44.496  24.552  37.565  1.00  0.00    -0.237 OA
ATOM     95  O   UNL A   1      45.026  23.007  35.728  1.00  0.00    -0.744 OA
ENDBRANCH  89  92
ENDBRANCH  62  85
ENDBRANCH  36  37
ENDBRANCH  28  31
ENDBRANCH  26  27
ENDBRANCH  25  26
ENDBRANCH   1  25
TORSDOF 17
ENDMDL
MODEL 2
REMARK VINA RESULT:     -12.6      1.460      3.127
REMARK SMILES Cc1nn(C)c(C)c1CCC(=O)Nc1sccc1C(=O)NCCCNC(=O)c1ccc(-c2c3nc(c(-c4cccc(S(=O)(=O)[O-])c4F)c4ccc([nH]4)c(-c4cccc(S(=O)(=O)[O-])c4F)c4nc(c(-c5cccc(S(=O)(=O)[O-])c5F)c5ccc2[nH]5)C=C4)C=C3)cc1
REMARK SMILES IDX 22 1 21 2 19 3 20 4 18 6 14 7 15 8 16 9 17 10 13 11 11 12
REMARK SMILES IDX 12 13 10 15 9 16 8 17 1 18 2 19 3 20 4 21 6 22 5 23 7 24
REMARK SMILES IDX 23 25 24 26 25 27 26 28 27 30 28 31 29 32 90 33 30 34 89 35
REMARK SMILES IDX 31 36 32 37 33 38 83 39 34 40 88 41 82 42 84 43 35 44 87 45
REMARK SMILES IDX 81 46 80 47 36 49 68 50 48 51 67 52 49 53 52 54 66 55 85 56
REMARK SMILES IDX 50 57 51 58 65 60 86 61 53 62 37 63 38 64 46 65 39 66 41 67
REMARK SMILES IDX 47 68 40 69 42 70 43 71 44 72 45 73 69 74 70 75 78 76 71 77
REMARK SMILES IDX 73 78 79 79 72 80 74 81 75 82 76 83 77 84 54 85 55 86 63 87
REMARK SMILES IDX 56 88 58 89 64 90 57 91 59 92 60 93 61 94 62 95
REMARK H PARENT 21 5 13 14 25 29 84 48 52 59
REMARK Flexibility Score: inf
ROOT
ATOM      1  C   UNL A   1      31.836  28.163  26.658  1.00  0.00     0.118 C 
ENDROOT
BRANCH   1   2
ATOM      2  N   UNL A   1      32.753  28.016  25.499  1.00  0.00    -0.352 N 
ATOM      3  C   UNL A   1      33.646  26.873  24.856  1.00  0.00     0.254 C 
ATOM      4  O   UNL A   1      34.046  27.640  23.882  1.00  0.00    -0.269 OA
ATOM      5  H   UNL A   1      32.828  28.858  24.992  1.00  0.00     0.163 HD
BRANCH   3   6
ATOM      6  C   UNL A   1      34.110  24.839  25.467  1.00  0.00     0.074 A 
ATOM      7  C   UNL A   1      33.379  23.812  26.391  1.00  0.00     0.108 A 
ATOM      8  S   UNL A   1      34.411  22.668  27.150  1.00  0.00    -0.126 S 
ATOM      9  C   UNL A   1      35.599  22.808  25.986  1.00  0.00     0.068 A 
ATOM     10  C   UNL A   1      35.371  23.854  25.132  1.00  0.00     0.028 A 
BRANCH   7  11
ATOM     11  N   UNL A   1      32.150  23.683  27.069  1.00  0.00    -0.317 N 
ATOM     12  C   UNL A   1      30.901  23.314  26.661  1.00  0.00     0.225 C 
ATOM     13  O   UNL A   1      29.916  23.657  27.321  1.00  0.00    -0.275 OA
ATOM     14  H   UNL A   1      32.204  23.901  28.026  1.00  0.00     0.170 HD
BRANCH  12  15
ATOM     15  C   UNL A   1      30.744  22.344  25.533  1.00  0.00     0.105 C 
BRANCH  15  16
ATOM     16  C   UNL A   1      31.620  22.626  24.359  1.00  0.00     0.049 C 
BRANCH  16  17
ATOM     17  C   UNL A   1      31.374  23.944  23.703  1.00  0.00    -0.004 A 
ATOM     18  C   UNL A   1      33.586  23.572  21.534  1.00  0.00     0.069 C 
ATOM     19  C   UNL A   1      32.529  24.382  22.174  1.00  0.00     0.063 A 
ATOM     20  N   UNL A   1      32.131  25.963  21.597  1.00  0.00    -0.178 NA
ATOM     21  N   UNL A   1      30.745  26.659  22.624  1.00  0.00    -0.272 N 
ATOM     22  C   UNL A   1      30.241  25.437  23.936  1.00  0.00     0.038 A 
ATOM     23  C   UNL A   1      30.451  28.073  22.633  1.00  0.00     0.174 C 
ATOM     24  C   UNL A   1      29.170  25.947  24.858  1.00  0.00     0.066 C 
ENDBRANCH  16  17
ENDBRANCH  15  16
ENDBRANCH  12  15
ENDBRANCH   7  11
ENDBRANCH   3   6
ENDBRANCH   1   2
BRANCH   1  25
ATOM     25  C   UNL A   1      31.708  29.565  27.205  1.00  0.00     0.042 C 
BRANCH  25  26
ATOM     26  C   UNL A   1      32.709  30.459  26.533  1.00  0.00     0.118 C 
BRANCH  26  27
ATOM     27  N   UNL A   1      32.594  31.866  26.932  1.00  0.00    -0.352 N 
ATOM     28  C   UNL A   1      33.521  32.631  27.608  1.00  0.00     0.251 C 
ATOM     29  H   UNL A   1      31.754  32.318  26.689  1.00  0.00     0.163 HD
ATOM     30  O   UNL A   1      33.265  33.776  27.962  1.00  0.00    -0.269 OA
BRANCH  28  31
ATOM     31  C   UNL A   1      34.812  32.002  27.942  1.00  0.00     0.039 A 
ATOM     32  C   UNL A   1      35.969  32.778  27.957  1.00  0.00     0.014 A 
ATOM     33  C   UNL A   1      34.825  30.693  28.422  1.00  0.00     0.014 A 
ATOM     34  C   UNL A   1      37.121  32.255  28.540  1.00  0.00     0.010 A 
ATOM     35  C   UNL A   1      35.897  30.269  29.183  1.00  0.00     0.010 A 
ATOM     36  C   UNL A   1      37.076  31.020  29.207  1.00  0.00    -0.014 A 
BRANCH  36  37
ATOM     37  C   UNL A   1      38.263  30.457  29.890  1.00  0.00     0.031 A 
ATOM     38  C   UNL A   1      38.576  30.894  31.299  1.00  0.00     0.074 A 
ATOM     39  C   UNL A   1      39.072  29.597  29.239  1.00  0.00     0.049 A 
ATOM     40  N   UNL A   1      39.579  30.549  32.062  1.00  0.00    -0.248 NA
ATOM     41  C   UNL A   1      37.663  31.870  31.927  1.00  0.00     0.031 C 
ATOM     42  C   UNL A   1      38.911  29.158  27.850  1.00  0.00     0.029 A 
ATOM     43  N   UNL A   1      40.199  28.940  29.662  1.00  0.00    -0.354 N 
ATOM     44  C   UNL A   1      39.424  31.275  33.235  1.00  0.00     0.074 A 
ATOM     45  C   UNL A   1      38.284  32.139  33.063  1.00  0.00     0.031 C 
ATOM     46  C   UNL A   1      39.875  28.273  27.551  1.00  0.00     0.029 A 
ATOM     47  C   UNL A   1      40.758  28.128  28.703  1.00  0.00     0.049 A 
ATOM     48  H   UNL A   1      40.574  29.040  30.567  1.00  0.00     0.167 HD
ATOM     49  C   UNL A   1      40.138  31.196  34.380  1.00  0.00     0.034 A 
ATOM     50  C   UNL A   1      41.867  27.366  28.747  1.00  0.00     0.034 A 
ATOM     51  C   UNL A   1      41.257  30.319  34.557  1.00  0.00     0.049 A 
ATOM     52  C   UNL A   1      42.664  27.328  30.024  1.00  0.00     0.074 A 
ATOM     53  C   UNL A   1      42.024  30.127  35.690  1.00  0.00     0.029 A 
ATOM     54  N   UNL A   1      41.777  29.496  33.571  1.00  0.00    -0.354 N 
ATOM     55  N   UNL A   1      42.431  27.934  31.164  1.00  0.00    -0.248 NA
ATOM     56  C   UNL A   1      43.863  26.478  30.032  1.00  0.00     0.031 C 
ATOM     57  C   UNL A   1      43.044  29.228  35.373  1.00  0.00     0.029 A 
ATOM     58  C   UNL A   1      42.868  28.807  34.065  1.00  0.00     0.049 A 
ATOM     59  H   UNL A   1      41.424  29.417  32.656  1.00  0.00     0.167 HD
ATOM     60  C   UNL A   1      43.420  27.497  32.035  1.00  0.00     0.074 A 
ATOM     61  C   UNL A   1      44.242  26.559  31.299  1.00  0.00     0.031 C 
ATOM     62  C   UNL A   1      43.639  27.842  33.327  1.00  0.00     0.034 A 
BRANCH  49  63
ATOM     63  C   UNL A   1      39.703  32.051  35.540  1.00  0.00     0.023 A 
ATOM     64  C   UNL A   1      40.130  33.393  35.621  1.00  0.00     0.012 A 
ATOM     65  C   UNL A   1      38.824  31.543  36.513  1.00  0.00     0.148 A 
ATOM     66  C   UNL A   1      39.710  34.208  36.670  1.00  0.00     0.002 A 
ATOM     67  C   UNL A   1      38.367  32.376  37.526  1.00  0.00     0.091 A 
ATOM     68  F   UNL A   1      38.448  30.259  36.428  1.00  0.00    -0.205 F 
ATOM     69  C   UNL A   1      38.818  33.704  37.613  1.00  0.00     0.022 A 
BRANCH  67  70
ATOM     70  S   UNL A   1      37.161  31.848  38.745  1.00  0.00     0.127 S 
ATOM     71  O   UNL A   1      37.856  32.146  39.995  1.00  0.00    -0.237 OA
ATOM     72  O   UNL A   1      36.028  32.727  38.450  1.00  0.00    -0.237 OA
ATOM     73  O   UNL A   1      36.922  30.434  38.494  1.00  0.00    -0.744 OA
ENDBRANCH  67  70
ENDBRANCH  49  63
BRANCH  50  74
ATOM     74  C   UNL A   1      42.295  26.563  27.564  1.00  0.00     0.023 A 
ATOM     75  C   UNL A   1      42.957  27.193  26.491  1.00  0.00     0.012 A 
ATOM     76  C   UNL A   1      42.002  25.190  27.476  1.00  0.00     0.148 A 
ATOM     77  C   UNL A   1      43.254  26.485  25.325  1.00  0.00     0.002 A 
ATOM     78  C   UNL A   1      42.357  24.476  26.339  1.00  0.00     0.091 A 
ATOM     79  F   UNL A   1      41.373  24.607  28.507  1.00  0.00    -0.205 F 
ATOM     80  C   UNL A   1      42.958  25.127  25.251  1.00  0.00     0.022 A 
BRANCH  78  81
ATOM     81  S   UNL A   1      42.116  22.703  26.204  1.00  0.00     0.127 S 
ATOM     82  O   UNL A   1      42.820  22.215  27.387  1.00  0.00    -0.237 OA
ATOM     83  O   UNL A   1      40.659  22.592  26.263  1.00  0.00    -0.237 OA
ATOM     84  O   UNL A   1      42.697  22.320  24.923  1.00  0.00    -0.744 OA
ENDBRANCH  78  81
ENDBRANCH  50  74
BRANCH  62  85
ATOM     85  C   UNL A   1      44.758  27.149  34.056  1.00  0.00     0.023 A 
ATOM     86  C   UNL A   1      46.066  27.670  34.022  1.00  0.00     0.012 A 
ATOM     87  C   UNL A   1      44.487  26.005  34.832  1.00  0.00     0.148 A 
ATOM     88  C   UNL A   1      47.098  27.033  34.710  1.00  0.00     0.002 A 
ATOM     89  C   UNL A   1      45.504  25.412  35.565  1.00  0.00     0.091 A 
ATOM     90  F   UNL A   1      43.236  25.522  34.843  1.00  0.00    -0.205 F 
ATOM     91  C   UNL A   1      46.815  25.913  35.490  1.00  0.00     0.022 A 
BRANCH  89  92
ATOM     92  S   UNL A   1      45.216  24.030  36.672  1.00  0.00     0.127 S 
ATOM     93  O   UNL A   1      44.278  24.611  37.632  1.00  0.00    -0.237 OA
ATOM     94  O   UNL A   1      44.632  23.035  35.774  1.00  0.00    -0.237 OA
ATOM     95  O   UNL A   1      46.516  23.668  37.219  1.00  0.00    -0.744 OA
ENDBRANCH  89  92
ENDBRANCH  62  85
ENDBRANCH  36  37
ENDBRANCH  28  31
ENDBRANCH  26  27
ENDBRANCH  25  26
ENDBRANCH   1  25
TORSDOF 17
ENDMDL
MODEL 3
REMARK VINA RESULT:     -12.4      5.078     10.408
REMARK SMILES Cc1nn(C)c(C)c1CCC(=O)Nc1sccc1C(=O)NCCCNC(=O)c1ccc(-c2c3nc(c(-c4cccc(S(=O)(=O)[O-])c4F)c4ccc([nH]4)c(-c4cccc(S(=O)(=O)[O-])c4F)c4nc(c(-c5cccc(S(=O)(=O)[O-])c5F)c5ccc2[nH]5)C=C4)C=C3)cc1
REMARK SMILES IDX 22 1 21 2 19 3 20 4 18 6 14 7 15 8 16 9 17 10 13 11 11 12
REMARK SMILES IDX 12 13 10 15 9 16 8 17 1 18 2 19 3 20 4 21 6 22 5 23 7 24
REMARK SMILES IDX 23 25 24 26 25 27 26 28 27 30 28 31 29 32 90 33 30 34 89 35
REMARK SMILES IDX 31 36 32 37 33 38 83 39 34 40 88 41 82 42 84 43 35 44 87 45
REMARK SMILES IDX 81 46 80 47 36 49 68 50 48 51 67 52 49 53 52 54 66 55 85 56
REMARK SMILES IDX 50 57 51 58 65 60 86 61 53 62 37 63 38 64 46 65 39 66 41 67
REMARK SMILES IDX 47 68 40 69 42 70 43 71 44 72 45 73 69 74 70 75 78 76 71 77
REMARK SMILES IDX 73 78 79 79 72 80 74 81 75 82 76 83 77 84 54 85 55 86 63 87
REMARK SMILES IDX 56 88 58 89 64 90 57 91 59 92 60 93 61 94 62 95
REMARK H PARENT 21 5 13 14 25 29 84 48 52 59
REMARK Flexibility Score: inf
ROOT
ATOM      1  C   UNL A   1      36.505  19.900  24.919  1.00  0.00     0.118 C 
ENDROOT
BRANCH   1   2
ATOM      2  N   UNL A   1      35.058  19.998  25.241  1.00  0.00    -0.352 N 
ATOM      3  C   UNL A   1      34.013  21.144  25.574  1.00  0.00     0.254 C 
ATOM      4  O   UNL A   1      33.021  20.305  25.671  1.00  0.00    -0.269 OA
ATOM      5  H   UNL A   1      34.632  19.109  25.251  1.00  0.00     0.163 HD
BRANCH   3   6
ATOM      6  C   UNL A   1      34.215  23.287  25.875  1.00  0.00     0.074 A 
ATOM      7  C   UNL A   1      33.197  24.409  26.256  1.00  0.00     0.108 A 
ATOM      8  S   UNL A   1      33.608  25.976  25.684  1.00  0.00    -0.126 S 
ATOM      9  C   UNL A   1      35.238  25.629  25.586  1.00  0.00     0.068 A 
ATOM     10  C   UNL A   1      35.497  24.295  25.756  1.00  0.00     0.028 A 
BRANCH   7  11
ATOM     11  N   UNL A   1      31.856  24.527  26.673  1.00  0.00    -0.317 N 
ATOM     12  C   UNL A   1      30.666  24.416  26.014  1.00  0.00     0.225 C 
ATOM     13  O   UNL A   1      29.655  24.948  26.481  1.00  0.00    -0.275 OA
ATOM     14  H   UNL A   1      31.758  24.729  27.631  1.00  0.00     0.170 HD
BRANCH  12  15
ATOM     15  C   UNL A   1      30.552  23.499  24.838  1.00  0.00     0.105 C 
BRANCH  15  16
ATOM     16  C   UNL A   1      30.182  24.181  23.564  1.00  0.00     0.049 C 
BRANCH  16  17
ATOM     17  C   UNL A   1      31.175  25.189  23.088  1.00  0.00    -0.004 A 
ATOM     18  C   UNL A   1      33.282  23.071  22.185  1.00  0.00     0.069 C 
ATOM     19  C   UNL A   1      32.861  24.476  22.372  1.00  0.00     0.063 A 
ATOM     20  N   UNL A   1      33.893  25.793  21.933  1.00  0.00    -0.178 NA
ATOM     21  N   UNL A   1      33.021  27.397  22.284  1.00  0.00    -0.272 N 
ATOM     22  C   UNL A   1      31.330  27.069  22.994  1.00  0.00     0.038 A 
ATOM     23  C   UNL A   1      33.744  28.644  22.377  1.00  0.00     0.174 C 
ATOM     24  C   UNL A   1      30.580  28.314  23.371  1.00  0.00     0.066 C 
ENDBRANCH  16  17
ENDBRANCH  15  16
ENDBRANCH  12  15
ENDBRANCH   7  11
ENDBRANCH   3   6
ENDBRANCH   1   2
BRANCH   1  25
ATOM     25  C   UNL A   1      37.126  21.156  24.356  1.00  0.00     0.042 C 
BRANCH  25  26
ATOM     26  C   UNL A   1      38.167  21.671  25.308  1.00  0.00     0.118 C 
BRANCH  26  27
ATOM     27  N   UNL A   1      39.133  20.650  25.724  1.00  0.00    -0.352 N 
ATOM     28  C   UNL A   1      40.228  20.808  26.549  1.00  0.00     0.251 C 
ATOM     29  H   UNL A   1      38.985  19.743  25.373  1.00  0.00     0.163 HD
ATOM     30  O   UNL A   1      41.013  19.889  26.748  1.00  0.00    -0.269 OA
BRANCH  28  31
ATOM     31  C   UNL A   1      40.452  22.143  27.137  1.00  0.00     0.039 A 
ATOM     32  C   UNL A   1      41.359  22.285  28.185  1.00  0.00     0.014 A 
ATOM     33  C   UNL A   1      39.902  23.260  26.511  1.00  0.00     0.014 A 
ATOM     34  C   UNL A   1      41.775  23.566  28.543  1.00  0.00     0.010 A 
ATOM     35  C   UNL A   1      40.477  24.498  26.725  1.00  0.00     0.010 A 
ATOM     36  C   UNL A   1      41.380  24.676  27.777  1.00  0.00    -0.014 A 
BRANCH  36  37
ATOM     37  C   UNL A   1      41.848  26.046  28.088  1.00  0.00     0.031 A 
ATOM     38  C   UNL A   1      43.256  26.442  27.721  1.00  0.00     0.074 A 
ATOM     39  C   UNL A   1      41.034  26.908  28.729  1.00  0.00     0.049 A 
ATOM     40  N   UNL A   1      43.871  27.575  27.932  1.00  0.00    -0.248 NA
ATOM     41  C   UNL A   1      44.098  25.426  27.058  1.00  0.00     0.031 C 
ATOM     42  C   UNL A   1      39.677  26.613  29.198  1.00  0.00     0.029 A 
ATOM     43  N   UNL A   1      41.233  28.212  29.101  1.00  0.00    -0.354 N 
ATOM     44  C   UNL A   1      45.160  27.397  27.450  1.00  0.00     0.074 A 
ATOM     45  C   UNL A   1      45.273  26.030  27.008  1.00  0.00     0.031 C 
ATOM     46  C   UNL A   1      39.152  27.716  29.755  1.00  0.00     0.029 A 
ATOM     47  C   UNL A   1      40.152  28.777  29.739  1.00  0.00     0.049 A 
ATOM     48  H   UNL A   1      42.071  28.701  28.928  1.00  0.00     0.167 HD
ATOM     49  C   UNL A   1      46.154  28.305  27.334  1.00  0.00     0.034 A 
ATOM     50  C   UNL A   1      39.997  30.006  30.265  1.00  0.00     0.034 A 
ATOM     51  C   UNL A   1      46.033  29.670  27.752  1.00  0.00     0.049 A 
ATOM     52  C   UNL A   1      41.137  30.985  30.156  1.00  0.00     0.074 A 
ATOM     53  C   UNL A   1      46.962  30.687  27.642  1.00  0.00     0.029 A 
ATOM     54  N   UNL A   1      44.916  30.208  28.372  1.00  0.00    -0.354 N 
ATOM     55  N   UNL A   1      42.309  30.831  29.587  1.00  0.00    -0.248 NA
ATOM     56  C   UNL A   1      40.923  32.318  30.735  1.00  0.00     0.031 C 
ATOM     57  C   UNL A   1      46.429  31.827  28.245  1.00  0.00     0.029 A 
ATOM     58  C   UNL A   1      45.140  31.540  28.666  1.00  0.00     0.049 A 
ATOM     59  H   UNL A   1      44.088  29.715  28.573  1.00  0.00     0.167 HD
ATOM     60  C   UNL A   1      42.947  32.060  29.695  1.00  0.00     0.074 A 
ATOM     61  C   UNL A   1      42.024  32.954  30.363  1.00  0.00     0.031 C 
ATOM     62  C   UNL A   1      44.187  32.421  29.286  1.00  0.00     0.034 A 
BRANCH  49  63
ATOM     63  C   UNL A   1      47.442  27.860  26.697  1.00  0.00     0.023 A 
ATOM     64  C   UNL A   1      48.503  27.398  27.505  1.00  0.00     0.012 A 
ATOM     65  C   UNL A   1      47.580  27.843  25.297  1.00  0.00     0.148 A 
ATOM     66  C   UNL A   1      49.690  26.951  26.929  1.00  0.00     0.002 A 
ATOM     67  C   UNL A   1      48.745  27.346  24.729  1.00  0.00     0.091 A 
ATOM     68  F   UNL A   1      46.568  28.307  24.550  1.00  0.00    -0.205 F 
ATOM     69  C   UNL A   1      49.805  26.911  25.542  1.00  0.00     0.022 A 
BRANCH  67  70
ATOM     70  S   UNL A   1      48.965  27.183  22.955  1.00  0.00     0.127 S 
ATOM     71  O   UNL A   1      50.422  27.175  22.838  1.00  0.00    -0.237 OA
ATOM     72  O   UNL A   1      48.324  25.895  22.688  1.00  0.00    -0.237 OA
ATOM     73  O   UNL A   1      48.304  28.333  22.356  1.00  0.00    -0.744 OA
ENDBRANCH  67  70
ENDBRANCH  49  63
BRANCH  50  74
ATOM     74  C   UNL A   1      38.721  30.402  30.929  1.00  0.00     0.023 A 
ATOM     75  C   UNL A   1      38.463  29.994  32.253  1.00  0.00     0.012 A 
ATOM     76  C   UNL A   1      37.741  31.137  30.236  1.00  0.00     0.148 A 
ATOM     77  C   UNL A   1      37.226  30.248  32.847  1.00  0.00     0.002 A 
ATOM     78  C   UNL A   1      36.536  31.441  30.855  1.00  0.00     0.091 A 
ATOM     79  F   UNL A   1      38.004  31.518  28.978  1.00  0.00    -0.205 F 
ATOM     80  C   UNL A   1      36.265  30.974  32.151  1.00  0.00     0.022 A 
BRANCH  78  81
ATOM     81  S   UNL A   1      35.288  32.468  30.075  1.00  0.00     0.127 S 
ATOM     82  O   UNL A   1      36.058  33.658  29.722  1.00  0.00    -0.237 OA
ATOM     83  O   UNL A   1      34.882  31.637  28.941  1.00  0.00    -0.237 OA
ATOM     84  O   UNL A   1      34.250  32.664  31.079  1.00  0.00    -0.744 OA
ENDBRANCH  78  81
ENDBRANCH  50  74
BRANCH  62  85
ATOM     85  C   UNL A   1      44.595  33.857  29.473  1.00  0.00     0.023 A 
ATOM     86  C   UNL A   1      45.170  34.287  30.684  1.00  0.00     0.012 A 
ATOM     87  C   UNL A   1      44.459  34.769  28.407  1.00  0.00     0.148 A 
ATOM     88  C   UNL A   1      45.559  35.616  30.848  1.00  0.00     0.002 A 
ATOM     89  C   UNL A   1      44.905  36.073  28.555  1.00  0.00     0.091 A 
ATOM     90  F   UNL A   1      43.900  34.339  27.266  1.00  0.00    -0.205 F 
ATOM     91  C   UNL A   1      45.438  36.504  29.781  1.00  0.00     0.022 A 
BRANCH  89  92
ATOM     92  S   UNL A   1      44.882  37.259  27.208  1.00  0.00     0.127 S 
ATOM     93  O   UNL A   1      43.468  37.251  26.832  1.00  0.00    -0.237 OA
ATOM     94  O   UNL A   1      45.331  38.483  27.871  1.00  0.00    -0.237 OA
ATOM     95  O   UNL A   1      45.794  36.744  26.197  1.00  0.00    -0.744 OA
ENDBRANCH  89  92
ENDBRANCH  62  85
ENDBRANCH  36  37
ENDBRANCH  28  31
ENDBRANCH  26  27
ENDBRANCH  25  26
ENDBRANCH   1  25
TORSDOF 17
ENDMDL
