MODEL 1
REMARK VINA RESULT:     -11.8      0.000      0.000
REMARK SMILES CCc1c(C(=O)NCCCNC(=O)c2ccc(-c3c4nc(c(-c5cccc(S(=O)(=O)[O-])c5F)c5ccc([nH]5)c(-c5cccc(S(=O)(=O)[O-])c5F)c5nc(c(-c6cccc(S(=O)(=O)[O-])c6F)c6ccc3[nH]6)C=C5)C=C4)cc2)nnn1-c1ccc(OC)cc1
REMARK SMILES IDX 9 1 8 2 7 3 5 4 6 5 4 7 3 8 79 9 77 10 78 11 2 12 1 13 80 14
REMARK SMILES IDX 81 15 87 16 82 17 86 18 83 19 84 20 85 21 10 22 11 23 12 24
REMARK SMILES IDX 13 26 14 27 15 28 76 29 16 30 75 31 17 32 18 33 19 34 69 35
REMARK SMILES IDX 20 36 74 37 68 38 70 39 21 40 73 41 67 42 66 43 22 45 54 46
REMARK SMILES IDX 34 47 53 48 35 49 38 50 52 51 71 52 36 53 37 54 51 56 72 57
REMARK SMILES IDX 39 58 23 59 24 60 32 61 25 62 27 63 33 64 26 65 28 66 29 67
REMARK SMILES IDX 30 68 31 69 55 70 56 71 64 72 57 73 59 74 65 75 58 76 60 77
REMARK SMILES IDX 61 78 62 79 63 80 40 81 41 82 49 83 42 84 44 85 50 86 43 87
REMARK SMILES IDX 45 88 46 89 47 90 48 91
REMARK H PARENT 7 6 11 25 70 44 38 55
REMARK Flexibility Score: inf
ROOT
ATOM      1  C   UNL A   1      31.555  31.878  26.555  1.00  0.00     0.042 C 
ENDROOT
BRANCH   1   2
ATOM      2  C   UNL A   1      31.845  30.432  26.115  1.00  0.00     0.118 C 
BRANCH   2   3
ATOM      3  N   UNL A   1      31.327  30.140  24.803  1.00  0.00    -0.351 N 
ATOM      4  C   UNL A   1      31.140  28.992  24.081  1.00  0.00     0.273 C 
ATOM      5  O   UNL A   1      30.470  29.158  23.058  1.00  0.00    -0.267 OA
ATOM      6  H   UNL A   1      31.045  30.948  24.317  1.00  0.00     0.163 HD
BRANCH   4   7
ATOM      7  C   UNL A   1      31.620  27.643  24.425  1.00  0.00     0.174 A 
ATOM      8  C   UNL A   1      32.557  26.714  23.959  1.00  0.00     0.077 A 
ATOM      9  N   UNL A   1      32.500  25.698  24.910  1.00  0.00    -0.217 N 
ATOM     10  N   UNL A   1      30.961  27.053  25.499  1.00  0.00    -0.124 NA
ATOM     11  N   UNL A   1      31.433  25.842  25.701  1.00  0.00    -0.061 NA
BRANCH   8  12
ATOM     12  C   UNL A   1      33.447  26.559  22.773  1.00  0.00     0.055 C 
ATOM     13  C   UNL A   1      32.806  25.844  21.588  1.00  0.00     0.011 C 
ENDBRANCH   8  12
BRANCH   9  14
ATOM     14  C   UNL A   1      33.355  24.587  25.054  1.00  0.00     0.067 A 
ATOM     15  C   UNL A   1      34.603  24.761  25.652  1.00  0.00     0.032 A 
ATOM     16  C   UNL A   1      32.923  23.314  24.668  1.00  0.00     0.032 A 
ATOM     17  C   UNL A   1      35.370  23.634  25.951  1.00  0.00     0.048 A 
ATOM     18  C   UNL A   1      33.696  22.197  24.966  1.00  0.00     0.048 A 
ATOM     19  C   UNL A   1      34.916  22.351  25.627  1.00  0.00     0.119 A 
BRANCH  19  20
ATOM     20  O   UNL A   1      35.747  21.331  26.001  1.00  0.00    -0.497 OA
ATOM     21  C   UNL A   1      36.223  20.494  24.955  1.00  0.00     0.278 C 
ENDBRANCH  19  20
ENDBRANCH   9  14
ENDBRANCH   4   7
ENDBRANCH   2   3
ENDBRANCH   1   2
BRANCH   1  22
ATOM     22  C   UNL A   1      32.701  32.455  27.344  1.00  0.00     0.118 C 
BRANCH  22  23
ATOM     23  N   UNL A   1      32.447  33.874  27.680  1.00  0.00    -0.352 N 
ATOM     24  C   UNL A   1      33.029  34.652  28.671  1.00  0.00     0.251 C 
ATOM     25  H   UNL A   1      31.772  34.328  27.125  1.00  0.00     0.163 HD
ATOM     26  O   UNL A   1      32.522  35.692  29.046  1.00  0.00    -0.269 OA
BRANCH  24  27
ATOM     27  C   UNL A   1      34.298  34.167  29.231  1.00  0.00     0.039 A 
ATOM     28  C   UNL A   1      34.390  33.378  30.378  1.00  0.00     0.014 A 
ATOM     29  C   UNL A   1      35.406  34.421  28.444  1.00  0.00     0.014 A 
ATOM     30  C   UNL A   1      35.622  32.797  30.664  1.00  0.00     0.010 A 
ATOM     31  C   UNL A   1      36.429  33.538  28.503  1.00  0.00     0.010 A 
ATOM     32  C   UNL A   1      36.635  32.883  29.699  1.00  0.00    -0.014 A 
BRANCH  32  33
ATOM     33  C   UNL A   1      37.943  32.277  29.832  1.00  0.00     0.031 A 
ATOM     34  C   UNL A   1      38.024  30.904  29.288  1.00  0.00     0.074 A 
ATOM     35  C   UNL A   1      39.026  33.021  30.158  1.00  0.00     0.049 A 
ATOM     36  N   UNL A   1      38.091  29.808  29.965  1.00  0.00    -0.248 NA
ATOM     37  C   UNL A   1      37.813  30.703  27.846  1.00  0.00     0.031 C 
ATOM     38  C   UNL A   1      39.129  34.480  30.360  1.00  0.00     0.029 A 
ATOM     39  N   UNL A   1      40.324  32.643  30.200  1.00  0.00    -0.354 N 
ATOM     40  C   UNL A   1      38.225  28.801  29.015  1.00  0.00     0.074 A 
ATOM     41  C   UNL A   1      37.784  29.370  27.769  1.00  0.00     0.031 C 
ATOM     42  C   UNL A   1      40.413  34.869  30.200  1.00  0.00     0.029 A 
ATOM     43  C   UNL A   1      41.238  33.685  30.076  1.00  0.00     0.049 A 
ATOM     44  H   UNL A   1      40.600  31.704  30.308  1.00  0.00     0.167 HD
ATOM     45  C   UNL A   1      38.973  27.693  29.275  1.00  0.00     0.034 A 
ATOM     46  C   UNL A   1      42.563  33.557  29.817  1.00  0.00     0.034 A 
ATOM     47  C   UNL A   1      39.326  27.617  30.674  1.00  0.00     0.049 A 
ATOM     48  C   UNL A   1      42.930  32.166  30.186  1.00  0.00     0.074 A 
ATOM     49  C   UNL A   1      38.615  27.631  31.860  1.00  0.00     0.029 A 
ATOM     50  N   UNL A   1      40.615  27.971  31.008  1.00  0.00    -0.354 N 
ATOM     51  N   UNL A   1      42.863  31.714  31.411  1.00  0.00    -0.248 NA
ATOM     52  C   UNL A   1      42.868  31.155  29.140  1.00  0.00     0.031 C 
ATOM     53  C   UNL A   1      39.366  28.490  32.718  1.00  0.00     0.029 A 
ATOM     54  C   UNL A   1      40.531  28.863  32.047  1.00  0.00     0.049 A 
ATOM     55  H   UNL A   1      41.439  27.645  30.582  1.00  0.00     0.167 HD
ATOM     56  C   UNL A   1      42.284  30.457  31.282  1.00  0.00     0.074 A 
ATOM     57  C   UNL A   1      42.400  30.129  29.858  1.00  0.00     0.031 C 
ATOM     58  C   UNL A   1      41.480  29.936  32.258  1.00  0.00     0.034 A 
BRANCH  45  59
ATOM     59  C   UNL A   1      39.730  26.890  28.245  1.00  0.00     0.023 A 
ATOM     60  C   UNL A   1      39.582  25.486  28.296  1.00  0.00     0.012 A 
ATOM     61  C   UNL A   1      40.773  27.396  27.437  1.00  0.00     0.148 A 
ATOM     62  C   UNL A   1      40.465  24.631  27.631  1.00  0.00     0.002 A 
ATOM     63  C   UNL A   1      41.598  26.544  26.714  1.00  0.00     0.091 A 
ATOM     64  F   UNL A   1      41.074  28.697  27.464  1.00  0.00    -0.205 F 
ATOM     65  C   UNL A   1      41.471  25.161  26.834  1.00  0.00     0.022 A 
BRANCH  63  66
ATOM     66  S   UNL A   1      42.888  27.179  25.635  1.00  0.00     0.127 S 
ATOM     67  O   UNL A   1      43.362  25.954  24.998  1.00  0.00    -0.237 OA
ATOM     68  O   UNL A   1      42.130  28.080  24.765  1.00  0.00    -0.237 OA
ATOM     69  O   UNL A   1      43.834  27.853  26.514  1.00  0.00    -0.744 OA
ENDBRANCH  63  66
ENDBRANCH  45  59
BRANCH  46  70
ATOM     70  C   UNL A   1      43.445  34.427  29.000  1.00  0.00     0.023 A 
ATOM     71  C   UNL A   1      43.641  34.147  27.633  1.00  0.00     0.012 A 
ATOM     72  C   UNL A   1      43.873  35.686  29.482  1.00  0.00     0.148 A 
ATOM     73  C   UNL A   1      44.211  35.095  26.771  1.00  0.00     0.002 A 
ATOM     74  C   UNL A   1      44.445  36.623  28.624  1.00  0.00     0.091 A 
ATOM     75  F   UNL A   1      43.633  36.003  30.761  1.00  0.00    -0.205 F 
ATOM     76  C   UNL A   1      44.605  36.335  27.264  1.00  0.00     0.022 A 
BRANCH  74  77
ATOM     77  S   UNL A   1      44.949  38.253  29.193  1.00  0.00     0.127 S 
ATOM     78  O   UNL A   1      46.009  37.925  30.147  1.00  0.00    -0.237 OA
ATOM     79  O   UNL A   1      45.407  38.874  27.954  1.00  0.00    -0.237 OA
ATOM     80  O   UNL A   1      43.758  38.838  29.796  1.00  0.00    -0.744 OA
ENDBRANCH  74  77
ENDBRANCH  46  70
BRANCH  58  81
ATOM     81  C   UNL A   1      41.370  30.663  33.578  1.00  0.00     0.023 A 
ATOM     82  C   UNL A   1      42.372  30.593  34.571  1.00  0.00     0.012 A 
ATOM     83  C   UNL A   1      40.339  31.603  33.730  1.00  0.00     0.148 A 
ATOM     84  C   UNL A   1      42.335  31.425  35.694  1.00  0.00     0.002 A 
ATOM     85  C   UNL A   1      40.327  32.458  34.826  1.00  0.00     0.091 A 
ATOM     86  F   UNL A   1      39.399  31.668  32.775  1.00  0.00    -0.205 F 
ATOM     87  C   UNL A   1      41.319  32.368  35.815  1.00  0.00     0.022 A 
BRANCH  85  88
ATOM     88  S   UNL A   1      39.117  33.774  34.972  1.00  0.00     0.127 S 
ATOM     89  O   UNL A   1      39.459  34.358  36.267  1.00  0.00    -0.237 OA
ATOM     90  O   UNL A   1      39.430  34.619  33.818  1.00  0.00    -0.237 OA
ATOM     91  O   UNL A   1      37.811  33.130  34.900  1.00  0.00    -0.744 OA
ENDBRANCH  85  88
ENDBRANCH  58  81
ENDBRANCH  32  33
ENDBRANCH  24  27
ENDBRANCH  22  23
ENDBRANCH   1  22
TORSDOF 16
ENDMDL
MODEL 2
REMARK VINA RESULT:     -11.7      4.592     10.415
REMARK SMILES CCc1c(C(=O)NCCCNC(=O)c2ccc(-c3c4nc(c(-c5cccc(S(=O)(=O)[O-])c5F)c5ccc([nH]5)c(-c5cccc(S(=O)(=O)[O-])c5F)c5nc(c(-c6cccc(S(=O)(=O)[O-])c6F)c6ccc3[nH]6)C=C5)C=C4)cc2)nnn1-c1ccc(OC)cc1
REMARK SMILES IDX 9 1 8 2 7 3 5 4 6 5 4 7 3 8 79 9 77 10 78 11 2 12 1 13 80 14
REMARK SMILES IDX 81 15 87 16 82 17 86 18 83 19 84 20 85 21 10 22 11 23 12 24
REMARK SMILES IDX 13 26 14 27 15 28 76 29 16 30 75 31 17 32 18 33 19 34 69 35
REMARK SMILES IDX 20 36 74 37 68 38 70 39 21 40 73 41 67 42 66 43 22 45 54 46
REMARK SMILES IDX 34 47 53 48 35 49 38 50 52 51 71 52 36 53 37 54 51 56 72 57
REMARK SMILES IDX 39 58 23 59 24 60 32 61 25 62 27 63 33 64 26 65 28 66 29 67
REMARK SMILES IDX 30 68 31 69 55 70 56 71 64 72 57 73 59 74 65 75 58 76 60 77
REMARK SMILES IDX 61 78 62 79 63 80 40 81 41 82 49 83 42 84 44 85 50 86 43 87
REMARK SMILES IDX 45 88 46 89 47 90 48 91
REMARK H PARENT 7 6 11 25 70 44 38 55
REMARK Flexibility Score: inf
ROOT
ATOM      1  C   UNL A   1      34.036  33.367  32.773  1.00  0.00     0.042 C 
ENDROOT
BRANCH   1   2
ATOM      2  C   UNL A   1      34.749  34.404  33.658  1.00  0.00     0.118 C 
BRANCH   2   3
ATOM      3  N   UNL A   1      35.353  33.813  34.825  1.00  0.00    -0.351 N 
ATOM      4  C   UNL A   1      36.640  33.661  35.265  1.00  0.00     0.273 C 
ATOM      5  O   UNL A   1      36.719  33.272  36.433  1.00  0.00    -0.267 OA
ATOM      6  H   UNL A   1      34.689  33.432  35.445  1.00  0.00     0.163 HD
BRANCH   4   7
ATOM      7  C   UNL A   1      37.871  33.941  34.507  1.00  0.00     0.174 A 
ATOM      8  C   UNL A   1      38.677  33.315  33.549  1.00  0.00     0.077 A 
ATOM      9  N   UNL A   1      39.620  34.292  33.236  1.00  0.00    -0.217 N 
ATOM     10  N   UNL A   1      38.478  35.155  34.818  1.00  0.00    -0.124 NA
ATOM     11  N   UNL A   1      39.584  35.292  34.120  1.00  0.00    -0.061 NA
BRANCH   8  12
ATOM     12  C   UNL A   1      38.779  31.970  32.916  1.00  0.00     0.055 C 
ATOM     13  C   UNL A   1      38.297  30.818  33.793  1.00  0.00     0.011 C 
ENDBRANCH   8  12
BRANCH   9  14
ATOM     14  C   UNL A   1      40.573  34.285  32.198  1.00  0.00     0.067 A 
ATOM     15  C   UNL A   1      40.138  34.245  30.873  1.00  0.00     0.032 A 
ATOM     16  C   UNL A   1      41.935  34.394  32.496  1.00  0.00     0.032 A 
ATOM     17  C   UNL A   1      41.073  34.416  29.851  1.00  0.00     0.048 A 
ATOM     18  C   UNL A   1      42.860  34.559  31.470  1.00  0.00     0.048 A 
ATOM     19  C   UNL A   1      42.430  34.590  30.143  1.00  0.00     0.119 A 
BRANCH  19  20
ATOM     20  O   UNL A   1      43.237  34.778  29.055  1.00  0.00    -0.497 OA
ATOM     21  C   UNL A   1      43.771  36.085  28.886  1.00  0.00     0.278 C 
ENDBRANCH  19  20
ENDBRANCH   9  14
ENDBRANCH   4   7
ENDBRANCH   2   3
ENDBRANCH   1   2
BRANCH   1  22
ATOM     22  C   UNL A   1      35.021  32.530  32.000  1.00  0.00     0.118 C 
BRANCH  22  23
ATOM     23  N   UNL A   1      34.568  32.341  30.604  1.00  0.00    -0.352 N 
ATOM     24  C   UNL A   1      35.277  31.842  29.519  1.00  0.00     0.251 C 
ATOM     25  H   UNL A   1      33.638  32.605  30.419  1.00  0.00     0.163 HD
ATOM     26  O   UNL A   1      34.904  32.024  28.376  1.00  0.00    -0.269 OA
BRANCH  24  27
ATOM     27  C   UNL A   1      36.488  31.067  29.822  1.00  0.00     0.039 A 
ATOM     28  C   UNL A   1      36.494  29.689  30.042  1.00  0.00     0.014 A 
ATOM     29  C   UNL A   1      37.666  31.783  29.723  1.00  0.00     0.014 A 
ATOM     30  C   UNL A   1      37.729  29.049  30.086  1.00  0.00     0.010 A 
ATOM     31  C   UNL A   1      38.779  31.107  29.354  1.00  0.00     0.010 A 
ATOM     32  C   UNL A   1      38.869  29.782  29.727  1.00  0.00    -0.014 A 
BRANCH  32  33
ATOM     33  C   UNL A   1      40.207  29.233  29.668  1.00  0.00     0.031 A 
ATOM     34  C   UNL A   1      40.805  28.970  30.995  1.00  0.00     0.074 A 
ATOM     35  C   UNL A   1      40.712  28.751  28.508  1.00  0.00     0.049 A 
ATOM     36  N   UNL A   1      41.739  29.650  31.570  1.00  0.00    -0.248 NA
ATOM     37  C   UNL A   1      40.173  27.969  31.868  1.00  0.00     0.031 C 
ATOM     38  C   UNL A   1      40.060  28.619  27.190  1.00  0.00     0.029 A 
ATOM     39  N   UNL A   1      41.879  28.098  28.306  1.00  0.00    -0.354 N 
ATOM     40  C   UNL A   1      42.005  28.974  32.755  1.00  0.00     0.074 A 
ATOM     41  C   UNL A   1      40.860  28.138  33.001  1.00  0.00     0.031 C 
ATOM     42  C   UNL A   1      40.709  27.689  26.456  1.00  0.00     0.029 A 
ATOM     43  C   UNL A   1      41.912  27.305  27.163  1.00  0.00     0.049 A 
ATOM     44  H   UNL A   1      42.644  28.176  28.921  1.00  0.00     0.167 HD
ATOM     45  C   UNL A   1      43.268  28.929  33.263  1.00  0.00     0.034 A 
ATOM     46  C   UNL A   1      42.837  26.355  26.878  1.00  0.00     0.034 A 
ATOM     47  C   UNL A   1      44.139  29.859  32.581  1.00  0.00     0.049 A 
ATOM     48  C   UNL A   1      44.026  26.662  27.714  1.00  0.00     0.074 A 
ATOM     49  C   UNL A   1      44.101  31.217  32.323  1.00  0.00     0.029 A 
ATOM     50  N   UNL A   1      45.012  29.328  31.658  1.00  0.00    -0.354 N 
ATOM     51  N   UNL A   1      44.729  27.755  27.575  1.00  0.00    -0.248 NA
ATOM     52  C   UNL A   1      44.113  26.022  29.019  1.00  0.00     0.031 C 
ATOM     53  C   UNL A   1      44.520  31.335  30.963  1.00  0.00     0.029 A 
ATOM     54  C   UNL A   1      44.882  30.065  30.509  1.00  0.00     0.049 A 
ATOM     55  H   UNL A   1      45.616  28.563  31.797  1.00  0.00     0.167 HD
ATOM     56  C   UNL A   1      44.955  28.187  28.876  1.00  0.00     0.074 A 
ATOM     57  C   UNL A   1      44.638  27.031  29.721  1.00  0.00     0.031 C 
ATOM     58  C   UNL A   1      45.060  29.516  29.182  1.00  0.00     0.034 A 
BRANCH  45  59
ATOM     59  C   UNL A   1      43.841  27.796  34.079  1.00  0.00     0.023 A 
ATOM     60  C   UNL A   1      44.310  26.670  33.366  1.00  0.00     0.012 A 
ATOM     61  C   UNL A   1      43.686  27.652  35.476  1.00  0.00     0.148 A 
ATOM     62  C   UNL A   1      44.550  25.447  34.000  1.00  0.00     0.002 A 
ATOM     63  C   UNL A   1      44.003  26.458  36.114  1.00  0.00     0.091 A 
ATOM     64  F   UNL A   1      43.100  28.614  36.191  1.00  0.00    -0.205 F 
ATOM     65  C   UNL A   1      44.401  25.343  35.377  1.00  0.00     0.022 A 
BRANCH  63  66
ATOM     66  S   UNL A   1      43.869  26.282  37.898  1.00  0.00     0.127 S 
ATOM     67  O   UNL A   1      42.422  26.197  38.073  1.00  0.00    -0.237 OA
ATOM     68  O   UNL A   1      44.599  25.035  38.128  1.00  0.00    -0.237 OA
ATOM     69  O   UNL A   1      44.515  27.463  38.454  1.00  0.00    -0.744 OA
ENDBRANCH  63  66
ENDBRANCH  45  59
BRANCH  46  70
ATOM     70  C   UNL A   1      42.658  25.052  26.189  1.00  0.00     0.023 A 
ATOM     71  C   UNL A   1      43.605  24.622  25.239  1.00  0.00     0.012 A 
ATOM     72  C   UNL A   1      41.719  24.104  26.659  1.00  0.00     0.148 A 
ATOM     73  C   UNL A   1      43.637  23.291  24.796  1.00  0.00     0.002 A 
ATOM     74  C   UNL A   1      41.751  22.786  26.212  1.00  0.00     0.091 A 
ATOM     75  F   UNL A   1      40.856  24.471  27.615  1.00  0.00    -0.205 F 
ATOM     76  C   UNL A   1      42.716  22.372  25.289  1.00  0.00     0.022 A 
BRANCH  74  77
ATOM     77  S   UNL A   1      40.606  21.543  26.831  1.00  0.00     0.127 S 
ATOM     78  O   UNL A   1      39.312  22.104  26.441  1.00  0.00    -0.237 OA
ATOM     79  O   UNL A   1      41.014  20.359  26.080  1.00  0.00    -0.237 OA
ATOM     80  O   UNL A   1      40.830  21.493  28.270  1.00  0.00    -0.744 OA
ENDBRANCH  74  77
ENDBRANCH  46  70
BRANCH  58  81
ATOM     81  C   UNL A   1      45.118  30.520  28.054  1.00  0.00     0.023 A 
ATOM     82  C   UNL A   1      43.961  30.984  27.389  1.00  0.00     0.012 A 
ATOM     83  C   UNL A   1      46.340  31.164  27.805  1.00  0.00     0.148 A 
ATOM     84  C   UNL A   1      44.027  32.051  26.487  1.00  0.00     0.002 A 
ATOM     85  C   UNL A   1      46.395  32.252  26.940  1.00  0.00     0.091 A 
ATOM     86  F   UNL A   1      47.429  30.722  28.451  1.00  0.00    -0.205 F 
ATOM     87  C   UNL A   1      45.242  32.694  26.273  1.00  0.00     0.022 A 
BRANCH  85  88
ATOM     88  S   UNL A   1      47.904  33.196  26.721  1.00  0.00     0.127 S 
ATOM     89  O   UNL A   1      48.077  33.801  28.039  1.00  0.00    -0.237 OA
ATOM     90  O   UNL A   1      48.881  32.155  26.391  1.00  0.00    -0.237 OA
ATOM     91  O   UNL A   1      47.641  34.129  25.632  1.00  0.00    -0.744 OA
ENDBRANCH  85  88
ENDBRANCH  58  81
ENDBRANCH  32  33
ENDBRANCH  24  27
ENDBRANCH  22  23
ENDBRANCH   1  22
TORSDOF 16
ENDMDL
MODEL 3
REMARK VINA RESULT:     -11.5      3.297      7.581
REMARK SMILES CCc1c(C(=O)NCCCNC(=O)c2ccc(-c3c4nc(c(-c5cccc(S(=O)(=O)[O-])c5F)c5ccc([nH]5)c(-c5cccc(S(=O)(=O)[O-])c5F)c5nc(c(-c6cccc(S(=O)(=O)[O-])c6F)c6ccc3[nH]6)C=C5)C=C4)cc2)nnn1-c1ccc(OC)cc1
REMARK SMILES IDX 9 1 8 2 7 3 5 4 6 5 4 7 3 8 79 9 77 10 78 11 2 12 1 13 80 14
REMARK SMILES IDX 81 15 87 16 82 17 86 18 83 19 84 20 85 21 10 22 11 23 12 24
REMARK SMILES IDX 13 26 14 27 15 28 76 29 16 30 75 31 17 32 18 33 19 34 69 35
REMARK SMILES IDX 20 36 74 37 68 38 70 39 21 40 73 41 67 42 66 43 22 45 54 46
REMARK SMILES IDX 34 47 53 48 35 49 38 50 52 51 71 52 36 53 37 54 51 56 72 57
REMARK SMILES IDX 39 58 23 59 24 60 32 61 25 62 27 63 33 64 26 65 28 66 29 67
REMARK SMILES IDX 30 68 31 69 55 70 56 71 64 72 57 73 59 74 65 75 58 76 60 77
REMARK SMILES IDX 61 78 62 79 63 80 40 81 41 82 49 83 42 84 44 85 50 86 43 87
REMARK SMILES IDX 45 88 46 89 47 90 48 91
REMARK H PARENT 7 6 11 25 70 44 38 55
REMARK Flexibility Score: inf
ROOT
ATOM      1  C   UNL A   1      36.163  22.078  24.800  1.00  0.00     0.042 C 
ENDROOT
BRANCH   1   2
ATOM      2  C   UNL A   1      35.511  21.660  26.129  1.00  0.00     0.118 C 
BRANCH   2   3
ATOM      3  N   UNL A   1      34.284  20.930  25.936  1.00  0.00    -0.351 N 
ATOM      4  C   UNL A   1      32.987  21.287  25.677  1.00  0.00     0.273 C 
ATOM      5  O   UNL A   1      32.265  20.333  25.377  1.00  0.00    -0.267 OA
ATOM      6  H   UNL A   1      34.405  19.956  26.007  1.00  0.00     0.163 HD
BRANCH   4   7
ATOM      7  C   UNL A   1      32.425  22.648  25.697  1.00  0.00     0.174 A 
ATOM      8  C   UNL A   1      32.550  23.843  24.980  1.00  0.00     0.077 A 
ATOM      9  N   UNL A   1      31.575  24.660  25.548  1.00  0.00    -0.217 N 
ATOM     10  N   UNL A   1      31.527  22.886  26.732  1.00  0.00    -0.124 NA
ATOM     11  N   UNL A   1      31.114  24.134  26.686  1.00  0.00    -0.061 NA
BRANCH   8  12
ATOM     12  C   UNL A   1      33.437  24.392  23.915  1.00  0.00     0.055 C 
ATOM     13  C   UNL A   1      32.985  24.086  22.491  1.00  0.00     0.011 C 
ENDBRANCH   8  12
BRANCH   9  14
ATOM     14  C   UNL A   1      31.123  25.919  25.103  1.00  0.00     0.067 A 
ATOM     15  C   UNL A   1      31.729  27.074  25.597  1.00  0.00     0.032 A 
ATOM     16  C   UNL A   1      30.129  26.000  24.122  1.00  0.00     0.032 A 
ATOM     17  C   UNL A   1      31.401  28.304  25.025  1.00  0.00     0.048 A 
ATOM     18  C   UNL A   1      29.806  27.232  23.562  1.00  0.00     0.048 A 
ATOM     19  C   UNL A   1      30.455  28.388  23.998  1.00  0.00     0.119 A 
BRANCH  19  20
ATOM     20  O   UNL A   1      30.246  29.646  23.504  1.00  0.00    -0.497 OA
ATOM     21  C   UNL A   1      29.758  29.724  22.170  1.00  0.00     0.278 C 
ENDBRANCH  19  20
ENDBRANCH   9  14
ENDBRANCH   4   7
ENDBRANCH   2   3
ENDBRANCH   1   2
BRANCH   1  22
ATOM     22  C   UNL A   1      37.565  22.587  25.010  1.00  0.00     0.118 C 
BRANCH  22  23
ATOM     23  N   UNL A   1      38.326  21.681  25.900  1.00  0.00    -0.352 N 
ATOM     24  C   UNL A   1      39.462  21.950  26.650  1.00  0.00     0.251 C 
ATOM     25  H   UNL A   1      37.979  20.762  25.968  1.00  0.00     0.163 HD
ATOM     26  O   UNL A   1      40.164  21.058  27.087  1.00  0.00    -0.269 OA
BRANCH  24  27
ATOM     27  C   UNL A   1      39.764  23.365  26.907  1.00  0.00     0.039 A 
ATOM     28  C   UNL A   1      38.800  24.373  26.933  1.00  0.00     0.014 A 
ATOM     29  C   UNL A   1      41.072  23.614  27.279  1.00  0.00     0.014 A 
ATOM     30  C   UNL A   1      39.185  25.621  27.414  1.00  0.00     0.010 A 
ATOM     31  C   UNL A   1      41.298  24.659  28.107  1.00  0.00     0.010 A 
ATOM     32  C   UNL A   1      40.448  25.740  28.011  1.00  0.00    -0.014 A 
BRANCH  32  33
ATOM     33  C   UNL A   1      40.956  26.957  28.608  1.00  0.00     0.031 A 
ATOM     34  C   UNL A   1      42.214  27.441  28.001  1.00  0.00     0.074 A 
ATOM     35  C   UNL A   1      40.184  27.704  29.433  1.00  0.00     0.049 A 
ATOM     36  N   UNL A   1      43.394  27.386  28.520  1.00  0.00    -0.248 NA
ATOM     37  C   UNL A   1      42.204  27.854  26.589  1.00  0.00     0.031 C 
ATOM     38  C   UNL A   1      38.771  27.511  29.817  1.00  0.00     0.029 A 
ATOM     39  N   UNL A   1      40.454  28.916  29.969  1.00  0.00    -0.354 N 
ATOM     40  C   UNL A   1      44.224  28.028  27.609  1.00  0.00     0.074 A 
ATOM     41  C   UNL A   1      43.506  28.046  26.362  1.00  0.00     0.031 C 
ATOM     42  C   UNL A   1      38.256  28.684  30.248  1.00  0.00     0.029 A 
ATOM     43  C   UNL A   1      39.333  29.647  30.350  1.00  0.00     0.049 A 
ATOM     44  H   UNL A   1      41.372  29.255  30.079  1.00  0.00     0.167 HD
ATOM     45  C   UNL A   1      45.293  28.758  28.033  1.00  0.00     0.034 A 
ATOM     46  C   UNL A   1      39.307  30.969  30.652  1.00  0.00     0.034 A 
ATOM     47  C   UNL A   1      45.558  28.529  29.435  1.00  0.00     0.049 A 
ATOM     48  C   UNL A   1      40.704  31.350  30.986  1.00  0.00     0.074 A 
ATOM     49  C   UNL A   1      45.790  27.410  30.212  1.00  0.00     0.029 A 
ATOM     50  N   UNL A   1      45.154  29.514  30.310  1.00  0.00    -0.354 N 
ATOM     51  N   UNL A   1      41.346  30.864  32.015  1.00  0.00    -0.248 NA
ATOM     52  C   UNL A   1      41.539  31.853  29.905  1.00  0.00     0.031 C 
ATOM     53  C   UNL A   1      45.017  27.627  31.393  1.00  0.00     0.029 A 
ATOM     54  C   UNL A   1      44.447  28.898  31.311  1.00  0.00     0.049 A 
ATOM     55  H   UNL A   1      45.339  30.477  30.232  1.00  0.00     0.167 HD
ATOM     56  C   UNL A   1      42.612  30.568  31.521  1.00  0.00     0.074 A 
ATOM     57  C   UNL A   1      42.701  31.287  30.248  1.00  0.00     0.031 C 
ATOM     58  C   UNL A   1      43.345  29.522  32.012  1.00  0.00     0.034 A 
BRANCH  45  59
ATOM     59  C   UNL A   1      45.857  29.968  27.329  1.00  0.00     0.023 A 
ATOM     60  C   UNL A   1      47.258  30.144  27.389  1.00  0.00     0.012 A 
ATOM     61  C   UNL A   1      45.092  31.064  26.873  1.00  0.00     0.148 A 
ATOM     62  C   UNL A   1      47.858  31.367  27.073  1.00  0.00     0.002 A 
ATOM     63  C   UNL A   1      45.700  32.251  26.483  1.00  0.00     0.091 A 
ATOM     64  F   UNL A   1      43.759  31.028  26.940  1.00  0.00    -0.205 F 
ATOM     65  C   UNL A   1      47.078  32.420  26.614  1.00  0.00     0.022 A 
BRANCH  63  66
ATOM     66  S   UNL A   1      44.742  33.631  25.843  1.00  0.00     0.127 S 
ATOM     67  O   UNL A   1      44.065  34.098  27.049  1.00  0.00    -0.237 OA
ATOM     68  O   UNL A   1      45.795  34.513  25.338  1.00  0.00    -0.237 OA
ATOM     69  O   UNL A   1      43.890  33.064  24.806  1.00  0.00    -0.744 OA
ENDBRANCH  63  66
ENDBRANCH  45  59
BRANCH  46  70
ATOM     70  C   UNL A   1      38.249  31.972  30.374  1.00  0.00     0.023 A 
ATOM     71  C   UNL A   1      37.723  32.100  29.073  1.00  0.00     0.012 A 
ATOM     72  C   UNL A   1      37.556  32.609  31.430  1.00  0.00     0.148 A 
ATOM     73  C   UNL A   1      36.536  32.808  28.836  1.00  0.00     0.002 A 
ATOM     74  C   UNL A   1      36.381  33.316  31.189  1.00  0.00     0.091 A 
ATOM     75  F   UNL A   1      37.997  32.441  32.684  1.00  0.00    -0.205 F 
ATOM     76  C   UNL A   1      35.861  33.409  29.894  1.00  0.00     0.022 A 
BRANCH  74  77
ATOM     77  S   UNL A   1      35.447  34.091  32.517  1.00  0.00     0.127 S 
ATOM     78  O   UNL A   1      34.260  34.572  31.809  1.00  0.00    -0.237 OA
ATOM     79  O   UNL A   1      35.213  32.965  33.416  1.00  0.00    -0.237 OA
ATOM     80  O   UNL A   1      36.308  35.148  33.032  1.00  0.00    -0.744 OA
ENDBRANCH  74  77
ENDBRANCH  46  70
BRANCH  58  81
ATOM     81  C   UNL A   1      42.845  28.794  33.238  1.00  0.00     0.023 A 
ATOM     82  C   UNL A   1      41.827  27.817  33.181  1.00  0.00     0.012 A 
ATOM     83  C   UNL A   1      43.564  28.946  34.434  1.00  0.00     0.148 A 
ATOM     84  C   UNL A   1      41.522  27.026  34.293  1.00  0.00     0.002 A 
ATOM     85  C   UNL A   1      43.288  28.128  35.525  1.00  0.00     0.091 A 
ATOM     86  F   UNL A   1      44.536  29.868  34.473  1.00  0.00    -0.205 F 
ATOM     87  C   UNL A   1      42.262  27.172  35.461  1.00  0.00     0.022 A 
BRANCH  85  88
ATOM     88  S   UNL A   1      44.288  28.185  37.012  1.00  0.00     0.127 S 
ATOM     89  O   UNL A   1      43.972  29.511  37.540  1.00  0.00    -0.237 OA
ATOM     90  O   UNL A   1      43.751  27.071  37.796  1.00  0.00    -0.237 OA
ATOM     91  O   UNL A   1      45.667  27.996  36.578  1.00  0.00    -0.744 OA
ENDBRANCH  85  88
ENDBRANCH  58  81
ENDBRANCH  32  33
ENDBRANCH  24  27
ENDBRANCH  22  23
ENDBRANCH   1  22
TORSDOF 16
ENDMDL
