MODEL 1
REMARK VINA RESULT:     -11.9      0.000      0.000
REMARK SMILES C[C@@H](C(=O)NCCCNC(=O)c1ccc(-c2c3nc(c(-c4cccc(S(=O)(=O)[O-])c4F)c4ccc([nH]4)c(-c4cccc(S(=O)(=O)[O-])c4F)c4nc(c(-c5cccc(S(=O)(=O)[O-])c5F)c5ccc2[nH]5)C=C4)C=C3)cc1)c1ccc(C[C@@H]2CCC[C@@H]2O)cc1
REMARK SMILES IDX 6 1 5 2 3 3 4 4 2 6 1 7 75 8 76 9 87 10 77 11 86 12 78 13
REMARK SMILES IDX 79 14 80 15 81 16 84 17 82 18 83 19 85 20 7 22 8 23 9 24
REMARK SMILES IDX 10 25 11 27 12 28 13 29 74 30 14 31 73 32 15 33 16 34 17 35
REMARK SMILES IDX 67 36 18 37 72 38 66 39 68 40 19 41 71 42 65 43 64 44 20 46
REMARK SMILES IDX 52 47 32 48 51 49 33 50 36 51 50 52 69 53 34 54 35 55 49 57
REMARK SMILES IDX 70 58 37 59 21 60 22 61 30 62 23 63 25 64 31 65 24 66 26 67
REMARK SMILES IDX 27 68 28 69 29 70 53 71 54 72 62 73 55 74 57 75 63 76 56 77
REMARK SMILES IDX 58 78 59 79 60 80 61 81 38 82 39 83 47 84 40 85 42 86 48 87
REMARK SMILES IDX 41 88 43 89 44 90 45 91 46 92
REMARK H PARENT 5 5 85 21 9 26 68 45 36 56
REMARK Flexibility Score: inf
ROOT
ATOM      1  C   UNL A   1      36.415  20.504  25.023  1.00  0.00     0.117 C 
ENDROOT
BRANCH   1   2
ATOM      2  N   UNL A   1      36.801  21.622  24.183  1.00  0.00    -0.356 N 
ATOM      3  C   UNL A   1      36.047  22.625  23.642  1.00  0.00     0.227 C 
ATOM      4  O   UNL A   1      36.582  23.276  22.741  1.00  0.00    -0.274 OA
ATOM      5  H   UNL A   1      37.761  21.665  23.967  1.00  0.00     0.163 HD
BRANCH   3   6
ATOM      6  C   UNL A   1      34.637  22.920  24.194  1.00  0.00     0.105 C 
ATOM      7  C   UNL A   1      33.637  21.936  23.575  1.00  0.00     0.023 C 
BRANCH   6   8
ATOM      8  C   UNL A   1      34.196  24.385  24.044  1.00  0.00    -0.036 A 
ATOM      9  C   UNL A   1      33.676  24.863  22.831  1.00  0.00     0.005 A 
ATOM     10  C   UNL A   1      34.342  25.315  25.087  1.00  0.00     0.005 A 
ATOM     11  C   UNL A   1      33.269  26.192  22.685  1.00  0.00     0.004 A 
ATOM     12  C   UNL A   1      33.966  26.653  24.931  1.00  0.00     0.004 A 
ATOM     13  C   UNL A   1      33.450  27.114  23.717  1.00  0.00    -0.048 A 
BRANCH  13  14
ATOM     14  C   UNL A   1      33.107  28.571  23.537  1.00  0.00     0.041 C 
BRANCH  14  15
ATOM     15  C   UNL A   1      31.689  29.036  23.942  1.00  0.00     0.022 C 
ATOM     16  C   UNL A   1      30.900  28.046  24.810  1.00  0.00     0.007 C 
ATOM     17  C   UNL A   1      30.695  29.352  22.819  1.00  0.00     0.117 C 
ATOM     18  C   UNL A   1      29.912  27.331  23.882  1.00  0.00     0.003 C 
ATOM     19  C   UNL A   1      29.992  28.032  22.531  1.00  0.00     0.032 C 
BRANCH  17  20
ATOM     20  O   UNL A   1      31.279  29.936  21.675  1.00  0.00    -0.393 OA
ATOM     21  H   UNL A   1      30.729  29.751  20.899  1.00  0.00     0.210 HD
ENDBRANCH  17  20
ENDBRANCH  14  15
ENDBRANCH  13  14
ENDBRANCH   6   8
ENDBRANCH   3   6
ENDBRANCH   1   2
BRANCH   1  22
ATOM     22  C   UNL A   1      37.562  19.503  25.174  1.00  0.00     0.042 C 
BRANCH  22  23
ATOM     23  C   UNL A   1      38.954  20.124  25.103  1.00  0.00     0.118 C 
BRANCH  23  24
ATOM     24  N   UNL A   1      39.970  19.295  25.735  1.00  0.00    -0.352 N 
ATOM     25  C   UNL A   1      41.088  19.668  26.442  1.00  0.00     0.251 C 
ATOM     26  H   UNL A   1      39.837  18.324  25.643  1.00  0.00     0.163 HD
ATOM     27  O   UNL A   1      41.931  18.821  26.734  1.00  0.00    -0.269 OA
BRANCH  25  28
ATOM     28  C   UNL A   1      41.294  21.081  26.825  1.00  0.00     0.039 A 
ATOM     29  C   UNL A   1      41.527  21.388  28.169  1.00  0.00     0.014 A 
ATOM     30  C   UNL A   1      41.261  22.102  25.870  1.00  0.00     0.014 A 
ATOM     31  C   UNL A   1      41.819  22.704  28.539  1.00  0.00     0.010 A 
ATOM     32  C   UNL A   1      41.618  23.400  26.231  1.00  0.00     0.010 A 
ATOM     33  C   UNL A   1      41.917  23.711  27.566  1.00  0.00    -0.014 A 
BRANCH  33  34
ATOM     34  C   UNL A   1      42.405  25.074  27.909  1.00  0.00     0.031 A 
ATOM     35  C   UNL A   1      41.473  26.100  28.493  1.00  0.00     0.074 A 
ATOM     36  C   UNL A   1      43.667  25.420  27.578  1.00  0.00     0.049 A 
ATOM     37  N   UNL A   1      41.703  27.359  28.760  1.00  0.00    -0.248 NA
ATOM     38  C   UNL A   1      40.100  25.664  28.801  1.00  0.00     0.031 C 
ATOM     39  C   UNL A   1      44.645  24.538  26.937  1.00  0.00     0.029 A 
ATOM     40  N   UNL A   1      44.331  26.617  27.694  1.00  0.00    -0.354 N 
ATOM     41  C   UNL A   1      40.499  27.879  29.222  1.00  0.00     0.074 A 
ATOM     42  C   UNL A   1      39.537  26.798  29.195  1.00  0.00     0.031 C 
ATOM     43  C   UNL A   1      45.774  25.225  26.702  1.00  0.00     0.029 A 
ATOM     44  C   UNL A   1      45.589  26.606  27.132  1.00  0.00     0.049 A 
ATOM     45  H   UNL A   1      43.945  27.408  28.135  1.00  0.00     0.167 HD
ATOM     46  C   UNL A   1      40.226  29.137  29.638  1.00  0.00     0.034 A 
ATOM     47  C   UNL A   1      46.481  27.601  26.950  1.00  0.00     0.034 A 
ATOM     48  C   UNL A   1      41.197  30.197  29.704  1.00  0.00     0.049 A 
ATOM     49  C   UNL A   1      46.146  28.984  27.440  1.00  0.00     0.074 A 
ATOM     50  C   UNL A   1      41.042  31.466  30.235  1.00  0.00     0.029 A 
ATOM     51  N   UNL A   1      42.484  30.126  29.201  1.00  0.00    -0.354 N 
ATOM     52  N   UNL A   1      45.072  29.401  28.062  1.00  0.00    -0.248 NA
ATOM     53  C   UNL A   1      47.158  30.031  27.226  1.00  0.00     0.031 C 
ATOM     54  C   UNL A   1      42.222  32.180  30.008  1.00  0.00     0.029 A 
ATOM     55  C   UNL A   1      43.123  31.342  29.372  1.00  0.00     0.049 A 
ATOM     56  H   UNL A   1      42.886  29.331  28.783  1.00  0.00     0.167 HD
ATOM     57  C   UNL A   1      45.288  30.747  28.336  1.00  0.00     0.074 A 
ATOM     58  C   UNL A   1      46.610  31.068  27.843  1.00  0.00     0.031 C 
ATOM     59  C   UNL A   1      44.458  31.642  28.923  1.00  0.00     0.034 A 
BRANCH  46  60
ATOM     60  C   UNL A   1      38.827  29.455  30.095  1.00  0.00     0.023 A 
ATOM     61  C   UNL A   1      38.451  29.201  31.428  1.00  0.00     0.012 A 
ATOM     62  C   UNL A   1      37.932  30.125  29.236  1.00  0.00     0.148 A 
ATOM     63  C   UNL A   1      37.198  29.597  31.898  1.00  0.00     0.002 A 
ATOM     64  C   UNL A   1      36.704  30.556  29.723  1.00  0.00     0.091 A 
ATOM     65  F   UNL A   1      38.306  30.342  27.967  1.00  0.00    -0.205 F 
ATOM     66  C   UNL A   1      36.333  30.286  31.051  1.00  0.00     0.022 A 
BRANCH  64  67
ATOM     67  S   UNL A   1      35.553  31.522  28.740  1.00  0.00     0.127 S 
ATOM     68  O   UNL A   1      36.444  32.502  28.122  1.00  0.00    -0.237 OA
ATOM     69  O   UNL A   1      35.019  30.518  27.821  1.00  0.00    -0.237 OA
ATOM     70  O   UNL A   1      34.583  32.071  29.677  1.00  0.00    -0.744 OA
ENDBRANCH  64  67
ENDBRANCH  46  60
BRANCH  47  71
ATOM     71  C   UNL A   1      47.784  27.332  26.277  1.00  0.00     0.023 A 
ATOM     72  C   UNL A   1      48.897  26.934  27.044  1.00  0.00     0.012 A 
ATOM     73  C   UNL A   1      47.932  27.481  24.885  1.00  0.00     0.148 A 
ATOM     74  C   UNL A   1      50.142  26.738  26.445  1.00  0.00     0.002 A 
ATOM     75  C   UNL A   1      49.159  27.222  24.285  1.00  0.00     0.091 A 
ATOM     76  F   UNL A   1      46.869  27.875  24.169  1.00  0.00    -0.205 F 
ATOM     77  C   UNL A   1      50.271  26.872  25.065  1.00  0.00     0.022 A 
BRANCH  75  78
ATOM     78  S   UNL A   1      49.373  27.235  22.501  1.00  0.00     0.127 S 
ATOM     79  O   UNL A   1      50.821  27.096  22.372  1.00  0.00    -0.237 OA
ATOM     80  O   UNL A   1      48.601  26.061  22.093  1.00  0.00    -0.237 OA
ATOM     81  O   UNL A   1      48.811  28.502  22.051  1.00  0.00    -0.744 OA
ENDBRANCH  75  78
ENDBRANCH  47  71
BRANCH  59  82
ATOM     82  C   UNL A   1      44.950  33.055  29.090  1.00  0.00     0.023 A 
ATOM     83  C   UNL A   1      45.711  33.400  30.224  1.00  0.00     0.012 A 
ATOM     84  C   UNL A   1      44.735  34.016  28.082  1.00  0.00     0.148 A 
ATOM     85  C   UNL A   1      46.228  34.686  30.367  1.00  0.00     0.002 A 
ATOM     86  C   UNL A   1      45.296  35.281  28.207  1.00  0.00     0.091 A 
ATOM     87  F   UNL A   1      43.997  33.671  27.018  1.00  0.00    -0.205 F 
ATOM     88  C   UNL A   1      46.032  35.622  29.353  1.00  0.00     0.022 A 
BRANCH  86  89
ATOM     89  S   UNL A   1      45.181  36.523  26.914  1.00  0.00     0.127 S 
ATOM     90  O   UNL A   1      45.799  37.681  27.558  1.00  0.00    -0.237 OA
ATOM     91  O   UNL A   1      45.974  35.926  25.841  1.00  0.00    -0.237 OA
ATOM     92  O   UNL A   1      43.762  36.667  26.615  1.00  0.00    -0.744 OA
ENDBRANCH  86  89
ENDBRANCH  59  82
ENDBRANCH  33  34
ENDBRANCH  25  28
ENDBRANCH  23  24
ENDBRANCH  22  23
ENDBRANCH   1  22
TORSDOF 17
ENDMDL
MODEL 2
REMARK VINA RESULT:     -11.9      5.448     10.588
REMARK SMILES C[C@@H](C(=O)NCCCNC(=O)c1ccc(-c2c3nc(c(-c4cccc(S(=O)(=O)[O-])c4F)c4ccc([nH]4)c(-c4cccc(S(=O)(=O)[O-])c4F)c4nc(c(-c5cccc(S(=O)(=O)[O-])c5F)c5ccc2[nH]5)C=C4)C=C3)cc1)c1ccc(C[C@@H]2CCC[C@@H]2O)cc1
REMARK SMILES IDX 6 1 5 2 3 3 4 4 2 6 1 7 75 8 76 9 87 10 77 11 86 12 78 13
REMARK SMILES IDX 79 14 80 15 81 16 84 17 82 18 83 19 85 20 7 22 8 23 9 24
REMARK SMILES IDX 10 25 11 27 12 28 13 29 74 30 14 31 73 32 15 33 16 34 17 35
REMARK SMILES IDX 67 36 18 37 72 38 66 39 68 40 19 41 71 42 65 43 64 44 20 46
REMARK SMILES IDX 52 47 32 48 51 49 33 50 36 51 50 52 69 53 34 54 35 55 49 57
REMARK SMILES IDX 70 58 37 59 21 60 22 61 30 62 23 63 25 64 31 65 24 66 26 67
REMARK SMILES IDX 27 68 28 69 29 70 53 71 54 72 62 73 55 74 57 75 63 76 56 77
REMARK SMILES IDX 58 78 59 79 60 80 61 81 38 82 39 83 47 84 40 85 42 86 48 87
REMARK SMILES IDX 41 88 43 89 44 90 45 91 46 92
REMARK H PARENT 5 5 85 21 9 26 68 45 36 56
REMARK Flexibility Score: inf
ROOT
ATOM      1  C   UNL A   1      31.935  27.899  27.316  1.00  0.00     0.117 C 
ENDROOT
BRANCH   1   2
ATOM      2  N   UNL A   1      30.988  26.887  26.884  1.00  0.00    -0.356 N 
ATOM      3  C   UNL A   1      30.650  26.468  25.629  1.00  0.00     0.227 C 
ATOM      4  O   UNL A   1      29.618  25.798  25.544  1.00  0.00    -0.274 OA
ATOM      5  H   UNL A   1      30.512  26.429  27.615  1.00  0.00     0.163 HD
BRANCH   3   6
ATOM      6  C   UNL A   1      31.566  26.792  24.430  1.00  0.00     0.105 C 
ATOM      7  C   UNL A   1      30.704  26.996  23.178  1.00  0.00     0.023 C 
BRANCH   6   8
ATOM      8  C   UNL A   1      32.698  25.775  24.209  1.00  0.00    -0.036 A 
ATOM      9  C   UNL A   1      32.603  24.793  23.211  1.00  0.00     0.005 A 
ATOM     10  C   UNL A   1      33.843  25.751  25.023  1.00  0.00     0.005 A 
ATOM     11  C   UNL A   1      33.628  23.867  23.000  1.00  0.00     0.004 A 
ATOM     12  C   UNL A   1      34.853  24.804  24.834  1.00  0.00     0.004 A 
ATOM     13  C   UNL A   1      34.745  23.831  23.836  1.00  0.00    -0.048 A 
BRANCH  13  14
ATOM     14  C   UNL A   1      35.808  22.774  23.681  1.00  0.00     0.041 C 
BRANCH  14  15
ATOM     15  C   UNL A   1      35.661  21.474  24.505  1.00  0.00     0.022 C 
ATOM     16  C   UNL A   1      34.251  20.870  24.527  1.00  0.00     0.007 C 
ATOM     17  C   UNL A   1      36.017  21.530  25.995  1.00  0.00     0.117 C 
ATOM     18  C   UNL A   1      33.622  21.258  25.869  1.00  0.00     0.003 C 
ATOM     19  C   UNL A   1      34.722  21.915  26.696  1.00  0.00     0.032 C 
BRANCH  17  20
ATOM     20  O   UNL A   1      37.096  22.386  26.301  1.00  0.00    -0.393 OA
ATOM     21  H   UNL A   1      37.772  22.315  25.610  1.00  0.00     0.210 HD
ENDBRANCH  17  20
ENDBRANCH  14  15
ENDBRANCH  13  14
ENDBRANCH   6   8
ENDBRANCH   3   6
ENDBRANCH   1   2
BRANCH   1  22
ATOM     22  C   UNL A   1      31.403  29.307  27.045  1.00  0.00     0.042 C 
BRANCH  22  23
ATOM     23  C   UNL A   1      32.359  30.203  26.263  1.00  0.00     0.118 C 
BRANCH  23  24
ATOM     24  N   UNL A   1      32.194  31.613  26.583  1.00  0.00    -0.352 N 
ATOM     25  C   UNL A   1      32.992  32.438  27.339  1.00  0.00     0.251 C 
ATOM     26  H   UNL A   1      31.392  32.039  26.203  1.00  0.00     0.163 HD
ATOM     27  O   UNL A   1      32.584  33.554  27.655  1.00  0.00    -0.269 OA
BRANCH  25  28
ATOM     28  C   UNL A   1      34.322  31.980  27.794  1.00  0.00     0.039 A 
ATOM     29  C   UNL A   1      35.331  32.926  27.993  1.00  0.00     0.014 A 
ATOM     30  C   UNL A   1      34.579  30.625  28.029  1.00  0.00     0.014 A 
ATOM     31  C   UNL A   1      36.565  32.528  28.514  1.00  0.00     0.010 A 
ATOM     32  C   UNL A   1      35.785  30.239  28.611  1.00  0.00     0.010 A 
ATOM     33  C   UNL A   1      36.784  31.189  28.875  1.00  0.00    -0.014 A 
BRANCH  33  34
ATOM     34  C   UNL A   1      38.016  30.774  29.599  1.00  0.00     0.031 A 
ATOM     35  C   UNL A   1      38.951  29.757  29.006  1.00  0.00     0.074 A 
ATOM     36  C   UNL A   1      38.225  31.232  30.852  1.00  0.00     0.049 A 
ATOM     37  N   UNL A   1      40.014  29.211  29.537  1.00  0.00    -0.248 NA
ATOM     38  C   UNL A   1      38.647  29.276  27.647  1.00  0.00     0.031 C 
ATOM     39  C   UNL A   1      37.349  32.164  31.568  1.00  0.00     0.029 A 
ATOM     40  N   UNL A   1      39.212  30.943  31.763  1.00  0.00    -0.354 N 
ATOM     41  C   UNL A   1      40.479  28.291  28.605  1.00  0.00     0.074 A 
ATOM     42  C   UNL A   1      39.581  28.350  27.472  1.00  0.00     0.031 C 
ATOM     43  C   UNL A   1      37.827  32.356  32.808  1.00  0.00     0.029 A 
ATOM     44  C   UNL A   1      39.015  31.531  32.993  1.00  0.00     0.049 A 
ATOM     45  H   UNL A   1      39.985  30.371  31.557  1.00  0.00     0.167 HD
ATOM     46  C   UNL A   1      41.561  27.482  28.683  1.00  0.00     0.034 A 
ATOM     47  C   UNL A   1      39.693  31.396  34.151  1.00  0.00     0.034 A 
ATOM     48  C   UNL A   1      42.476  27.459  29.793  1.00  0.00     0.049 A 
ATOM     49  C   UNL A   1      40.899  30.498  34.194  1.00  0.00     0.074 A 
ATOM     50  C   UNL A   1      43.671  26.767  29.902  1.00  0.00     0.029 A 
ATOM     51  N   UNL A   1      42.290  28.128  30.990  1.00  0.00    -0.354 N 
ATOM     52  N   UNL A   1      41.438  29.793  33.231  1.00  0.00    -0.248 NA
ATOM     53  C   UNL A   1      41.608  30.394  35.480  1.00  0.00     0.031 C 
ATOM     54  C   UNL A   1      44.182  26.979  31.185  1.00  0.00     0.029 A 
ATOM     55  C   UNL A   1      43.326  27.834  31.860  1.00  0.00     0.049 A 
ATOM     56  H   UNL A   1      41.533  28.724  31.193  1.00  0.00     0.167 HD
ATOM     57  C   UNL A   1      42.560  29.186  33.783  1.00  0.00     0.074 A 
ATOM     58  C   UNL A   1      42.643  29.631  35.158  1.00  0.00     0.031 C 
ATOM     59  C   UNL A   1      43.429  28.319  33.211  1.00  0.00     0.034 A 
BRANCH  46  60
ATOM     60  C   UNL A   1      41.856  26.563  27.528  1.00  0.00     0.023 A 
ATOM     61  C   UNL A   1      42.656  27.016  26.461  1.00  0.00     0.012 A 
ATOM     62  C   UNL A   1      41.448  25.215  27.568  1.00  0.00     0.148 A 
ATOM     63  C   UNL A   1      43.036  26.141  25.441  1.00  0.00     0.002 A 
ATOM     64  C   UNL A   1      41.866  24.340  26.573  1.00  0.00     0.091 A 
ATOM     65  F   UNL A   1      40.675  24.812  28.585  1.00  0.00    -0.205 F 
ATOM     66  C   UNL A   1      42.653  24.804  25.505  1.00  0.00     0.022 A 
BRANCH  64  67
ATOM     67  S   UNL A   1      41.499  22.582  26.605  1.00  0.00     0.127 S 
ATOM     68  O   UNL A   1      42.181  22.117  25.398  1.00  0.00    -0.237 OA
ATOM     69  O   UNL A   1      42.126  22.163  27.858  1.00  0.00    -0.237 OA
ATOM     70  O   UNL A   1      40.048  22.471  26.579  1.00  0.00    -0.744 OA
ENDBRANCH  64  67
ENDBRANCH  46  60
BRANCH  47  71
ATOM     71  C   UNL A   1      39.254  32.132  35.372  1.00  0.00     0.023 A 
ATOM     72  C   UNL A   1      38.342  31.528  36.260  1.00  0.00     0.012 A 
ATOM     73  C   UNL A   1      39.723  33.430  35.651  1.00  0.00     0.148 A 
ATOM     74  C   UNL A   1      37.869  32.221  37.375  1.00  0.00     0.002 A 
ATOM     75  C   UNL A   1      39.297  34.091  36.798  1.00  0.00     0.091 A 
ATOM     76  F   UNL A   1      40.578  33.999  34.789  1.00  0.00    -0.205 F 
ATOM     77  C   UNL A   1      38.353  33.498  37.649  1.00  0.00     0.022 A 
BRANCH  75  78
ATOM     78  S   UNL A   1      39.978  35.676  37.296  1.00  0.00     0.127 S 
ATOM     79  O   UNL A   1      39.653  36.517  36.148  1.00  0.00    -0.237 OA
ATOM     80  O   UNL A   1      39.214  35.968  38.510  1.00  0.00    -0.237 OA
ATOM     81  O   UNL A   1      41.396  35.434  37.529  1.00  0.00    -0.744 OA
ENDBRANCH  75  78
ENDBRANCH  47  71
BRANCH  59  82
ATOM     82  C   UNL A   1      44.566  27.803  34.053  1.00  0.00     0.023 A 
ATOM     83  C   UNL A   1      45.760  28.544  34.144  1.00  0.00     0.012 A 
ATOM     84  C   UNL A   1      44.418  26.632  34.822  1.00  0.00     0.148 A 
ATOM     85  C   UNL A   1      46.800  28.114  34.968  1.00  0.00     0.002 A 
ATOM     86  C   UNL A   1      45.438  26.237  35.679  1.00  0.00     0.091 A 
ATOM     87  F   UNL A   1      43.278  25.935  34.710  1.00  0.00    -0.205 F 
ATOM     88  C   UNL A   1      46.634  26.969  35.743  1.00  0.00     0.022 A 
BRANCH  86  89
ATOM     89  S   UNL A   1      45.282  24.832  36.788  1.00  0.00     0.127 S 
ATOM     90  O   UNL A   1      46.608  24.789  37.402  1.00  0.00    -0.237 OA
ATOM     91  O   UNL A   1      44.209  25.264  37.683  1.00  0.00    -0.237 OA
ATOM     92  O   UNL A   1      44.951  23.688  35.949  1.00  0.00    -0.744 OA
ENDBRANCH  86  89
ENDBRANCH  59  82
ENDBRANCH  33  34
ENDBRANCH  25  28
ENDBRANCH  23  24
ENDBRANCH  22  23
ENDBRANCH   1  22
TORSDOF 17
ENDMDL
MODEL 3
REMARK VINA RESULT:     -11.5      1.889      4.103
REMARK SMILES C[C@@H](C(=O)NCCCNC(=O)c1ccc(-c2c3nc(c(-c4cccc(S(=O)(=O)[O-])c4F)c4ccc([nH]4)c(-c4cccc(S(=O)(=O)[O-])c4F)c4nc(c(-c5cccc(S(=O)(=O)[O-])c5F)c5ccc2[nH]5)C=C4)C=C3)cc1)c1ccc(C[C@@H]2CCC[C@@H]2O)cc1
REMARK SMILES IDX 6 1 5 2 3 3 4 4 2 6 1 7 75 8 76 9 87 10 77 11 86 12 78 13
REMARK SMILES IDX 79 14 80 15 81 16 84 17 82 18 83 19 85 20 7 22 8 23 9 24
REMARK SMILES IDX 10 25 11 27 12 28 13 29 74 30 14 31 73 32 15 33 16 34 17 35
REMARK SMILES IDX 67 36 18 37 72 38 66 39 68 40 19 41 71 42 65 43 64 44 20 46
REMARK SMILES IDX 52 47 32 48 51 49 33 50 36 51 50 52 69 53 34 54 35 55 49 57
REMARK SMILES IDX 70 58 37 59 21 60 22 61 30 62 23 63 25 64 31 65 24 66 26 67
REMARK SMILES IDX 27 68 28 69 29 70 53 71 54 72 62 73 55 74 57 75 63 76 56 77
REMARK SMILES IDX 58 78 59 79 60 80 61 81 38 82 39 83 47 84 40 85 42 86 48 87
REMARK SMILES IDX 41 88 43 89 44 90 45 91 46 92
REMARK H PARENT 5 5 85 21 9 26 68 45 36 56
REMARK Flexibility Score: inf
ROOT
ATOM      1  C   UNL A   1      35.733  23.270  23.198  1.00  0.00     0.117 C 
ENDROOT
BRANCH   1   2
ATOM      2  N   UNL A   1      35.482  24.205  24.280  1.00  0.00    -0.356 N 
ATOM      3  C   UNL A   1      34.310  24.739  24.735  1.00  0.00     0.227 C 
ATOM      4  O   UNL A   1      34.416  25.718  25.477  1.00  0.00    -0.274 OA
ATOM      5  H   UNL A   1      36.287  24.504  24.762  1.00  0.00     0.163 HD
BRANCH   3   6
ATOM      6  C   UNL A   1      32.963  24.086  24.360  1.00  0.00     0.105 C 
ATOM      7  C   UNL A   1      31.820  24.897  24.982  1.00  0.00     0.023 C 
BRANCH   6   8
ATOM      8  C   UNL A   1      32.875  22.588  24.693  1.00  0.00    -0.036 A 
ATOM      9  C   UNL A   1      33.206  22.111  25.970  1.00  0.00     0.005 A 
ATOM     10  C   UNL A   1      32.513  21.633  23.727  1.00  0.00     0.005 A 
ATOM     11  C   UNL A   1      33.126  20.751  26.283  1.00  0.00     0.004 A 
ATOM     12  C   UNL A   1      32.465  20.270  24.031  1.00  0.00     0.004 A 
ATOM     13  C   UNL A   1      32.798  19.809  25.307  1.00  0.00    -0.048 A 
BRANCH  13  14
ATOM     14  C   UNL A   1      32.805  18.332  25.608  1.00  0.00     0.041 C 
BRANCH  14  15
ATOM     15  C   UNL A   1      33.323  17.373  24.511  1.00  0.00     0.022 C 
ATOM     16  C   UNL A   1      32.792  15.935  24.596  1.00  0.00     0.007 C 
ATOM     17  C   UNL A   1      34.837  17.157  24.408  1.00  0.00     0.117 C 
ATOM     18  C   UNL A   1      33.902  15.088  25.228  1.00  0.00     0.003 C 
ATOM     19  C   UNL A   1      35.132  15.982  25.331  1.00  0.00     0.032 C 
BRANCH  17  20
ATOM     20  O   UNL A   1      35.606  18.304  24.698  1.00  0.00    -0.393 OA
ATOM     21  H   UNL A   1      35.037  19.089  24.682  1.00  0.00     0.210 HD
ENDBRANCH  17  20
ENDBRANCH  14  15
ENDBRANCH  13  14
ENDBRANCH   6   8
ENDBRANCH   3   6
ENDBRANCH   1   2
BRANCH   1  22
ATOM     22  C   UNL A   1      36.815  22.258  23.580  1.00  0.00     0.042 C 
BRANCH  22  23
ATOM     23  C   UNL A   1      36.762  21.797  25.034  1.00  0.00     0.118 C 
BRANCH  23  24
ATOM     24  N   UNL A   1      37.683  20.704  25.309  1.00  0.00    -0.352 N 
ATOM     25  C   UNL A   1      38.940  20.737  25.863  1.00  0.00     0.251 C 
ATOM     26  H   UNL A   1      37.357  19.808  25.061  1.00  0.00     0.163 HD
ATOM     27  O   UNL A   1      39.641  19.726  25.837  1.00  0.00    -0.269 OA
BRANCH  25  28
ATOM     28  C   UNL A   1      39.460  21.984  26.462  1.00  0.00     0.039 A 
ATOM     29  C   UNL A   1      40.525  21.907  27.364  1.00  0.00     0.014 A 
ATOM     30  C   UNL A   1      38.908  23.227  26.138  1.00  0.00     0.014 A 
ATOM     31  C   UNL A   1      41.095  23.079  27.868  1.00  0.00     0.010 A 
ATOM     32  C   UNL A   1      39.520  24.396  26.589  1.00  0.00     0.010 A 
ATOM     33  C   UNL A   1      40.630  24.334  27.445  1.00  0.00    -0.014 A 
BRANCH  33  34
ATOM     34  C   UNL A   1      41.335  25.589  27.821  1.00  0.00     0.031 A 
ATOM     35  C   UNL A   1      40.605  26.701  28.521  1.00  0.00     0.074 A 
ATOM     36  C   UNL A   1      42.612  25.768  27.421  1.00  0.00     0.049 A 
ATOM     37  N   UNL A   1      41.035  27.895  28.836  1.00  0.00    -0.248 NA
ATOM     38  C   UNL A   1      39.204  26.451  28.902  1.00  0.00     0.031 C 
ATOM     39  C   UNL A   1      43.406  24.793  26.669  1.00  0.00     0.029 A 
ATOM     40  N   UNL A   1      43.453  26.846  27.550  1.00  0.00    -0.354 N 
ATOM     41  C   UNL A   1      39.954  28.555  29.407  1.00  0.00     0.074 A 
ATOM     42  C   UNL A   1      38.842  27.629  29.393  1.00  0.00     0.031 C 
ATOM     43  C   UNL A   1      44.608  25.322  26.389  1.00  0.00     0.029 A 
ATOM     44  C   UNL A   1      44.658  26.687  26.901  1.00  0.00     0.049 A 
ATOM     45  H   UNL A   1      43.217  27.656  28.057  1.00  0.00     0.167 HD
ATOM     46  C   UNL A   1      39.897  29.812  29.905  1.00  0.00     0.034 A 
ATOM     47  C   UNL A   1      45.675  27.550  26.709  1.00  0.00     0.034 A 
ATOM     48  C   UNL A   1      41.017  30.713  29.956  1.00  0.00     0.049 A 
ATOM     49  C   UNL A   1      45.581  28.935  27.291  1.00  0.00     0.074 A 
ATOM     50  C   UNL A   1      41.086  31.957  30.561  1.00  0.00     0.029 A 
ATOM     51  N   UNL A   1      42.246  30.488  29.361  1.00  0.00    -0.354 N 
ATOM     52  N   UNL A   1      44.621  29.466  28.007  1.00  0.00    -0.248 NA
ATOM     53  C   UNL A   1      46.722  29.835  27.060  1.00  0.00     0.031 C 
ATOM     54  C   UNL A   1      42.343  32.505  30.288  1.00  0.00     0.029 A 
ATOM     55  C   UNL A   1      43.068  31.586  29.548  1.00  0.00     0.049 A 
ATOM     56  H   UNL A   1      42.498  29.669  28.876  1.00  0.00     0.167 HD
ATOM     57  C   UNL A   1      45.052  30.747  28.334  1.00  0.00     0.074 A 
ATOM     58  C   UNL A   1      46.373  30.902  27.765  1.00  0.00     0.031 C 
ATOM     59  C   UNL A   1      44.402  31.715  29.022  1.00  0.00     0.034 A 
BRANCH  46  60
ATOM     60  C   UNL A   1      38.592  30.301  30.475  1.00  0.00     0.023 A 
ATOM     61  C   UNL A   1      38.336  30.167  31.853  1.00  0.00     0.012 A 
ATOM     62  C   UNL A   1      37.682  31.009  29.665  1.00  0.00     0.148 A 
ATOM     63  C   UNL A   1      37.185  30.719  32.416  1.00  0.00     0.002 A 
ATOM     64  C   UNL A   1      36.560  31.594  30.239  1.00  0.00     0.091 A 
ATOM     65  F   UNL A   1      37.940  31.110  28.353  1.00  0.00    -0.205 F 
ATOM     66  C   UNL A   1      36.307  31.443  31.613  1.00  0.00     0.022 A 
BRANCH  64  67
ATOM     67  S   UNL A   1      35.412  32.616  29.310  1.00  0.00     0.127 S 
ATOM     68  O   UNL A   1      34.393  32.904  30.319  1.00  0.00    -0.237 OA
ATOM     69  O   UNL A   1      36.248  33.758  28.944  1.00  0.00    -0.237 OA
ATOM     70  O   UNL A   1      34.961  31.802  28.190  1.00  0.00    -0.744 OA
ENDBRANCH  64  67
ENDBRANCH  46  60
BRANCH  47  71
ATOM     71  C   UNL A   1      46.879  27.137  25.932  1.00  0.00     0.023 A 
ATOM     72  C   UNL A   1      47.843  26.303  26.532  1.00  0.00     0.012 A 
ATOM     73  C   UNL A   1      47.082  27.575  24.609  1.00  0.00     0.148 A 
ATOM     74  C   UNL A   1      49.008  25.955  25.848  1.00  0.00     0.002 A 
ATOM     75  C   UNL A   1      48.213  27.172  23.910  1.00  0.00     0.091 A 
ATOM     76  F   UNL A   1      46.164  28.380  24.056  1.00  0.00    -0.205 F 
ATOM     77  C   UNL A   1      49.189  26.381  24.534  1.00  0.00     0.022 A 
BRANCH  75  78
ATOM     78  S   UNL A   1      48.452  27.560  22.172  1.00  0.00     0.127 S 
ATOM     79  O   UNL A   1      48.743  26.244  21.609  1.00  0.00    -0.237 OA
ATOM     80  O   UNL A   1      47.150  28.115  21.802  1.00  0.00    -0.237 OA
ATOM     81  O   UNL A   1      49.543  28.525  22.136  1.00  0.00    -0.744 OA
ENDBRANCH  75  78
ENDBRANCH  47  71
BRANCH  59  82
ATOM     82  C   UNL A   1      45.108  33.029  29.227  1.00  0.00     0.023 A 
ATOM     83  C   UNL A   1      45.985  33.188  30.318  1.00  0.00     0.012 A 
ATOM     84  C   UNL A   1      44.973  34.072  28.289  1.00  0.00     0.148 A 
ATOM     85  C   UNL A   1      46.695  34.376  30.489  1.00  0.00     0.002 A 
ATOM     86  C   UNL A   1      45.723  35.232  28.438  1.00  0.00     0.091 A 
ATOM     87  F   UNL A   1      44.124  33.904  27.265  1.00  0.00    -0.205 F 
ATOM     88  C   UNL A   1      46.574  35.391  29.543  1.00  0.00     0.022 A 
BRANCH  86  89
ATOM     89  S   UNL A   1      45.708  36.557  27.224  1.00  0.00     0.127 S 
ATOM     90  O   UNL A   1      46.429  37.616  27.930  1.00  0.00    -0.237 OA
ATOM     91  O   UNL A   1      46.441  35.960  26.108  1.00  0.00    -0.237 OA
ATOM     92  O   UNL A   1      44.306  36.840  26.949  1.00  0.00    -0.744 OA
ENDBRANCH  86  89
ENDBRANCH  59  82
ENDBRANCH  33  34
ENDBRANCH  25  28
ENDBRANCH  23  24
ENDBRANCH  22  23
ENDBRANCH   1  22
TORSDOF 17
ENDMDL
