MODEL 1
REMARK VINA RESULT:     -15.2      0.000      0.000
REMARK SMILES CC(=O)c1ccc(N2CCN(c3ccc(C(=O)NCCCNC(=O)c4ccc(-c5c6nc(c(-c7cccc(S(=O)(=O)[O-])c7F)c7ccc([nH]7)c(-c7cccc(S(=O)(=O)[O-])c7F)c7nc(c(-c8cccc(S(=O)(=O)[O-])c8F)c8ccc5[nH]8)C=C7)C=C6)cc4)cc3NS(=O)(=O)c3ccc(C)cc3)CC2)cc1
REMARK SMILES IDX 20 1 19 2 18 3 16 4 17 5 15 7 12 8 13 9 89 10 14 11 88 12
REMARK SMILES IDX 11 13 8 14 9 15 102 16 10 17 101 18 7 19 4 20 5 21 104 22
REMARK SMILES IDX 6 23 103 24 2 25 1 26 3 27 90 28 91 30 92 31 93 32 94 33
REMARK SMILES IDX 95 34 100 35 96 36 99 37 97 38 98 39 21 40 22 41 23 42 24 44
REMARK SMILES IDX 25 45 26 46 87 47 27 48 86 49 28 50 29 51 30 52 80 53 31 54
REMARK SMILES IDX 85 55 79 56 81 57 32 58 84 59 78 60 77 61 33 63 65 64 45 65
REMARK SMILES IDX 64 66 46 67 49 68 63 69 82 70 47 71 48 72 62 74 83 75 50 76
REMARK SMILES IDX 34 77 35 78 43 79 36 80 38 81 44 82 37 83 39 84 40 85 41 86
REMARK SMILES IDX 42 87 66 88 67 89 75 90 68 91 70 92 76 93 69 94 71 95 72 96
REMARK SMILES IDX 73 97 74 98 51 99 52 100 60 101 53 102 55 103 61 104 54 105
REMARK SMILES IDX 56 106 57 107 58 108 59 109
REMARK H PARENT 18 6 90 29 22 43 81 62 49 73
REMARK Flexibility Score: inf
ROOT
ATOM      1  C   UNL A   1      31.606  31.582  26.474  1.00  0.00     0.042 C 
ENDROOT
BRANCH   1   2
ATOM      2  C   UNL A   1      31.514  29.620  25.515  1.00  0.00     0.118 C 
BRANCH   2   3
ATOM      3  N   UNL A   1      30.742  29.028  24.202  1.00  0.00    -0.352 N 
ATOM      4  C   UNL A   1      30.816  27.750  23.650  1.00  0.00     0.251 C 
ATOM      5  O   UNL A   1      29.849  27.249  23.088  1.00  0.00    -0.269 OA
ATOM      6  H   UNL A   1      30.145  29.658  23.738  1.00  0.00     0.163 HD
BRANCH   4   7
ATOM      7  C   UNL A   1      32.085  26.994  23.752  1.00  0.00     0.042 A 
ATOM      8  C   UNL A   1      34.154  25.143  24.128  1.00  0.00     0.061 A 
ATOM      9  C   UNL A   1      33.962  25.777  22.882  1.00  0.00     0.029 A 
ATOM     10  C   UNL A   1      33.297  25.497  25.178  1.00  0.00     0.073 A 
ATOM     11  C   UNL A   1      32.886  26.653  22.670  1.00  0.00     0.016 A 
ATOM     12  C   UNL A   1      32.449  26.566  25.010  1.00  0.00     0.042 A 
BRANCH   8  13
ATOM     13  N   UNL A   1      35.239  24.322  24.318  1.00  0.00    -0.366 N 
ATOM     14  N   UNL A   1      36.447  21.980  25.320  1.00  0.00    -0.368 N 
ATOM     15  C   UNL A   1      36.013  23.018  26.271  1.00  0.00     0.138 C 
ATOM     16  C   UNL A   1      35.737  21.921  24.027  1.00  0.00     0.138 C 
ATOM     17  C   UNL A   1      35.990  24.397  25.578  1.00  0.00     0.138 C 
ATOM     18  C   UNL A   1      35.644  23.307  23.348  1.00  0.00     0.138 C 
BRANCH  14  19
ATOM     19  C   UNL A   1      37.664  21.368  25.523  1.00  0.00     0.037 A 
ATOM     20  C   UNL A   1      40.188  20.176  25.931  1.00  0.00     0.017 A 
ATOM     21  C   UNL A   1      39.969  21.499  26.314  1.00  0.00     0.014 A 
ATOM     22  C   UNL A   1      39.149  19.442  25.352  1.00  0.00     0.014 A 
ATOM     23  C   UNL A   1      38.722  22.089  26.093  1.00  0.00     0.026 A 
ATOM     24  C   UNL A   1      37.895  20.035  25.165  1.00  0.00     0.026 A 
BRANCH  20  25
ATOM     25  C   UNL A   1      41.532  19.587  26.155  1.00  0.00     0.159 C 
ATOM     26  C   UNL A   1      42.066  19.556  27.562  1.00  0.00     0.093 C 
ATOM     27  O   UNL A   1      42.153  19.101  25.215  1.00  0.00    -0.295 OA
ENDBRANCH  20  25
ENDBRANCH  14  19
ENDBRANCH   8  13
BRANCH  10  28
ATOM     28  N   UNL A   1      33.156  24.758  26.406  1.00  0.00    -0.277 N 
ATOM     29  H   UNL A   1      33.723  24.953  27.187  1.00  0.00     0.180 HD
BRANCH  28  30
ATOM     30  S   UNL A   1      31.956  23.521  26.462  1.00  0.00     0.261 S 
ATOM     31  O   UNL A   1      32.000  22.935  27.788  1.00  0.00    -0.201 OA
ATOM     32  O   UNL A   1      30.733  24.103  25.961  1.00  0.00    -0.201 OA
BRANCH  30  33
ATOM     33  C   UNL A   1      32.407  22.211  25.315  1.00  0.00     0.087 A 
ATOM     34  C   UNL A   1      31.905  22.410  23.590  1.00  0.00     0.022 A 
ATOM     35  C   UNL A   1      32.889  20.597  25.933  1.00  0.00     0.022 A 
ATOM     36  C   UNL A   1      31.980  21.005  22.451  1.00  0.00     0.005 A 
ATOM     37  C   UNL A   1      32.957  19.185  24.818  1.00  0.00     0.005 A 
ATOM     38  C   UNL A   1      32.433  19.369  23.085  1.00  0.00    -0.051 A 
ATOM     39  C   UNL A   1      32.338  18.147  22.220  1.00  0.00     0.044 C 
ENDBRANCH  30  33
ENDBRANCH  28  30
ENDBRANCH  10  28
ENDBRANCH   4   7
ENDBRANCH   2   3
ENDBRANCH   1   2
BRANCH   1  40
ATOM     40  C   UNL A   1      32.772  32.439  27.410  1.00  0.00     0.118 C 
BRANCH  40  41
ATOM     41  N   UNL A   1      32.523  33.864  27.650  1.00  0.00    -0.352 N 
ATOM     42  C   UNL A   1      33.172  34.697  28.526  1.00  0.00     0.251 C 
ATOM     43  H   UNL A   1      31.801  34.272  27.119  1.00  0.00     0.163 HD
ATOM     44  O   UNL A   1      32.817  35.860  28.678  1.00  0.00    -0.269 OA
BRANCH  42  45
ATOM     45  C   UNL A   1      34.282  34.142  29.314  1.00  0.00     0.039 A 
ATOM     46  C   UNL A   1      33.991  33.304  30.391  1.00  0.00     0.014 A 
ATOM     47  C   UNL A   1      35.600  34.398  28.930  1.00  0.00     0.014 A 
ATOM     48  C   UNL A   1      35.037  32.682  31.068  1.00  0.00     0.010 A 
ATOM     49  C   UNL A   1      36.635  33.726  29.564  1.00  0.00     0.010 A 
ATOM     50  C   UNL A   1      36.362  32.877  30.647  1.00  0.00    -0.014 A 
BRANCH  50  51
ATOM     51  C   UNL A   1      37.482  32.216  31.350  1.00  0.00     0.031 A 
ATOM     52  C   UNL A   1      38.219  31.095  30.674  1.00  0.00     0.074 A 
ATOM     53  C   UNL A   1      37.770  32.575  32.616  1.00  0.00     0.049 A 
ATOM     54  N   UNL A   1      39.217  30.382  31.118  1.00  0.00    -0.248 NA
ATOM     55  C   UNL A   1      37.749  30.698  29.334  1.00  0.00     0.031 C 
ATOM     56  C   UNL A   1      37.041  33.577  33.397  1.00  0.00     0.029 A 
ATOM     57  N   UNL A   1      38.733  32.120  33.479  1.00  0.00    -0.354 N 
ATOM     58  C   UNL A   1      39.468  29.430  30.137  1.00  0.00     0.074 A 
ATOM     59  C   UNL A   1      38.497  29.633  29.087  1.00  0.00     0.031 C 
ATOM     60  C   UNL A   1      37.581  33.658  34.624  1.00  0.00     0.029 A 
ATOM     61  C   UNL A   1      38.685  32.710  34.721  1.00  0.00     0.049 A 
ATOM     62  H   UNL A   1      39.396  31.436  33.233  1.00  0.00     0.167 HD
ATOM     63  C   UNL A   1      40.441  28.491  30.106  1.00  0.00     0.034 A 
ATOM     64  C   UNL A   1      39.452  32.506  35.809  1.00  0.00     0.034 A 
ATOM     65  C   UNL A   1      41.435  28.351  31.131  1.00  0.00     0.049 A 
ATOM     66  C   UNL A   1      40.595  31.530  35.703  1.00  0.00     0.074 A 
ATOM     67  C   UNL A   1      42.543  27.523  31.149  1.00  0.00     0.029 A 
ATOM     68  N   UNL A   1      41.436  29.054  32.326  1.00  0.00    -0.354 N 
ATOM     69  N   UNL A   1      40.942  30.777  34.686  1.00  0.00    -0.248 NA
ATOM     70  C   UNL A   1      41.478  31.408  36.870  1.00  0.00     0.031 C 
ATOM     71  C   UNL A   1      43.203  27.714  32.367  1.00  0.00     0.029 A 
ATOM     72  C   UNL A   1      42.519  28.674  33.097  1.00  0.00     0.049 A 
ATOM     73  H   UNL A   1      40.766  29.725  32.587  1.00  0.00     0.167 HD
ATOM     74  C   UNL A   1      42.098  30.114  35.078  1.00  0.00     0.074 A 
ATOM     75  C   UNL A   1      42.407  30.576  36.417  1.00  0.00     0.031 C 
ATOM     76  C   UNL A   1      42.828  29.192  34.404  1.00  0.00     0.034 A 
BRANCH  63  77
ATOM     77  C   UNL A   1      40.511  27.586  28.905  1.00  0.00     0.023 A 
ATOM     78  C   UNL A   1      39.547  26.570  28.737  1.00  0.00     0.012 A 
ATOM     79  C   UNL A   1      41.493  27.777  27.914  1.00  0.00     0.148 A 
ATOM     80  C   UNL A   1      39.577  25.739  27.619  1.00  0.00     0.002 A 
ATOM     81  C   UNL A   1      41.489  26.972  26.780  1.00  0.00     0.091 A 
ATOM     82  F   UNL A   1      42.413  28.732  28.101  1.00  0.00    -0.205 F 
ATOM     83  C   UNL A   1      40.541  25.947  26.636  1.00  0.00     0.022 A 
BRANCH  81  84
ATOM     84  S   UNL A   1      42.641  27.204  25.421  1.00  0.00     0.127 S 
ATOM     85  O   UNL A   1      43.908  27.371  26.132  1.00  0.00    -0.237 OA
ATOM     86  O   UNL A   1      42.513  25.942  24.692  1.00  0.00    -0.237 OA
ATOM     87  O   UNL A   1      42.177  28.378  24.693  1.00  0.00    -0.744 OA
ENDBRANCH  81  84
ENDBRANCH  63  77
BRANCH  64  88
ATOM     88  C   UNL A   1      39.213  33.291  37.052  1.00  0.00     0.023 A 
ATOM     89  C   UNL A   1      39.769  34.580  37.180  1.00  0.00     0.012 A 
ATOM     90  C   UNL A   1      38.410  32.787  38.093  1.00  0.00     0.148 A 
ATOM     91  C   UNL A   1      39.558  35.336  38.335  1.00  0.00     0.002 A 
ATOM     92  C   UNL A   1      38.160  33.567  39.218  1.00  0.00     0.091 A 
ATOM     93  F   UNL A   1      37.900  31.554  37.964  1.00  0.00    -0.205 F 
ATOM     94  C   UNL A   1      38.746  34.835  39.348  1.00  0.00     0.022 A 
BRANCH  92  95
ATOM     95  S   UNL A   1      37.017  33.046  40.503  1.00  0.00     0.127 S 
ATOM     96  O   UNL A   1      37.030  34.197  41.402  1.00  0.00    -0.237 OA
ATOM     97  O   UNL A   1      35.773  32.864  39.753  1.00  0.00    -0.237 OA
ATOM     98  O   UNL A   1      37.575  31.810  41.037  1.00  0.00    -0.744 OA
ENDBRANCH  92  95
ENDBRANCH  64  88
BRANCH  76  99
ATOM     99  C   UNL A   1      44.045  28.635  35.090  1.00  0.00     0.023 A 
ATOM    100  C   UNL A   1      45.305  29.215  34.851  1.00  0.00     0.012 A 
ATOM    101  C   UNL A   1      43.923  27.603  36.041  1.00  0.00     0.148 A 
ATOM    102  C   UNL A   1      46.434  28.757  35.527  1.00  0.00     0.002 A 
ATOM    103  C   UNL A   1      45.043  27.186  36.749  1.00  0.00     0.091 A 
ATOM    104  F   UNL A   1      42.715  27.054  36.239  1.00  0.00    -0.205 F 
ATOM    105  C   UNL A   1      46.301  27.754  36.485  1.00  0.00     0.022 A 
BRANCH 103 106
ATOM    106  S   UNL A   1      44.944  25.975  38.071  1.00  0.00     0.127 S 
ATOM    107  O   UNL A   1      44.012  26.618  38.995  1.00  0.00    -0.237 OA
ATOM    108  O   UNL A   1      44.405  24.803  37.378  1.00  0.00    -0.237 OA
ATOM    109  O   UNL A   1      46.304  25.809  38.565  1.00  0.00    -0.744 OA
ENDBRANCH 103 106
ENDBRANCH  76  99
ENDBRANCH  50  51
ENDBRANCH  42  45
ENDBRANCH  40  41
ENDBRANCH   1  40
TORSDOF 19
ENDMDL
MODEL 2
REMARK VINA RESULT:     -14.0      2.650      4.091
REMARK SMILES CC(=O)c1ccc(N2CCN(c3ccc(C(=O)NCCCNC(=O)c4ccc(-c5c6nc(c(-c7cccc(S(=O)(=O)[O-])c7F)c7ccc([nH]7)c(-c7cccc(S(=O)(=O)[O-])c7F)c7nc(c(-c8cccc(S(=O)(=O)[O-])c8F)c8ccc5[nH]8)C=C7)C=C6)cc4)cc3NS(=O)(=O)c3ccc(C)cc3)CC2)cc1
REMARK SMILES IDX 20 1 19 2 18 3 16 4 17 5 15 7 12 8 13 9 89 10 14 11 88 12
REMARK SMILES IDX 11 13 8 14 9 15 102 16 10 17 101 18 7 19 4 20 5 21 104 22
REMARK SMILES IDX 6 23 103 24 2 25 1 26 3 27 90 28 91 30 92 31 93 32 94 33
REMARK SMILES IDX 95 34 100 35 96 36 99 37 97 38 98 39 21 40 22 41 23 42 24 44
REMARK SMILES IDX 25 45 26 46 87 47 27 48 86 49 28 50 29 51 30 52 80 53 31 54
REMARK SMILES IDX 85 55 79 56 81 57 32 58 84 59 78 60 77 61 33 63 65 64 45 65
REMARK SMILES IDX 64 66 46 67 49 68 63 69 82 70 47 71 48 72 62 74 83 75 50 76
REMARK SMILES IDX 34 77 35 78 43 79 36 80 38 81 44 82 37 83 39 84 40 85 41 86
REMARK SMILES IDX 42 87 66 88 67 89 75 90 68 91 70 92 76 93 69 94 71 95 72 96
REMARK SMILES IDX 73 97 74 98 51 99 52 100 60 101 53 102 55 103 61 104 54 105
REMARK SMILES IDX 56 106 57 107 58 108 59 109
REMARK H PARENT 18 6 90 29 22 43 81 62 49 73
REMARK Flexibility Score: inf
ROOT
ATOM      1  C   UNL A   1      31.551  31.017  26.628  1.00  0.00     0.042 C 
ENDROOT
BRANCH   1   2
ATOM      2  C   UNL A   1      31.159  29.514  25.090  1.00  0.00     0.118 C 
BRANCH   2   3
ATOM      3  N   UNL A   1      30.182  29.449  23.783  1.00  0.00    -0.352 N 
ATOM      4  C   UNL A   1      29.294  28.441  23.408  1.00  0.00     0.251 C 
ATOM      5  O   UNL A   1      28.259  28.704  22.808  1.00  0.00    -0.269 OA
ATOM      6  H   UNL A   1      30.224  30.225  23.180  1.00  0.00     0.163 HD
BRANCH   4   7
ATOM      7  C   UNL A   1      29.616  27.036  23.746  1.00  0.00     0.042 A 
ATOM      8  C   UNL A   1      30.756  24.529  24.259  1.00  0.00     0.061 A 
ATOM      9  C   UNL A   1      29.983  25.190  25.236  1.00  0.00     0.029 A 
ATOM     10  C   UNL A   1      30.903  25.152  23.013  1.00  0.00     0.073 A 
ATOM     11  C   UNL A   1      29.467  26.476  25.007  1.00  0.00     0.016 A 
ATOM     12  C   UNL A   1      30.145  26.264  22.734  1.00  0.00     0.042 A 
BRANCH   8  13
ATOM     13  N   UNL A   1      31.212  23.254  24.494  1.00  0.00    -0.366 N 
ATOM     14  N   UNL A   1      33.177  21.239  24.324  1.00  0.00    -0.368 N 
ATOM     15  C   UNL A   1      32.481  21.659  23.096  1.00  0.00     0.138 C 
ATOM     16  C   UNL A   1      33.265  22.233  25.413  1.00  0.00     0.138 C 
ATOM     17  C   UNL A   1      31.092  22.236  23.442  1.00  0.00     0.138 C 
ATOM     18  C   UNL A   1      31.893  22.874  25.730  1.00  0.00     0.138 C 
BRANCH  14  19
ATOM     19  C   UNL A   1      33.399  19.896  24.530  1.00  0.00     0.037 A 
ATOM     20  C   UNL A   1      33.795  17.142  24.990  1.00  0.00     0.017 A 
ATOM     21  C   UNL A   1      32.501  17.661  24.920  1.00  0.00     0.014 A 
ATOM     22  C   UNL A   1      34.892  17.991  24.822  1.00  0.00     0.014 A 
ATOM     23  C   UNL A   1      32.313  19.028  24.711  1.00  0.00     0.026 A 
ATOM     24  C   UNL A   1      34.688  19.354  24.580  1.00  0.00     0.026 A 
BRANCH  20  25
ATOM     25  C   UNL A   1      33.961  15.688  25.241  1.00  0.00     0.159 C 
ATOM     26  C   UNL A   1      32.733  14.878  25.558  1.00  0.00     0.093 C 
ATOM     27  O   UNL A   1      35.069  15.171  25.139  1.00  0.00    -0.295 OA
ENDBRANCH  20  25
ENDBRANCH  14  19
ENDBRANCH   8  13
BRANCH  10  28
ATOM     28  N   UNL A   1      31.874  24.776  22.018  1.00  0.00    -0.277 N 
ATOM     29  H   UNL A   1      31.658  24.121  21.315  1.00  0.00     0.180 HD
BRANCH  28  30
ATOM     30  S   UNL A   1      33.430  25.516  22.099  1.00  0.00     0.261 S 
ATOM     31  O   UNL A   1      34.395  24.466  22.364  1.00  0.00    -0.201 OA
ATOM     32  O   UNL A   1      33.559  26.347  20.925  1.00  0.00    -0.201 OA
BRANCH  30  33
ATOM     33  C   UNL A   1      33.483  26.621  23.517  1.00  0.00     0.087 A 
ATOM     34  C   UNL A   1      33.910  28.350  23.205  1.00  0.00     0.022 A 
ATOM     35  C   UNL A   1      33.585  25.953  25.179  1.00  0.00     0.022 A 
ATOM     36  C   UNL A   1      34.348  29.443  24.581  1.00  0.00     0.005 A 
ATOM     37  C   UNL A   1      34.033  27.021  26.557  1.00  0.00     0.005 A 
ATOM     38  C   UNL A   1      34.486  28.757  26.252  1.00  0.00    -0.051 A 
ATOM     39  C   UNL A   1      35.016  29.582  27.388  1.00  0.00     0.044 C 
ENDBRANCH  30  33
ENDBRANCH  28  30
ENDBRANCH  10  28
ENDBRANCH   4   7
ENDBRANCH   2   3
ENDBRANCH   1   2
BRANCH   1  40
ATOM     40  C   UNL A   1      32.824  32.130  26.965  1.00  0.00     0.118 C 
BRANCH  40  41
ATOM     41  N   UNL A   1      32.442  33.504  27.301  1.00  0.00    -0.352 N 
ATOM     42  C   UNL A   1      33.008  34.332  28.237  1.00  0.00     0.251 C 
ATOM     43  H   UNL A   1      31.685  33.879  26.793  1.00  0.00     0.163 HD
ATOM     44  O   UNL A   1      32.545  35.443  28.466  1.00  0.00    -0.269 OA
BRANCH  42  45
ATOM     45  C   UNL A   1      34.165  33.829  28.993  1.00  0.00     0.039 A 
ATOM     46  C   UNL A   1      33.972  32.797  29.913  1.00  0.00     0.014 A 
ATOM     47  C   UNL A   1      35.439  34.336  28.728  1.00  0.00     0.014 A 
ATOM     48  C   UNL A   1      35.079  32.238  30.546  1.00  0.00     0.010 A 
ATOM     49  C   UNL A   1      36.544  33.732  29.311  1.00  0.00     0.010 A 
ATOM     50  C   UNL A   1      36.371  32.691  30.235  1.00  0.00    -0.014 A 
BRANCH  50  51
ATOM     51  C   UNL A   1      37.556  32.100  30.893  1.00  0.00     0.031 A 
ATOM     52  C   UNL A   1      38.408  31.121  30.136  1.00  0.00     0.074 A 
ATOM     53  C   UNL A   1      37.806  32.388  32.185  1.00  0.00     0.049 A 
ATOM     54  N   UNL A   1      39.478  30.487  30.530  1.00  0.00    -0.248 NA
ATOM     55  C   UNL A   1      37.982  30.784  28.766  1.00  0.00     0.031 C 
ATOM     56  C   UNL A   1      36.974  33.241  33.037  1.00  0.00     0.029 A 
ATOM     57  N   UNL A   1      38.813  31.971  33.016  1.00  0.00    -0.354 N 
ATOM     58  C   UNL A   1      39.828  29.647  29.479  1.00  0.00     0.074 A 
ATOM     59  C   UNL A   1      38.839  29.828  28.441  1.00  0.00     0.031 C 
ATOM     60  C   UNL A   1      37.504  33.283  34.270  1.00  0.00     0.029 A 
ATOM     61  C   UNL A   1      38.704  32.453  34.300  1.00  0.00     0.049 A 
ATOM     62  H   UNL A   1      39.545  31.383  32.722  1.00  0.00     0.167 HD
ATOM     63  C   UNL A   1      40.895  28.823  29.381  1.00  0.00     0.034 A 
ATOM     64  C   UNL A   1      39.490  32.247  35.374  1.00  0.00     0.034 A 
ATOM     65  C   UNL A   1      41.901  28.709  30.400  1.00  0.00     0.049 A 
ATOM     66  C   UNL A   1      40.730  31.410  35.201  1.00  0.00     0.074 A 
ATOM     67  C   UNL A   1      43.091  28.006  30.361  1.00  0.00     0.029 A 
ATOM     68  N   UNL A   1      41.828  29.313  31.646  1.00  0.00    -0.354 N 
ATOM     69  N   UNL A   1      41.154  30.781  34.130  1.00  0.00    -0.248 NA
ATOM     70  C   UNL A   1      41.623  31.292  36.361  1.00  0.00     0.031 C 
ATOM     71  C   UNL A   1      43.728  28.170  31.594  1.00  0.00     0.029 A 
ATOM     72  C   UNL A   1      42.946  28.991  32.392  1.00  0.00     0.049 A 
ATOM     73  H   UNL A   1      41.089  29.886  31.954  1.00  0.00     0.167 HD
ATOM     74  C   UNL A   1      42.375  30.216  34.477  1.00  0.00     0.074 A 
ATOM     75  C   UNL A   1      42.635  30.603  35.851  1.00  0.00     0.031 C 
ATOM     76  C   UNL A   1      43.199  29.434  33.739  1.00  0.00     0.034 A 
BRANCH  63  77
ATOM     77  C   UNL A   1      41.060  28.028  28.114  1.00  0.00     0.023 A 
ATOM     78  C   UNL A   1      41.647  28.631  26.981  1.00  0.00     0.012 A 
ATOM     79  C   UNL A   1      40.691  26.670  28.059  1.00  0.00     0.148 A 
ATOM     80  C   UNL A   1      41.834  27.905  25.806  1.00  0.00     0.002 A 
ATOM     81  C   UNL A   1      40.921  25.941  26.898  1.00  0.00     0.091 A 
ATOM     82  F   UNL A   1      40.115  26.121  29.138  1.00  0.00    -0.205 F 
ATOM     83  C   UNL A   1      41.481  26.558  25.768  1.00  0.00     0.022 A 
BRANCH  81  84
ATOM     84  S   UNL A   1      40.572  24.184  26.769  1.00  0.00     0.127 S 
ATOM     85  O   UNL A   1      41.539  23.764  25.756  1.00  0.00    -0.237 OA
ATOM     86  O   UNL A   1      40.864  23.714  28.124  1.00  0.00    -0.237 OA
ATOM     87  O   UNL A   1      39.173  24.077  26.376  1.00  0.00    -0.744 OA
ENDBRANCH  81  84
ENDBRANCH  63  77
BRANCH  64  88
ATOM     88  C   UNL A   1      39.169  32.902  36.674  1.00  0.00     0.023 A 
ATOM     89  C   UNL A   1      39.712  34.168  36.968  1.00  0.00     0.012 A 
ATOM     90  C   UNL A   1      38.303  32.297  37.604  1.00  0.00     0.148 A 
ATOM     91  C   UNL A   1      39.426  34.803  38.178  1.00  0.00     0.002 A 
ATOM     92  C   UNL A   1      37.979  32.959  38.785  1.00  0.00     0.091 A 
ATOM     93  F   UNL A   1      37.805  31.086  37.317  1.00  0.00    -0.205 F 
ATOM     94  C   UNL A   1      38.552  34.204  39.082  1.00  0.00     0.022 A 
BRANCH  92  95
ATOM     95  S   UNL A   1      36.757  32.313  39.934  1.00  0.00     0.127 S 
ATOM     96  O   UNL A   1      37.340  31.025  40.300  1.00  0.00    -0.237 OA
ATOM     97  O   UNL A   1      36.771  33.319  40.997  1.00  0.00    -0.237 OA
ATOM     98  O   UNL A   1      35.510  32.260  39.181  1.00  0.00    -0.744 OA
ENDBRANCH  92  95
ENDBRANCH  64  88
BRANCH  76  99
ATOM     99  C   UNL A   1      44.470  28.958  34.387  1.00  0.00     0.023 A 
ATOM    100  C   UNL A   1      44.469  27.756  35.120  1.00  0.00     0.012 A 
ATOM    101  C   UNL A   1      45.679  29.652  34.189  1.00  0.00     0.148 A 
ATOM    102  C   UNL A   1      45.650  27.263  35.671  1.00  0.00     0.002 A 
ATOM    103  C   UNL A   1      46.861  29.129  34.698  1.00  0.00     0.091 A 
ATOM    104  F   UNL A   1      45.652  30.804  33.503  1.00  0.00    -0.205 F 
ATOM    105  C   UNL A   1      46.846  27.942  35.449  1.00  0.00     0.022 A 
BRANCH 103 106
ATOM    106  S   UNL A   1      48.459  29.881  34.372  1.00  0.00     0.127 S 
ATOM    107  O   UNL A   1      49.366  28.965  35.060  1.00  0.00    -0.237 OA
ATOM    108  O   UNL A   1      48.533  29.831  32.911  1.00  0.00    -0.237 OA
ATOM    109  O   UNL A   1      48.389  31.227  34.925  1.00  0.00    -0.744 OA
ENDBRANCH 103 106
ENDBRANCH  76  99
ENDBRANCH  50  51
ENDBRANCH  42  45
ENDBRANCH  40  41
ENDBRANCH   1  40
TORSDOF 19
ENDMDL
MODEL 3
REMARK VINA RESULT:     -13.9      2.426      3.809
REMARK SMILES CC(=O)c1ccc(N2CCN(c3ccc(C(=O)NCCCNC(=O)c4ccc(-c5c6nc(c(-c7cccc(S(=O)(=O)[O-])c7F)c7ccc([nH]7)c(-c7cccc(S(=O)(=O)[O-])c7F)c7nc(c(-c8cccc(S(=O)(=O)[O-])c8F)c8ccc5[nH]8)C=C7)C=C6)cc4)cc3NS(=O)(=O)c3ccc(C)cc3)CC2)cc1
REMARK SMILES IDX 20 1 19 2 18 3 16 4 17 5 15 7 12 8 13 9 89 10 14 11 88 12
REMARK SMILES IDX 11 13 8 14 9 15 102 16 10 17 101 18 7 19 4 20 5 21 104 22
REMARK SMILES IDX 6 23 103 24 2 25 1 26 3 27 90 28 91 30 92 31 93 32 94 33
REMARK SMILES IDX 95 34 100 35 96 36 99 37 97 38 98 39 21 40 22 41 23 42 24 44
REMARK SMILES IDX 25 45 26 46 87 47 27 48 86 49 28 50 29 51 30 52 80 53 31 54
REMARK SMILES IDX 85 55 79 56 81 57 32 58 84 59 78 60 77 61 33 63 65 64 45 65
REMARK SMILES IDX 64 66 46 67 49 68 63 69 82 70 47 71 48 72 62 74 83 75 50 76
REMARK SMILES IDX 34 77 35 78 43 79 36 80 38 81 44 82 37 83 39 84 40 85 41 86
REMARK SMILES IDX 42 87 66 88 67 89 75 90 68 91 70 92 76 93 69 94 71 95 72 96
REMARK SMILES IDX 73 97 74 98 51 99 52 100 60 101 53 102 55 103 61 104 54 105
REMARK SMILES IDX 56 106 57 107 58 108 59 109
REMARK H PARENT 18 6 90 29 22 43 81 62 49 73
REMARK Flexibility Score: inf
ROOT
ATOM      1  C   UNL A   1      31.748  31.485  26.852  1.00  0.00     0.042 C 
ENDROOT
BRANCH   1   2
ATOM      2  C   UNL A   1      31.300  29.870  25.448  1.00  0.00     0.118 C 
BRANCH   2   3
ATOM      3  N   UNL A   1      30.620  29.807  23.964  1.00  0.00    -0.352 N 
ATOM      4  C   UNL A   1      29.836  28.798  23.407  1.00  0.00     0.251 C 
ATOM      5  O   UNL A   1      28.949  29.060  22.602  1.00  0.00    -0.269 OA
ATOM      6  H   UNL A   1      30.787  30.585  23.385  1.00  0.00     0.163 HD
BRANCH   4   7
ATOM      7  C   UNL A   1      30.083  27.393  23.801  1.00  0.00     0.042 A 
ATOM      8  C   UNL A   1      31.039  24.801  24.267  1.00  0.00     0.061 A 
ATOM      9  C   UNL A   1      30.650  25.635  25.336  1.00  0.00     0.029 A 
ATOM     10  C   UNL A   1      30.898  25.300  22.965  1.00  0.00     0.073 A 
ATOM     11  C   UNL A   1      30.234  26.958  25.111  1.00  0.00     0.016 A 
ATOM     12  C   UNL A   1      30.219  26.480  22.778  1.00  0.00     0.042 A 
BRANCH   8  13
ATOM     13  N   UNL A   1      31.401  23.499  24.513  1.00  0.00    -0.366 N 
ATOM     14  N   UNL A   1      33.317  21.439  24.714  1.00  0.00    -0.368 N 
ATOM     15  C   UNL A   1      32.983  21.972  23.381  1.00  0.00     0.138 C 
ATOM     16  C   UNL A   1      33.119  22.345  25.862  1.00  0.00     0.138 C 
ATOM     17  C   UNL A   1      31.558  22.566  23.388  1.00  0.00     0.138 C 
ATOM     18  C   UNL A   1      31.720  23.005  25.851  1.00  0.00     0.138 C 
BRANCH  14  19
ATOM     19  C   UNL A   1      33.460  20.078  24.862  1.00  0.00     0.037 A 
ATOM     20  C   UNL A   1      33.717  17.293  25.226  1.00  0.00     0.017 A 
ATOM     21  C   UNL A   1      32.582  17.958  25.693  1.00  0.00     0.014 A 
ATOM     22  C   UNL A   1      34.720  18.011  24.570  1.00  0.00     0.014 A 
ATOM     23  C   UNL A   1      32.470  19.340  25.526  1.00  0.00     0.026 A 
ATOM     24  C   UNL A   1      34.579  19.391  24.380  1.00  0.00     0.026 A 
BRANCH  20  25
ATOM     25  C   UNL A   1      33.818  15.828  25.444  1.00  0.00     0.159 C 
ATOM     26  C   UNL A   1      32.541  15.039  25.561  1.00  0.00     0.093 C 
ATOM     27  O   UNL A   1      34.919  15.287  25.475  1.00  0.00    -0.295 OA
ENDBRANCH  20  25
ENDBRANCH  14  19
ENDBRANCH   8  13
BRANCH  10  28
ATOM     28  N   UNL A   1      31.503  24.719  21.795  1.00  0.00    -0.277 N 
ATOM     29  H   UNL A   1      31.014  24.074  21.234  1.00  0.00     0.180 HD
BRANCH  28  30
ATOM     30  S   UNL A   1      33.115  25.194  21.408  1.00  0.00     0.261 S 
ATOM     31  O   UNL A   1      33.921  23.989  21.356  1.00  0.00    -0.201 OA
ATOM     32  O   UNL A   1      33.030  26.066  20.260  1.00  0.00    -0.201 OA
BRANCH  30  33
ATOM     33  C   UNL A   1      33.776  26.186  22.756  1.00  0.00     0.087 A 
ATOM     34  C   UNL A   1      34.164  25.331  24.301  1.00  0.00     0.022 A 
ATOM     35  C   UNL A   1      33.600  27.971  22.733  1.00  0.00     0.022 A 
ATOM     36  C   UNL A   1      34.475  26.278  25.813  1.00  0.00     0.005 A 
ATOM     37  C   UNL A   1      33.892  28.928  24.229  1.00  0.00     0.005 A 
ATOM     38  C   UNL A   1      34.262  28.078  25.795  1.00  0.00    -0.051 A 
ATOM     39  C   UNL A   1      34.337  28.880  27.060  1.00  0.00     0.044 C 
ENDBRANCH  30  33
ENDBRANCH  28  30
ENDBRANCH  10  28
ENDBRANCH   4   7
ENDBRANCH   2   3
ENDBRANCH   1   2
BRANCH   1  40
ATOM     40  C   UNL A   1      32.992  32.667  27.010  1.00  0.00     0.118 C 
BRANCH  40  41
ATOM     41  N   UNL A   1      32.638  33.931  27.663  1.00  0.00    -0.352 N 
ATOM     42  C   UNL A   1      33.221  34.503  28.765  1.00  0.00     0.251 C 
ATOM     43  H   UNL A   1      31.889  34.430  27.261  1.00  0.00     0.163 HD
ATOM     44  O   UNL A   1      32.780  35.538  29.252  1.00  0.00    -0.269 OA
BRANCH  42  45
ATOM     45  C   UNL A   1      34.367  33.814  29.376  1.00  0.00     0.039 A 
ATOM     46  C   UNL A   1      35.656  34.269  29.092  1.00  0.00     0.014 A 
ATOM     47  C   UNL A   1      34.148  32.775  30.282  1.00  0.00     0.014 A 
ATOM     48  C   UNL A   1      36.738  33.698  29.756  1.00  0.00     0.010 A 
ATOM     49  C   UNL A   1      35.222  32.254  30.990  1.00  0.00     0.010 A 
ATOM     50  C   UNL A   1      36.524  32.700  30.722  1.00  0.00    -0.014 A 
BRANCH  50  51
ATOM     51  C   UNL A   1      37.663  32.092  31.442  1.00  0.00     0.031 A 
ATOM     52  C   UNL A   1      38.439  30.983  30.791  1.00  0.00     0.074 A 
ATOM     53  C   UNL A   1      37.934  32.486  32.701  1.00  0.00     0.049 A 
ATOM     54  N   UNL A   1      39.460  30.313  31.252  1.00  0.00    -0.248 NA
ATOM     55  C   UNL A   1      37.988  30.544  29.457  1.00  0.00     0.031 C 
ATOM     56  C   UNL A   1      37.168  33.478  33.460  1.00  0.00     0.029 A 
ATOM     57  N   UNL A   1      38.908  32.080  33.576  1.00  0.00    -0.354 N 
ATOM     58  C   UNL A   1      39.746  29.351  30.291  1.00  0.00     0.074 A 
ATOM     59  C   UNL A   1      38.773  29.501  29.233  1.00  0.00     0.031 C 
ATOM     60  C   UNL A   1      37.701  33.602  34.686  1.00  0.00     0.029 A 
ATOM     61  C   UNL A   1      38.836  32.693  34.805  1.00  0.00     0.049 A 
ATOM     62  H   UNL A   1      39.595  31.414  33.346  1.00  0.00     0.167 HD
ATOM     63  C   UNL A   1      40.750  28.445  30.281  1.00  0.00     0.034 A 
ATOM     64  C   UNL A   1      39.606  32.536  35.899  1.00  0.00     0.034 A 
ATOM     65  C   UNL A   1      41.745  28.359  31.312  1.00  0.00     0.049 A 
ATOM     66  C   UNL A   1      40.780  31.598  35.817  1.00  0.00     0.074 A 
ATOM     67  C   UNL A   1      42.880  27.570  31.350  1.00  0.00     0.029 A 
ATOM     68  N   UNL A   1      41.718  29.086  32.493  1.00  0.00    -0.354 N 
ATOM     69  N   UNL A   1      41.156  30.837  34.816  1.00  0.00    -0.248 NA
ATOM     70  C   UNL A   1      41.663  31.529  36.989  1.00  0.00     0.031 C 
ATOM     71  C   UNL A   1      43.529  27.806  32.566  1.00  0.00     0.029 A 
ATOM     72  C   UNL A   1      42.809  28.757  33.274  1.00  0.00     0.049 A 
ATOM     73  H   UNL A   1      41.024  29.739  32.738  1.00  0.00     0.167 HD
ATOM     74  C   UNL A   1      42.333  30.221  35.225  1.00  0.00     0.074 A 
ATOM     75  C   UNL A   1      42.621  30.720  36.556  1.00  0.00     0.031 C 
ATOM     76  C   UNL A   1      43.096  29.311  34.572  1.00  0.00     0.034 A 
BRANCH  63  77
ATOM     77  C   UNL A   1      40.855  27.519  29.099  1.00  0.00     0.023 A 
ATOM     78  C   UNL A   1      40.052  26.361  29.044  1.00  0.00     0.012 A 
ATOM     79  C   UNL A   1      41.703  27.824  28.016  1.00  0.00     0.148 A 
ATOM     80  C   UNL A   1      40.114  25.505  27.945  1.00  0.00     0.002 A 
ATOM     81  C   UNL A   1      41.726  26.988  26.905  1.00  0.00     0.091 A 
ATOM     82  F   UNL A   1      42.475  28.916  28.097  1.00  0.00    -0.205 F 
ATOM     83  C   UNL A   1      40.942  25.824  26.873  1.00  0.00     0.022 A 
BRANCH  81  84
ATOM     84  S   UNL A   1      42.702  27.347  25.440  1.00  0.00     0.127 S 
ATOM     85  O   UNL A   1      42.039  28.546  24.930  1.00  0.00    -0.237 OA
ATOM     86  O   UNL A   1      44.030  27.580  26.008  1.00  0.00    -0.237 OA
ATOM     87  O   UNL A   1      42.600  26.170  24.589  1.00  0.00    -0.744 OA
ENDBRANCH  81  84
ENDBRANCH  63  77
BRANCH  64  88
ATOM     88  C   UNL A   1      39.335  33.338  37.126  1.00  0.00     0.023 A 
ATOM     89  C   UNL A   1      38.562  32.783  38.165  1.00  0.00     0.012 A 
ATOM     90  C   UNL A   1      39.866  34.632  37.287  1.00  0.00     0.148 A 
ATOM     91  C   UNL A   1      38.295  33.514  39.324  1.00  0.00     0.002 A 
ATOM     92  C   UNL A   1      39.641  35.335  38.467  1.00  0.00     0.091 A 
ATOM     93  F   UNL A   1      40.588  35.153  36.284  1.00  0.00    -0.205 F 
ATOM     94  C   UNL A   1      38.843  34.784  39.480  1.00  0.00     0.022 A 
BRANCH  92  95
ATOM     95  S   UNL A   1      40.425  36.918  38.796  1.00  0.00     0.127 S 
ATOM     96  O   UNL A   1      40.964  37.265  37.484  1.00  0.00    -0.237 OA
ATOM     97  O   UNL A   1      39.293  37.738  39.232  1.00  0.00    -0.237 OA
ATOM     98  O   UNL A   1      41.405  36.654  39.842  1.00  0.00    -0.744 OA
ENDBRANCH  92  95
ENDBRANCH  64  88
BRANCH  76  99
ATOM     99  C   UNL A   1      44.329  28.809  35.272  1.00  0.00     0.023 A 
ATOM    100  C   UNL A   1      45.561  29.457  35.063  1.00  0.00     0.012 A 
ATOM    101  C   UNL A   1      44.244  27.760  36.208  1.00  0.00     0.148 A 
ATOM    102  C   UNL A   1      46.700  29.050  35.754  1.00  0.00     0.002 A 
ATOM    103  C   UNL A   1      45.372  27.393  36.931  1.00  0.00     0.091 A 
ATOM    104  F   UNL A   1      43.064  27.146  36.378  1.00  0.00    -0.205 F 
ATOM    105  C   UNL A   1      46.603  28.028  36.696  1.00  0.00     0.022 A 
BRANCH 103 106
ATOM    106  S   UNL A   1      45.314  26.160  38.236  1.00  0.00     0.127 S 
ATOM    107  O   UNL A   1      44.283  26.707  39.116  1.00  0.00    -0.237 OA
ATOM    108  O   UNL A   1      44.916  24.955  37.506  1.00  0.00    -0.237 OA
ATOM    109  O   UNL A   1      46.656  26.108  38.798  1.00  0.00    -0.744 OA
ENDBRANCH 103 106
ENDBRANCH  76  99
ENDBRANCH  50  51
ENDBRANCH  42  45
ENDBRANCH  40  41
ENDBRANCH   1  40
TORSDOF 19
ENDMDL
