MODEL 1
REMARK VINA RESULT:     -12.3      0.000      0.000
REMARK SMILES Cc1cc(OCC(=O)Nc2sccc2C(=O)NCCCNC(=O)c2ccc(-c3c4nc(c(-c5cccc(S(=O)(=O)[O-])c5F)c5ccc([nH]5)c(-c5cccc(S(=O)(=O)[O-])c5F)c5nc(c(-c6cccc(S(=O)(=O)[O-])c6F)c6ccc3[nH]6)C=C5)C=C4)cc2)ccc1Cl
REMARK SMILES IDX 18 1 17 2 15 3 16 4 14 6 10 7 11 8 12 9 13 10 9 11 7 12 8 13
REMARK SMILES IDX 6 15 5 16 4 17 1 18 2 19 3 20 89 21 88 22 90 23 87 24 19 25
REMARK SMILES IDX 20 26 21 27 22 28 23 30 24 31 25 32 86 33 26 34 85 35 27 36
REMARK SMILES IDX 28 37 29 38 79 39 30 40 84 41 78 42 80 43 31 44 83 45 77 46
REMARK SMILES IDX 76 47 32 49 64 50 44 51 63 52 45 53 48 54 62 55 81 56 46 57
REMARK SMILES IDX 47 58 61 60 82 61 49 62 33 63 34 64 42 65 35 66 37 67 43 68
REMARK SMILES IDX 36 69 38 70 39 71 40 72 41 73 65 74 66 75 74 76 67 77 69 78
REMARK SMILES IDX 75 79 68 80 70 81 71 82 72 83 73 84 50 85 51 86 59 87 52 88
REMARK SMILES IDX 54 89 60 90 53 91 55 92 56 93 57 94 58 95
REMARK H PARENT 17 5 9 14 21 29 80 48 48 59
REMARK Flexibility Score: inf
ROOT
ATOM      1  C   UNL A   1      32.146  27.913  27.359  1.00  0.00     0.118 C 
ENDROOT
BRANCH   1   2
ATOM      2  N   UNL A   1      31.200  26.893  26.965  1.00  0.00    -0.352 N 
ATOM      3  C   UNL A   1      30.770  26.543  25.709  1.00  0.00     0.254 C 
ATOM      4  O   UNL A   1      29.823  25.754  25.635  1.00  0.00    -0.269 OA
ATOM      5  H   UNL A   1      30.809  26.374  27.705  1.00  0.00     0.163 HD
BRANCH   3   6
ATOM      6  C   UNL A   1      31.304  27.167  24.495  1.00  0.00     0.074 A 
ATOM      7  C   UNL A   1      32.559  27.123  23.909  1.00  0.00     0.108 A 
ATOM      8  S   UNL A   1      32.776  28.351  22.735  1.00  0.00    -0.126 S 
ATOM      9  C   UNL A   1      31.120  28.743  22.742  1.00  0.00     0.068 A 
ATOM     10  C   UNL A   1      30.451  28.043  23.715  1.00  0.00     0.028 A 
BRANCH   7  11
ATOM     11  N   UNL A   1      33.734  26.433  24.092  1.00  0.00    -0.314 N 
ATOM     12  C   UNL A   1      33.947  25.143  24.483  1.00  0.00     0.262 C 
ATOM     13  O   UNL A   1      35.071  24.846  24.907  1.00  0.00    -0.271 OA
ATOM     14  H   UNL A   1      34.550  26.953  23.913  1.00  0.00     0.170 HD
BRANCH  12  15
ATOM     15  C   UNL A   1      32.923  24.042  24.200  1.00  0.00     0.329 C 
BRANCH  15  16
ATOM     16  O   UNL A   1      32.642  23.068  25.169  1.00  0.00    -0.484 OA
BRANCH  16  17
ATOM     17  C   UNL A   1      33.040  21.778  24.972  1.00  0.00     0.120 A 
ATOM     18  C   UNL A   1      32.229  18.436  23.336  1.00  0.00     0.046 C 
ATOM     19  C   UNL A   1      32.973  19.518  24.067  1.00  0.00    -0.029 A 
ATOM     20  C   UNL A   1      32.375  20.783  24.255  1.00  0.00     0.051 A 
ATOM     21  C   UNL A   1      34.260  19.285  24.583  1.00  0.00     0.044 A 
ATOM     22  C   UNL A   1      34.915  20.274  25.311  1.00  0.00     0.024 A 
ATOM     23  Cl  UNL A   1      35.088  17.791  24.332  1.00  0.00    -0.084 Cl
ATOM     24  C   UNL A   1      34.295  21.501  25.519  1.00  0.00     0.048 A 
ENDBRANCH  16  17
ENDBRANCH  15  16
ENDBRANCH  12  15
ENDBRANCH   7  11
ENDBRANCH   3   6
ENDBRANCH   1   2
BRANCH   1  25
ATOM     25  C   UNL A   1      31.611  29.331  27.309  1.00  0.00     0.042 C 
BRANCH  25  26
ATOM     26  C   UNL A   1      32.477  30.303  26.513  1.00  0.00     0.118 C 
BRANCH  26  27
ATOM     27  N   UNL A   1      32.453  31.688  26.985  1.00  0.00    -0.352 N 
ATOM     28  C   UNL A   1      33.462  32.423  27.573  1.00  0.00     0.251 C 
ATOM     29  H   UNL A   1      31.599  32.161  26.865  1.00  0.00     0.163 HD
ATOM     30  O   UNL A   1      33.273  33.593  27.891  1.00  0.00    -0.269 OA
BRANCH  28  31
ATOM     31  C   UNL A   1      34.758  31.778  27.875  1.00  0.00     0.039 A 
ATOM     32  C   UNL A   1      35.895  32.581  28.005  1.00  0.00     0.014 A 
ATOM     33  C   UNL A   1      34.831  30.408  28.131  1.00  0.00     0.014 A 
ATOM     34  C   UNL A   1      37.069  32.032  28.523  1.00  0.00     0.010 A 
ATOM     35  C   UNL A   1      35.969  29.882  28.723  1.00  0.00     0.010 A 
ATOM     36  C   UNL A   1      37.088  30.696  28.952  1.00  0.00    -0.014 A 
BRANCH  36  37
ATOM     37  C   UNL A   1      38.211  30.141  29.746  1.00  0.00     0.031 A 
ATOM     38  C   UNL A   1      38.452  30.613  31.152  1.00  0.00     0.074 A 
ATOM     39  C   UNL A   1      39.110  29.350  29.126  1.00  0.00     0.049 A 
ATOM     40  N   UNL A   1      39.439  30.326  31.958  1.00  0.00    -0.248 NA
ATOM     41  C   UNL A   1      37.478  31.567  31.711  1.00  0.00     0.031 C 
ATOM     42  C   UNL A   1      39.052  28.943  27.717  1.00  0.00     0.029 A 
ATOM     43  N   UNL A   1      40.272  28.781  29.582  1.00  0.00    -0.354 N 
ATOM     44  C   UNL A   1      39.232  31.091  33.099  1.00  0.00     0.074 A 
ATOM     45  C   UNL A   1      38.045  31.885  32.866  1.00  0.00     0.031 C 
ATOM     46  C   UNL A   1      40.125  28.191  27.429  1.00  0.00     0.029 A 
ATOM     47  C   UNL A   1      40.957  28.074  28.620  1.00  0.00     0.049 A 
ATOM     48  H   UNL A   1      40.586  28.869  30.511  1.00  0.00     0.167 HD
ATOM     49  C   UNL A   1      39.946  31.104  34.249  1.00  0.00     0.034 A 
ATOM     50  C   UNL A   1      42.123  27.404  28.693  1.00  0.00     0.034 A 
ATOM     51  C   UNL A   1      41.090  30.265  34.484  1.00  0.00     0.049 A 
ATOM     52  C   UNL A   1      42.834  27.344  30.017  1.00  0.00     0.074 A 
ATOM     53  C   UNL A   1      41.818  30.107  35.650  1.00  0.00     0.029 A 
ATOM     54  N   UNL A   1      41.670  29.439  33.534  1.00  0.00    -0.354 N 
ATOM     55  N   UNL A   1      42.513  27.921  31.149  1.00  0.00    -0.248 NA
ATOM     56  C   UNL A   1      44.038  26.504  30.088  1.00  0.00     0.031 C 
ATOM     57  C   UNL A   1      42.842  29.187  35.402  1.00  0.00     0.029 A 
ATOM     58  C   UNL A   1      42.744  28.763  34.086  1.00  0.00     0.049 A 
ATOM     59  H   UNL A   1      41.363  29.346  32.603  1.00  0.00     0.167 HD
ATOM     60  C   UNL A   1      43.451  27.487  32.077  1.00  0.00     0.074 A 
ATOM     61  C   UNL A   1      44.340  26.581  31.377  1.00  0.00     0.031 C 
ATOM     62  C   UNL A   1      43.577  27.819  33.386  1.00  0.00     0.034 A 
BRANCH  49  63
ATOM     63  C   UNL A   1      39.460  31.989  35.367  1.00  0.00     0.023 A 
ATOM     64  C   UNL A   1      38.566  31.462  36.322  1.00  0.00     0.012 A 
ATOM     65  C   UNL A   1      39.923  33.311  35.515  1.00  0.00     0.148 A 
ATOM     66  C   UNL A   1      38.112  32.243  37.383  1.00  0.00     0.002 A 
ATOM     67  C   UNL A   1      39.500  34.071  36.601  1.00  0.00     0.091 A 
ATOM     68  F   UNL A   1      40.758  33.804  34.588  1.00  0.00    -0.205 F 
ATOM     69  C   UNL A   1      38.586  33.543  37.527  1.00  0.00     0.022 A 
BRANCH  67  70
ATOM     70  S   UNL A   1      40.113  35.729  36.924  1.00  0.00     0.127 S 
ATOM     71  O   UNL A   1      41.552  35.496  37.037  1.00  0.00    -0.237 OA
ATOM     72  O   UNL A   1      39.705  36.448  35.716  1.00  0.00    -0.237 OA
ATOM     73  O   UNL A   1      39.453  36.171  38.144  1.00  0.00    -0.744 OA
ENDBRANCH  67  70
ENDBRANCH  49  63
BRANCH  50  74
ATOM     74  C   UNL A   1      42.620  26.645  27.511  1.00  0.00     0.023 A 
ATOM     75  C   UNL A   1      43.467  27.293  26.590  1.00  0.00     0.012 A 
ATOM     76  C   UNL A   1      42.309  25.286  27.315  1.00  0.00     0.148 A 
ATOM     77  C   UNL A   1      43.968  26.613  25.480  1.00  0.00     0.002 A 
ATOM     78  C   UNL A   1      42.854  24.599  26.235  1.00  0.00     0.091 A 
ATOM     79  F   UNL A   1      41.496  24.685  28.196  1.00  0.00    -0.205 F 
ATOM     80  C   UNL A   1      43.671  25.265  25.307  1.00  0.00     0.022 A 
BRANCH  78  81
ATOM     81  S   UNL A   1      42.633  22.829  26.015  1.00  0.00     0.127 S 
ATOM     82  O   UNL A   1      43.229  22.613  24.700  1.00  0.00    -0.237 OA
ATOM     83  O   UNL A   1      43.398  22.281  27.136  1.00  0.00    -0.237 OA
ATOM     84  O   UNL A   1      41.197  22.605  26.111  1.00  0.00    -0.744 OA
ENDBRANCH  78  81
ENDBRANCH  50  74
BRANCH  62  85
ATOM     85  C   UNL A   1      44.697  27.179  34.159  1.00  0.00     0.023 A 
ATOM     86  C   UNL A   1      45.992  27.729  34.095  1.00  0.00     0.012 A 
ATOM     87  C   UNL A   1      44.448  26.083  35.008  1.00  0.00     0.148 A 
ATOM     88  C   UNL A   1      47.030  27.180  34.845  1.00  0.00     0.002 A 
ATOM     89  C   UNL A   1      45.477  25.570  35.787  1.00  0.00     0.091 A 
ATOM     90  F   UNL A   1      43.213  25.562  35.037  1.00  0.00    -0.205 F 
ATOM     91  C   UNL A   1      46.771  26.110  35.699  1.00  0.00     0.022 A 
BRANCH  89  92
ATOM     92  S   UNL A   1      45.210  24.256  36.982  1.00  0.00     0.127 S 
ATOM     93  O   UNL A   1      44.828  23.141  36.118  1.00  0.00    -0.237 OA
ATOM     94  O   UNL A   1      46.529  24.124  37.601  1.00  0.00    -0.237 OA
ATOM     95  O   UNL A   1      44.171  24.740  37.880  1.00  0.00    -0.744 OA
ENDBRANCH  89  92
ENDBRANCH  62  85
ENDBRANCH  36  37
ENDBRANCH  28  31
ENDBRANCH  26  27
ENDBRANCH  25  26
ENDBRANCH   1  25
TORSDOF 17
ENDMDL
MODEL 2
REMARK VINA RESULT:     -12.1      5.171     10.346
REMARK SMILES Cc1cc(OCC(=O)Nc2sccc2C(=O)NCCCNC(=O)c2ccc(-c3c4nc(c(-c5cccc(S(=O)(=O)[O-])c5F)c5ccc([nH]5)c(-c5cccc(S(=O)(=O)[O-])c5F)c5nc(c(-c6cccc(S(=O)(=O)[O-])c6F)c6ccc3[nH]6)C=C5)C=C4)cc2)ccc1Cl
REMARK SMILES IDX 18 1 17 2 15 3 16 4 14 6 10 7 11 8 12 9 13 10 9 11 7 12 8 13
REMARK SMILES IDX 6 15 5 16 4 17 1 18 2 19 3 20 89 21 88 22 90 23 87 24 19 25
REMARK SMILES IDX 20 26 21 27 22 28 23 30 24 31 25 32 86 33 26 34 85 35 27 36
REMARK SMILES IDX 28 37 29 38 79 39 30 40 84 41 78 42 80 43 31 44 83 45 77 46
REMARK SMILES IDX 76 47 32 49 64 50 44 51 63 52 45 53 48 54 62 55 81 56 46 57
REMARK SMILES IDX 47 58 61 60 82 61 49 62 33 63 34 64 42 65 35 66 37 67 43 68
REMARK SMILES IDX 36 69 38 70 39 71 40 72 41 73 65 74 66 75 74 76 67 77 69 78
REMARK SMILES IDX 75 79 68 80 70 81 71 82 72 83 73 84 50 85 51 86 59 87 52 88
REMARK SMILES IDX 54 89 60 90 53 91 55 92 56 93 57 94 58 95
REMARK H PARENT 17 5 9 14 21 29 80 48 48 59
REMARK Flexibility Score: inf
ROOT
ATOM      1  C   UNL A   1      36.658  23.281  24.193  1.00  0.00     0.118 C 
ENDROOT
BRANCH   1   2
ATOM      2  N   UNL A   1      35.755  23.674  25.251  1.00  0.00    -0.352 N 
ATOM      3  C   UNL A   1      34.420  23.389  25.406  1.00  0.00     0.254 C 
ATOM      4  O   UNL A   1      33.817  23.982  26.306  1.00  0.00    -0.269 OA
ATOM      5  H   UNL A   1      36.154  24.223  25.963  1.00  0.00     0.163 HD
BRANCH   3   6
ATOM      6  C   UNL A   1      33.689  22.525  24.475  1.00  0.00     0.074 A 
ATOM      7  C   UNL A   1      33.331  22.692  23.147  1.00  0.00     0.108 A 
ATOM      8  S   UNL A   1      32.132  21.575  22.648  1.00  0.00    -0.126 S 
ATOM      9  C   UNL A   1      32.310  20.649  24.064  1.00  0.00     0.068 A 
ATOM     10  C   UNL A   1      33.165  21.258  24.949  1.00  0.00     0.028 A 
BRANCH   7  11
ATOM     11  N   UNL A   1      33.587  23.589  22.139  1.00  0.00    -0.314 N 
ATOM     12  C   UNL A   1      32.833  24.625  21.667  1.00  0.00     0.262 C 
ATOM     13  O   UNL A   1      33.104  25.073  20.546  1.00  0.00    -0.271 OA
ATOM     14  H   UNL A   1      34.452  23.465  21.685  1.00  0.00     0.170 HD
BRANCH  12  15
ATOM     15  C   UNL A   1      31.841  25.367  22.566  1.00  0.00     0.329 C 
BRANCH  15  16
ATOM     16  O   UNL A   1      31.798  26.768  22.570  1.00  0.00    -0.484 OA
BRANCH  16  17
ATOM     17  C   UNL A   1      32.275  27.460  23.646  1.00  0.00     0.120 A 
ATOM     18  C   UNL A   1      31.785  30.456  25.944  1.00  0.00     0.046 C 
ATOM     19  C   UNL A   1      32.318  29.169  25.379  1.00  0.00    -0.029 A 
ATOM     20  C   UNL A   1      31.756  28.630  24.202  1.00  0.00     0.051 A 
ATOM     21  C   UNL A   1      33.383  28.495  26.002  1.00  0.00     0.044 A 
ATOM     22  C   UNL A   1      33.908  27.336  25.437  1.00  0.00     0.024 A 
ATOM     23  Cl  UNL A   1      34.074  29.050  27.483  1.00  0.00    -0.084 Cl
ATOM     24  C   UNL A   1      33.368  26.841  24.255  1.00  0.00     0.048 A 
ENDBRANCH  16  17
ENDBRANCH  15  16
ENDBRANCH  12  15
ENDBRANCH   7  11
ENDBRANCH   3   6
ENDBRANCH   1   2
BRANCH   1  25
ATOM     25  C   UNL A   1      37.186  21.863  24.300  1.00  0.00     0.042 C 
BRANCH  25  26
ATOM     26  C   UNL A   1      37.680  21.478  25.691  1.00  0.00     0.118 C 
BRANCH  26  27
ATOM     27  N   UNL A   1      38.971  20.790  25.724  1.00  0.00    -0.352 N 
ATOM     28  C   UNL A   1      40.167  21.213  26.265  1.00  0.00     0.251 C 
ATOM     29  H   UNL A   1      38.988  19.901  25.302  1.00  0.00     0.163 HD
ATOM     30  O   UNL A   1      41.159  20.490  26.223  1.00  0.00    -0.269 OA
BRANCH  28  31
ATOM     31  C   UNL A   1      40.270  22.569  26.846  1.00  0.00     0.039 A 
ATOM     32  C   UNL A   1      41.040  22.751  27.999  1.00  0.00     0.014 A 
ATOM     33  C   UNL A   1      39.698  23.666  26.202  1.00  0.00     0.014 A 
ATOM     34  C   UNL A   1      41.349  24.044  28.424  1.00  0.00     0.010 A 
ATOM     35  C   UNL A   1      40.073  24.950  26.574  1.00  0.00     0.010 A 
ATOM     36  C   UNL A   1      40.925  25.149  27.668  1.00  0.00    -0.014 A 
BRANCH  36  37
ATOM     37  C   UNL A   1      41.441  26.516  27.920  1.00  0.00     0.031 A 
ATOM     38  C   UNL A   1      42.865  26.862  27.591  1.00  0.00     0.074 A 
ATOM     39  C   UNL A   1      40.668  27.380  28.610  1.00  0.00     0.049 A 
ATOM     40  N   UNL A   1      43.522  27.964  27.837  1.00  0.00    -0.248 NA
ATOM     41  C   UNL A   1      43.672  25.815  26.939  1.00  0.00     0.031 C 
ATOM     42  C   UNL A   1      39.316  27.098  29.106  1.00  0.00     0.029 A 
ATOM     43  N   UNL A   1      40.920  28.654  29.053  1.00  0.00    -0.354 N 
ATOM     44  C   UNL A   1      44.824  27.733  27.412  1.00  0.00     0.074 A 
ATOM     45  C   UNL A   1      44.875  26.371  26.927  1.00  0.00     0.031 C 
ATOM     46  C   UNL A   1      38.860  28.166  29.779  1.00  0.00     0.029 A 
ATOM     47  C   UNL A   1      39.888  29.200  29.781  1.00  0.00     0.049 A 
ATOM     48  H   UNL A   1      41.760  29.132  28.867  1.00  0.00     0.167 HD
ATOM     49  C   UNL A   1      45.872  28.590  27.395  1.00  0.00     0.034 A 
ATOM     50  C   UNL A   1      39.781  30.402  30.379  1.00  0.00     0.034 A 
ATOM     51  C   UNL A   1      45.788  29.958  27.827  1.00  0.00     0.049 A 
ATOM     52  C   UNL A   1      40.921  31.374  30.243  1.00  0.00     0.074 A 
ATOM     53  C   UNL A   1      46.749  30.949  27.745  1.00  0.00     0.029 A 
ATOM     54  N   UNL A   1      44.673  30.529  28.421  1.00  0.00    -0.354 N 
ATOM     55  N   UNL A   1      42.082  31.203  29.660  1.00  0.00    -0.248 NA
ATOM     56  C   UNL A   1      40.720  32.718  30.804  1.00  0.00     0.031 C 
ATOM     57  C   UNL A   1      46.216  32.120  28.294  1.00  0.00     0.029 A 
ATOM     58  C   UNL A   1      44.918  31.861  28.707  1.00  0.00     0.049 A 
ATOM     59  H   UNL A   1      43.831  30.057  28.612  1.00  0.00     0.167 HD
ATOM     60  C   UNL A   1      42.736  32.425  29.749  1.00  0.00     0.074 A 
ATOM     61  C   UNL A   1      41.832  33.334  30.425  1.00  0.00     0.031 C 
ATOM     62  C   UNL A   1      43.980  32.762  29.325  1.00  0.00     0.034 A 
BRANCH  49  63
ATOM     63  C   UNL A   1      47.172  28.097  26.812  1.00  0.00     0.023 A 
ATOM     64  C   UNL A   1      48.209  27.701  27.683  1.00  0.00     0.012 A 
ATOM     65  C   UNL A   1      47.354  27.968  25.422  1.00  0.00     0.148 A 
ATOM     66  C   UNL A   1      49.417  27.219  27.182  1.00  0.00     0.002 A 
ATOM     67  C   UNL A   1      48.545  27.444  24.930  1.00  0.00     0.091 A 
ATOM     68  F   UNL A   1      46.366  28.367  24.607  1.00  0.00    -0.205 F 
ATOM     69  C   UNL A   1      49.581  27.082  25.807  1.00  0.00     0.022 A 
BRANCH  67  70
ATOM     70  S   UNL A   1      48.829  27.152  23.180  1.00  0.00     0.127 S 
ATOM     71  O   UNL A   1      50.290  27.116  23.119  1.00  0.00    -0.237 OA
ATOM     72  O   UNL A   1      48.180  25.856  22.975  1.00  0.00    -0.237 OA
ATOM     73  O   UNL A   1      48.200  28.262  22.479  1.00  0.00    -0.744 OA
ENDBRANCH  67  70
ENDBRANCH  49  63
BRANCH  50  74
ATOM     74  C   UNL A   1      38.508  30.789  31.052  1.00  0.00     0.023 A 
ATOM     75  C   UNL A   1      38.350  30.513  32.424  1.00  0.00     0.012 A 
ATOM     76  C   UNL A   1      37.482  31.467  30.367  1.00  0.00     0.148 A 
ATOM     77  C   UNL A   1      37.181  30.874  33.095  1.00  0.00     0.002 A 
ATOM     78  C   UNL A   1      36.341  31.871  31.054  1.00  0.00     0.091 A 
ATOM     79  F   UNL A   1      37.644  31.716  29.059  1.00  0.00    -0.205 F 
ATOM     80  C   UNL A   1      36.182  31.561  32.413  1.00  0.00     0.022 A 
BRANCH  78  81
ATOM     81  S   UNL A   1      35.067  32.880  30.284  1.00  0.00     0.127 S 
ATOM     82  O   UNL A   1      34.538  31.974  29.270  1.00  0.00    -0.237 OA
ATOM     83  O   UNL A   1      34.165  33.145  31.405  1.00  0.00    -0.237 OA
ATOM     84  O   UNL A   1      35.760  34.062  29.788  1.00  0.00    -0.744 OA
ENDBRANCH  78  81
ENDBRANCH  50  74
BRANCH  62  85
ATOM     85  C   UNL A   1      44.428  34.180  29.550  1.00  0.00     0.023 A 
ATOM     86  C   UNL A   1      45.081  34.523  30.750  1.00  0.00     0.012 A 
ATOM     87  C   UNL A   1      44.273  35.150  28.541  1.00  0.00     0.148 A 
ATOM     88  C   UNL A   1      45.548  35.820  30.954  1.00  0.00     0.002 A 
ATOM     89  C   UNL A   1      44.783  36.428  28.733  1.00  0.00     0.091 A 
ATOM     90  F   UNL A   1      43.630  34.807  27.416  1.00  0.00    -0.205 F 
ATOM     91  C   UNL A   1      45.411  36.768  29.943  1.00  0.00     0.022 A 
BRANCH  89  92
ATOM     92  S   UNL A   1      44.732  37.682  27.448  1.00  0.00     0.127 S 
ATOM     93  O   UNL A   1      45.113  38.884  28.188  1.00  0.00    -0.237 OA
ATOM     94  O   UNL A   1      45.740  37.201  26.503  1.00  0.00    -0.237 OA
ATOM     95  O   UNL A   1      43.370  37.667  26.932  1.00  0.00    -0.744 OA
ENDBRANCH  89  92
ENDBRANCH  62  85
ENDBRANCH  36  37
ENDBRANCH  28  31
ENDBRANCH  26  27
ENDBRANCH  25  26
ENDBRANCH   1  25
TORSDOF 17
ENDMDL
MODEL 3
REMARK VINA RESULT:     -12.0      0.829      7.765
REMARK SMILES Cc1cc(OCC(=O)Nc2sccc2C(=O)NCCCNC(=O)c2ccc(-c3c4nc(c(-c5cccc(S(=O)(=O)[O-])c5F)c5ccc([nH]5)c(-c5cccc(S(=O)(=O)[O-])c5F)c5nc(c(-c6cccc(S(=O)(=O)[O-])c6F)c6ccc3[nH]6)C=C5)C=C4)cc2)ccc1Cl
REMARK SMILES IDX 18 1 17 2 15 3 16 4 14 6 10 7 11 8 12 9 13 10 9 11 7 12 8 13
REMARK SMILES IDX 6 15 5 16 4 17 1 18 2 19 3 20 89 21 88 22 90 23 87 24 19 25
REMARK SMILES IDX 20 26 21 27 22 28 23 30 24 31 25 32 86 33 26 34 85 35 27 36
REMARK SMILES IDX 28 37 29 38 79 39 30 40 84 41 78 42 80 43 31 44 83 45 77 46
REMARK SMILES IDX 76 47 32 49 64 50 44 51 63 52 45 53 48 54 62 55 81 56 46 57
REMARK SMILES IDX 47 58 61 60 82 61 49 62 33 63 34 64 42 65 35 66 37 67 43 68
REMARK SMILES IDX 36 69 38 70 39 71 40 72 41 73 65 74 66 75 74 76 67 77 69 78
REMARK SMILES IDX 75 79 68 80 70 81 71 82 72 83 73 84 50 85 51 86 59 87 52 88
REMARK SMILES IDX 54 89 60 90 53 91 55 92 56 93 57 94 58 95
REMARK H PARENT 17 5 9 14 21 29 80 48 48 59
REMARK Flexibility Score: inf
ROOT
ATOM      1  C   UNL A   1      32.349  27.990  26.952  1.00  0.00     0.118 C 
ENDROOT
BRANCH   1   2
ATOM      2  N   UNL A   1      31.412  26.899  27.095  1.00  0.00    -0.352 N 
ATOM      3  C   UNL A   1      30.730  26.204  26.126  1.00  0.00     0.254 C 
ATOM      4  O   UNL A   1      29.850  25.425  26.502  1.00  0.00    -0.269 OA
ATOM      5  H   UNL A   1      31.237  26.612  28.021  1.00  0.00     0.163 HD
BRANCH   3   6
ATOM      6  C   UNL A   1      30.928  26.455  24.696  1.00  0.00     0.074 A 
ATOM      7  C   UNL A   1      31.993  26.192  23.850  1.00  0.00     0.108 A 
ATOM      8  S   UNL A   1      31.884  27.053  22.373  1.00  0.00    -0.126 S 
ATOM      9  C   UNL A   1      30.278  27.520  22.687  1.00  0.00     0.068 A 
ATOM     10  C   UNL A   1      29.889  27.138  23.947  1.00  0.00     0.028 A 
BRANCH   7  11
ATOM     11  N   UNL A   1      33.187  25.515  23.913  1.00  0.00    -0.314 N 
ATOM     12  C   UNL A   1      33.446  24.209  24.213  1.00  0.00     0.262 C 
ATOM     13  O   UNL A   1      34.600  23.908  24.542  1.00  0.00    -0.271 OA
ATOM     14  H   UNL A   1      33.982  26.059  23.709  1.00  0.00     0.170 HD
BRANCH  12  15
ATOM     15  C   UNL A   1      32.420  23.107  23.936  1.00  0.00     0.329 C 
BRANCH  15  16
ATOM     16  O   UNL A   1      32.248  22.053  24.846  1.00  0.00    -0.484 OA
BRANCH  16  17
ATOM     17  C   UNL A   1      32.476  20.768  24.448  1.00  0.00     0.120 A 
ATOM     18  C   UNL A   1      32.153  18.229  21.629  1.00  0.00     0.046 C 
ATOM     19  C   UNL A   1      32.546  18.862  22.934  1.00  0.00    -0.029 A 
ATOM     20  C   UNL A   1      32.154  20.188  23.221  1.00  0.00     0.051 A 
ATOM     21  C   UNL A   1      33.292  18.147  23.887  1.00  0.00     0.044 A 
ATOM     22  C   UNL A   1      33.598  18.722  25.117  1.00  0.00     0.024 A 
ATOM     23  Cl  UNL A   1      33.870  16.549  23.582  1.00  0.00    -0.084 Cl
ATOM     24  C   UNL A   1      33.170  20.015  25.398  1.00  0.00     0.048 A 
ENDBRANCH  16  17
ENDBRANCH  15  16
ENDBRANCH  12  15
ENDBRANCH   7  11
ENDBRANCH   3   6
ENDBRANCH   1   2
BRANCH   1  25
ATOM     25  C   UNL A   1      31.777  29.364  27.247  1.00  0.00     0.042 C 
BRANCH  25  26
ATOM     26  C   UNL A   1      32.363  30.485  26.395  1.00  0.00     0.118 C 
BRANCH  26  27
ATOM     27  N   UNL A   1      32.198  31.833  26.941  1.00  0.00    -0.352 N 
ATOM     28  C   UNL A   1      33.125  32.631  27.578  1.00  0.00     0.251 C 
ATOM     29  H   UNL A   1      31.301  32.224  26.839  1.00  0.00     0.163 HD
ATOM     30  O   UNL A   1      32.819  33.758  27.957  1.00  0.00    -0.269 OA
BRANCH  28  31
ATOM     31  C   UNL A   1      34.478  32.104  27.856  1.00  0.00     0.039 A 
ATOM     32  C   UNL A   1      35.536  33.007  28.002  1.00  0.00     0.014 A 
ATOM     33  C   UNL A   1      34.682  30.741  28.074  1.00  0.00     0.014 A 
ATOM     34  C   UNL A   1      36.760  32.558  28.500  1.00  0.00     0.010 A 
ATOM     35  C   UNL A   1      35.869  30.309  28.647  1.00  0.00     0.010 A 
ATOM     36  C   UNL A   1      36.908  31.218  28.893  1.00  0.00    -0.014 A 
BRANCH  36  37
ATOM     37  C   UNL A   1      38.084  30.752  29.666  1.00  0.00     0.031 A 
ATOM     38  C   UNL A   1      39.010  29.719  29.089  1.00  0.00     0.074 A 
ATOM     39  C   UNL A   1      38.202  31.133  30.954  1.00  0.00     0.049 A 
ATOM     40  N   UNL A   1      40.021  29.114  29.653  1.00  0.00    -0.248 NA
ATOM     41  C   UNL A   1      38.737  29.275  27.711  1.00  0.00     0.031 C 
ATOM     42  C   UNL A   1      37.275  32.024  31.663  1.00  0.00     0.029 A 
ATOM     43  N   UNL A   1      39.121  30.791  31.913  1.00  0.00    -0.354 N 
ATOM     44  C   UNL A   1      40.479  28.191  28.721  1.00  0.00     0.074 A 
ATOM     45  C   UNL A   1      39.611  28.289  27.568  1.00  0.00     0.031 C 
ATOM     46  C   UNL A   1      37.675  32.157  32.936  1.00  0.00     0.029 A 
ATOM     47  C   UNL A   1      38.872  31.352  33.144  1.00  0.00     0.049 A 
ATOM     48  H   UNL A   1      39.888  30.198  31.736  1.00  0.00     0.167 HD
ATOM     49  C   UNL A   1      41.548  27.364  28.806  1.00  0.00     0.034 A 
ATOM     50  C   UNL A   1      39.538  31.233  34.309  1.00  0.00     0.034 A 
ATOM     51  C   UNL A   1      42.434  27.323  29.937  1.00  0.00     0.049 A 
ATOM     52  C   UNL A   1      40.787  30.396  34.339  1.00  0.00     0.074 A 
ATOM     53  C   UNL A   1      43.612  26.613  30.084  1.00  0.00     0.029 A 
ATOM     54  N   UNL A   1      42.239  28.025  31.117  1.00  0.00    -0.354 N 
ATOM     55  N   UNL A   1      41.319  29.679  33.379  1.00  0.00    -0.248 NA
ATOM     56  C   UNL A   1      41.552  30.388  35.593  1.00  0.00     0.031 C 
ATOM     57  C   UNL A   1      44.128  26.883  31.357  1.00  0.00     0.029 A 
ATOM     58  C   UNL A   1      43.277  27.771  31.997  1.00  0.00     0.049 A 
ATOM     59  H   UNL A   1      41.475  28.617  31.302  1.00  0.00     0.167 HD
ATOM     60  C   UNL A   1      42.500  29.164  33.899  1.00  0.00     0.074 A 
ATOM     61  C   UNL A   1      42.614  29.670  35.253  1.00  0.00     0.031 C 
ATOM     62  C   UNL A   1      43.400  28.334  33.316  1.00  0.00     0.034 A 
BRANCH  49  63
ATOM     63  C   UNL A   1      41.865  26.503  27.611  1.00  0.00     0.023 A 
ATOM     64  C   UNL A   1      42.558  27.070  26.520  1.00  0.00     0.012 A 
ATOM     65  C   UNL A   1      41.540  25.134  27.583  1.00  0.00     0.148 A 
ATOM     66  C   UNL A   1      42.888  26.299  25.406  1.00  0.00     0.002 A 
ATOM     67  C   UNL A   1      41.912  24.360  26.488  1.00  0.00     0.091 A 
ATOM     68  F   UNL A   1      40.865  24.614  28.619  1.00  0.00    -0.205 F 
ATOM     69  C   UNL A   1      42.574  24.943  25.395  1.00  0.00     0.022 A 
BRANCH  67  70
ATOM     70  S   UNL A   1      41.627  22.588  26.407  1.00  0.00     0.127 S 
ATOM     71  O   UNL A   1      42.480  22.202  25.284  1.00  0.00    -0.237 OA
ATOM     72  O   UNL A   1      42.104  22.139  27.716  1.00  0.00    -0.237 OA
ATOM     73  O   UNL A   1      40.197  22.420  26.193  1.00  0.00    -0.744 OA
ENDBRANCH  67  70
ENDBRANCH  49  63
BRANCH  50  74
ATOM     74  C   UNL A   1      39.102  32.018  35.499  1.00  0.00     0.023 A 
ATOM     75  C   UNL A   1      38.214  31.425  36.419  1.00  0.00     0.012 A 
ATOM     76  C   UNL A   1      39.591  33.313  35.756  1.00  0.00     0.148 A 
ATOM     77  C   UNL A   1      37.795  32.119  37.555  1.00  0.00     0.002 A 
ATOM     78  C   UNL A   1      39.210  33.979  36.917  1.00  0.00     0.091 A 
ATOM     79  F   UNL A   1      40.429  33.866  34.868  1.00  0.00    -0.205 F 
ATOM     80  C   UNL A   1      38.300  33.390  37.809  1.00  0.00     0.022 A 
BRANCH  78  81
ATOM     81  S   UNL A   1      39.920  35.562  37.389  1.00  0.00     0.127 S 
ATOM     82  O   UNL A   1      39.202  35.854  38.627  1.00  0.00    -0.237 OA
ATOM     83  O   UNL A   1      41.333  35.227  37.560  1.00  0.00    -0.237 OA
ATOM     84  O   UNL A   1      39.652  36.454  36.269  1.00  0.00    -0.744 OA
ENDBRANCH  78  81
ENDBRANCH  50  74
BRANCH  62  85
ATOM     85  C   UNL A   1      44.607  27.944  34.125  1.00  0.00     0.023 A 
ATOM     86  C   UNL A   1      45.746  28.772  34.122  1.00  0.00     0.012 A 
ATOM     87  C   UNL A   1      44.580  26.800  34.947  1.00  0.00     0.148 A 
ATOM     88  C   UNL A   1      46.853  28.452  34.906  1.00  0.00     0.002 A 
ATOM     89  C   UNL A   1      45.670  26.513  35.760  1.00  0.00     0.091 A 
ATOM     90  F   UNL A   1      43.494  26.015  34.917  1.00  0.00    -0.205 F 
ATOM     91  C   UNL A   1      46.811  27.332  35.733  1.00  0.00     0.022 A 
BRANCH  89  92
ATOM     92  S   UNL A   1      45.662  25.144  36.923  1.00  0.00     0.127 S 
ATOM     93  O   UNL A   1      45.795  23.994  36.031  1.00  0.00    -0.237 OA
ATOM     94  O   UNL A   1      46.844  25.423  37.740  1.00  0.00    -0.237 OA
ATOM     95  O   UNL A   1      44.399  25.240  37.641  1.00  0.00    -0.744 OA
ENDBRANCH  89  92
ENDBRANCH  62  85
ENDBRANCH  36  37
ENDBRANCH  28  31
ENDBRANCH  26  27
ENDBRANCH  25  26
ENDBRANCH   1  25
TORSDOF 17
ENDMDL
