MODEL 1
REMARK VINA RESULT:     -11.5      0.000      0.000
REMARK SMILES CCOc1cc(/C=C(/F)C(=O)NCCCNC(=O)c2ccc(-c3c4nc(c(-c5cccc(S(=O)(=O)[O-])c5F)c5ccc([nH]5)c(-c5cccc(S(=O)(=O)[O-])c5F)c5nc(c(-c6cccc(S(=O)(=O)[O-])c6F)c6ccc3[nH]6)C=C5)C=C4)cc2)ccc1O
REMARK SMILES IDX 14 1 13 2 12 3 10 4 11 5 8 7 7 8 9 9 6 10 4 11 5 12 84 13
REMARK SMILES IDX 83 14 82 15 3 16 2 17 1 18 85 19 15 21 16 22 17 23 18 25
REMARK SMILES IDX 19 26 20 27 81 28 21 29 80 30 22 31 23 32 24 33 74 34 25 35
REMARK SMILES IDX 79 36 73 37 75 38 26 39 78 40 72 41 71 42 27 44 59 45 39 46
REMARK SMILES IDX 58 47 40 48 43 49 57 50 76 51 41 52 42 53 56 55 77 56 44 57
REMARK SMILES IDX 28 58 29 59 37 60 30 61 32 62 38 63 31 64 33 65 34 66 35 67
REMARK SMILES IDX 36 68 60 69 61 70 69 71 62 72 64 73 70 74 63 75 65 76 66 77
REMARK SMILES IDX 67 78 68 79 45 80 46 81 54 82 47 83 49 84 55 85 48 86 50 87
REMARK SMILES IDX 51 88 52 89 53 90
REMARK H PARENT 12 6 85 20 16 24 75 43 43 54
REMARK Flexibility Score: inf
ROOT
ATOM      1  C   UNL A   1      37.828  19.457  24.844  1.00  0.00     0.042 C 
ENDROOT
BRANCH   1   2
ATOM      2  C   UNL A   1      36.386  19.939  24.957  1.00  0.00     0.118 C 
BRANCH   2   3
ATOM      3  N   UNL A   1      36.233  21.366  24.731  1.00  0.00    -0.350 N 
ATOM      4  C   UNL A   1      35.452  22.320  25.312  1.00  0.00     0.280 C 
ATOM      5  O   UNL A   1      35.705  23.482  24.999  1.00  0.00    -0.267 OA
ATOM      6  H   UNL A   1      36.809  21.714  24.013  1.00  0.00     0.163 HD
BRANCH   4   7
ATOM      7  C   UNL A   1      34.367  21.957  26.271  1.00  0.00     0.188 C 
ATOM      8  C   UNL A   1      33.381  21.051  26.154  1.00  0.00     0.053 C 
ATOM      9  F   UNL A   1      34.352  22.680  27.414  1.00  0.00    -0.201 F 
BRANCH   8  10
ATOM     10  C   UNL A   1      32.973  20.092  25.108  1.00  0.00    -0.019 A 
ATOM     11  C   UNL A   1      32.785  17.887  24.086  1.00  0.00     0.161 A 
ATOM     12  C   UNL A   1      33.095  18.697  25.186  1.00  0.00     0.058 A 
ATOM     13  C   UNL A   1      32.241  18.464  22.938  1.00  0.00     0.157 A 
ATOM     14  C   UNL A   1      32.045  19.831  22.862  1.00  0.00     0.051 A 
ATOM     15  C   UNL A   1      32.422  20.640  23.934  1.00  0.00     0.012 A 
BRANCH  11  16
ATOM     16  O   UNL A   1      33.321  16.628  24.040  1.00  0.00    -0.490 OA
BRANCH  16  17
ATOM     17  C   UNL A   1      33.691  16.056  25.289  1.00  0.00     0.226 C 
ATOM     18  C   UNL A   1      35.178  15.738  25.256  1.00  0.00     0.049 C 
ENDBRANCH  16  17
ENDBRANCH  11  16
BRANCH  13  19
ATOM     19  O   UNL A   1      31.895  17.742  21.835  1.00  0.00    -0.504 OA
ATOM     20  H   UNL A   1      31.109  17.232  21.835  1.00  0.00     0.293 HD
ENDBRANCH  13  19
ENDBRANCH   8  10
ENDBRANCH   4   7
ENDBRANCH   2   3
ENDBRANCH   1   2
BRANCH   1  21
ATOM     21  C   UNL A   1      38.818  20.173  25.762  1.00  0.00     0.118 C 
BRANCH  21  22
ATOM     22  N   UNL A   1      40.006  19.382  26.062  1.00  0.00    -0.352 N 
ATOM     23  C   UNL A   1      41.271  19.765  26.436  1.00  0.00     0.251 C 
ATOM     24  H   UNL A   1      39.881  18.409  25.983  1.00  0.00     0.163 HD
ATOM     25  O   UNL A   1      42.161  18.924  26.492  1.00  0.00    -0.269 OA
BRANCH  23  26
ATOM     26  C   UNL A   1      41.572  21.179  26.748  1.00  0.00     0.039 A 
ATOM     27  C   UNL A   1      41.944  21.514  28.054  1.00  0.00     0.014 A 
ATOM     28  C   UNL A   1      41.467  22.177  25.777  1.00  0.00     0.014 A 
ATOM     29  C   UNL A   1      42.279  22.834  28.365  1.00  0.00     0.010 A 
ATOM     30  C   UNL A   1      41.878  23.476  26.069  1.00  0.00     0.010 A 
ATOM     31  C   UNL A   1      42.287  23.821  27.366  1.00  0.00    -0.014 A 
BRANCH  31  32
ATOM     32  C   UNL A   1      42.735  25.209  27.655  1.00  0.00     0.031 A 
ATOM     33  C   UNL A   1      41.787  26.203  28.274  1.00  0.00     0.074 A 
ATOM     34  C   UNL A   1      43.969  25.601  27.277  1.00  0.00     0.049 A 
ATOM     35  N   UNL A   1      41.980  27.470  28.537  1.00  0.00    -0.248 NA
ATOM     36  C   UNL A   1      40.439  25.721  28.619  1.00  0.00     0.031 C 
ATOM     37  C   UNL A   1      44.954  24.758  26.595  1.00  0.00     0.029 A 
ATOM     38  N   UNL A   1      44.597  26.818  27.384  1.00  0.00    -0.354 N 
ATOM     39  C   UNL A   1      40.773  27.944  29.036  1.00  0.00     0.074 A 
ATOM     40  C   UNL A   1      39.844  26.836  29.018  1.00  0.00     0.031 C 
ATOM     41  C   UNL A   1      46.058  25.482  26.344  1.00  0.00     0.029 A 
ATOM     42  C   UNL A   1      45.850  26.846  26.816  1.00  0.00     0.049 A 
ATOM     43  H   UNL A   1      44.190  27.597  27.828  1.00  0.00     0.167 HD
ATOM     44  C   UNL A   1      40.471  29.184  29.491  1.00  0.00     0.034 A 
ATOM     45  C   UNL A   1      46.727  27.860  26.674  1.00  0.00     0.034 A 
ATOM     46  C   UNL A   1      41.411  30.270  29.556  1.00  0.00     0.049 A 
ATOM     47  C   UNL A   1      46.379  29.213  27.235  1.00  0.00     0.074 A 
ATOM     48  C   UNL A   1      41.227  31.532  30.097  1.00  0.00     0.029 A 
ATOM     49  N   UNL A   1      42.704  30.232  29.061  1.00  0.00    -0.354 N 
ATOM     50  N   UNL A   1      45.291  29.592  27.859  1.00  0.00    -0.248 NA
ATOM     51  C   UNL A   1      47.395  30.269  27.107  1.00  0.00     0.031 C 
ATOM     52  C   UNL A   1      42.399  32.266  29.900  1.00  0.00     0.029 A 
ATOM     53  C   UNL A   1      43.326  31.450  29.270  1.00  0.00     0.049 A 
ATOM     54  H   UNL A   1      43.118  29.453  28.624  1.00  0.00     0.167 HD
ATOM     55  C   UNL A   1      45.508  30.913  28.234  1.00  0.00     0.074 A 
ATOM     56  C   UNL A   1      46.839  31.262  27.787  1.00  0.00     0.031 C 
ATOM     57  C   UNL A   1      44.673  31.766  28.878  1.00  0.00     0.034 A 
BRANCH  44  58
ATOM     58  C   UNL A   1      39.078  29.433  30.004  1.00  0.00     0.023 A 
ATOM     59  C   UNL A   1      38.751  29.090  31.332  1.00  0.00     0.012 A 
ATOM     60  C   UNL A   1      38.126  30.103  29.208  1.00  0.00     0.148 A 
ATOM     61  C   UNL A   1      37.494  29.388  31.853  1.00  0.00     0.002 A 
ATOM     62  C   UNL A   1      36.891  30.437  29.750  1.00  0.00     0.091 A 
ATOM     63  F   UNL A   1      38.451  30.405  27.944  1.00  0.00    -0.205 F 
ATOM     64  C   UNL A   1      36.569  30.072  31.068  1.00  0.00     0.022 A 
BRANCH  62  65
ATOM     65  S   UNL A   1      35.662  31.391  28.852  1.00  0.00     0.127 S 
ATOM     66  O   UNL A   1      35.069  30.371  27.989  1.00  0.00    -0.237 OA
ATOM     67  O   UNL A   1      34.791  31.859  29.931  1.00  0.00    -0.237 OA
ATOM     68  O   UNL A   1      36.393  32.442  28.158  1.00  0.00    -0.744 OA
ENDBRANCH  62  65
ENDBRANCH  44  58
BRANCH  45  69
ATOM     69  C   UNL A   1      48.044  27.632  26.012  1.00  0.00     0.023 A 
ATOM     70  C   UNL A   1      49.186  27.389  26.800  1.00  0.00     0.012 A 
ATOM     71  C   UNL A   1      48.173  27.663  24.610  1.00  0.00     0.148 A 
ATOM     72  C   UNL A   1      50.440  27.231  26.209  1.00  0.00     0.002 A 
ATOM     73  C   UNL A   1      49.415  27.445  24.023  1.00  0.00     0.091 A 
ATOM     74  F   UNL A   1      47.079  27.908  23.875  1.00  0.00    -0.205 F 
ATOM     75  C   UNL A   1      50.553  27.250  24.820  1.00  0.00     0.022 A 
BRANCH  73  76
ATOM     76  S   UNL A   1      49.625  27.321  22.245  1.00  0.00     0.127 S 
ATOM     77  O   UNL A   1      49.201  28.645  21.799  1.00  0.00    -0.237 OA
ATOM     78  O   UNL A   1      51.060  27.059  22.124  1.00  0.00    -0.237 OA
ATOM     79  O   UNL A   1      48.780  26.208  21.830  1.00  0.00    -0.744 OA
ENDBRANCH  73  76
ENDBRANCH  45  69
BRANCH  57  80
ATOM     80  C   UNL A   1      45.186  33.147  29.192  1.00  0.00     0.023 A 
ATOM     81  C   UNL A   1      45.926  33.375  30.369  1.00  0.00     0.012 A 
ATOM     82  C   UNL A   1      44.996  34.203  28.279  1.00  0.00     0.148 A 
ATOM     83  C   UNL A   1      46.438  34.641  30.649  1.00  0.00     0.002 A 
ATOM     84  C   UNL A   1      45.554  35.449  28.539  1.00  0.00     0.091 A 
ATOM     85  F   UNL A   1      44.274  33.971  27.172  1.00  0.00    -0.205 F 
ATOM     86  C   UNL A   1      46.263  35.673  29.730  1.00  0.00     0.022 A 
BRANCH  84  87
ATOM     87  S   UNL A   1      45.467  36.807  27.366  1.00  0.00     0.127 S 
ATOM     88  O   UNL A   1      46.234  36.277  26.240  1.00  0.00    -0.237 OA
ATOM     89  O   UNL A   1      44.028  36.917  27.127  1.00  0.00    -0.237 OA
ATOM     90  O   UNL A   1      46.057  37.956  28.038  1.00  0.00    -0.744 OA
ENDBRANCH  84  87
ENDBRANCH  57  80
ENDBRANCH  31  32
ENDBRANCH  23  26
ENDBRANCH  21  22
ENDBRANCH   1  21
TORSDOF 17
ENDMDL
MODEL 2
REMARK VINA RESULT:     -11.4      6.729     11.862
REMARK SMILES CCOc1cc(/C=C(/F)C(=O)NCCCNC(=O)c2ccc(-c3c4nc(c(-c5cccc(S(=O)(=O)[O-])c5F)c5ccc([nH]5)c(-c5cccc(S(=O)(=O)[O-])c5F)c5nc(c(-c6cccc(S(=O)(=O)[O-])c6F)c6ccc3[nH]6)C=C5)C=C4)cc2)ccc1O
REMARK SMILES IDX 14 1 13 2 12 3 10 4 11 5 8 7 7 8 9 9 6 10 4 11 5 12 84 13
REMARK SMILES IDX 83 14 82 15 3 16 2 17 1 18 85 19 15 21 16 22 17 23 18 25
REMARK SMILES IDX 19 26 20 27 81 28 21 29 80 30 22 31 23 32 24 33 74 34 25 35
REMARK SMILES IDX 79 36 73 37 75 38 26 39 78 40 72 41 71 42 27 44 59 45 39 46
REMARK SMILES IDX 58 47 40 48 43 49 57 50 76 51 41 52 42 53 56 55 77 56 44 57
REMARK SMILES IDX 28 58 29 59 37 60 30 61 32 62 38 63 31 64 33 65 34 66 35 67
REMARK SMILES IDX 36 68 60 69 61 70 69 71 62 72 64 73 70 74 63 75 65 76 66 77
REMARK SMILES IDX 67 78 68 79 45 80 46 81 54 82 47 83 49 84 55 85 48 86 50 87
REMARK SMILES IDX 51 88 52 89 53 90
REMARK H PARENT 12 6 85 20 16 24 75 43 43 54
REMARK Flexibility Score: inf
ROOT
ATOM      1  C   UNL A   1      31.500  32.133  26.609  1.00  0.00     0.042 C 
ENDROOT
BRANCH   1   2
ATOM      2  C   UNL A   1      31.741  30.717  26.102  1.00  0.00     0.118 C 
BRANCH   2   3
ATOM      3  N   UNL A   1      32.937  30.101  26.649  1.00  0.00    -0.350 N 
ATOM      4  C   UNL A   1      33.232  28.829  27.042  1.00  0.00     0.280 C 
ATOM      5  O   UNL A   1      34.415  28.607  27.293  1.00  0.00    -0.267 OA
ATOM      6  H   UNL A   1      33.687  30.729  26.759  1.00  0.00     0.163 HD
BRANCH   4   7
ATOM      7  C   UNL A   1      32.171  27.784  27.149  1.00  0.00     0.188 C 
ATOM      8  C   UNL A   1      32.033  26.625  26.483  1.00  0.00     0.053 C 
ATOM      9  F   UNL A   1      31.177  28.070  28.020  1.00  0.00    -0.201 F 
BRANCH   8  10
ATOM     10  C   UNL A   1      32.810  25.931  25.437  1.00  0.00    -0.019 A 
ATOM     11  C   UNL A   1      33.258  25.145  23.174  1.00  0.00     0.161 A 
ATOM     12  C   UNL A   1      32.521  25.936  24.065  1.00  0.00     0.058 A 
ATOM     13  C   UNL A   1      34.362  24.431  23.637  1.00  0.00     0.157 A 
ATOM     14  C   UNL A   1      34.711  24.465  24.976  1.00  0.00     0.051 A 
ATOM     15  C   UNL A   1      33.932  25.198  25.871  1.00  0.00     0.012 A 
BRANCH  11  16
ATOM     16  O   UNL A   1      32.690  24.834  21.967  1.00  0.00    -0.490 OA
BRANCH  16  17
ATOM     17  C   UNL A   1      32.531  25.912  21.051  1.00  0.00     0.226 C 
ATOM     18  C   UNL A   1      32.532  25.351  19.637  1.00  0.00     0.049 C 
ENDBRANCH  16  17
ENDBRANCH  11  16
BRANCH  13  19
ATOM     19  O   UNL A   1      35.140  23.656  22.830  1.00  0.00    -0.504 OA
ATOM     20  H   UNL A   1      34.940  23.580  21.917  1.00  0.00     0.293 HD
ENDBRANCH  13  19
ENDBRANCH   8  10
ENDBRANCH   4   7
ENDBRANCH   2   3
ENDBRANCH   1   2
BRANCH   1  21
ATOM     21  C   UNL A   1      32.711  32.795  27.265  1.00  0.00     0.118 C 
BRANCH  21  22
ATOM     22  N   UNL A   1      32.465  34.172  27.680  1.00  0.00    -0.352 N 
ATOM     23  C   UNL A   1      33.042  34.930  28.670  1.00  0.00     0.251 C 
ATOM     24  H   UNL A   1      31.767  34.636  27.163  1.00  0.00     0.163 HD
ATOM     25  O   UNL A   1      32.568  36.028  28.938  1.00  0.00    -0.269 OA
BRANCH  23  26
ATOM     26  C   UNL A   1      34.210  34.426  29.425  1.00  0.00     0.039 A 
ATOM     27  C   UNL A   1      33.990  33.761  30.635  1.00  0.00     0.014 A 
ATOM     28  C   UNL A   1      35.513  34.623  28.966  1.00  0.00     0.014 A 
ATOM     29  C   UNL A   1      35.071  33.234  31.345  1.00  0.00     0.010 A 
ATOM     30  C   UNL A   1      36.582  34.028  29.633  1.00  0.00     0.010 A 
ATOM     31  C   UNL A   1      36.375  33.328  30.831  1.00  0.00    -0.014 A 
BRANCH  31  32
ATOM     32  C   UNL A   1      37.525  32.688  31.522  1.00  0.00     0.031 A 
ATOM     33  C   UNL A   1      38.255  31.536  30.880  1.00  0.00     0.074 A 
ATOM     34  C   UNL A   1      37.857  33.083  32.767  1.00  0.00     0.049 A 
ATOM     35  N   UNL A   1      39.235  30.814  31.359  1.00  0.00    -0.248 NA
ATOM     36  C   UNL A   1      37.812  31.124  29.537  1.00  0.00     0.031 C 
ATOM     37  C   UNL A   1      37.176  34.131  33.533  1.00  0.00     0.029 A 
ATOM     38  N   UNL A   1      38.830  32.631  33.625  1.00  0.00    -0.354 N 
ATOM     39  C   UNL A   1      39.496  29.841  30.401  1.00  0.00     0.074 A 
ATOM     40  C   UNL A   1      38.556  30.049  29.322  1.00  0.00     0.031 C 
ATOM     41  C   UNL A   1      37.751  34.240  34.742  1.00  0.00     0.029 A 
ATOM     42  C   UNL A   1      38.816  33.250  34.854  1.00  0.00     0.049 A 
ATOM     43  H   UNL A   1      39.478  31.930  33.383  1.00  0.00     0.167 HD
ATOM     44  C   UNL A   1      40.447  28.878  30.408  1.00  0.00     0.034 A 
ATOM     45  C   UNL A   1      39.565  33.035  35.954  1.00  0.00     0.034 A 
ATOM     46  C   UNL A   1      41.415  28.706  31.457  1.00  0.00     0.049 A 
ATOM     47  C   UNL A   1      40.647  31.988  35.910  1.00  0.00     0.074 A 
ATOM     48  C   UNL A   1      42.482  27.825  31.505  1.00  0.00     0.029 A 
ATOM     49  N   UNL A   1      41.432  29.418  32.645  1.00  0.00    -0.354 N 
ATOM     50  N   UNL A   1      40.987  31.195  34.924  1.00  0.00    -0.248 NA
ATOM     51  C   UNL A   1      41.474  31.834  37.115  1.00  0.00     0.031 C 
ATOM     52  C   UNL A   1      43.125  27.983  32.735  1.00  0.00     0.029 A 
ATOM     53  C   UNL A   1      42.481  28.989  33.438  1.00  0.00     0.049 A 
ATOM     54  H   UNL A   1      40.791  30.125  32.888  1.00  0.00     0.167 HD
ATOM     55  C   UNL A   1      42.090  30.479  35.375  1.00  0.00     0.074 A 
ATOM     56  C   UNL A   1      42.376  30.950  36.713  1.00  0.00     0.031 C 
ATOM     57  C   UNL A   1      42.795  29.508  34.743  1.00  0.00     0.034 A 
BRANCH  44  58
ATOM     58  C   UNL A   1      40.532  27.954  29.222  1.00  0.00     0.023 A 
ATOM     59  C   UNL A   1      39.617  26.888  29.101  1.00  0.00     0.012 A 
ATOM     60  C   UNL A   1      41.446  28.204  28.178  1.00  0.00     0.148 A 
ATOM     61  C   UNL A   1      39.625  26.071  27.971  1.00  0.00     0.002 A 
ATOM     62  C   UNL A   1      41.416  27.413  27.035  1.00  0.00     0.091 A 
ATOM     63  F   UNL A   1      42.318  29.211  28.321  1.00  0.00    -0.205 F 
ATOM     64  C   UNL A   1      40.514  26.342  26.934  1.00  0.00     0.022 A 
BRANCH  62  65
ATOM     65  S   UNL A   1      42.460  27.729  25.608  1.00  0.00     0.127 S 
ATOM     66  O   UNL A   1      41.913  28.992  25.115  1.00  0.00    -0.237 OA
ATOM     67  O   UNL A   1      43.787  27.834  26.216  1.00  0.00    -0.237 OA
ATOM     68  O   UNL A   1      42.285  26.590  24.718  1.00  0.00    -0.744 OA
ENDBRANCH  62  65
ENDBRANCH  44  58
BRANCH  45  69
ATOM     69  C   UNL A   1      39.356  33.855  37.182  1.00  0.00     0.023 A 
ATOM     70  C   UNL A   1      39.838  35.177  37.227  1.00  0.00     0.012 A 
ATOM     71  C   UNL A   1      38.690  33.330  38.307  1.00  0.00     0.148 A 
ATOM     72  C   UNL A   1      39.707  35.945  38.385  1.00  0.00     0.002 A 
ATOM     73  C   UNL A   1      38.509  34.120  39.437  1.00  0.00     0.091 A 
ATOM     74  F   UNL A   1      38.248  32.066  38.253  1.00  0.00    -0.205 F 
ATOM     75  C   UNL A   1      39.036  35.420  39.486  1.00  0.00     0.022 A 
BRANCH  73  76
ATOM     76  S   UNL A   1      37.542  33.570  40.846  1.00  0.00     0.127 S 
ATOM     77  O   UNL A   1      37.390  34.807  41.607  1.00  0.00    -0.237 OA
ATOM     78  O   UNL A   1      36.318  33.085  40.205  1.00  0.00    -0.237 OA
ATOM     79  O   UNL A   1      38.337  32.525  41.479  1.00  0.00    -0.744 OA
ENDBRANCH  73  76
ENDBRANCH  45  69
BRANCH  57  80
ATOM     80  C   UNL A   1      43.981  28.921  35.462  1.00  0.00     0.023 A 
ATOM     81  C   UNL A   1      45.256  29.500  35.311  1.00  0.00     0.012 A 
ATOM     82  C   UNL A   1      43.814  27.837  36.346  1.00  0.00     0.148 A 
ATOM     83  C   UNL A   1      46.353  28.987  36.002  1.00  0.00     0.002 A 
ATOM     84  C   UNL A   1      44.900  27.365  37.072  1.00  0.00     0.091 A 
ATOM     85  F   UNL A   1      42.595  27.288  36.463  1.00  0.00    -0.205 F 
ATOM     86  C   UNL A   1      46.173  27.929  36.890  1.00  0.00     0.022 A 
BRANCH  84  87
ATOM     87  S   UNL A   1      44.743  26.075  38.312  1.00  0.00     0.127 S 
ATOM     88  O   UNL A   1      46.142  25.740  38.572  1.00  0.00    -0.237 OA
ATOM     89  O   UNL A   1      44.070  26.776  39.405  1.00  0.00    -0.237 OA
ATOM     90  O   UNL A   1      43.952  25.019  37.695  1.00  0.00    -0.744 OA
ENDBRANCH  84  87
ENDBRANCH  57  80
ENDBRANCH  31  32
ENDBRANCH  23  26
ENDBRANCH  21  22
ENDBRANCH   1  21
TORSDOF 17
ENDMDL
MODEL 3
REMARK VINA RESULT:     -11.4      6.225      9.460
REMARK SMILES CCOc1cc(/C=C(/F)C(=O)NCCCNC(=O)c2ccc(-c3c4nc(c(-c5cccc(S(=O)(=O)[O-])c5F)c5ccc([nH]5)c(-c5cccc(S(=O)(=O)[O-])c5F)c5nc(c(-c6cccc(S(=O)(=O)[O-])c6F)c6ccc3[nH]6)C=C5)C=C4)cc2)ccc1O
REMARK SMILES IDX 14 1 13 2 12 3 10 4 11 5 8 7 7 8 9 9 6 10 4 11 5 12 84 13
REMARK SMILES IDX 83 14 82 15 3 16 2 17 1 18 85 19 15 21 16 22 17 23 18 25
REMARK SMILES IDX 19 26 20 27 81 28 21 29 80 30 22 31 23 32 24 33 74 34 25 35
REMARK SMILES IDX 79 36 73 37 75 38 26 39 78 40 72 41 71 42 27 44 59 45 39 46
REMARK SMILES IDX 58 47 40 48 43 49 57 50 76 51 41 52 42 53 56 55 77 56 44 57
REMARK SMILES IDX 28 58 29 59 37 60 30 61 32 62 38 63 31 64 33 65 34 66 35 67
REMARK SMILES IDX 36 68 60 69 61 70 69 71 62 72 64 73 70 74 63 75 65 76 66 77
REMARK SMILES IDX 67 78 68 79 45 80 46 81 54 82 47 83 49 84 55 85 48 86 50 87
REMARK SMILES IDX 51 88 52 89 53 90
REMARK H PARENT 12 6 85 20 16 24 75 43 43 54
REMARK Flexibility Score: inf
ROOT
ATOM      1  C   UNL A   1      33.855  28.617  25.979  1.00  0.00     0.042 C 
ENDROOT
BRANCH   1   2
ATOM      2  C   UNL A   1      33.222  29.449  24.871  1.00  0.00     0.118 C 
BRANCH   2   3
ATOM      3  N   UNL A   1      33.744  29.145  23.549  1.00  0.00    -0.350 N 
ATOM      4  C   UNL A   1      33.660  28.048  22.746  1.00  0.00     0.280 C 
ATOM      5  O   UNL A   1      34.070  28.193  21.595  1.00  0.00    -0.267 OA
ATOM      6  H   UNL A   1      34.264  29.882  23.153  1.00  0.00     0.163 HD
BRANCH   4   7
ATOM      7  C   UNL A   1      33.096  26.759  23.248  1.00  0.00     0.188 C 
ATOM      8  C   UNL A   1      31.816  26.395  23.438  1.00  0.00     0.053 C 
ATOM      9  F   UNL A   1      34.017  25.836  23.604  1.00  0.00    -0.201 F 
BRANCH   8  10
ATOM     10  C   UNL A   1      30.510  27.056  23.247  1.00  0.00    -0.019 A 
ATOM     11  C   UNL A   1      29.033  28.879  22.584  1.00  0.00     0.161 A 
ATOM     12  C   UNL A   1      30.302  28.286  22.605  1.00  0.00     0.058 A 
ATOM     13  C   UNL A   1      27.941  28.187  23.107  1.00  0.00     0.157 A 
ATOM     14  C   UNL A   1      28.108  26.940  23.684  1.00  0.00     0.051 A 
ATOM     15  C   UNL A   1      29.385  26.386  23.766  1.00  0.00     0.012 A 
BRANCH  11  16
ATOM     16  O   UNL A   1      28.955  30.227  22.360  1.00  0.00    -0.490 OA
BRANCH  16  17
ATOM     17  C   UNL A   1      28.901  31.055  23.517  1.00  0.00     0.226 C 
ATOM     18  C   UNL A   1      28.771  32.504  23.072  1.00  0.00     0.049 C 
ENDBRANCH  16  17
ENDBRANCH  11  16
BRANCH  13  19
ATOM     19  O   UNL A   1      26.673  28.687  23.106  1.00  0.00    -0.504 OA
ATOM     20  H   UNL A   1      26.283  28.977  22.304  1.00  0.00     0.293 HD
ENDBRANCH  13  19
ENDBRANCH   8  10
ENDBRANCH   4   7
ENDBRANCH   2   3
ENDBRANCH   1   2
BRANCH   1  21
ATOM     21  C   UNL A   1      33.447  29.017  27.396  1.00  0.00     0.118 C 
BRANCH  21  22
ATOM     22  N   UNL A   1      33.584  30.445  27.658  1.00  0.00    -0.352 N 
ATOM     23  C   UNL A   1      34.587  31.155  28.274  1.00  0.00     0.251 C 
ATOM     24  H   UNL A   1      32.831  30.994  27.341  1.00  0.00     0.163 HD
ATOM     25  O   UNL A   1      34.419  32.344  28.517  1.00  0.00    -0.269 OA
BRANCH  23  26
ATOM     26  C   UNL A   1      35.852  30.494  28.663  1.00  0.00     0.039 A 
ATOM     27  C   UNL A   1      36.977  30.665  27.851  1.00  0.00     0.014 A 
ATOM     28  C   UNL A   1      35.932  29.690  29.803  1.00  0.00     0.014 A 
ATOM     29  C   UNL A   1      38.196  30.092  28.220  1.00  0.00     0.010 A 
ATOM     30  C   UNL A   1      37.165  29.186  30.211  1.00  0.00     0.010 A 
ATOM     31  C   UNL A   1      38.311  29.378  29.425  1.00  0.00    -0.014 A 
BRANCH  31  32
ATOM     32  C   UNL A   1      39.621  28.845  29.884  1.00  0.00     0.031 A 
ATOM     33  C   UNL A   1      40.376  29.528  30.995  1.00  0.00     0.074 A 
ATOM     34  C   UNL A   1      40.174  27.797  29.239  1.00  0.00     0.049 A 
ATOM     35  N   UNL A   1      41.557  29.245  31.482  1.00  0.00    -0.248 NA
ATOM     36  C   UNL A   1      39.734  30.695  31.624  1.00  0.00     0.031 C 
ATOM     37  C   UNL A   1      39.584  27.099  28.095  1.00  0.00     0.029 A 
ATOM     38  N   UNL A   1      41.373  27.155  29.432  1.00  0.00    -0.354 N 
ATOM     39  C   UNL A   1      41.817  30.219  32.439  1.00  0.00     0.074 A 
ATOM     40  C   UNL A   1      40.682  31.114  32.450  1.00  0.00     0.031 C 
ATOM     41  C   UNL A   1      40.420  26.129  27.689  1.00  0.00     0.029 A 
ATOM     42  C   UNL A   1      41.619  26.156  28.519  1.00  0.00     0.049 A 
ATOM     43  H   UNL A   1      41.997  27.387  30.158  1.00  0.00     0.167 HD
ATOM     44  C   UNL A   1      42.892  30.341  33.253  1.00  0.00     0.034 A 
ATOM     45  C   UNL A   1      42.696  25.361  28.355  1.00  0.00     0.034 A 
ATOM     46  C   UNL A   1      43.995  29.419  33.277  1.00  0.00     0.049 A 
ATOM     47  C   UNL A   1      43.854  25.493  29.309  1.00  0.00     0.074 A 
ATOM     48  C   UNL A   1      45.081  29.402  34.137  1.00  0.00     0.029 A 
ATOM     49  N   UNL A   1      44.163  28.359  32.402  1.00  0.00    -0.354 N 
ATOM     50  N   UNL A   1      44.001  26.313  30.320  1.00  0.00    -0.248 NA
ATOM     51  C   UNL A   1      44.978  24.563  29.124  1.00  0.00     0.031 C 
ATOM     52  C   UNL A   1      45.920  28.350  33.761  1.00  0.00     0.029 A 
ATOM     53  C   UNL A   1      45.339  27.689  32.691  1.00  0.00     0.049 A 
ATOM     54  H   UNL A   1      43.538  28.119  31.680  1.00  0.00     0.167 HD
ATOM     55  C   UNL A   1      45.210  25.971  30.915  1.00  0.00     0.074 A 
ATOM     56  C   UNL A   1      45.744  24.854  30.165  1.00  0.00     0.031 C 
ATOM     57  C   UNL A   1      45.830  26.540  31.978  1.00  0.00     0.034 A 
BRANCH  44  58
ATOM     58  C   UNL A   1      42.919  31.488  34.229  1.00  0.00     0.023 A 
ATOM     59  C   UNL A   1      43.535  32.702  33.863  1.00  0.00     0.012 A 
ATOM     60  C   UNL A   1      42.242  31.399  35.463  1.00  0.00     0.148 A 
ATOM     61  C   UNL A   1      43.498  33.802  34.718  1.00  0.00     0.002 A 
ATOM     62  C   UNL A   1      42.171  32.514  36.289  1.00  0.00     0.091 A 
ATOM     63  F   UNL A   1      41.678  30.231  35.798  1.00  0.00    -0.205 F 
ATOM     64  C   UNL A   1      42.806  33.712  35.923  1.00  0.00     0.022 A 
BRANCH  62  65
ATOM     65  S   UNL A   1      41.234  32.530  37.821  1.00  0.00     0.127 S 
ATOM     66  O   UNL A   1      41.210  33.958  38.138  1.00  0.00    -0.237 OA
ATOM     67  O   UNL A   1      39.947  31.977  37.398  1.00  0.00    -0.237 OA
ATOM     68  O   UNL A   1      41.977  31.700  38.759  1.00  0.00    -0.744 OA
ENDBRANCH  62  65
ENDBRANCH  44  58
BRANCH  45  69
ATOM     69  C   UNL A   1      42.720  24.335  27.273  1.00  0.00     0.023 A 
ATOM     70  C   UNL A   1      43.392  24.612  26.067  1.00  0.00     0.012 A 
ATOM     71  C   UNL A   1      42.075  23.093  27.428  1.00  0.00     0.148 A 
ATOM     72  C   UNL A   1      43.380  23.693  25.017  1.00  0.00     0.002 A 
ATOM     73  C   UNL A   1      42.118  22.157  26.401  1.00  0.00     0.091 A 
ATOM     74  F   UNL A   1      41.430  22.850  28.578  1.00  0.00    -0.205 F 
ATOM     75  C   UNL A   1      42.750  22.463  25.186  1.00  0.00     0.022 A 
BRANCH  73  76
ATOM     76  S   UNL A   1      41.449  20.501  26.586  1.00  0.00     0.127 S 
ATOM     77  O   UNL A   1      41.991  20.101  27.882  1.00  0.00    -0.237 OA
ATOM     78  O   UNL A   1      40.007  20.751  26.570  1.00  0.00    -0.237 OA
ATOM     79  O   UNL A   1      41.937  19.753  25.434  1.00  0.00    -0.744 OA
ENDBRANCH  73  76
ENDBRANCH  45  69
BRANCH  57  80
ATOM     80  C   UNL A   1      47.131  25.937  32.437  1.00  0.00     0.023 A 
ATOM     81  C   UNL A   1      48.351  26.407  31.912  1.00  0.00     0.012 A 
ATOM     82  C   UNL A   1      47.145  24.954  33.446  1.00  0.00     0.148 A 
ATOM     83  C   UNL A   1      49.563  25.882  32.359  1.00  0.00     0.002 A 
ATOM     84  C   UNL A   1      48.358  24.473  33.924  1.00  0.00     0.091 A 
ATOM     85  F   UNL A   1      45.973  24.507  33.921  1.00  0.00    -0.205 F 
ATOM     86  C   UNL A   1      49.567  24.925  33.372  1.00  0.00     0.022 A 
BRANCH  84  87
ATOM     87  S   UNL A   1      48.462  23.317  35.296  1.00  0.00     0.127 S 
ATOM     88  O   UNL A   1      49.905  23.103  35.395  1.00  0.00    -0.237 OA
ATOM     89  O   UNL A   1      47.882  24.088  36.395  1.00  0.00    -0.237 OA
ATOM     90  O   UNL A   1      47.685  22.152  34.898  1.00  0.00    -0.744 OA
ENDBRANCH  84  87
ENDBRANCH  57  80
ENDBRANCH  31  32
ENDBRANCH  23  26
ENDBRANCH  21  22
ENDBRANCH   1  21
TORSDOF 17
ENDMDL
