MODEL 1
REMARK VINA RESULT:     -12.4      0.000      0.000
REMARK SMILES CN(C)c1cc(C(F)(F)F)cc(-c2cccc(/C=C/C(=O)NCCCNC(=O)c3ccc(-c4c5nc(c(-c6cccc(S(=O)(=O)[O-])c6F)c6ccc([nH]6)c(-c6cccc(S(=O)(=O)[O-])c6F)c6nc(c(-c7cccc(S(=O)(=O)[O-])c7F)c7ccc4[nH]7)C=C6)C=C5)cc3)c2)n1
REMARK SMILES IDX 24 1 23 2 22 3 20 4 21 5 19 7 18 8 17 9 13 10 14 11 92 12
REMARK SMILES IDX 15 13 16 14 12 15 4 16 5 17 93 18 6 19 11 20 2 21 1 22 3 23
REMARK SMILES IDX 7 24 8 25 9 26 10 27 25 28 26 29 27 30 28 32 29 33 30 34
REMARK SMILES IDX 91 35 31 36 90 37 32 38 33 39 34 40 84 41 35 42 89 43 83 44
REMARK SMILES IDX 85 45 36 46 88 47 82 48 81 49 37 51 69 52 49 53 68 54 50 55
REMARK SMILES IDX 53 56 67 57 86 58 51 59 52 60 66 62 87 63 54 64 38 65 39 66
REMARK SMILES IDX 47 67 40 68 42 69 48 70 41 71 43 72 44 73 45 74 46 75 70 76
REMARK SMILES IDX 71 77 79 78 72 79 74 80 80 81 73 82 75 83 76 84 77 85 78 86
REMARK SMILES IDX 55 87 56 88 64 89 57 90 59 91 65 92 58 93 60 94 61 95 62 96
REMARK SMILES IDX 63 97
REMARK H PARENT 22 6 26 31 85 50 53 61
REMARK Flexibility Score: inf
ROOT
ATOM      1  C   UNL A   1      31.443  31.988  26.513  1.00  0.00     0.042 C 
ENDROOT
BRANCH   1   2
ATOM      2  C   UNL A   1      31.453  30.483  26.256  1.00  0.00     0.118 C 
BRANCH   2   3
ATOM      3  N   UNL A   1      31.354  30.172  24.840  1.00  0.00    -0.352 N 
ATOM      4  C   UNL A   1      31.258  28.974  24.201  1.00  0.00     0.244 C 
ATOM      5  O   UNL A   1      31.024  28.942  22.995  1.00  0.00    -0.270 OA
ATOM      6  H   UNL A   1      31.357  30.956  24.244  1.00  0.00     0.163 HD
BRANCH   4   7
ATOM      7  C   UNL A   1      31.333  27.704  24.958  1.00  0.00     0.072 C 
ATOM      8  C   UNL A   1      30.974  26.515  24.455  1.00  0.00     0.014 C 
BRANCH   8   9
ATOM      9  C   UNL A   1      31.036  25.251  25.198  1.00  0.00    -0.025 A 
ATOM     10  C   UNL A   1      32.187  23.119  25.561  1.00  0.00     0.001 A 
ATOM     11  C   UNL A   1      31.161  22.744  26.441  1.00  0.00     0.010 A 
ATOM     12  C   UNL A   1      32.105  24.378  24.943  1.00  0.00     0.018 A 
ATOM     13  C   UNL A   1      30.097  23.607  26.710  1.00  0.00     0.001 A 
ATOM     14  C   UNL A   1      30.034  24.855  26.089  1.00  0.00     0.008 A 
BRANCH  10  15
ATOM     15  C   UNL A   1      33.305  22.213  25.275  1.00  0.00     0.073 A 
ATOM     16  C   UNL A   1      33.962  19.996  24.944  1.00  0.00     0.129 A 
ATOM     17  C   UNL A   1      35.277  20.403  24.739  1.00  0.00     0.060 A 
ATOM     18  N   UNL A   1      32.995  20.898  25.220  1.00  0.00    -0.231 NA
ATOM     19  C   UNL A   1      35.607  21.761  24.788  1.00  0.00     0.061 A 
ATOM     20  C   UNL A   1      34.595  22.681  25.065  1.00  0.00     0.042 A 
BRANCH  16  21
ATOM     21  N   UNL A   1      33.624  18.654  24.835  1.00  0.00    -0.363 N 
ATOM     22  C   UNL A   1      34.621  17.744  24.309  1.00  0.00     0.144 C 
ATOM     23  C   UNL A   1      32.658  18.152  25.801  1.00  0.00     0.144 C 
ENDBRANCH  16  21
BRANCH  19  24
ATOM     24  C   UNL A   1      37.010  22.231  24.535  1.00  0.00     0.416 C 
ATOM     25  F   UNL A   1      37.434  23.135  25.460  1.00  0.00    -0.166 F 
ATOM     26  F   UNL A   1      37.911  21.209  24.577  1.00  0.00    -0.166 F 
ATOM     27  F   UNL A   1      37.184  22.824  23.321  1.00  0.00    -0.166 F 
ENDBRANCH  19  24
ENDBRANCH  10  15
ENDBRANCH   8   9
ENDBRANCH   4   7
ENDBRANCH   2   3
ENDBRANCH   1   2
BRANCH   1  28
ATOM     28  C   UNL A   1      32.692  32.500  27.229  1.00  0.00     0.118 C 
BRANCH  28  29
ATOM     29  N   UNL A   1      32.571  33.902  27.607  1.00  0.00    -0.352 N 
ATOM     30  C   UNL A   1      33.202  34.611  28.597  1.00  0.00     0.251 C 
ATOM     31  H   UNL A   1      31.934  34.424  27.067  1.00  0.00     0.163 HD
ATOM     32  O   UNL A   1      32.787  35.732  28.886  1.00  0.00    -0.269 OA
BRANCH  30  33
ATOM     33  C   UNL A   1      34.367  34.048  29.317  1.00  0.00     0.039 A 
ATOM     34  C   UNL A   1      34.143  33.099  30.320  1.00  0.00     0.014 A 
ATOM     35  C   UNL A   1      35.666  34.488  29.055  1.00  0.00     0.014 A 
ATOM     36  C   UNL A   1      35.224  32.560  31.026  1.00  0.00     0.010 A 
ATOM     37  C   UNL A   1      36.748  33.901  29.709  1.00  0.00     0.010 A 
ATOM     38  C   UNL A   1      36.538  32.939  30.710  1.00  0.00    -0.014 A 
BRANCH  38  39
ATOM     39  C   UNL A   1      37.704  32.337  31.407  1.00  0.00     0.031 A 
ATOM     40  C   UNL A   1      38.475  31.210  30.769  1.00  0.00     0.074 A 
ATOM     41  C   UNL A   1      38.014  32.745  32.654  1.00  0.00     0.049 A 
ATOM     42  N   UNL A   1      39.481  30.526  31.248  1.00  0.00    -0.248 NA
ATOM     43  C   UNL A   1      38.041  30.776  29.431  1.00  0.00     0.031 C 
ATOM     44  C   UNL A   1      37.294  33.771  33.410  1.00  0.00     0.029 A 
ATOM     45  N   UNL A   1      38.995  32.324  33.518  1.00  0.00    -0.354 N 
ATOM     46  C   UNL A   1      39.771  29.555  30.296  1.00  0.00     0.074 A 
ATOM     47  C   UNL A   1      38.820  29.724  29.220  1.00  0.00     0.031 C 
ATOM     48  C   UNL A   1      37.857  33.901  34.622  1.00  0.00     0.029 A 
ATOM     49  C   UNL A   1      38.959  32.952  34.741  1.00  0.00     0.049 A 
ATOM     50  H   UNL A   1      39.661  31.639  33.284  1.00  0.00     0.167 HD
ATOM     51  C   UNL A   1      40.755  28.624  30.306  1.00  0.00     0.034 A 
ATOM     52  C   UNL A   1      39.723  32.779  35.838  1.00  0.00     0.034 A 
ATOM     53  C   UNL A   1      41.735  28.499  31.351  1.00  0.00     0.049 A 
ATOM     54  C   UNL A   1      40.846  31.776  35.794  1.00  0.00     0.074 A 
ATOM     55  C   UNL A   1      42.838  27.666  31.400  1.00  0.00     0.029 A 
ATOM     56  N   UNL A   1      41.727  29.223  32.533  1.00  0.00    -0.354 N 
ATOM     57  N   UNL A   1      41.215  30.994  34.810  1.00  0.00    -0.248 NA
ATOM     58  C   UNL A   1      41.681  31.661  36.999  1.00  0.00     0.031 C 
ATOM     59  C   UNL A   1      43.486  27.869  32.622  1.00  0.00     0.029 A 
ATOM     60  C   UNL A   1      42.799  28.847  33.324  1.00  0.00     0.049 A 
ATOM     61  H   UNL A   1      41.058  29.903  32.775  1.00  0.00     0.167 HD
ATOM     62  C   UNL A   1      42.348  30.324  35.260  1.00  0.00     0.074 A 
ATOM     63  C   UNL A   1      42.615  30.808  36.598  1.00  0.00     0.031 C 
ATOM     64  C   UNL A   1      43.090  29.383  34.629  1.00  0.00     0.034 A 
BRANCH  51  65
ATOM     65  C   UNL A   1      40.860  27.693  29.126  1.00  0.00     0.023 A 
ATOM     66  C   UNL A   1      40.031  26.554  29.061  1.00  0.00     0.012 A 
ATOM     67  C   UNL A   1      41.718  27.984  28.047  1.00  0.00     0.148 A 
ATOM     68  C   UNL A   1      40.076  25.705  27.956  1.00  0.00     0.002 A 
ATOM     69  C   UNL A   1      41.726  27.156  26.930  1.00  0.00     0.091 A 
ATOM     70  F   UNL A   1      42.513  29.060  28.135  1.00  0.00    -0.205 F 
ATOM     71  C   UNL A   1      40.913  26.012  26.888  1.00  0.00     0.022 A 
BRANCH  69  72
ATOM     72  S   UNL A   1      42.709  27.510  25.469  1.00  0.00     0.127 S 
ATOM     73  O   UNL A   1      42.435  26.335  24.640  1.00  0.00    -0.237 OA
ATOM     74  O   UNL A   1      42.105  28.751  24.983  1.00  0.00    -0.237 OA
ATOM     75  O   UNL A   1      44.083  27.642  25.931  1.00  0.00    -0.744 OA
ENDBRANCH  69  72
ENDBRANCH  51  65
BRANCH  52  76
ATOM     76  C   UNL A   1      39.503  33.625  37.046  1.00  0.00     0.023 A 
ATOM     77  C   UNL A   1      39.991  34.946  37.058  1.00  0.00     0.012 A 
ATOM     78  C   UNL A   1      38.802  33.142  38.168  1.00  0.00     0.148 A 
ATOM     79  C   UNL A   1      39.819  35.759  38.178  1.00  0.00     0.002 A 
ATOM     80  C   UNL A   1      38.586  33.976  39.260  1.00  0.00     0.091 A 
ATOM     81  F   UNL A   1      38.356  31.878  38.145  1.00  0.00    -0.205 F 
ATOM     82  C   UNL A   1      39.109  35.278  39.274  1.00  0.00     0.022 A 
BRANCH  80  83
ATOM     83  S   UNL A   1      37.571  33.481  40.657  1.00  0.00     0.127 S 
ATOM     84  O   UNL A   1      36.345  33.045  39.997  1.00  0.00    -0.237 OA
ATOM     85  O   UNL A   1      38.369  32.407  41.249  1.00  0.00    -0.237 OA
ATOM     86  O   UNL A   1      37.458  34.669  41.494  1.00  0.00    -0.744 OA
ENDBRANCH  80  83
ENDBRANCH  52  76
BRANCH  64  87
ATOM     87  C   UNL A   1      44.292  28.837  35.353  1.00  0.00     0.023 A 
ATOM     88  C   UNL A   1      45.557  29.425  35.154  1.00  0.00     0.012 A 
ATOM     89  C   UNL A   1      44.154  27.793  36.288  1.00  0.00     0.148 A 
ATOM     90  C   UNL A   1      46.671  28.962  35.853  1.00  0.00     0.002 A 
ATOM     91  C   UNL A   1      45.259  27.370  37.017  1.00  0.00     0.091 A 
ATOM     92  F   UNL A   1      42.946  27.232  36.449  1.00  0.00    -0.205 F 
ATOM     93  C   UNL A   1      46.520  27.944  36.792  1.00  0.00     0.022 A 
BRANCH  91  94
ATOM     94  S   UNL A   1      45.136  26.134  38.316  1.00  0.00     0.127 S 
ATOM     95  O   UNL A   1      44.019  26.644  39.109  1.00  0.00    -0.237 OA
ATOM     96  O   UNL A   1      44.840  24.915  37.560  1.00  0.00    -0.237 OA
ATOM     97  O   UNL A   1      46.430  26.127  38.985  1.00  0.00    -0.744 OA
ENDBRANCH  91  94
ENDBRANCH  64  87
ENDBRANCH  38  39
ENDBRANCH  30  33
ENDBRANCH  28  29
ENDBRANCH   1  28
TORSDOF 17
ENDMDL
MODEL 2
REMARK VINA RESULT:     -12.4      1.230      1.831
REMARK SMILES CN(C)c1cc(C(F)(F)F)cc(-c2cccc(/C=C/C(=O)NCCCNC(=O)c3ccc(-c4c5nc(c(-c6cccc(S(=O)(=O)[O-])c6F)c6ccc([nH]6)c(-c6cccc(S(=O)(=O)[O-])c6F)c6nc(c(-c7cccc(S(=O)(=O)[O-])c7F)c7ccc4[nH]7)C=C6)C=C5)cc3)c2)n1
REMARK SMILES IDX 24 1 23 2 22 3 20 4 21 5 19 7 18 8 17 9 13 10 14 11 92 12
REMARK SMILES IDX 15 13 16 14 12 15 4 16 5 17 93 18 6 19 11 20 2 21 1 22 3 23
REMARK SMILES IDX 7 24 8 25 9 26 10 27 25 28 26 29 27 30 28 32 29 33 30 34
REMARK SMILES IDX 91 35 31 36 90 37 32 38 33 39 34 40 84 41 35 42 89 43 83 44
REMARK SMILES IDX 85 45 36 46 88 47 82 48 81 49 37 51 69 52 49 53 68 54 50 55
REMARK SMILES IDX 53 56 67 57 86 58 51 59 52 60 66 62 87 63 54 64 38 65 39 66
REMARK SMILES IDX 47 67 40 68 42 69 48 70 41 71 43 72 44 73 45 74 46 75 70 76
REMARK SMILES IDX 71 77 79 78 72 79 74 80 80 81 73 82 75 83 76 84 77 85 78 86
REMARK SMILES IDX 55 87 56 88 64 89 57 90 59 91 65 92 58 93 60 94 61 95 62 96
REMARK SMILES IDX 63 97
REMARK H PARENT 22 6 26 31 85 50 53 61
REMARK Flexibility Score: inf
ROOT
ATOM      1  C   UNL A   1      31.515  31.922  26.628  1.00  0.00     0.042 C 
ENDROOT
BRANCH   1   2
ATOM      2  C   UNL A   1      31.650  30.434  26.315  1.00  0.00     0.118 C 
BRANCH   2   3
ATOM      3  N   UNL A   1      31.396  30.148  24.912  1.00  0.00    -0.352 N 
ATOM      4  C   UNL A   1      31.138  28.970  24.281  1.00  0.00     0.244 C 
ATOM      5  O   UNL A   1      30.793  28.972  23.102  1.00  0.00    -0.270 OA
ATOM      6  H   UNL A   1      31.413  30.935  24.321  1.00  0.00     0.163 HD
BRANCH   4   7
ATOM      7  C   UNL A   1      31.170  27.690  25.024  1.00  0.00     0.072 C 
ATOM      8  C   UNL A   1      30.447  26.614  24.686  1.00  0.00     0.014 C 
BRANCH   8   9
ATOM      9  C   UNL A   1      30.465  25.343  25.419  1.00  0.00    -0.025 A 
ATOM     10  C   UNL A   1      31.503  23.145  25.725  1.00  0.00     0.001 A 
ATOM     11  C   UNL A   1      30.492  22.823  26.642  1.00  0.00     0.010 A 
ATOM     12  C   UNL A   1      31.470  24.412  25.117  1.00  0.00     0.018 A 
ATOM     13  C   UNL A   1      29.492  23.744  26.959  1.00  0.00     0.001 A 
ATOM     14  C   UNL A   1      29.477  24.999  26.347  1.00  0.00     0.008 A 
BRANCH  10  15
ATOM     15  C   UNL A   1      32.554  22.179  25.390  1.00  0.00     0.073 A 
ATOM     16  C   UNL A   1      34.848  21.833  25.116  1.00  0.00     0.129 A 
ATOM     17  C   UNL A   1      34.622  20.497  24.800  1.00  0.00     0.060 A 
ATOM     18  N   UNL A   1      33.818  22.661  25.397  1.00  0.00    -0.231 NA
ATOM     19  C   UNL A   1      33.320  19.987  24.796  1.00  0.00     0.061 A 
ATOM     20  C   UNL A   1      32.267  20.853  25.096  1.00  0.00     0.042 A 
BRANCH  16  21
ATOM     21  N   UNL A   1      36.146  22.323  25.179  1.00  0.00    -0.363 N 
ATOM     22  C   UNL A   1      36.996  22.144  24.020  1.00  0.00     0.144 C 
ATOM     23  C   UNL A   1      36.354  23.487  26.027  1.00  0.00     0.144 C 
ENDBRANCH  16  21
BRANCH  19  24
ATOM     24  C   UNL A   1      33.050  18.542  24.494  1.00  0.00     0.416 C 
ATOM     25  F   UNL A   1      34.151  17.890  24.028  1.00  0.00    -0.166 F 
ATOM     26  F   UNL A   1      32.652  17.851  25.599  1.00  0.00    -0.166 F 
ATOM     27  F   UNL A   1      32.074  18.344  23.565  1.00  0.00    -0.166 F 
ENDBRANCH  19  24
ENDBRANCH  10  15
ENDBRANCH   8   9
ENDBRANCH   4   7
ENDBRANCH   2   3
ENDBRANCH   1   2
BRANCH   1  28
ATOM     28  C   UNL A   1      32.807  32.569  27.122  1.00  0.00     0.118 C 
BRANCH  28  29
ATOM     29  N   UNL A   1      32.594  33.932  27.590  1.00  0.00    -0.352 N 
ATOM     30  C   UNL A   1      33.148  34.602  28.652  1.00  0.00     0.251 C 
ATOM     31  H   UNL A   1      31.948  34.455  27.063  1.00  0.00     0.163 HD
ATOM     32  O   UNL A   1      32.661  35.676  29.001  1.00  0.00    -0.269 OA
BRANCH  30  33
ATOM     33  C   UNL A   1      34.317  34.052  29.377  1.00  0.00     0.039 A 
ATOM     34  C   UNL A   1      34.100  33.107  30.384  1.00  0.00     0.014 A 
ATOM     35  C   UNL A   1      35.613  34.503  29.115  1.00  0.00     0.014 A 
ATOM     36  C   UNL A   1      35.183  32.581  31.094  1.00  0.00     0.010 A 
ATOM     37  C   UNL A   1      36.698  33.928  29.774  1.00  0.00     0.010 A 
ATOM     38  C   UNL A   1      36.495  32.969  30.779  1.00  0.00    -0.014 A 
BRANCH  38  39
ATOM     39  C   UNL A   1      37.665  32.381  31.481  1.00  0.00     0.031 A 
ATOM     40  C   UNL A   1      38.446  31.257  30.852  1.00  0.00     0.074 A 
ATOM     41  C   UNL A   1      37.970  32.800  32.726  1.00  0.00     0.049 A 
ATOM     42  N   UNL A   1      39.457  30.584  31.336  1.00  0.00    -0.248 NA
ATOM     43  C   UNL A   1      38.017  30.811  29.515  1.00  0.00     0.031 C 
ATOM     44  C   UNL A   1      37.241  33.824  33.475  1.00  0.00     0.029 A 
ATOM     45  N   UNL A   1      38.953  32.392  33.594  1.00  0.00    -0.354 N 
ATOM     46  C   UNL A   1      39.756  29.610  30.390  1.00  0.00     0.074 A 
ATOM     47  C   UNL A   1      38.805  29.764  29.311  1.00  0.00     0.031 C 
ATOM     48  C   UNL A   1      37.801  33.967  34.687  1.00  0.00     0.029 A 
ATOM     49  C   UNL A   1      38.910  33.027  34.813  1.00  0.00     0.049 A 
ATOM     50  H   UNL A   1      39.624  31.711  33.365  1.00  0.00     0.167 HD
ATOM     51  C   UNL A   1      40.747  28.686  30.407  1.00  0.00     0.034 A 
ATOM     52  C   UNL A   1      39.674  32.867  35.912  1.00  0.00     0.034 A 
ATOM     53  C   UNL A   1      41.727  28.576  31.454  1.00  0.00     0.049 A 
ATOM     54  C   UNL A   1      40.805  31.874  35.876  1.00  0.00     0.074 A 
ATOM     55  C   UNL A   1      42.837  27.752  31.509  1.00  0.00     0.029 A 
ATOM     56  N   UNL A   1      41.712  29.307  32.632  1.00  0.00    -0.354 N 
ATOM     57  N   UNL A   1      41.182  31.088  34.897  1.00  0.00    -0.248 NA
ATOM     58  C   UNL A   1      41.639  31.772  37.082  1.00  0.00     0.031 C 
ATOM     59  C   UNL A   1      43.481  27.968  32.731  1.00  0.00     0.029 A 
ATOM     60  C   UNL A   1      42.785  28.944  33.426  1.00  0.00     0.049 A 
ATOM     61  H   UNL A   1      41.036  29.983  32.868  1.00  0.00     0.167 HD
ATOM     62  C   UNL A   1      42.319  30.430  35.353  1.00  0.00     0.074 A 
ATOM     63  C   UNL A   1      42.581  30.925  36.688  1.00  0.00     0.031 C 
ATOM     64  C   UNL A   1      43.070  29.491  34.728  1.00  0.00     0.034 A 
BRANCH  51  65
ATOM     65  C   UNL A   1      40.861  27.749  29.233  1.00  0.00     0.023 A 
ATOM     66  C   UNL A   1      40.069  26.583  29.193  1.00  0.00     0.012 A 
ATOM     67  C   UNL A   1      41.689  28.059  28.136  1.00  0.00     0.148 A 
ATOM     68  C   UNL A   1      40.122  25.726  28.094  1.00  0.00     0.002 A 
ATOM     69  C   UNL A   1      41.703  27.222  27.026  1.00  0.00     0.091 A 
ATOM     70  F   UNL A   1      42.449  29.161  28.200  1.00  0.00    -0.205 F 
ATOM     71  C   UNL A   1      40.929  26.051  27.008  1.00  0.00     0.022 A 
BRANCH  69  72
ATOM     72  S   UNL A   1      42.647  27.595  25.543  1.00  0.00     0.127 S 
ATOM     73  O   UNL A   1      42.259  26.492  24.664  1.00  0.00    -0.237 OA
ATOM     74  O   UNL A   1      42.111  28.900  25.156  1.00  0.00    -0.237 OA
ATOM     75  O   UNL A   1      44.045  27.609  25.949  1.00  0.00    -0.744 OA
ENDBRANCH  69  72
ENDBRANCH  51  65
BRANCH  52  76
ATOM     76  C   UNL A   1      39.445  33.719  37.114  1.00  0.00     0.023 A 
ATOM     77  C   UNL A   1      39.919  35.045  37.116  1.00  0.00     0.012 A 
ATOM     78  C   UNL A   1      38.752  33.236  38.240  1.00  0.00     0.148 A 
ATOM     79  C   UNL A   1      39.738  35.864  38.232  1.00  0.00     0.002 A 
ATOM     80  C   UNL A   1      38.527  34.075  39.327  1.00  0.00     0.091 A 
ATOM     81  F   UNL A   1      38.320  31.967  38.227  1.00  0.00    -0.205 F 
ATOM     82  C   UNL A   1      39.035  35.383  39.332  1.00  0.00     0.022 A 
BRANCH  80  83
ATOM     83  S   UNL A   1      37.520  33.578  40.728  1.00  0.00     0.127 S 
ATOM     84  O   UNL A   1      38.356  32.556  41.351  1.00  0.00    -0.237 OA
ATOM     85  O   UNL A   1      37.408  34.826  41.483  1.00  0.00    -0.237 OA
ATOM     86  O   UNL A   1      36.263  33.113  40.157  1.00  0.00    -0.744 OA
ENDBRANCH  80  83
ENDBRANCH  52  76
BRANCH  64  87
ATOM     87  C   UNL A   1      44.276  28.959  35.457  1.00  0.00     0.023 A 
ATOM     88  C   UNL A   1      45.528  29.583  35.288  1.00  0.00     0.012 A 
ATOM     89  C   UNL A   1      44.151  27.892  36.368  1.00  0.00     0.148 A 
ATOM     90  C   UNL A   1      46.644  29.132  35.992  1.00  0.00     0.002 A 
ATOM     91  C   UNL A   1      45.256  27.481  37.103  1.00  0.00     0.091 A 
ATOM     92  F   UNL A   1      42.955  27.299  36.500  1.00  0.00    -0.205 F 
ATOM     93  C   UNL A   1      46.506  28.090  36.908  1.00  0.00     0.022 A 
BRANCH  91  94
ATOM     94  S   UNL A   1      45.147  26.215  38.373  1.00  0.00     0.127 S 
ATOM     95  O   UNL A   1      46.529  26.144  38.844  1.00  0.00    -0.237 OA
ATOM     96  O   UNL A   1      44.209  26.810  39.327  1.00  0.00    -0.237 OA
ATOM     97  O   UNL A   1      44.649  25.020  37.706  1.00  0.00    -0.744 OA
ENDBRANCH  91  94
ENDBRANCH  64  87
ENDBRANCH  38  39
ENDBRANCH  30  33
ENDBRANCH  28  29
ENDBRANCH   1  28
TORSDOF 17
ENDMDL
MODEL 3
REMARK VINA RESULT:     -12.4      2.398      3.280
REMARK SMILES CN(C)c1cc(C(F)(F)F)cc(-c2cccc(/C=C/C(=O)NCCCNC(=O)c3ccc(-c4c5nc(c(-c6cccc(S(=O)(=O)[O-])c6F)c6ccc([nH]6)c(-c6cccc(S(=O)(=O)[O-])c6F)c6nc(c(-c7cccc(S(=O)(=O)[O-])c7F)c7ccc4[nH]7)C=C6)C=C5)cc3)c2)n1
REMARK SMILES IDX 24 1 23 2 22 3 20 4 21 5 19 7 18 8 17 9 13 10 14 11 92 12
REMARK SMILES IDX 15 13 16 14 12 15 4 16 5 17 93 18 6 19 11 20 2 21 1 22 3 23
REMARK SMILES IDX 7 24 8 25 9 26 10 27 25 28 26 29 27 30 28 32 29 33 30 34
REMARK SMILES IDX 91 35 31 36 90 37 32 38 33 39 34 40 84 41 35 42 89 43 83 44
REMARK SMILES IDX 85 45 36 46 88 47 82 48 81 49 37 51 69 52 49 53 68 54 50 55
REMARK SMILES IDX 53 56 67 57 86 58 51 59 52 60 66 62 87 63 54 64 38 65 39 66
REMARK SMILES IDX 47 67 40 68 42 69 48 70 41 71 43 72 44 73 45 74 46 75 70 76
REMARK SMILES IDX 71 77 79 78 72 79 74 80 80 81 73 82 75 83 76 84 77 85 78 86
REMARK SMILES IDX 55 87 56 88 64 89 57 90 59 91 65 92 58 93 60 94 61 95 62 96
REMARK SMILES IDX 63 97
REMARK H PARENT 22 6 26 31 85 50 53 61
REMARK Flexibility Score: inf
ROOT
ATOM      1  C   UNL A   1      34.024  29.104  23.513  1.00  0.00     0.042 C 
ENDROOT
BRANCH   1   2
ATOM      2  C   UNL A   1      33.493  28.155  22.441  1.00  0.00     0.118 C 
BRANCH   2   3
ATOM      3  N   UNL A   1      32.134  28.486  22.046  1.00  0.00    -0.352 N 
ATOM      4  C   UNL A   1      30.953  27.880  22.345  1.00  0.00     0.244 C 
ATOM      5  O   UNL A   1      29.894  28.420  22.035  1.00  0.00    -0.270 OA
ATOM      6  H   UNL A   1      32.054  29.279  21.468  1.00  0.00     0.163 HD
BRANCH   4   7
ATOM      7  C   UNL A   1      30.923  26.625  23.129  1.00  0.00     0.072 C 
ATOM      8  C   UNL A   1      30.653  26.571  24.440  1.00  0.00     0.014 C 
BRANCH   8   9
ATOM      9  C   UNL A   1      30.629  25.333  25.229  1.00  0.00    -0.025 A 
ATOM     10  C   UNL A   1      31.554  23.094  25.593  1.00  0.00     0.001 A 
ATOM     11  C   UNL A   1      30.564  22.871  26.562  1.00  0.00     0.010 A 
ATOM     12  C   UNL A   1      31.567  24.334  24.931  1.00  0.00     0.018 A 
ATOM     13  C   UNL A   1      29.631  23.861  26.874  1.00  0.00     0.001 A 
ATOM     14  C   UNL A   1      29.662  25.087  26.208  1.00  0.00     0.008 A 
BRANCH  10  15
ATOM     15  C   UNL A   1      32.534  22.055  25.263  1.00  0.00     0.073 A 
ATOM     16  C   UNL A   1      34.760  21.598  24.723  1.00  0.00     0.129 A 
ATOM     17  C   UNL A   1      34.476  20.238  24.647  1.00  0.00     0.060 A 
ATOM     18  N   UNL A   1      33.791  22.491  25.018  1.00  0.00    -0.231 NA
ATOM     19  C   UNL A   1      33.181  19.776  24.904  1.00  0.00     0.061 A 
ATOM     20  C   UNL A   1      32.193  20.710  25.216  1.00  0.00     0.042 A 
BRANCH  16  21
ATOM     21  N   UNL A   1      36.059  22.048  24.527  1.00  0.00    -0.363 N 
ATOM     22  C   UNL A   1      37.146  21.214  24.998  1.00  0.00     0.144 C 
ATOM     23  C   UNL A   1      36.279  22.891  23.361  1.00  0.00     0.144 C 
ENDBRANCH  16  21
BRANCH  19  24
ATOM     24  C   UNL A   1      32.854  18.311  24.865  1.00  0.00     0.416 C 
ATOM     25  F   UNL A   1      33.888  17.556  24.401  1.00  0.00    -0.166 F 
ATOM     26  F   UNL A   1      32.560  17.816  26.101  1.00  0.00    -0.166 F 
ATOM     27  F   UNL A   1      31.783  18.005  24.082  1.00  0.00    -0.166 F 
ENDBRANCH  19  24
ENDBRANCH  10  15
ENDBRANCH   8   9
ENDBRANCH   4   7
ENDBRANCH   2   3
ENDBRANCH   1   2
BRANCH   1  28
ATOM     28  C   UNL A   1      33.401  28.890  24.890  1.00  0.00     0.118 C 
BRANCH  28  29
ATOM     29  N   UNL A   1      32.731  30.087  25.381  1.00  0.00    -0.352 N 
ATOM     30  C   UNL A   1      32.961  30.833  26.510  1.00  0.00     0.251 C 
ATOM     31  H   UNL A   1      31.994  30.413  24.814  1.00  0.00     0.163 HD
ATOM     32  O   UNL A   1      32.133  31.677  26.847  1.00  0.00    -0.269 OA
BRANCH  30  33
ATOM     33  C   UNL A   1      34.185  30.635  27.320  1.00  0.00     0.039 A 
ATOM     34  C   UNL A   1      34.449  29.365  27.840  1.00  0.00     0.014 A 
ATOM     35  C   UNL A   1      35.038  31.700  27.620  1.00  0.00     0.014 A 
ATOM     36  C   UNL A   1      35.590  29.152  28.620  1.00  0.00     0.010 A 
ATOM     37  C   UNL A   1      36.211  31.473  28.338  1.00  0.00     0.010 A 
ATOM     38  C   UNL A   1      36.494  30.200  28.856  1.00  0.00    -0.014 A 
BRANCH  38  39
ATOM     39  C   UNL A   1      37.742  29.983  29.634  1.00  0.00     0.031 A 
ATOM     40  C   UNL A   1      38.828  29.087  29.098  1.00  0.00     0.074 A 
ATOM     41  C   UNL A   1      37.859  30.523  30.864  1.00  0.00     0.049 A 
ATOM     42  N   UNL A   1      39.957  28.736  29.657  1.00  0.00    -0.248 NA
ATOM     43  C   UNL A   1      38.604  28.483  27.774  1.00  0.00     0.031 C 
ATOM     44  C   UNL A   1      36.843  31.343  31.527  1.00  0.00     0.029 A 
ATOM     45  N   UNL A   1      38.869  30.436  31.789  1.00  0.00    -0.354 N 
ATOM     46  C   UNL A   1      40.555  27.839  28.779  1.00  0.00     0.074 A 
ATOM     47  C   UNL A   1      39.655  27.682  27.658  1.00  0.00     0.031 C 
ATOM     48  C   UNL A   1      37.282  31.685  32.749  1.00  0.00     0.029 A 
ATOM     49  C   UNL A   1      38.595  31.088  32.968  1.00  0.00     0.049 A 
ATOM     50  H   UNL A   1      39.711  29.954  31.624  1.00  0.00     0.167 HD
ATOM     51  C   UNL A   1      41.756  27.221  28.885  1.00  0.00     0.034 A 
ATOM     52  C   UNL A   1      39.317  31.191  34.102  1.00  0.00     0.034 A 
ATOM     53  C   UNL A   1      42.675  27.427  29.972  1.00  0.00     0.049 A 
ATOM     54  C   UNL A   1      40.674  30.541  34.164  1.00  0.00     0.074 A 
ATOM     55  C   UNL A   1      43.961  26.940  30.115  1.00  0.00     0.029 A 
ATOM     56  N   UNL A   1      42.403  28.178  31.105  1.00  0.00    -0.354 N 
ATOM     57  N   UNL A   1      41.298  29.845  33.246  1.00  0.00    -0.248 NA
ATOM     58  C   UNL A   1      41.441  30.724  35.405  1.00  0.00     0.031 C 
ATOM     59  C   UNL A   1      44.460  27.376  31.345  1.00  0.00     0.029 A 
ATOM     60  C   UNL A   1      43.493  28.156  31.959  1.00  0.00     0.049 A 
ATOM     61  H   UNL A   1      41.559  28.655  31.278  1.00  0.00     0.167 HD
ATOM     62  C   UNL A   1      42.546  29.542  33.780  1.00  0.00     0.074 A 
ATOM     63  C   UNL A   1      42.595  30.147  35.094  1.00  0.00     0.031 C 
ATOM     64  C   UNL A   1      43.553  28.816  33.237  1.00  0.00     0.034 A 
BRANCH  51  65
ATOM     65  C   UNL A   1      42.178  26.300  27.770  1.00  0.00     0.023 A 
ATOM     66  C   UNL A   1      43.114  26.747  26.814  1.00  0.00     0.012 A 
ATOM     67  C   UNL A   1      41.712  24.972  27.710  1.00  0.00     0.148 A 
ATOM     68  C   UNL A   1      43.556  25.897  25.801  1.00  0.00     0.002 A 
ATOM     69  C   UNL A   1      42.190  24.117  26.724  1.00  0.00     0.091 A 
ATOM     70  F   UNL A   1      40.808  24.571  28.615  1.00  0.00    -0.205 F 
ATOM     71  C   UNL A   1      43.104  24.581  25.763  1.00  0.00     0.022 A 
BRANCH  69  72
ATOM     72  S   UNL A   1      41.732  22.383  26.637  1.00  0.00     0.127 S 
ATOM     73  O   UNL A   1      40.272  22.467  26.593  1.00  0.00    -0.237 OA
ATOM     74  O   UNL A   1      42.355  21.960  25.383  1.00  0.00    -0.237 OA
ATOM     75  O   UNL A   1      42.286  21.760  27.831  1.00  0.00    -0.744 OA
ENDBRANCH  69  72
ENDBRANCH  51  65
BRANCH  52  76
ATOM     76  C   UNL A   1      38.805  32.000  35.246  1.00  0.00     0.023 A 
ATOM     77  C   UNL A   1      38.825  33.405  35.155  1.00  0.00     0.012 A 
ATOM     78  C   UNL A   1      38.287  31.394  36.406  1.00  0.00     0.148 A 
ATOM     79  C   UNL A   1      38.371  34.194  36.214  1.00  0.00     0.002 A 
ATOM     80  C   UNL A   1      37.786  32.185  37.435  1.00  0.00     0.091 A 
ATOM     81  F   UNL A   1      38.289  30.056  36.481  1.00  0.00    -0.205 F 
ATOM     82  C   UNL A   1      37.844  33.584  37.348  1.00  0.00     0.022 A 
BRANCH  80  83
ATOM     83  S   UNL A   1      36.971  31.482  38.873  1.00  0.00     0.127 S 
ATOM     84  O   UNL A   1      35.774  32.313  38.975  1.00  0.00    -0.237 OA
ATOM     85  O   UNL A   1      36.729  30.104  38.445  1.00  0.00    -0.237 OA
ATOM     86  O   UNL A   1      37.930  31.608  39.962  1.00  0.00    -0.744 OA
ENDBRANCH  80  83
ENDBRANCH  52  76
BRANCH  64  87
ATOM     87  C   UNL A   1      44.818  28.664  34.039  1.00  0.00     0.023 A 
ATOM     88  C   UNL A   1      45.840  29.628  33.925  1.00  0.00     0.012 A 
ATOM     89  C   UNL A   1      44.961  27.610  34.963  1.00  0.00     0.148 A 
ATOM     90  C   UNL A   1      46.997  29.527  34.696  1.00  0.00     0.002 A 
ATOM     91  C   UNL A   1      46.094  27.544  35.764  1.00  0.00     0.091 A 
ATOM     92  F   UNL A   1      43.986  26.692  35.043  1.00  0.00    -0.205 F 
ATOM     93  C   UNL A   1      47.119  28.494  35.623  1.00  0.00     0.022 A 
BRANCH  91  94
ATOM     94  S   UNL A   1      46.290  26.306  37.051  1.00  0.00     0.127 S 
ATOM     95  O   UNL A   1      47.575  26.684  37.636  1.00  0.00    -0.237 OA
ATOM     96  O   UNL A   1      45.132  26.563  37.909  1.00  0.00    -0.237 OA
ATOM     97  O   UNL A   1      46.263  25.017  36.374  1.00  0.00    -0.744 OA
ENDBRANCH  91  94
ENDBRANCH  64  87
ENDBRANCH  38  39
ENDBRANCH  30  33
ENDBRANCH  28  29
ENDBRANCH   1  28
TORSDOF 17
ENDMDL
