MODEL 1
REMARK VINA RESULT:     -13.5      0.000      0.000
REMARK SMILES O=C(NCCCNC(=O)c1ccc(-c2c3nc(c(-c4cccc(S(=O)(=O)[O-])c4F)c4ccc([nH]4)c(-c4cccc(S(=O)(=O)[O-])c4F)c4nc(c(-c5cccc(S(=O)(=O)[O-])c5F)c5ccc2[nH]5)C=C4)C=C3)cc1)C1=Cc2cc(Cl)cc(-c3ccc(O)cc3)c2O[C@@H]1C(F)(F)F
REMARK SMILES IDX 5 1 4 2 3 3 1 4 2 5 73 7 74 8 90 9 75 10 89 11 76 12 88 13
REMARK SMILES IDX 77 14 80 15 78 16 79 17 91 18 92 19 93 20 94 21 81 22 82 23
REMARK SMILES IDX 87 24 83 25 86 26 84 27 85 28 6 30 7 31 8 32 9 34 10 35
REMARK SMILES IDX 11 36 72 37 12 38 71 39 13 40 14 41 15 42 65 43 16 44 70 45
REMARK SMILES IDX 64 46 66 47 17 48 69 49 63 50 62 51 18 53 50 54 30 55 49 56
REMARK SMILES IDX 31 57 34 58 48 59 67 60 32 61 33 62 47 64 68 65 35 66 19 67
REMARK SMILES IDX 20 68 28 69 21 70 23 71 29 72 22 73 24 74 25 75 26 76 27 77
REMARK SMILES IDX 51 78 52 79 60 80 53 81 55 82 61 83 54 84 56 85 57 86 58 87
REMARK SMILES IDX 59 88 36 89 37 90 45 91 38 92 40 93 46 94 39 95 41 96 42 97
REMARK SMILES IDX 43 98 44 99
REMARK H PARENT 3 6 85 29 7 33 66 52 34 63
REMARK Flexibility Score: inf
ROOT
ATOM      1  C   UNL A   1      35.635  20.762  25.129  1.00  0.00     0.042 C 
ENDROOT
BRANCH   1   2
ATOM      2  C   UNL A   1      34.351  21.538  24.842  1.00  0.00     0.118 C 
BRANCH   2   3
ATOM      3  N   UNL A   1      34.428  22.349  23.620  1.00  0.00    -0.352 N 
ATOM      4  O   UNL A   1      34.483  24.284  22.427  1.00  0.00    -0.270 OA
ATOM      5  C   UNL A   1      34.110  23.669  23.417  1.00  0.00     0.251 C 
ATOM      6  H   UNL A   1      34.758  21.872  22.825  1.00  0.00     0.163 HD
BRANCH   5   7
ATOM      7  C   UNL A   1      33.367  24.342  24.492  1.00  0.00     0.067 C 
ATOM      8  C   UNL A   1      34.049  25.175  25.287  1.00  0.00     0.025 C 
ATOM      9  C   UNL A   1      31.877  24.348  24.400  1.00  0.00     0.314 C 
ATOM     10  C   UNL A   1      33.320  26.393  25.652  1.00  0.00     0.019 A 
ATOM     11  O   UNL A   1      31.370  25.704  24.342  1.00  0.00    -0.475 OA
ATOM     12  C   UNL A   1      34.024  27.412  26.297  1.00  0.00     0.032 A 
ATOM     13  C   UNL A   1      32.102  26.672  24.995  1.00  0.00     0.135 A 
ATOM     14  C   UNL A   1      33.567  28.721  26.197  1.00  0.00     0.042 A 
ATOM     15  C   UNL A   1      31.680  28.002  24.830  1.00  0.00     0.026 A 
ATOM     16  Cl  UNL A   1      34.502  30.000  26.871  1.00  0.00    -0.084 Cl
ATOM     17  C   UNL A   1      32.428  29.020  25.449  1.00  0.00     0.033 A 
BRANCH   9  18
ATOM     18  C   UNL A   1      31.212  23.530  25.521  1.00  0.00     0.429 C 
ATOM     19  F   UNL A   1      30.976  22.255  25.120  1.00  0.00    -0.167 F 
ATOM     20  F   UNL A   1      32.000  23.445  26.619  1.00  0.00    -0.167 F 
ATOM     21  F   UNL A   1      30.026  24.044  25.918  1.00  0.00    -0.167 F 
ENDBRANCH   9  18
BRANCH  15  22
ATOM     22  C   UNL A   1      30.631  28.375  23.867  1.00  0.00    -0.014 A 
ATOM     23  C   UNL A   1      30.913  29.309  22.852  1.00  0.00     0.012 A 
ATOM     24  C   UNL A   1      29.324  27.890  23.976  1.00  0.00     0.012 A 
ATOM     25  C   UNL A   1      29.912  29.795  22.014  1.00  0.00     0.047 A 
ATOM     26  C   UNL A   1      28.317  28.362  23.126  1.00  0.00     0.047 A 
ATOM     27  C   UNL A   1      28.617  29.328  22.168  1.00  0.00     0.115 A 
BRANCH  27  28
ATOM     28  O   UNL A   1      27.654  29.856  21.361  1.00  0.00    -0.508 OA
ATOM     29  H   UNL A   1      27.088  30.528  21.686  1.00  0.00     0.293 HD
ENDBRANCH  27  28
ENDBRANCH  15  22
ENDBRANCH   5   7
ENDBRANCH   2   3
ENDBRANCH   1   2
BRANCH   1  30
ATOM     30  C   UNL A   1      36.868  21.661  25.261  1.00  0.00     0.118 C 
BRANCH  30  31
ATOM     31  N   UNL A   1      38.156  20.980  25.232  1.00  0.00    -0.352 N 
ATOM     32  C   UNL A   1      39.309  21.261  25.941  1.00  0.00     0.251 C 
ATOM     33  H   UNL A   1      38.213  20.211  24.620  1.00  0.00     0.163 HD
ATOM     34  O   UNL A   1      40.294  20.533  25.815  1.00  0.00    -0.269 OA
BRANCH  32  35
ATOM     35  C   UNL A   1      39.414  22.508  26.737  1.00  0.00     0.039 A 
ATOM     36  C   UNL A   1      40.481  22.613  27.638  1.00  0.00     0.014 A 
ATOM     37  C   UNL A   1      38.605  23.615  26.489  1.00  0.00     0.014 A 
ATOM     38  C   UNL A   1      40.856  23.867  28.124  1.00  0.00     0.010 A 
ATOM     39  C   UNL A   1      39.035  24.875  26.893  1.00  0.00     0.010 A 
ATOM     40  C   UNL A   1      40.205  25.016  27.653  1.00  0.00    -0.014 A 
BRANCH  40  41
ATOM     41  C   UNL A   1      40.816  26.366  27.789  1.00  0.00     0.031 A 
ATOM     42  C   UNL A   1      42.203  26.635  27.288  1.00  0.00     0.074 A 
ATOM     43  C   UNL A   1      40.168  27.293  28.530  1.00  0.00     0.049 A 
ATOM     44  N   UNL A   1      42.951  27.692  27.467  1.00  0.00    -0.248 NA
ATOM     45  C   UNL A   1      42.853  25.562  26.518  1.00  0.00     0.031 C 
ATOM     46  C   UNL A   1      38.859  27.109  29.166  1.00  0.00     0.029 A 
ATOM     47  N   UNL A   1      40.535  28.562  28.906  1.00  0.00    -0.354 N 
ATOM     48  C   UNL A   1      44.173  27.396  26.878  1.00  0.00     0.074 A 
ATOM     49  C   UNL A   1      44.075  26.049  26.355  1.00  0.00     0.031 C 
ATOM     50  C   UNL A   1      38.530  28.221  29.841  1.00  0.00     0.029 A 
ATOM     51  C   UNL A   1      39.616  29.185  29.722  1.00  0.00     0.049 A 
ATOM     52  H   UNL A   1      41.377  28.986  28.621  1.00  0.00     0.167 HD
ATOM     53  C   UNL A   1      45.267  28.185  26.756  1.00  0.00     0.034 A 
ATOM     54  C   UNL A   1      39.646  30.392  30.319  1.00  0.00     0.034 A 
ATOM     55  C   UNL A   1      45.332  29.544  27.217  1.00  0.00     0.049 A 
ATOM     56  C   UNL A   1      40.844  31.274  30.105  1.00  0.00     0.074 A 
ATOM     57  C   UNL A   1      46.349  30.465  27.040  1.00  0.00     0.029 A 
ATOM     58  N   UNL A   1      44.335  30.181  27.942  1.00  0.00    -0.354 N 
ATOM     59  N   UNL A   1      41.924  31.036  29.400  1.00  0.00    -0.248 NA
ATOM     60  C   UNL A   1      40.822  32.596  30.745  1.00  0.00     0.031 C 
ATOM     61  C   UNL A   1      45.967  31.661  27.660  1.00  0.00     0.029 A 
ATOM     62  C   UNL A   1      44.713  31.482  28.223  1.00  0.00     0.049 A 
ATOM     63  H   UNL A   1      43.485  29.769  28.215  1.00  0.00     0.167 HD
ATOM     64  C   UNL A   1      42.701  32.182  29.496  1.00  0.00     0.074 A 
ATOM     65  C   UNL A   1      41.955  33.127  30.303  1.00  0.00     0.031 C 
ATOM     66  C   UNL A   1      43.933  32.424  28.985  1.00  0.00     0.034 A 
BRANCH  53  67
ATOM     67  C   UNL A   1      46.453  27.618  26.024  1.00  0.00     0.023 A 
ATOM     68  C   UNL A   1      46.537  27.781  24.627  1.00  0.00     0.012 A 
ATOM     69  C   UNL A   1      47.496  26.966  26.710  1.00  0.00     0.148 A 
ATOM     70  C   UNL A   1      47.624  27.275  23.917  1.00  0.00     0.002 A 
ATOM     71  C   UNL A   1      48.595  26.495  25.998  1.00  0.00     0.091 A 
ATOM     72  F   UNL A   1      47.387  26.801  28.036  1.00  0.00    -0.205 F 
ATOM     73  C   UNL A   1      48.656  26.640  24.603  1.00  0.00     0.022 A 
BRANCH  71  74
ATOM     74  S   UNL A   1      50.003  25.713  26.795  1.00  0.00     0.127 S 
ATOM     75  O   UNL A   1      49.419  24.453  27.254  1.00  0.00    -0.237 OA
ATOM     76  O   UNL A   1      50.950  25.579  25.687  1.00  0.00    -0.237 OA
ATOM     77  O   UNL A   1      50.426  26.628  27.846  1.00  0.00    -0.744 OA
ENDBRANCH  71  74
ENDBRANCH  53  67
BRANCH  54  78
ATOM     78  C   UNL A   1      38.474  30.867  31.110  1.00  0.00     0.023 A 
ATOM     79  C   UNL A   1      38.480  30.695  32.508  1.00  0.00     0.012 A 
ATOM     80  C   UNL A   1      37.381  31.517  30.505  1.00  0.00     0.148 A 
ATOM     81  C   UNL A   1      37.409  31.137  33.285  1.00  0.00     0.002 A 
ATOM     82  C   UNL A   1      36.339  31.999  31.291  1.00  0.00     0.091 A 
ATOM     83  F   UNL A   1      37.380  31.659  29.171  1.00  0.00    -0.205 F 
ATOM     84  C   UNL A   1      36.344  31.798  32.680  1.00  0.00     0.022 A 
BRANCH  82  85
ATOM     85  S   UNL A   1      35.003  32.977  30.590  1.00  0.00     0.127 S 
ATOM     86  O   UNL A   1      35.712  34.159  30.114  1.00  0.00    -0.237 OA
ATOM     87  O   UNL A   1      34.490  32.099  29.537  1.00  0.00    -0.237 OA
ATOM     88  O   UNL A   1      34.070  33.184  31.691  1.00  0.00    -0.744 OA
ENDBRANCH  82  85
ENDBRANCH  54  78
BRANCH  66  89
ATOM     89  C   UNL A   1      44.555  33.759  29.280  1.00  0.00     0.023 A 
ATOM     90  C   UNL A   1      45.315  33.918  30.455  1.00  0.00     0.012 A 
ATOM     91  C   UNL A   1      44.465  34.821  28.361  1.00  0.00     0.148 A 
ATOM     92  C   UNL A   1      45.964  35.122  30.721  1.00  0.00     0.002 A 
ATOM     93  C   UNL A   1      45.147  36.006  28.612  1.00  0.00     0.091 A 
ATOM     94  F   UNL A   1      43.717  34.654  27.261  1.00  0.00    -0.205 F 
ATOM     95  C   UNL A   1      45.891  36.161  29.793  1.00  0.00     0.022 A 
BRANCH  93  96
ATOM     96  S   UNL A   1      45.181  37.362  27.435  1.00  0.00     0.127 S 
ATOM     97  O   UNL A   1      45.827  38.417  28.214  1.00  0.00    -0.237 OA
ATOM     98  O   UNL A   1      45.998  36.816  26.351  1.00  0.00    -0.237 OA
ATOM     99  O   UNL A   1      43.792  37.611  27.074  1.00  0.00    -0.744 OA
ENDBRANCH  93  96
ENDBRANCH  66  89
ENDBRANCH  40  41
ENDBRANCH  32  35
ENDBRANCH  30  31
ENDBRANCH   1  30
TORSDOF 16
ENDMDL
MODEL 2
REMARK VINA RESULT:     -13.4      1.340      1.594
REMARK SMILES O=C(NCCCNC(=O)c1ccc(-c2c3nc(c(-c4cccc(S(=O)(=O)[O-])c4F)c4ccc([nH]4)c(-c4cccc(S(=O)(=O)[O-])c4F)c4nc(c(-c5cccc(S(=O)(=O)[O-])c5F)c5ccc2[nH]5)C=C4)C=C3)cc1)C1=Cc2cc(Cl)cc(-c3ccc(O)cc3)c2O[C@@H]1C(F)(F)F
REMARK SMILES IDX 5 1 4 2 3 3 1 4 2 5 73 7 74 8 90 9 75 10 89 11 76 12 88 13
REMARK SMILES IDX 77 14 80 15 78 16 79 17 91 18 92 19 93 20 94 21 81 22 82 23
REMARK SMILES IDX 87 24 83 25 86 26 84 27 85 28 6 30 7 31 8 32 9 34 10 35
REMARK SMILES IDX 11 36 72 37 12 38 71 39 13 40 14 41 15 42 65 43 16 44 70 45
REMARK SMILES IDX 64 46 66 47 17 48 69 49 63 50 62 51 18 53 50 54 30 55 49 56
REMARK SMILES IDX 31 57 34 58 48 59 67 60 32 61 33 62 47 64 68 65 35 66 19 67
REMARK SMILES IDX 20 68 28 69 21 70 23 71 29 72 22 73 24 74 25 75 26 76 27 77
REMARK SMILES IDX 51 78 52 79 60 80 53 81 55 82 61 83 54 84 56 85 57 86 58 87
REMARK SMILES IDX 59 88 36 89 37 90 45 91 38 92 40 93 46 94 39 95 41 96 42 97
REMARK SMILES IDX 43 98 44 99
REMARK H PARENT 3 6 85 29 7 33 66 52 34 63
REMARK Flexibility Score: inf
ROOT
ATOM      1  C   UNL A   1      35.877  20.930  25.316  1.00  0.00     0.042 C 
ENDROOT
BRANCH   1   2
ATOM      2  C   UNL A   1      34.601  21.736  25.080  1.00  0.00     0.118 C 
BRANCH   2   3
ATOM      3  N   UNL A   1      34.621  22.494  23.822  1.00  0.00    -0.352 N 
ATOM      4  O   UNL A   1      34.538  24.372  22.543  1.00  0.00    -0.270 OA
ATOM      5  C   UNL A   1      34.208  23.777  23.560  1.00  0.00     0.251 C 
ATOM      6  H   UNL A   1      34.987  22.007  23.049  1.00  0.00     0.163 HD
BRANCH   5   7
ATOM      7  C   UNL A   1      33.415  24.441  24.603  1.00  0.00     0.067 C 
ATOM      8  C   UNL A   1      34.054  25.289  25.419  1.00  0.00     0.025 C 
ATOM      9  C   UNL A   1      31.930  24.422  24.457  1.00  0.00     0.314 C 
ATOM     10  C   UNL A   1      33.291  26.496  25.751  1.00  0.00     0.019 A 
ATOM     11  O   UNL A   1      31.402  25.768  24.374  1.00  0.00    -0.475 OA
ATOM     12  C   UNL A   1      33.953  27.530  26.416  1.00  0.00     0.032 A 
ATOM     13  C   UNL A   1      32.093  26.751  25.048  1.00  0.00     0.135 A 
ATOM     14  C   UNL A   1      33.479  28.831  26.292  1.00  0.00     0.042 A 
ATOM     15  C   UNL A   1      31.655  28.074  24.861  1.00  0.00     0.026 A 
ATOM     16  Cl  UNL A   1      34.366  30.128  26.994  1.00  0.00    -0.084 Cl
ATOM     17  C   UNL A   1      32.362  29.106  25.503  1.00  0.00     0.033 A 
BRANCH   9  18
ATOM     18  C   UNL A   1      31.238  23.597  25.557  1.00  0.00     0.429 C 
ATOM     19  F   UNL A   1      32.067  23.401  26.614  1.00  0.00    -0.167 F 
ATOM     20  F   UNL A   1      30.141  24.226  26.044  1.00  0.00    -0.167 F 
ATOM     21  F   UNL A   1      30.844  22.375  25.133  1.00  0.00    -0.167 F 
ENDBRANCH   9  18
BRANCH  15  22
ATOM     22  C   UNL A   1      30.636  28.425  23.859  1.00  0.00    -0.014 A 
ATOM     23  C   UNL A   1      30.944  29.347  22.841  1.00  0.00     0.012 A 
ATOM     24  C   UNL A   1      29.330  27.929  23.930  1.00  0.00     0.012 A 
ATOM     25  C   UNL A   1      29.968  29.813  21.964  1.00  0.00     0.047 A 
ATOM     26  C   UNL A   1      28.348  28.382  23.041  1.00  0.00     0.047 A 
ATOM     27  C   UNL A   1      28.672  29.337  22.081  1.00  0.00     0.115 A 
BRANCH  27  28
ATOM     28  O   UNL A   1      27.732  29.846  21.235  1.00  0.00    -0.508 OA
ATOM     29  H   UNL A   1      26.828  29.836  21.480  1.00  0.00     0.293 HD
ENDBRANCH  27  28
ENDBRANCH  15  22
ENDBRANCH   5   7
ENDBRANCH   2   3
ENDBRANCH   1   2
BRANCH   1  30
ATOM     30  C   UNL A   1      37.134  21.802  25.404  1.00  0.00     0.118 C 
BRANCH  30  31
ATOM     31  N   UNL A   1      38.404  21.087  25.395  1.00  0.00    -0.352 N 
ATOM     32  C   UNL A   1      39.567  21.363  26.087  1.00  0.00     0.251 C 
ATOM     33  H   UNL A   1      38.437  20.294  24.811  1.00  0.00     0.163 HD
ATOM     34  O   UNL A   1      40.532  20.605  25.984  1.00  0.00    -0.269 OA
BRANCH  32  35
ATOM     35  C   UNL A   1      39.709  22.637  26.836  1.00  0.00     0.039 A 
ATOM     36  C   UNL A   1      40.761  22.734  27.754  1.00  0.00     0.014 A 
ATOM     37  C   UNL A   1      38.951  23.764  26.527  1.00  0.00     0.014 A 
ATOM     38  C   UNL A   1      41.179  23.990  28.198  1.00  0.00     0.010 A 
ATOM     39  C   UNL A   1      39.425  25.021  26.890  1.00  0.00     0.010 A 
ATOM     40  C   UNL A   1      40.586  25.145  27.669  1.00  0.00    -0.014 A 
BRANCH  40  41
ATOM     41  C   UNL A   1      41.249  26.473  27.764  1.00  0.00     0.031 A 
ATOM     42  C   UNL A   1      42.635  26.680  27.229  1.00  0.00     0.074 A 
ATOM     43  C   UNL A   1      40.653  27.439  28.499  1.00  0.00     0.049 A 
ATOM     44  N   UNL A   1      43.425  27.710  27.370  1.00  0.00    -0.248 NA
ATOM     45  C   UNL A   1      43.227  25.567  26.468  1.00  0.00     0.031 C 
ATOM     46  C   UNL A   1      39.352  27.317  29.166  1.00  0.00     0.029 A 
ATOM     47  N   UNL A   1      41.075  28.700  28.842  1.00  0.00    -0.354 N 
ATOM     48  C   UNL A   1      44.623  27.356  26.763  1.00  0.00     0.074 A 
ATOM     49  C   UNL A   1      44.463  26.004  26.270  1.00  0.00     0.031 C 
ATOM     50  C   UNL A   1      39.080  28.454  29.824  1.00  0.00     0.029 A 
ATOM     51  C   UNL A   1      40.198  29.373  29.663  1.00  0.00     0.049 A 
ATOM     52  H   UNL A   1      41.926  29.086  28.530  1.00  0.00     0.167 HD
ATOM     53  C   UNL A   1      45.742  28.101  26.601  1.00  0.00     0.034 A 
ATOM     54  C   UNL A   1      40.286  30.590  30.234  1.00  0.00     0.034 A 
ATOM     55  C   UNL A   1      45.868  29.466  27.033  1.00  0.00     0.049 A 
ATOM     56  C   UNL A   1      41.512  31.421  29.977  1.00  0.00     0.074 A 
ATOM     57  C   UNL A   1      46.915  30.344  26.816  1.00  0.00     0.029 A 
ATOM     58  N   UNL A   1      44.912  30.154  27.765  1.00  0.00    -0.354 N 
ATOM     59  N   UNL A   1      42.567  31.128  29.254  1.00  0.00    -0.248 NA
ATOM     60  C   UNL A   1      41.553  32.756  30.590  1.00  0.00     0.031 C 
ATOM     61  C   UNL A   1      46.592  31.565  27.419  1.00  0.00     0.029 A 
ATOM     62  C   UNL A   1      45.344  31.445  28.011  1.00  0.00     0.049 A 
ATOM     63  H   UNL A   1      44.053  29.780  28.064  1.00  0.00     0.167 HD
ATOM     64  C   UNL A   1      43.388  32.246  29.311  1.00  0.00     0.074 A 
ATOM     65  C   UNL A   1      42.696  33.234  30.113  1.00  0.00     0.031 C 
ATOM     66  C   UNL A   1      44.617  32.430  28.769  1.00  0.00     0.034 A 
BRANCH  53  67
ATOM     67  C   UNL A   1      46.891  27.475  25.857  1.00  0.00     0.023 A 
ATOM     68  C   UNL A   1      47.693  26.520  26.514  1.00  0.00     0.012 A 
ATOM     69  C   UNL A   1      47.155  27.795  24.511  1.00  0.00     0.148 A 
ATOM     70  C   UNL A   1      48.761  25.916  25.854  1.00  0.00     0.002 A 
ATOM     71  C   UNL A   1      48.201  27.161  23.849  1.00  0.00     0.091 A 
ATOM     72  F   UNL A   1      46.395  28.722  23.912  1.00  0.00    -0.205 F 
ATOM     73  C   UNL A   1      49.009  26.229  24.521  1.00  0.00     0.022 A 
BRANCH  71  74
ATOM     74  S   UNL A   1      48.569  27.452  22.115  1.00  0.00     0.127 S 
ATOM     75  O   UNL A   1      48.751  26.088  21.619  1.00  0.00    -0.237 OA
ATOM     76  O   UNL A   1      47.352  28.115  21.647  1.00  0.00    -0.237 OA
ATOM     77  O   UNL A   1      49.761  28.289  22.095  1.00  0.00    -0.744 OA
ENDBRANCH  71  74
ENDBRANCH  53  67
BRANCH  54  78
ATOM     78  C   UNL A   1      39.151  31.125  31.039  1.00  0.00     0.023 A 
ATOM     79  C   UNL A   1      39.206  31.031  32.443  1.00  0.00     0.012 A 
ATOM     80  C   UNL A   1      38.043  31.756  30.439  1.00  0.00     0.148 A 
ATOM     81  C   UNL A   1      38.170  31.531  33.233  1.00  0.00     0.002 A 
ATOM     82  C   UNL A   1      37.037  32.295  31.234  1.00  0.00     0.091 A 
ATOM     83  F   UNL A   1      37.994  31.822  29.100  1.00  0.00    -0.205 F 
ATOM     84  C   UNL A   1      37.091  32.172  32.631  1.00  0.00     0.022 A 
BRANCH  82  85
ATOM     85  S   UNL A   1      35.687  33.250  30.528  1.00  0.00     0.127 S 
ATOM     86  O   UNL A   1      36.383  34.078  29.550  1.00  0.00    -0.237 OA
ATOM     87  O   UNL A   1      34.830  32.210  29.957  1.00  0.00    -0.237 OA
ATOM     88  O   UNL A   1      35.090  33.951  31.659  1.00  0.00    -0.744 OA
ENDBRANCH  82  85
ENDBRANCH  54  78
BRANCH  66  89
ATOM     89  C   UNL A   1      45.295  33.747  29.024  1.00  0.00     0.023 A 
ATOM     90  C   UNL A   1      46.108  33.892  30.164  1.00  0.00     0.012 A 
ATOM     91  C   UNL A   1      45.201  34.803  28.098  1.00  0.00     0.148 A 
ATOM     92  C   UNL A   1      46.808  35.076  30.390  1.00  0.00     0.002 A 
ATOM     93  C   UNL A   1      45.933  35.966  28.308  1.00  0.00     0.091 A 
ATOM     94  F   UNL A   1      44.403  34.651  27.032  1.00  0.00    -0.205 F 
ATOM     95  C   UNL A   1      46.730  36.107  29.455  1.00  0.00     0.022 A 
BRANCH  93  96
ATOM     96  S   UNL A   1      45.962  37.310  27.115  1.00  0.00     0.127 S 
ATOM     97  O   UNL A   1      46.543  36.656  25.945  1.00  0.00    -0.237 OA
ATOM     98  O   UNL A   1      44.543  37.644  26.986  1.00  0.00    -0.237 OA
ATOM     99  O   UNL A   1      46.775  38.357  27.717  1.00  0.00    -0.744 OA
ENDBRANCH  93  96
ENDBRANCH  66  89
ENDBRANCH  40  41
ENDBRANCH  32  35
ENDBRANCH  30  31
ENDBRANCH   1  30
TORSDOF 16
ENDMDL
MODEL 3
REMARK VINA RESULT:     -13.4      1.380      7.474
REMARK SMILES O=C(NCCCNC(=O)c1ccc(-c2c3nc(c(-c4cccc(S(=O)(=O)[O-])c4F)c4ccc([nH]4)c(-c4cccc(S(=O)(=O)[O-])c4F)c4nc(c(-c5cccc(S(=O)(=O)[O-])c5F)c5ccc2[nH]5)C=C4)C=C3)cc1)C1=Cc2cc(Cl)cc(-c3ccc(O)cc3)c2O[C@@H]1C(F)(F)F
REMARK SMILES IDX 5 1 4 2 3 3 1 4 2 5 73 7 74 8 90 9 75 10 89 11 76 12 88 13
REMARK SMILES IDX 77 14 80 15 78 16 79 17 91 18 92 19 93 20 94 21 81 22 82 23
REMARK SMILES IDX 87 24 83 25 86 26 84 27 85 28 6 30 7 31 8 32 9 34 10 35
REMARK SMILES IDX 11 36 72 37 12 38 71 39 13 40 14 41 15 42 65 43 16 44 70 45
REMARK SMILES IDX 64 46 66 47 17 48 69 49 63 50 62 51 18 53 50 54 30 55 49 56
REMARK SMILES IDX 31 57 34 58 48 59 67 60 32 61 33 62 47 64 68 65 35 66 19 67
REMARK SMILES IDX 20 68 28 69 21 70 23 71 29 72 22 73 24 74 25 75 26 76 27 77
REMARK SMILES IDX 51 78 52 79 60 80 53 81 55 82 61 83 54 84 56 85 57 86 58 87
REMARK SMILES IDX 59 88 36 89 37 90 45 91 38 92 40 93 46 94 39 95 41 96 42 97
REMARK SMILES IDX 43 98 44 99
REMARK H PARENT 3 6 85 29 7 33 66 52 34 63
REMARK Flexibility Score: inf
ROOT
ATOM      1  C   UNL A   1      35.870  21.780  25.889  1.00  0.00     0.042 C 
ENDROOT
BRANCH   1   2
ATOM      2  C   UNL A   1      34.523  21.802  25.169  1.00  0.00     0.118 C 
BRANCH   2   3
ATOM      3  N   UNL A   1      34.558  22.544  23.901  1.00  0.00    -0.352 N 
ATOM      4  O   UNL A   1      34.493  24.405  22.597  1.00  0.00    -0.270 OA
ATOM      5  C   UNL A   1      34.151  23.824  23.618  1.00  0.00     0.251 C 
ATOM      6  H   UNL A   1      34.931  22.046  23.139  1.00  0.00     0.163 HD
BRANCH   5   7
ATOM      7  C   UNL A   1      33.350  24.504  24.644  1.00  0.00     0.067 C 
ATOM      8  C   UNL A   1      33.983  25.357  25.459  1.00  0.00     0.025 C 
ATOM      9  C   UNL A   1      31.866  24.492  24.480  1.00  0.00     0.314 C 
ATOM     10  C   UNL A   1      33.224  26.572  25.769  1.00  0.00     0.019 A 
ATOM     11  O   UNL A   1      31.348  25.841  24.376  1.00  0.00    -0.475 OA
ATOM     12  C   UNL A   1      33.884  27.609  26.431  1.00  0.00     0.032 A 
ATOM     13  C   UNL A   1      32.036  26.827  25.048  1.00  0.00     0.135 A 
ATOM     14  C   UNL A   1      33.419  28.911  26.288  1.00  0.00     0.042 A 
ATOM     15  C   UNL A   1      31.609  28.150  24.842  1.00  0.00     0.026 A 
ATOM     16  Cl  UNL A   1      34.306  30.210  26.987  1.00  0.00    -0.084 Cl
ATOM     17  C   UNL A   1      32.315  29.185  25.481  1.00  0.00     0.033 A 
BRANCH   9  18
ATOM     18  C   UNL A   1      31.155  23.684  25.579  1.00  0.00     0.429 C 
ATOM     19  F   UNL A   1      30.071  24.350  26.051  1.00  0.00    -0.167 F 
ATOM     20  F   UNL A   1      30.701  22.494  25.117  1.00  0.00    -0.167 F 
ATOM     21  F   UNL A   1      31.951  23.423  26.642  1.00  0.00    -0.167 F 
ENDBRANCH   9  18
BRANCH  15  22
ATOM     22  C   UNL A   1      30.605  28.496  23.823  1.00  0.00    -0.014 A 
ATOM     23  C   UNL A   1      30.934  29.399  22.794  1.00  0.00     0.012 A 
ATOM     24  C   UNL A   1      29.292  28.018  23.889  1.00  0.00     0.012 A 
ATOM     25  C   UNL A   1      29.973  29.862  21.899  1.00  0.00     0.047 A 
ATOM     26  C   UNL A   1      28.325  28.467  22.982  1.00  0.00     0.047 A 
ATOM     27  C   UNL A   1      28.671  29.403  22.010  1.00  0.00     0.115 A 
BRANCH  27  28
ATOM     28  O   UNL A   1      27.746  29.909  21.146  1.00  0.00    -0.508 OA
ATOM     29  H   UNL A   1      27.441  30.788  21.249  1.00  0.00     0.293 HD
ENDBRANCH  27  28
ENDBRANCH  15  22
ENDBRANCH   5   7
ENDBRANCH   2   3
ENDBRANCH   1   2
BRANCH   1  30
ATOM     30  C   UNL A   1      37.043  22.180  24.989  1.00  0.00     0.118 C 
BRANCH  30  31
ATOM     31  N   UNL A   1      38.213  21.313  25.048  1.00  0.00    -0.352 N 
ATOM     32  C   UNL A   1      39.306  21.377  25.890  1.00  0.00     0.251 C 
ATOM     33  H   UNL A   1      38.226  20.577  24.393  1.00  0.00     0.163 HD
ATOM     34  O   UNL A   1      40.182  20.515  25.818  1.00  0.00    -0.269 OA
BRANCH  32  35
ATOM     35  C   UNL A   1      39.501  22.551  26.777  1.00  0.00     0.039 A 
ATOM     36  C   UNL A   1      40.469  22.448  27.783  1.00  0.00     0.014 A 
ATOM     37  C   UNL A   1      38.888  23.776  26.527  1.00  0.00     0.014 A 
ATOM     38  C   UNL A   1      40.964  23.604  28.388  1.00  0.00     0.010 A 
ATOM     39  C   UNL A   1      39.446  24.935  27.057  1.00  0.00     0.010 A 
ATOM     40  C   UNL A   1      40.537  24.861  27.936  1.00  0.00    -0.014 A 
BRANCH  40  41
ATOM     41  C   UNL A   1      41.314  26.097  28.224  1.00  0.00     0.031 A 
ATOM     42  C   UNL A   1      40.677  27.258  28.927  1.00  0.00     0.074 A 
ATOM     43  C   UNL A   1      42.547  26.222  27.684  1.00  0.00     0.049 A 
ATOM     44  N   UNL A   1      41.145  28.463  29.113  1.00  0.00    -0.248 NA
ATOM     45  C   UNL A   1      39.319  27.051  29.457  1.00  0.00     0.031 C 
ATOM     46  C   UNL A   1      43.231  25.201  26.882  1.00  0.00     0.029 A 
ATOM     47  N   UNL A   1      43.432  27.271  27.694  1.00  0.00    -0.354 N 
ATOM     48  C   UNL A   1      40.127  29.174  29.735  1.00  0.00     0.074 A 
ATOM     49  C   UNL A   1      39.005  28.270  29.875  1.00  0.00     0.031 C 
ATOM     50  C   UNL A   1      44.425  25.669  26.489  1.00  0.00     0.029 A 
ATOM     51  C   UNL A   1      44.582  27.033  26.973  1.00  0.00     0.049 A 
ATOM     52  H   UNL A   1      43.260  28.116  28.170  1.00  0.00     0.167 HD
ATOM     53  C   UNL A   1      40.137  30.454  30.178  1.00  0.00     0.034 A 
ATOM     54  C   UNL A   1      45.640  27.826  26.719  1.00  0.00     0.034 A 
ATOM     55  C   UNL A   1      41.278  31.323  30.097  1.00  0.00     0.049 A 
ATOM     56  C   UNL A   1      45.652  29.219  27.286  1.00  0.00     0.074 A 
ATOM     57  C   UNL A   1      41.429  32.595  30.619  1.00  0.00     0.029 A 
ATOM     58  N   UNL A   1      42.468  31.007  29.459  1.00  0.00    -0.354 N 
ATOM     59  N   UNL A   1      44.743  29.815  28.018  1.00  0.00    -0.248 NA
ATOM     60  C   UNL A   1      46.841  30.039  27.013  1.00  0.00     0.031 C 
ATOM     61  C   UNL A   1      42.713  33.050  30.294  1.00  0.00     0.029 A 
ATOM     62  C   UNL A   1      43.359  32.060  29.570  1.00  0.00     0.049 A 
ATOM     63  H   UNL A   1      42.652  30.158  28.996  1.00  0.00     0.167 HD
ATOM     64  C   UNL A   1      45.255  31.072  28.310  1.00  0.00     0.074 A 
ATOM     65  C   UNL A   1      46.568  31.141  27.701  1.00  0.00     0.031 C 
ATOM     66  C   UNL A   1      44.681  32.089  28.999  1.00  0.00     0.034 A 
BRANCH  53  67
ATOM     67  C   UNL A   1      38.896  30.961  30.863  1.00  0.00     0.023 A 
ATOM     68  C   UNL A   1      38.700  30.670  32.228  1.00  0.00     0.012 A 
ATOM     69  C   UNL A   1      37.951  31.749  30.180  1.00  0.00     0.148 A 
ATOM     70  C   UNL A   1      37.567  31.128  32.896  1.00  0.00     0.002 A 
ATOM     71  C   UNL A   1      36.840  32.232  30.863  1.00  0.00     0.091 A 
ATOM     72  F   UNL A   1      38.143  31.995  28.876  1.00  0.00    -0.205 F 
ATOM     73  C   UNL A   1      36.642  31.916  32.217  1.00  0.00     0.022 A 
BRANCH  71  74
ATOM     74  S   UNL A   1      35.617  33.302  30.094  1.00  0.00     0.127 S 
ATOM     75  O   UNL A   1      34.666  32.326  29.561  1.00  0.00    -0.237 OA
ATOM     76  O   UNL A   1      35.124  34.076  31.233  1.00  0.00    -0.237 OA
ATOM     77  O   UNL A   1      36.339  34.081  29.097  1.00  0.00    -0.744 OA
ENDBRANCH  71  74
ENDBRANCH  53  67
BRANCH  54  78
ATOM     78  C   UNL A   1      46.807  27.298  25.955  1.00  0.00     0.023 A 
ATOM     79  C   UNL A   1      47.631  26.325  26.555  1.00  0.00     0.012 A 
ATOM     80  C   UNL A   1      47.086  27.714  24.639  1.00  0.00     0.148 A 
ATOM     81  C   UNL A   1      48.725  25.797  25.869  1.00  0.00     0.002 A 
ATOM     82  C   UNL A   1      48.150  27.147  23.943  1.00  0.00     0.091 A 
ATOM     83  F   UNL A   1      46.305  28.653  24.086  1.00  0.00    -0.205 F 
ATOM     84  C   UNL A   1      48.979  26.198  24.561  1.00  0.00     0.022 A 
BRANCH  82  85
ATOM     85  S   UNL A   1      48.451  27.521  22.211  1.00  0.00     0.127 S 
ATOM     86  O   UNL A   1      48.693  26.195  21.654  1.00  0.00    -0.237 OA
ATOM     87  O   UNL A   1      47.190  28.141  21.799  1.00  0.00    -0.237 OA
ATOM     88  O   UNL A   1      49.585  28.436  22.214  1.00  0.00    -0.744 OA
ENDBRANCH  82  85
ENDBRANCH  54  78
BRANCH  66  89
ATOM     89  C   UNL A   1      45.465  33.364  29.132  1.00  0.00     0.023 A 
ATOM     90  C   UNL A   1      46.355  33.513  30.213  1.00  0.00     0.012 A 
ATOM     91  C   UNL A   1      45.388  34.369  28.149  1.00  0.00     0.148 A 
ATOM     92  C   UNL A   1      47.149  34.653  30.324  1.00  0.00     0.002 A 
ATOM     93  C   UNL A   1      46.212  35.485  28.245  1.00  0.00     0.091 A 
ATOM     94  F   UNL A   1      44.518  34.215  27.143  1.00  0.00    -0.205 F 
ATOM     95  C   UNL A   1      47.087  35.632  29.334  1.00  0.00     0.022 A 
BRANCH  93  96
ATOM     96  S   UNL A   1      46.263  36.751  26.972  1.00  0.00     0.127 S 
ATOM     97  O   UNL A   1      44.899  37.276  27.020  1.00  0.00    -0.237 OA
ATOM     98  O   UNL A   1      47.287  37.665  27.480  1.00  0.00    -0.237 OA
ATOM     99  O   UNL A   1      46.627  36.064  25.740  1.00  0.00    -0.744 OA
ENDBRANCH  93  96
ENDBRANCH  66  89
ENDBRANCH  40  41
ENDBRANCH  32  35
ENDBRANCH  30  31
ENDBRANCH   1  30
TORSDOF 16
ENDMDL
