MODEL 1
REMARK VINA RESULT:     -13.6      0.000      0.000
REMARK SMILES CCC1(C(=O)NCCCNC(=O)c2ccc(-c3c4nc(c(-c5cccc(S(=O)(=O)[O-])c5F)c5ccc([nH]5)c(-c5cccc(S(=O)(=O)[O-])c5F)c5nc(c(-c6cccc(S(=O)(=O)[O-])c6F)c6ccc3[nH]6)C=C5)C=C4)cc2)CCN(c2ncnc3c2CCCC3)CC1
REMARK SMILES IDX 9 1 8 2 7 3 6 4 4 5 5 6 3 8 76 9 90 10 77 11 89 12 78 13
REMARK SMILES IDX 2 14 1 15 79 16 80 17 84 18 81 19 83 20 85 21 82 22 88 23
REMARK SMILES IDX 86 24 87 25 10 26 11 27 12 29 13 30 14 31 75 32 15 33 74 34
REMARK SMILES IDX 16 35 17 36 18 37 68 38 19 39 73 40 67 41 69 42 20 43 72 44
REMARK SMILES IDX 66 45 65 46 21 48 53 49 33 50 52 51 34 52 37 53 51 54 70 55
REMARK SMILES IDX 35 56 36 57 50 59 71 60 38 61 22 62 23 63 31 64 24 65 26 66
REMARK SMILES IDX 32 67 25 68 27 69 28 70 29 71 30 72 54 73 55 74 63 75 56 76
REMARK SMILES IDX 58 77 64 78 57 79 59 80 60 81 61 82 62 83 39 84 40 85 48 86
REMARK SMILES IDX 41 87 43 88 49 89 42 90 44 91 45 92 46 93 47 94
REMARK H PARENT 6 7 10 28 69 47 37 58
REMARK Flexibility Score: inf
ROOT
ATOM      1  C   UNL A   1      37.365  21.079  24.701  1.00  0.00     0.118 C 
ENDROOT
BRANCH   1   2
ATOM      2  C   UNL A   1      36.060  21.051  25.482  1.00  0.00     0.042 C 
BRANCH   2   3
ATOM      3  C   UNL A   1      35.595  22.408  26.002  1.00  0.00     0.117 C 
BRANCH   3   4
ATOM      4  N   UNL A   1      34.685  22.300  27.127  1.00  0.00    -0.356 N 
ATOM      5  C   UNL A   1      33.342  22.493  27.245  1.00  0.00     0.226 C 
ATOM      6  O   UNL A   1      32.892  22.284  28.379  1.00  0.00    -0.274 OA
ATOM      7  H   UNL A   1      35.123  22.036  27.969  1.00  0.00     0.163 HD
BRANCH   5   8
ATOM      8  C   UNL A   1      32.411  22.940  26.070  1.00  0.00     0.052 C 
ATOM      9  C   UNL A   1      31.176  23.672  26.676  1.00  0.00     0.038 C 
ATOM     10  C   UNL A   1      33.230  23.789  25.052  1.00  0.00     0.038 C 
ATOM     11  C   UNL A   1      30.519  24.730  25.793  1.00  0.00     0.119 C 
ATOM     12  C   UNL A   1      32.424  24.830  24.268  1.00  0.00     0.119 C 
ATOM     13  N   UNL A   1      31.565  25.546  25.196  1.00  0.00    -0.356 N 
BRANCH   8  14
ATOM     14  C   UNL A   1      31.939  21.610  25.377  1.00  0.00     0.013 C 
ATOM     15  C   UNL A   1      32.609  21.199  24.076  1.00  0.00     0.005 C 
ENDBRANCH   8  14
BRANCH  13  16
ATOM     16  C   UNL A   1      31.179  26.836  24.821  1.00  0.00     0.135 A 
ATOM     17  N   UNL A   1      30.427  26.993  23.718  1.00  0.00    -0.219 NA
ATOM     18  C   UNL A   1      31.639  27.931  25.557  1.00  0.00     0.016 A 
ATOM     19  C   UNL A   1      30.124  28.254  23.380  1.00  0.00     0.224 A 
ATOM     20  C   UNL A   1      31.285  29.194  25.101  1.00  0.00     0.049 A 
ATOM     21  C   UNL A   1      32.485  27.760  26.783  1.00  0.00     0.041 C 
ATOM     22  N   UNL A   1      30.527  29.371  24.001  1.00  0.00    -0.241 NA
ATOM     23  C   UNL A   1      31.839  30.443  25.743  1.00  0.00     0.057 C 
ATOM     24  C   UNL A   1      33.293  28.995  27.165  1.00  0.00     0.005 C 
ATOM     25  C   UNL A   1      32.400  30.222  27.147  1.00  0.00     0.007 C 
ENDBRANCH  13  16
ENDBRANCH   5   8
ENDBRANCH   3   4
ENDBRANCH   2   3
ENDBRANCH   1   2
BRANCH   1  26
ATOM     26  N   UNL A   1      38.336  20.117  25.209  1.00  0.00    -0.352 N 
ATOM     27  C   UNL A   1      39.585  20.288  25.757  1.00  0.00     0.251 C 
ATOM     28  H   UNL A   1      38.046  19.179  25.149  1.00  0.00     0.163 HD
ATOM     29  O   UNL A   1      40.299  19.299  25.912  1.00  0.00    -0.269 OA
BRANCH  27  30
ATOM     30  C   UNL A   1      40.092  21.626  26.151  1.00  0.00     0.039 A 
ATOM     31  C   UNL A   1      41.472  21.803  26.310  1.00  0.00     0.014 A 
ATOM     32  C   UNL A   1      39.233  22.691  26.423  1.00  0.00     0.014 A 
ATOM     33  C   UNL A   1      41.984  23.051  26.679  1.00  0.00     0.010 A 
ATOM     34  C   UNL A   1      39.747  23.958  26.690  1.00  0.00     0.010 A 
ATOM     35  C   UNL A   1      41.127  24.152  26.836  1.00  0.00    -0.014 A 
BRANCH  35  36
ATOM     36  C   UNL A   1      41.649  25.510  27.150  1.00  0.00     0.031 A 
ATOM     37  C   UNL A   1      43.044  25.907  26.745  1.00  0.00     0.074 A 
ATOM     38  C   UNL A   1      40.903  26.353  27.891  1.00  0.00     0.049 A 
ATOM     39  N   UNL A   1      43.694  27.014  26.999  1.00  0.00    -0.248 NA
ATOM     40  C   UNL A   1      43.825  24.918  25.983  1.00  0.00     0.031 C 
ATOM     41  C   UNL A   1      39.570  26.059  28.421  1.00  0.00     0.029 A 
ATOM     42  N   UNL A   1      41.172  27.617  28.355  1.00  0.00    -0.354 N 
ATOM     43  C   UNL A   1      44.969  26.838  26.472  1.00  0.00     0.074 A 
ATOM     44  C   UNL A   1      45.011  25.504  25.915  1.00  0.00     0.031 C 
ATOM     45  C   UNL A   1      39.138  27.109  29.134  1.00  0.00     0.029 A 
ATOM     46  C   UNL A   1      40.173  28.138  29.144  1.00  0.00     0.049 A 
ATOM     47  H   UNL A   1      42.001  28.104  28.144  1.00  0.00     0.167 HD
ATOM     48  C   UNL A   1      46.001  27.713  26.428  1.00  0.00     0.034 A 
ATOM     49  C   UNL A   1      40.100  29.306  29.812  1.00  0.00     0.034 A 
ATOM     50  C   UNL A   1      45.941  29.055  26.943  1.00  0.00     0.049 A 
ATOM     51  C   UNL A   1      41.237  30.284  29.708  1.00  0.00     0.074 A 
ATOM     52  C   UNL A   1      46.894  30.055  26.855  1.00  0.00     0.029 A 
ATOM     53  N   UNL A   1      44.875  29.583  27.655  1.00  0.00    -0.354 N 
ATOM     54  N   UNL A   1      42.371  30.163  29.062  1.00  0.00    -0.248 NA
ATOM     55  C   UNL A   1      41.071  31.573  30.394  1.00  0.00     0.031 C 
ATOM     56  C   UNL A   1      46.416  31.176  27.541  1.00  0.00     0.029 A 
ATOM     57  C   UNL A   1      45.151  30.888  28.028  1.00  0.00     0.049 A 
ATOM     58  H   UNL A   1      44.042  29.100  27.865  1.00  0.00     0.167 HD
ATOM     59  C   UNL A   1      43.041  31.369  29.235  1.00  0.00     0.074 A 
ATOM     60  C   UNL A   1      42.175  32.214  30.031  1.00  0.00     0.031 C 
ATOM     61  C   UNL A   1      44.265  31.737  28.784  1.00  0.00     0.034 A 
BRANCH  48  62
ATOM     62  C   UNL A   1      47.275  27.258  25.760  1.00  0.00     0.023 A 
ATOM     63  C   UNL A   1      48.217  26.504  26.491  1.00  0.00     0.012 A 
ATOM     64  C   UNL A   1      47.525  27.542  24.404  1.00  0.00     0.148 A 
ATOM     65  C   UNL A   1      49.408  26.085  25.899  1.00  0.00     0.002 A 
ATOM     66  C   UNL A   1      48.692  27.078  23.806  1.00  0.00     0.091 A 
ATOM     67  F   UNL A   1      46.631  28.276  23.727  1.00  0.00    -0.205 F 
ATOM     68  C   UNL A   1      49.641  26.364  24.555  1.00  0.00     0.022 A 
BRANCH  66  69
ATOM     69  S   UNL A   1      49.043  27.313  22.059  1.00  0.00     0.127 S 
ATOM     70  O   UNL A   1      50.504  27.336  22.053  1.00  0.00    -0.237 OA
ATOM     71  O   UNL A   1      48.451  26.116  21.462  1.00  0.00    -0.237 OA
ATOM     72  O   UNL A   1      48.392  28.560  21.686  1.00  0.00    -0.744 OA
ENDBRANCH  66  69
ENDBRANCH  48  62
BRANCH  49  73
ATOM     73  C   UNL A   1      38.869  29.632  30.586  1.00  0.00     0.023 A 
ATOM     74  C   UNL A   1      38.700  29.096  31.877  1.00  0.00     0.012 A 
ATOM     75  C   UNL A   1      37.901  30.518  30.077  1.00  0.00     0.148 A 
ATOM     76  C   UNL A   1      37.576  29.417  32.638  1.00  0.00     0.002 A 
ATOM     77  C   UNL A   1      36.813  30.880  30.863  1.00  0.00     0.091 A 
ATOM     78  F   UNL A   1      38.079  31.012  28.844  1.00  0.00    -0.205 F 
ATOM     79  C   UNL A   1      36.640  30.317  32.138  1.00  0.00     0.022 A 
BRANCH  77  80
ATOM     80  S   UNL A   1      35.633  32.138  30.360  1.00  0.00     0.127 S 
ATOM     81  O   UNL A   1      34.770  32.225  31.535  1.00  0.00    -0.237 OA
ATOM     82  O   UNL A   1      36.504  33.294  30.145  1.00  0.00    -0.237 OA
ATOM     83  O   UNL A   1      35.002  31.627  29.150  1.00  0.00    -0.744 OA
ENDBRANCH  77  80
ENDBRANCH  49  73
BRANCH  61  84
ATOM     84  C   UNL A   1      44.741  33.129  29.109  1.00  0.00     0.023 A 
ATOM     85  C   UNL A   1      45.388  33.384  30.333  1.00  0.00     0.012 A 
ATOM     86  C   UNL A   1      44.614  34.168  28.165  1.00  0.00     0.148 A 
ATOM     87  C   UNL A   1      45.872  34.659  30.628  1.00  0.00     0.002 A 
ATOM     88  C   UNL A   1      45.143  35.422  28.444  1.00  0.00     0.091 A 
ATOM     89  F   UNL A   1      43.978  33.911  27.013  1.00  0.00    -0.205 F 
ATOM     90  C   UNL A   1      45.761  35.672  29.679  1.00  0.00     0.022 A 
BRANCH  88  91
ATOM     91  S   UNL A   1      45.134  36.760  27.245  1.00  0.00     0.127 S 
ATOM     92  O   UNL A   1      45.953  36.203  26.170  1.00  0.00    -0.237 OA
ATOM     93  O   UNL A   1      43.711  36.881  26.927  1.00  0.00    -0.237 OA
ATOM     94  O   UNL A   1      45.701  37.915  27.928  1.00  0.00    -0.744 OA
ENDBRANCH  88  91
ENDBRANCH  61  84
ENDBRANCH  35  36
ENDBRANCH  27  30
ENDBRANCH   1  26
TORSDOF 15
ENDMDL
MODEL 2
REMARK VINA RESULT:     -13.5      5.185     10.038
REMARK SMILES CCC1(C(=O)NCCCNC(=O)c2ccc(-c3c4nc(c(-c5cccc(S(=O)(=O)[O-])c5F)c5ccc([nH]5)c(-c5cccc(S(=O)(=O)[O-])c5F)c5nc(c(-c6cccc(S(=O)(=O)[O-])c6F)c6ccc3[nH]6)C=C5)C=C4)cc2)CCN(c2ncnc3c2CCCC3)CC1
REMARK SMILES IDX 9 1 8 2 7 3 6 4 4 5 5 6 3 8 76 9 90 10 77 11 89 12 78 13
REMARK SMILES IDX 2 14 1 15 79 16 80 17 84 18 81 19 83 20 85 21 82 22 88 23
REMARK SMILES IDX 86 24 87 25 10 26 11 27 12 29 13 30 14 31 75 32 15 33 74 34
REMARK SMILES IDX 16 35 17 36 18 37 68 38 19 39 73 40 67 41 69 42 20 43 72 44
REMARK SMILES IDX 66 45 65 46 21 48 53 49 33 50 52 51 34 52 37 53 51 54 70 55
REMARK SMILES IDX 35 56 36 57 50 59 71 60 38 61 22 62 23 63 31 64 24 65 26 66
REMARK SMILES IDX 32 67 25 68 27 69 28 70 29 71 30 72 54 73 55 74 63 75 56 76
REMARK SMILES IDX 58 77 64 78 57 79 59 80 60 81 61 82 62 83 39 84 40 85 48 86
REMARK SMILES IDX 41 87 43 88 49 89 42 90 44 91 45 92 46 93 47 94
REMARK H PARENT 6 7 10 28 69 47 37 58
REMARK Flexibility Score: inf
ROOT
ATOM      1  C   UNL A   1      33.366  29.211  27.369  1.00  0.00     0.118 C 
ENDROOT
BRANCH   1   2
ATOM      2  C   UNL A   1      33.901  28.790  26.009  1.00  0.00     0.042 C 
BRANCH   2   3
ATOM      3  C   UNL A   1      33.116  29.328  24.816  1.00  0.00     0.117 C 
BRANCH   3   4
ATOM      4  N   UNL A   1      33.771  29.071  23.548  1.00  0.00    -0.356 N 
ATOM      5  C   UNL A   1      33.631  28.080  22.625  1.00  0.00     0.226 C 
ATOM      6  O   UNL A   1      34.359  28.199  21.630  1.00  0.00    -0.274 OA
ATOM      7  H   UNL A   1      34.449  29.744  23.307  1.00  0.00     0.163 HD
BRANCH   5   8
ATOM      8  C   UNL A   1      32.643  26.874  22.771  1.00  0.00     0.052 C 
ATOM      9  C   UNL A   1      33.063  25.773  21.752  1.00  0.00     0.038 C 
ATOM     10  C   UNL A   1      32.614  26.404  24.255  1.00  0.00     0.038 C 
ATOM     11  C   UNL A   1      32.726  24.334  22.137  1.00  0.00     0.119 C 
ATOM     12  C   UNL A   1      32.291  24.921  24.468  1.00  0.00     0.119 C 
ATOM     13  N   UNL A   1      33.081  24.136  23.534  1.00  0.00    -0.356 N 
BRANCH   8  14
ATOM     14  C   UNL A   1      31.230  27.437  22.376  1.00  0.00     0.013 C 
ATOM     15  C   UNL A   1      30.185  27.592  23.468  1.00  0.00     0.005 C 
ENDBRANCH   8  14
BRANCH  13  16
ATOM     16  C   UNL A   1      33.353  22.816  23.904  1.00  0.00     0.135 A 
ATOM     17  N   UNL A   1      32.329  21.955  24.032  1.00  0.00    -0.219 NA
ATOM     18  C   UNL A   1      34.667  22.442  24.195  1.00  0.00     0.016 A 
ATOM     19  C   UNL A   1      32.643  20.714  24.431  1.00  0.00     0.224 A 
ATOM     20  C   UNL A   1      34.873  21.137  24.625  1.00  0.00     0.049 A 
ATOM     21  C   UNL A   1      35.811  23.402  24.060  1.00  0.00     0.041 C 
ATOM     22  N   UNL A   1      33.861  20.258  24.754  1.00  0.00    -0.241 NA
ATOM     23  C   UNL A   1      36.231  20.672  25.093  1.00  0.00     0.057 C 
ATOM     24  C   UNL A   1      37.049  23.020  24.862  1.00  0.00     0.005 C 
ATOM     25  C   UNL A   1      37.386  21.558  24.628  1.00  0.00     0.007 C 
ENDBRANCH  13  16
ENDBRANCH   5   8
ENDBRANCH   3   4
ENDBRANCH   2   3
ENDBRANCH   1   2
BRANCH   1  26
ATOM     26  N   UNL A   1      33.529  30.640  27.612  1.00  0.00    -0.352 N 
ATOM     27  C   UNL A   1      34.507  31.345  28.273  1.00  0.00     0.251 C 
ATOM     28  H   UNL A   1      32.811  31.198  27.235  1.00  0.00     0.163 HD
ATOM     29  O   UNL A   1      34.305  32.531  28.526  1.00  0.00    -0.269 OA
BRANCH  27  30
ATOM     30  C   UNL A   1      35.781  30.712  28.693  1.00  0.00     0.039 A 
ATOM     31  C   UNL A   1      36.955  31.037  28.002  1.00  0.00     0.014 A 
ATOM     32  C   UNL A   1      35.832  29.762  29.714  1.00  0.00     0.014 A 
ATOM     33  C   UNL A   1      38.173  30.459  28.373  1.00  0.00     0.010 A 
ATOM     34  C   UNL A   1      37.058  29.266  30.150  1.00  0.00     0.010 A 
ATOM     35  C   UNL A   1      38.243  29.595  29.477  1.00  0.00    -0.014 A 
BRANCH  35  36
ATOM     36  C   UNL A   1      39.536  29.028  29.945  1.00  0.00     0.031 A 
ATOM     37  C   UNL A   1      40.301  29.684  31.065  1.00  0.00     0.074 A 
ATOM     38  C   UNL A   1      40.076  27.978  29.294  1.00  0.00     0.049 A 
ATOM     39  N   UNL A   1      41.475  29.378  31.553  1.00  0.00    -0.248 NA
ATOM     40  C   UNL A   1      39.678  30.859  31.698  1.00  0.00     0.031 C 
ATOM     41  C   UNL A   1      39.481  27.304  28.138  1.00  0.00     0.029 A 
ATOM     42  N   UNL A   1      41.262  27.314  29.489  1.00  0.00    -0.354 N 
ATOM     43  C   UNL A   1      41.753  30.345  32.513  1.00  0.00     0.074 A 
ATOM     44  C   UNL A   1      40.639  31.267  32.514  1.00  0.00     0.031 C 
ATOM     45  C   UNL A   1      40.301  26.325  27.728  1.00  0.00     0.029 A 
ATOM     46  C   UNL A   1      41.496  26.321  28.567  1.00  0.00     0.049 A 
ATOM     47  H   UNL A   1      41.886  27.530  30.219  1.00  0.00     0.167 HD
ATOM     48  C   UNL A   1      42.821  30.442  33.340  1.00  0.00     0.034 A 
ATOM     49  C   UNL A   1      42.556  25.505  28.404  1.00  0.00     0.034 A 
ATOM     50  C   UNL A   1      43.906  29.498  33.367  1.00  0.00     0.049 A 
ATOM     51  C   UNL A   1      43.709  25.598  29.364  1.00  0.00     0.074 A 
ATOM     52  C   UNL A   1      44.982  29.448  34.237  1.00  0.00     0.029 A 
ATOM     53  N   UNL A   1      44.063  28.446  32.479  1.00  0.00    -0.354 N 
ATOM     54  N   UNL A   1      43.875  26.416  30.374  1.00  0.00    -0.248 NA
ATOM     55  C   UNL A   1      44.803  24.634  29.185  1.00  0.00     0.031 C 
ATOM     56  C   UNL A   1      45.805  28.384  33.854  1.00  0.00     0.029 A 
ATOM     57  C   UNL A   1      45.225  27.749  32.767  1.00  0.00     0.049 A 
ATOM     58  H   UNL A   1      43.439  28.225  31.750  1.00  0.00     0.167 HD
ATOM     59  C   UNL A   1      45.074  26.047  30.972  1.00  0.00     0.074 A 
ATOM     60  C   UNL A   1      45.582  24.917  30.222  1.00  0.00     0.031 C 
ATOM     61  C   UNL A   1      45.701  26.600  32.039  1.00  0.00     0.034 A 
BRANCH  48  62
ATOM     62  C   UNL A   1      42.847  31.593  34.315  1.00  0.00     0.023 A 
ATOM     63  C   UNL A   1      43.483  32.800  33.957  1.00  0.00     0.012 A 
ATOM     64  C   UNL A   1      42.212  31.497  35.569  1.00  0.00     0.148 A 
ATOM     65  C   UNL A   1      43.532  33.871  34.847  1.00  0.00     0.002 A 
ATOM     66  C   UNL A   1      42.221  32.587  36.432  1.00  0.00     0.091 A 
ATOM     67  F   UNL A   1      41.628  30.337  35.904  1.00  0.00    -0.205 F 
ATOM     68  C   UNL A   1      42.894  33.769  36.080  1.00  0.00     0.022 A 
BRANCH  66  69
ATOM     69  S   UNL A   1      41.355  32.581  38.006  1.00  0.00     0.127 S 
ATOM     70  O   UNL A   1      42.115  31.583  38.757  1.00  0.00    -0.237 OA
ATOM     71  O   UNL A   1      41.539  33.957  38.465  1.00  0.00    -0.237 OA
ATOM     72  O   UNL A   1      39.977  32.223  37.702  1.00  0.00    -0.744 OA
ENDBRANCH  66  69
ENDBRANCH  48  62
BRANCH  49  73
ATOM     73  C   UNL A   1      42.536  24.486  27.317  1.00  0.00     0.023 A 
ATOM     74  C   UNL A   1      43.171  24.767  26.091  1.00  0.00     0.012 A 
ATOM     75  C   UNL A   1      41.949  23.222  27.513  1.00  0.00     0.148 A 
ATOM     76  C   UNL A   1      43.201  23.816  25.072  1.00  0.00     0.002 A 
ATOM     77  C   UNL A   1      42.034  22.257  26.515  1.00  0.00     0.091 A 
ATOM     78  F   UNL A   1      41.346  22.978  28.684  1.00  0.00    -0.205 F 
ATOM     79  C   UNL A   1      42.645  22.559  25.287  1.00  0.00     0.022 A 
BRANCH  77  80
ATOM     80  S   UNL A   1      41.473  20.568  26.754  1.00  0.00     0.127 S 
ATOM     81  O   UNL A   1      42.174  20.190  27.977  1.00  0.00    -0.237 OA
ATOM     82  O   UNL A   1      40.028  20.751  26.900  1.00  0.00    -0.237 OA
ATOM     83  O   UNL A   1      41.868  19.846  25.551  1.00  0.00    -0.744 OA
ENDBRANCH  77  80
ENDBRANCH  49  73
BRANCH  61  84
ATOM     84  C   UNL A   1      46.998  25.977  32.490  1.00  0.00     0.023 A 
ATOM     85  C   UNL A   1      48.221  26.445  31.972  1.00  0.00     0.012 A 
ATOM     86  C   UNL A   1      47.005  24.978  33.484  1.00  0.00     0.148 A 
ATOM     87  C   UNL A   1      49.430  25.907  32.413  1.00  0.00     0.002 A 
ATOM     88  C   UNL A   1      48.214  24.483  33.955  1.00  0.00     0.091 A 
ATOM     89  F   UNL A   1      45.829  24.532  33.951  1.00  0.00    -0.205 F 
ATOM     90  C   UNL A   1      49.427  24.936  33.412  1.00  0.00     0.022 A 
BRANCH  88  91
ATOM     91  S   UNL A   1      48.311  23.303  35.308  1.00  0.00     0.127 S 
ATOM     92  O   UNL A   1      47.599  22.155  34.753  1.00  0.00    -0.237 OA
ATOM     93  O   UNL A   1      49.756  23.114  35.449  1.00  0.00    -0.237 OA
ATOM     94  O   UNL A   1      47.672  23.946  36.447  1.00  0.00    -0.744 OA
ENDBRANCH  88  91
ENDBRANCH  61  84
ENDBRANCH  35  36
ENDBRANCH  27  30
ENDBRANCH   1  26
TORSDOF 15
ENDMDL
MODEL 3
REMARK VINA RESULT:     -13.5      5.606      9.079
REMARK SMILES CCC1(C(=O)NCCCNC(=O)c2ccc(-c3c4nc(c(-c5cccc(S(=O)(=O)[O-])c5F)c5ccc([nH]5)c(-c5cccc(S(=O)(=O)[O-])c5F)c5nc(c(-c6cccc(S(=O)(=O)[O-])c6F)c6ccc3[nH]6)C=C5)C=C4)cc2)CCN(c2ncnc3c2CCCC3)CC1
REMARK SMILES IDX 9 1 8 2 7 3 6 4 4 5 5 6 3 8 76 9 90 10 77 11 89 12 78 13
REMARK SMILES IDX 2 14 1 15 79 16 80 17 84 18 81 19 83 20 85 21 82 22 88 23
REMARK SMILES IDX 86 24 87 25 10 26 11 27 12 29 13 30 14 31 75 32 15 33 74 34
REMARK SMILES IDX 16 35 17 36 18 37 68 38 19 39 73 40 67 41 69 42 20 43 72 44
REMARK SMILES IDX 66 45 65 46 21 48 53 49 33 50 52 51 34 52 37 53 51 54 70 55
REMARK SMILES IDX 35 56 36 57 50 59 71 60 38 61 22 62 23 63 31 64 24 65 26 66
REMARK SMILES IDX 32 67 25 68 27 69 28 70 29 71 30 72 54 73 55 74 63 75 56 76
REMARK SMILES IDX 58 77 64 78 57 79 59 80 60 81 61 82 62 83 39 84 40 85 48 86
REMARK SMILES IDX 41 87 43 88 49 89 42 90 44 91 45 92 46 93 47 94
REMARK H PARENT 6 7 10 28 69 47 37 58
REMARK Flexibility Score: inf
ROOT
ATOM      1  C   UNL A   1      32.672  32.210  26.981  1.00  0.00     0.118 C 
ENDROOT
BRANCH   1   2
ATOM      2  C   UNL A   1      31.391  31.652  26.380  1.00  0.00     0.042 C 
BRANCH   2   3
ATOM      3  C   UNL A   1      31.463  30.185  25.964  1.00  0.00     0.117 C 
BRANCH   3   4
ATOM      4  N   UNL A   1      32.482  29.932  24.963  1.00  0.00    -0.356 N 
ATOM      5  C   UNL A   1      32.692  28.894  24.108  1.00  0.00     0.226 C 
ATOM      6  O   UNL A   1      33.672  29.031  23.365  1.00  0.00    -0.274 OA
ATOM      7  H   UNL A   1      33.153  30.649  24.888  1.00  0.00     0.163 HD
BRANCH   5   8
ATOM      8  C   UNL A   1      31.791  27.615  24.037  1.00  0.00     0.052 C 
ATOM      9  C   UNL A   1      32.210  26.791  22.783  1.00  0.00     0.038 C 
ATOM     10  C   UNL A   1      31.888  26.837  25.383  1.00  0.00     0.038 C 
ATOM     11  C   UNL A   1      31.987  25.282  22.862  1.00  0.00     0.119 C 
ATOM     12  C   UNL A   1      31.670  25.323  25.283  1.00  0.00     0.119 C 
ATOM     13  N   UNL A   1      32.443  24.817  24.163  1.00  0.00    -0.356 N 
BRANCH   8  14
ATOM     14  C   UNL A   1      30.323  28.144  23.847  1.00  0.00     0.013 C 
ATOM     15  C   UNL A   1      29.957  28.791  22.521  1.00  0.00     0.005 C 
ENDBRANCH   8  14
BRANCH  13  16
ATOM     16  C   UNL A   1      32.819  23.472  24.221  1.00  0.00     0.135 A 
ATOM     17  N   UNL A   1      31.860  22.531  24.228  1.00  0.00    -0.219 NA
ATOM     18  C   UNL A   1      34.172  23.142  24.339  1.00  0.00     0.016 A 
ATOM     19  C   UNL A   1      32.275  21.260  24.329  1.00  0.00     0.224 A 
ATOM     20  C   UNL A   1      34.486  21.794  24.465  1.00  0.00     0.049 A 
ATOM     21  C   UNL A   1      35.244  24.190  24.340  1.00  0.00     0.041 C 
ATOM     22  N   UNL A   1      33.539  20.837  24.467  1.00  0.00    -0.241 NA
ATOM     23  C   UNL A   1      35.901  21.342  24.732  1.00  0.00     0.057 C 
ATOM     24  C   UNL A   1      36.562  23.739  24.960  1.00  0.00     0.005 C 
ATOM     25  C   UNL A   1      36.962  22.388  24.395  1.00  0.00     0.007 C 
ENDBRANCH  13  16
ENDBRANCH   5   8
ENDBRANCH   3   4
ENDBRANCH   2   3
ENDBRANCH   1   2
BRANCH   1  26
ATOM     26  N   UNL A   1      32.532  33.602  27.392  1.00  0.00    -0.352 N 
ATOM     27  C   UNL A   1      33.147  34.323  28.388  1.00  0.00     0.251 C 
ATOM     28  H   UNL A   1      31.881  34.116  26.862  1.00  0.00     0.163 HD
ATOM     29  O   UNL A   1      32.698  35.431  28.672  1.00  0.00    -0.269 OA
BRANCH  27  30
ATOM     30  C   UNL A   1      34.320  33.795  29.127  1.00  0.00     0.039 A 
ATOM     31  C   UNL A   1      34.118  32.792  30.083  1.00  0.00     0.014 A 
ATOM     32  C   UNL A   1      35.603  34.310  28.941  1.00  0.00     0.014 A 
ATOM     33  C   UNL A   1      35.201  32.271  30.797  1.00  0.00     0.010 A 
ATOM     34  C   UNL A   1      36.695  33.722  29.576  1.00  0.00     0.010 A 
ATOM     35  C   UNL A   1      36.508  32.706  30.524  1.00  0.00    -0.014 A 
BRANCH  35  36
ATOM     36  C   UNL A   1      37.688  32.115  31.210  1.00  0.00     0.031 A 
ATOM     37  C   UNL A   1      38.458  30.986  30.575  1.00  0.00     0.074 A 
ATOM     38  C   UNL A   1      38.008  32.525  32.453  1.00  0.00     0.049 A 
ATOM     39  N   UNL A   1      39.461  30.298  31.056  1.00  0.00    -0.248 NA
ATOM     40  C   UNL A   1      38.022  30.551  29.238  1.00  0.00     0.031 C 
ATOM     41  C   UNL A   1      37.291  33.549  33.216  1.00  0.00     0.029 A 
ATOM     42  N   UNL A   1      38.999  32.109  33.308  1.00  0.00    -0.354 N 
ATOM     43  C   UNL A   1      39.746  29.323  30.106  1.00  0.00     0.074 A 
ATOM     44  C   UNL A   1      38.786  29.487  29.037  1.00  0.00     0.031 C 
ATOM     45  C   UNL A   1      37.864  33.682  34.421  1.00  0.00     0.029 A 
ATOM     46  C   UNL A   1      38.965  32.732  34.534  1.00  0.00     0.049 A 
ATOM     47  H   UNL A   1      39.668  31.429  33.067  1.00  0.00     0.167 HD
ATOM     48  C   UNL A   1      40.731  28.395  30.108  1.00  0.00     0.034 A 
ATOM     49  C   UNL A   1      39.726  32.552  35.632  1.00  0.00     0.034 A 
ATOM     50  C   UNL A   1      41.712  28.263  31.152  1.00  0.00     0.049 A 
ATOM     51  C   UNL A   1      40.847  31.550  35.593  1.00  0.00     0.074 A 
ATOM     52  C   UNL A   1      42.813  27.426  31.199  1.00  0.00     0.029 A 
ATOM     53  N   UNL A   1      41.704  28.977  32.340  1.00  0.00    -0.354 N 
ATOM     54  N   UNL A   1      41.204  30.751  34.617  1.00  0.00    -0.248 NA
ATOM     55  C   UNL A   1      41.691  31.450  36.791  1.00  0.00     0.031 C 
ATOM     56  C   UNL A   1      43.453  27.612  32.429  1.00  0.00     0.029 A 
ATOM     57  C   UNL A   1      42.770  28.590  33.135  1.00  0.00     0.049 A 
ATOM     58  H   UNL A   1      41.038  29.660  32.583  1.00  0.00     0.167 HD
ATOM     59  C   UNL A   1      42.332  30.077  35.069  1.00  0.00     0.074 A 
ATOM     60  C   UNL A   1      42.611  30.577  36.399  1.00  0.00     0.031 C 
ATOM     61  C   UNL A   1      43.064  29.124  34.441  1.00  0.00     0.034 A 
BRANCH  48  62
ATOM     62  C   UNL A   1      40.823  27.472  28.917  1.00  0.00     0.023 A 
ATOM     63  C   UNL A   1      39.945  26.373  28.815  1.00  0.00     0.012 A 
ATOM     64  C   UNL A   1      41.750  27.709  27.884  1.00  0.00     0.148 A 
ATOM     65  C   UNL A   1      40.020  25.499  27.732  1.00  0.00     0.002 A 
ATOM     66  C   UNL A   1      41.786  26.862  26.782  1.00  0.00     0.091 A 
ATOM     67  F   UNL A   1      42.592  28.746  28.004  1.00  0.00    -0.205 F 
ATOM     68  C   UNL A   1      40.934  25.748  26.712  1.00  0.00     0.022 A 
BRANCH  66  69
ATOM     69  S   UNL A   1      42.870  27.149  25.378  1.00  0.00     0.127 S 
ATOM     70  O   UNL A   1      44.149  27.402  26.040  1.00  0.00    -0.237 OA
ATOM     71  O   UNL A   1      42.796  25.874  24.665  1.00  0.00    -0.237 OA
ATOM     72  O   UNL A   1      42.300  28.279  24.658  1.00  0.00    -0.744 OA
ENDBRANCH  66  69
ENDBRANCH  48  62
BRANCH  49  73
ATOM     73  C   UNL A   1      39.483  33.392  36.838  1.00  0.00     0.023 A 
ATOM     74  C   UNL A   1      39.937  34.725  36.857  1.00  0.00     0.012 A 
ATOM     75  C   UNL A   1      38.752  32.899  37.936  1.00  0.00     0.148 A 
ATOM     76  C   UNL A   1      39.688  35.545  37.957  1.00  0.00     0.002 A 
ATOM     77  C   UNL A   1      38.457  33.738  39.004  1.00  0.00     0.091 A 
ATOM     78  F   UNL A   1      38.335  31.626  37.899  1.00  0.00    -0.205 F 
ATOM     79  C   UNL A   1      38.939  35.057  39.024  1.00  0.00     0.022 A 
BRANCH  77  80
ATOM     80  S   UNL A   1      37.381  33.242  40.354  1.00  0.00     0.127 S 
ATOM     81  O   UNL A   1      36.157  32.881  39.644  1.00  0.00    -0.237 OA
ATOM     82  O   UNL A   1      38.120  32.116  40.926  1.00  0.00    -0.237 OA
ATOM     83  O   UNL A   1      37.283  34.403  41.229  1.00  0.00    -0.744 OA
ENDBRANCH  77  80
ENDBRANCH  49  73
BRANCH  61  84
ATOM     84  C   UNL A   1      44.263  28.571  35.167  1.00  0.00     0.023 A 
ATOM     85  C   UNL A   1      45.539  29.125  34.944  1.00  0.00     0.012 A 
ATOM     86  C   UNL A   1      44.112  27.550  36.127  1.00  0.00     0.148 A 
ATOM     87  C   UNL A   1      46.650  28.651  35.642  1.00  0.00     0.002 A 
ATOM     88  C   UNL A   1      45.214  27.118  36.854  1.00  0.00     0.091 A 
ATOM     89  F   UNL A   1      42.893  27.021  36.311  1.00  0.00    -0.205 F 
ATOM     90  C   UNL A   1      46.485  27.658  36.603  1.00  0.00     0.022 A 
BRANCH  88  91
ATOM     91  S   UNL A   1      45.081  25.913  38.181  1.00  0.00     0.127 S 
ATOM     92  O   UNL A   1      46.453  25.870  38.682  1.00  0.00    -0.237 OA
ATOM     93  O   UNL A   1      44.121  26.552  39.083  1.00  0.00    -0.237 OA
ATOM     94  O   UNL A   1      44.602  24.685  37.562  1.00  0.00    -0.744 OA
ENDBRANCH  88  91
ENDBRANCH  61  84
ENDBRANCH  35  36
ENDBRANCH  27  30
ENDBRANCH   1  26
TORSDOF 15
ENDMDL
