MODEL 1
REMARK VINA RESULT:     -10.9      0.000      0.000
REMARK SMILES CC[C@@H](COC)NC(=O)NC[C@@H]1CC[C@H](C(=O)NCCCNC(=O)c2ccc(-c3c4nc(c(-c5cccc(S(=O)(=O)[O-])c5F)c5ccc([nH]5)c(-c5cccc(S(=O)(=O)[O-])c5F)c5nc(c(-c6cccc(S(=O)(=O)[O-])c6F)c6ccc3[nH]6)C=C5)C=C4)cc2)O1
REMARK SMILES IDX 19 1 18 2 16 3 17 4 15 6 12 7 13 8 88 9 14 10 11 11 10 12
REMARK SMILES IDX 7 13 8 14 9 16 3 18 2 19 1 20 4 21 5 22 6 23 20 24 21 25
REMARK SMILES IDX 22 26 23 27 24 29 25 30 26 31 87 32 27 33 86 34 28 35 29 36
REMARK SMILES IDX 30 37 80 38 31 39 85 40 79 41 81 42 32 43 84 44 78 45 77 46
REMARK SMILES IDX 33 48 65 49 45 50 64 51 46 52 49 53 63 54 82 55 47 56 48 57
REMARK SMILES IDX 62 59 83 60 50 61 34 62 35 63 43 64 36 65 38 66 44 67 37 68
REMARK SMILES IDX 39 69 40 70 41 71 42 72 66 73 67 74 75 75 68 76 70 77 76 78
REMARK SMILES IDX 69 79 71 80 72 81 73 82 74 83 51 84 52 85 60 86 53 87 55 88
REMARK SMILES IDX 61 89 54 90 56 91 57 92 58 93 59 94
REMARK H PARENT 18 5 7 15 10 17 22 28 81 47 49 58
REMARK Flexibility Score: inf
ROOT
ATOM      1  C   UNL A   1      37.504  21.684  24.955  1.00  0.00     0.117 C 
ENDROOT
BRANCH   1   2
ATOM      2  N   UNL A   1      36.561  21.787  26.046  1.00  0.00    -0.354 N 
ATOM      3  C   UNL A   1      35.207  21.638  26.017  1.00  0.00     0.249 C 
ATOM      4  O   UNL A   1      34.620  21.553  27.102  1.00  0.00    -0.272 OA
ATOM      5  H   UNL A   1      36.949  21.990  26.928  1.00  0.00     0.163 HD
BRANCH   3   6
ATOM      6  C   UNL A   1      34.398  21.693  24.693  1.00  0.00     0.207 C 
ATOM      7  C   UNL A   1      32.341  22.317  23.802  1.00  0.00     0.138 C 
ATOM      8  C   UNL A   1      32.148  20.921  24.361  1.00  0.00     0.037 C 
ATOM      9  O   UNL A   1      33.552  22.808  24.398  1.00  0.00    -0.363 OA
ATOM     10  C   UNL A   1      33.564  20.424  24.530  1.00  0.00     0.045 C 
BRANCH   7  11
ATOM     11  C   UNL A   1      31.115  23.240  23.994  1.00  0.00     0.149 C 
BRANCH  11  12
ATOM     12  N   UNL A   1      30.450  23.151  25.285  1.00  0.00    -0.336 N 
ATOM     13  N   UNL A   1      31.113  25.061  26.514  1.00  0.00    -0.333 N 
ATOM     14  C   UNL A   1      30.527  23.860  26.423  1.00  0.00     0.315 C 
ATOM     15  H   UNL A   1      31.281  25.351  27.440  1.00  0.00     0.165 HD
ATOM     16  O   UNL A   1      30.042  23.363  27.444  1.00  0.00    -0.249 OA
ATOM     17  H   UNL A   1      29.804  22.410  25.336  1.00  0.00     0.165 HD
BRANCH  13  18
ATOM     18  C   UNL A   1      31.553  26.023  25.508  1.00  0.00     0.109 C 
BRANCH  18  19
ATOM     19  C   UNL A   1      30.311  26.654  24.856  1.00  0.00     0.024 C 
ATOM     20  C   UNL A   1      30.643  27.740  23.847  1.00  0.00     0.006 C 
ENDBRANCH  18  19
BRANCH  18  21
ATOM     21  C   UNL A   1      32.550  27.031  26.124  1.00  0.00     0.184 C 
BRANCH  21  22
ATOM     22  O   UNL A   1      32.077  27.667  27.314  1.00  0.00    -0.383 OA
ATOM     23  C   UNL A   1      31.806  29.054  27.178  1.00  0.00     0.194 C 
ENDBRANCH  21  22
ENDBRANCH  18  21
ENDBRANCH  13  18
ENDBRANCH  11  12
ENDBRANCH   7  11
ENDBRANCH   3   6
ENDBRANCH   1   2
BRANCH   1  24
ATOM     24  C   UNL A   1      38.092  20.289  24.793  1.00  0.00     0.042 C 
BRANCH  24  25
ATOM     25  C   UNL A   1      38.745  19.769  26.063  1.00  0.00     0.118 C 
BRANCH  25  26
ATOM     26  N   UNL A   1      39.999  19.062  25.832  1.00  0.00    -0.352 N 
ATOM     27  C   UNL A   1      41.290  19.503  26.018  1.00  0.00     0.251 C 
ATOM     28  H   UNL A   1      39.910  18.141  25.497  1.00  0.00     0.163 HD
ATOM     29  O   UNL A   1      42.239  18.759  25.778  1.00  0.00    -0.269 OA
BRANCH  27  30
ATOM     30  C   UNL A   1      41.556  20.903  26.428  1.00  0.00     0.039 A 
ATOM     31  C   UNL A   1      42.275  21.118  27.609  1.00  0.00     0.014 A 
ATOM     32  C   UNL A   1      41.150  21.993  25.657  1.00  0.00     0.014 A 
ATOM     33  C   UNL A   1      42.657  22.412  27.971  1.00  0.00     0.010 A 
ATOM     34  C   UNL A   1      41.611  23.270  25.967  1.00  0.00     0.010 A 
ATOM     35  C   UNL A   1      42.367  23.495  27.127  1.00  0.00    -0.014 A 
BRANCH  35  36
ATOM     36  C   UNL A   1      42.846  24.868  27.431  1.00  0.00     0.031 A 
ATOM     37  C   UNL A   1      41.920  25.859  28.086  1.00  0.00     0.074 A 
ATOM     38  C   UNL A   1      44.071  25.256  27.020  1.00  0.00     0.049 A 
ATOM     39  N   UNL A   1      42.113  27.129  28.332  1.00  0.00    -0.248 NA
ATOM     40  C   UNL A   1      40.590  25.369  28.484  1.00  0.00     0.031 C 
ATOM     41  C   UNL A   1      45.028  24.415  26.295  1.00  0.00     0.029 A 
ATOM     42  N   UNL A   1      44.710  26.467  27.120  1.00  0.00    -0.354 N 
ATOM     43  C   UNL A   1      40.916  27.599  28.858  1.00  0.00     0.074 A 
ATOM     44  C   UNL A   1      39.993  26.485  28.875  1.00  0.00     0.031 C 
ATOM     45  C   UNL A   1      46.126  25.136  26.014  1.00  0.00     0.029 A 
ATOM     46  C   UNL A   1      45.944  26.496  26.509  1.00  0.00     0.049 A 
ATOM     47  H   UNL A   1      44.322  27.243  27.585  1.00  0.00     0.167 HD
ATOM     48  C   UNL A   1      40.620  28.838  29.317  1.00  0.00     0.034 A 
ATOM     49  C   UNL A   1      46.823  27.506  26.357  1.00  0.00     0.034 A 
ATOM     50  C   UNL A   1      41.566  29.918  29.372  1.00  0.00     0.049 A 
ATOM     51  C   UNL A   1      46.498  28.850  26.952  1.00  0.00     0.074 A 
ATOM     52  C   UNL A   1      41.400  31.176  29.926  1.00  0.00     0.029 A 
ATOM     53  N   UNL A   1      42.851  29.870  28.860  1.00  0.00    -0.354 N 
ATOM     54  N   UNL A   1      45.424  29.224  27.605  1.00  0.00    -0.248 NA
ATOM     55  C   UNL A   1      47.519  29.900  26.827  1.00  0.00     0.031 C 
ATOM     56  C   UNL A   1      42.585  31.893  29.737  1.00  0.00     0.029 A 
ATOM     57  C   UNL A   1      43.492  31.076  29.081  1.00  0.00     0.049 A 
ATOM     58  H   UNL A   1      43.251  29.093  28.406  1.00  0.00     0.167 HD
ATOM     59  C   UNL A   1      45.655  30.537  27.999  1.00  0.00     0.074 A 
ATOM     60  C   UNL A   1      46.980  30.887  27.532  1.00  0.00     0.031 C 
ATOM     61  C   UNL A   1      44.837  31.384  28.670  1.00  0.00     0.034 A 
BRANCH  48  62
ATOM     62  C   UNL A   1      39.237  29.080  29.859  1.00  0.00     0.023 A 
ATOM     63  C   UNL A   1      38.928  28.684  31.176  1.00  0.00     0.012 A 
ATOM     64  C   UNL A   1      38.273  29.770  29.098  1.00  0.00     0.148 A 
ATOM     65  C   UNL A   1      37.672  28.949  31.720  1.00  0.00     0.002 A 
ATOM     66  C   UNL A   1      37.037  30.068  29.664  1.00  0.00     0.091 A 
ATOM     67  F   UNL A   1      38.580  30.120  27.842  1.00  0.00    -0.205 F 
ATOM     68  C   UNL A   1      36.733  29.650  30.969  1.00  0.00     0.022 A 
BRANCH  66  69
ATOM     69  S   UNL A   1      35.787  31.035  28.811  1.00  0.00     0.127 S 
ATOM     70  O   UNL A   1      34.986  31.533  29.928  1.00  0.00    -0.237 OA
ATOM     71  O   UNL A   1      36.594  32.054  28.137  1.00  0.00    -0.237 OA
ATOM     72  O   UNL A   1      35.102  30.112  27.917  1.00  0.00    -0.744 OA
ENDBRANCH  66  69
ENDBRANCH  48  62
BRANCH  49  73
ATOM     73  C   UNL A   1      48.124  27.271  25.666  1.00  0.00     0.023 A 
ATOM     74  C   UNL A   1      49.237  26.845  26.417  1.00  0.00     0.012 A 
ATOM     75  C   UNL A   1      48.264  27.450  24.277  1.00  0.00     0.148 A 
ATOM     76  C   UNL A   1      50.474  26.639  25.805  1.00  0.00     0.002 A 
ATOM     77  C   UNL A   1      49.485  27.189  23.663  1.00  0.00     0.091 A 
ATOM     78  F   UNL A   1      47.200  27.871  23.576  1.00  0.00    -0.205 F 
ATOM     79  C   UNL A   1      50.596  26.802  24.428  1.00  0.00     0.022 A 
BRANCH  77  80
ATOM     80  S   UNL A   1      49.684  27.241  21.878  1.00  0.00     0.127 S 
ATOM     81  O   UNL A   1      48.688  26.271  21.435  1.00  0.00    -0.237 OA
ATOM     82  O   UNL A   1      49.364  28.637  21.572  1.00  0.00    -0.237 OA
ATOM     83  O   UNL A   1      51.077  26.887  21.635  1.00  0.00    -0.744 OA
ENDBRANCH  77  80
ENDBRANCH  49  73
BRANCH  61  84
ATOM     84  C   UNL A   1      45.356  32.762  28.982  1.00  0.00     0.023 A 
ATOM     85  C   UNL A   1      46.025  32.996  30.198  1.00  0.00     0.012 A 
ATOM     86  C   UNL A   1      45.260  33.796  28.031  1.00  0.00     0.148 A 
ATOM     87  C   UNL A   1      46.571  34.248  30.474  1.00  0.00     0.002 A 
ATOM     88  C   UNL A   1      45.848  35.027  28.293  1.00  0.00     0.091 A 
ATOM     89  F   UNL A   1      44.602  33.557  26.887  1.00  0.00    -0.205 F 
ATOM     90  C   UNL A   1      46.495  35.258  29.518  1.00  0.00     0.022 A 
BRANCH  88  91
ATOM     91  S   UNL A   1      45.884  36.352  27.080  1.00  0.00     0.127 S 
ATOM     92  O   UNL A   1      46.283  35.637  25.870  1.00  0.00    -0.237 OA
ATOM     93  O   UNL A   1      44.496  36.816  27.085  1.00  0.00    -0.237 OA
ATOM     94  O   UNL A   1      46.846  37.325  27.579  1.00  0.00    -0.744 OA
ENDBRANCH  88  91
ENDBRANCH  61  84
ENDBRANCH  35  36
ENDBRANCH  27  30
ENDBRANCH  25  26
ENDBRANCH  24  25
ENDBRANCH   1  24
TORSDOF 19
ENDMDL
MODEL 2
REMARK VINA RESULT:     -10.7      2.029      7.981
REMARK SMILES CC[C@@H](COC)NC(=O)NC[C@@H]1CC[C@H](C(=O)NCCCNC(=O)c2ccc(-c3c4nc(c(-c5cccc(S(=O)(=O)[O-])c5F)c5ccc([nH]5)c(-c5cccc(S(=O)(=O)[O-])c5F)c5nc(c(-c6cccc(S(=O)(=O)[O-])c6F)c6ccc3[nH]6)C=C5)C=C4)cc2)O1
REMARK SMILES IDX 19 1 18 2 16 3 17 4 15 6 12 7 13 8 88 9 14 10 11 11 10 12
REMARK SMILES IDX 7 13 8 14 9 16 3 18 2 19 1 20 4 21 5 22 6 23 20 24 21 25
REMARK SMILES IDX 22 26 23 27 24 29 25 30 26 31 87 32 27 33 86 34 28 35 29 36
REMARK SMILES IDX 30 37 80 38 31 39 85 40 79 41 81 42 32 43 84 44 78 45 77 46
REMARK SMILES IDX 33 48 65 49 45 50 64 51 46 52 49 53 63 54 82 55 47 56 48 57
REMARK SMILES IDX 62 59 83 60 50 61 34 62 35 63 43 64 36 65 38 66 44 67 37 68
REMARK SMILES IDX 39 69 40 70 41 71 42 72 66 73 67 74 75 75 68 76 70 77 76 78
REMARK SMILES IDX 69 79 71 80 72 81 73 82 74 83 51 84 52 85 60 86 53 87 55 88
REMARK SMILES IDX 61 89 54 90 56 91 57 92 58 93 59 94
REMARK H PARENT 18 5 7 15 10 17 22 28 81 47 49 58
REMARK Flexibility Score: inf
ROOT
ATOM      1  C   UNL A   1      34.890  21.510  25.829  1.00  0.00     0.117 C 
ENDROOT
BRANCH   1   2
ATOM      2  N   UNL A   1      33.952  20.413  25.901  1.00  0.00    -0.354 N 
ATOM      3  C   UNL A   1      32.741  20.287  25.287  1.00  0.00     0.249 C 
ATOM      4  O   UNL A   1      32.203  19.174  25.313  1.00  0.00    -0.272 OA
ATOM      5  H   UNL A   1      34.223  19.655  26.468  1.00  0.00     0.163 HD
BRANCH   3   6
ATOM      6  C   UNL A   1      31.993  21.503  24.679  1.00  0.00     0.207 C 
ATOM      7  C   UNL A   1      32.277  23.720  24.029  1.00  0.00     0.138 C 
ATOM      8  C   UNL A   1      32.003  23.753  25.519  1.00  0.00     0.037 C 
ATOM      9  O   UNL A   1      32.637  22.361  23.733  1.00  0.00    -0.363 OA
ATOM     10  C   UNL A   1      31.425  22.385  25.790  1.00  0.00     0.045 C 
BRANCH   7  11
ATOM     11  C   UNL A   1      33.311  24.771  23.562  1.00  0.00     0.149 C 
BRANCH  11  12
ATOM     12  N   UNL A   1      33.467  24.911  22.122  1.00  0.00    -0.336 N 
ATOM     13  N   UNL A   1      31.911  26.558  21.437  1.00  0.00    -0.333 N 
ATOM     14  C   UNL A   1      32.796  25.588  21.174  1.00  0.00     0.315 C 
ATOM     15  H   UNL A   1      31.351  26.804  20.665  1.00  0.00     0.165 HD
ATOM     16  O   UNL A   1      32.999  25.280  19.996  1.00  0.00    -0.249 OA
ATOM     17  H   UNL A   1      34.228  24.400  21.764  1.00  0.00     0.165 HD
BRANCH  13  18
ATOM     18  C   UNL A   1      31.616  27.323  22.645  1.00  0.00     0.109 C 
BRANCH  18  19
ATOM     19  C   UNL A   1      32.638  28.467  22.765  1.00  0.00     0.024 C 
ATOM     20  C   UNL A   1      33.198  28.634  24.167  1.00  0.00     0.006 C 
ENDBRANCH  18  19
BRANCH  18  21
ATOM     21  C   UNL A   1      30.136  27.768  22.654  1.00  0.00     0.184 C 
BRANCH  21  22
ATOM     22  O   UNL A   1      29.896  29.013  21.994  1.00  0.00    -0.383 OA
ATOM     23  C   UNL A   1      29.260  29.997  22.796  1.00  0.00     0.194 C 
ENDBRANCH  21  22
ENDBRANCH  18  21
ENDBRANCH  13  18
ENDBRANCH  11  12
ENDBRANCH   7  11
ENDBRANCH   3   6
ENDBRANCH   1   2
BRANCH   1  24
ATOM     24  C   UNL A   1      36.108  21.208  24.967  1.00  0.00     0.042 C 
BRANCH  24  25
ATOM     25  C   UNL A   1      37.370  21.896  25.462  1.00  0.00     0.118 C 
BRANCH  25  26
ATOM     26  N   UNL A   1      38.467  20.979  25.746  1.00  0.00    -0.352 N 
ATOM     27  C   UNL A   1      39.655  21.224  26.399  1.00  0.00     0.251 C 
ATOM     28  H   UNL A   1      38.341  20.057  25.428  1.00  0.00     0.163 HD
ATOM     29  O   UNL A   1      40.471  20.318  26.559  1.00  0.00    -0.269 OA
BRANCH  27  30
ATOM     30  C   UNL A   1      40.003  22.595  26.840  1.00  0.00     0.039 A 
ATOM     31  C   UNL A   1      40.930  22.738  27.878  1.00  0.00     0.014 A 
ATOM     32  C   UNL A   1      39.470  23.731  26.228  1.00  0.00     0.014 A 
ATOM     33  C   UNL A   1      41.382  24.008  28.244  1.00  0.00     0.010 A 
ATOM     34  C   UNL A   1      39.990  24.988  26.527  1.00  0.00     0.010 A 
ATOM     35  C   UNL A   1      40.950  25.141  27.538  1.00  0.00    -0.014 A 
BRANCH  35  36
ATOM     36  C   UNL A   1      41.488  26.494  27.834  1.00  0.00     0.031 A 
ATOM     37  C   UNL A   1      42.919  26.823  27.500  1.00  0.00     0.074 A 
ATOM     38  C   UNL A   1      40.726  27.386  28.501  1.00  0.00     0.049 A 
ATOM     39  N   UNL A   1      43.603  27.903  27.777  1.00  0.00    -0.248 NA
ATOM     40  C   UNL A   1      43.696  25.789  26.795  1.00  0.00     0.031 C 
ATOM     41  C   UNL A   1      39.354  27.154  28.959  1.00  0.00     0.029 A 
ATOM     42  N   UNL A   1      41.009  28.656  28.941  1.00  0.00    -0.354 N 
ATOM     43  C   UNL A   1      44.896  27.657  27.332  1.00  0.00     0.074 A 
ATOM     44  C   UNL A   1      44.911  26.317  26.789  1.00  0.00     0.031 C 
ATOM     45  C   UNL A   1      38.918  28.242  29.618  1.00  0.00     0.029 A 
ATOM     46  C   UNL A   1      39.984  29.236  29.656  1.00  0.00     0.049 A 
ATOM     47  H   UNL A   1      41.864  29.110  28.762  1.00  0.00     0.167 HD
ATOM     48  C   UNL A   1      45.968  28.484  27.346  1.00  0.00     0.034 A 
ATOM     49  C   UNL A   1      39.917  30.428  30.280  1.00  0.00     0.034 A 
ATOM     50  C   UNL A   1      45.927  29.842  27.813  1.00  0.00     0.049 A 
ATOM     51  C   UNL A   1      41.099  31.358  30.203  1.00  0.00     0.074 A 
ATOM     52  C   UNL A   1      46.926  30.798  27.760  1.00  0.00     0.029 A 
ATOM     53  N   UNL A   1      44.831  30.437  28.414  1.00  0.00    -0.354 N 
ATOM     54  N   UNL A   1      42.258  31.170  29.621  1.00  0.00    -0.248 NA
ATOM     55  C   UNL A   1      40.952  32.678  30.834  1.00  0.00     0.031 C 
ATOM     56  C   UNL A   1      46.436  31.971  28.342  1.00  0.00     0.029 A 
ATOM     57  C   UNL A   1      45.128  31.749  28.742  1.00  0.00     0.049 A 
ATOM     58  H   UNL A   1      43.968  29.995  28.583  1.00  0.00     0.167 HD
ATOM     59  C   UNL A   1      42.963  32.358  29.781  1.00  0.00     0.074 A 
ATOM     60  C   UNL A   1      42.092  33.267  30.497  1.00  0.00     0.031 C 
ATOM     61  C   UNL A   1      44.225  32.662  29.391  1.00  0.00     0.034 A 
BRANCH  48  62
ATOM     62  C   UNL A   1      47.264  27.970  26.779  1.00  0.00     0.023 A 
ATOM     63  C   UNL A   1      48.253  27.470  27.649  1.00  0.00     0.012 A 
ATOM     64  C   UNL A   1      47.470  27.906  25.386  1.00  0.00     0.148 A 
ATOM     65  C   UNL A   1      49.438  26.936  27.145  1.00  0.00     0.002 A 
ATOM     66  C   UNL A   1      48.636  27.332  24.890  1.00  0.00     0.091 A 
ATOM     67  F   UNL A   1      46.525  28.405  24.577  1.00  0.00    -0.205 F 
ATOM     68  C   UNL A   1      49.624  26.856  25.767  1.00  0.00     0.022 A 
BRANCH  66  69
ATOM     69  S   UNL A   1      48.937  27.110  23.134  1.00  0.00     0.127 S 
ATOM     70  O   UNL A   1      50.393  26.974  23.099  1.00  0.00    -0.237 OA
ATOM     71  O   UNL A   1      48.203  25.876  22.850  1.00  0.00    -0.237 OA
ATOM     72  O   UNL A   1      48.408  28.298  22.479  1.00  0.00    -0.744 OA
ENDBRANCH  66  69
ENDBRANCH  48  62
BRANCH  49  73
ATOM     73  C   UNL A   1      38.664  30.841  30.976  1.00  0.00     0.023 A 
ATOM     74  C   UNL A   1      38.542  30.626  32.363  1.00  0.00     0.012 A 
ATOM     75  C   UNL A   1      37.603  31.454  30.283  1.00  0.00     0.148 A 
ATOM     76  C   UNL A   1      37.374  30.979  33.039  1.00  0.00     0.002 A 
ATOM     77  C   UNL A   1      36.463  31.855  30.973  1.00  0.00     0.091 A 
ATOM     78  F   UNL A   1      37.726  31.638  28.960  1.00  0.00    -0.205 F 
ATOM     79  C   UNL A   1      36.339  31.601  32.347  1.00  0.00     0.022 A 
BRANCH  77  80
ATOM     80  S   UNL A   1      35.148  32.786  30.179  1.00  0.00     0.127 S 
ATOM     81  O   UNL A   1      35.865  33.954  29.677  1.00  0.00    -0.237 OA
ATOM     82  O   UNL A   1      34.689  31.855  29.146  1.00  0.00    -0.237 OA
ATOM     83  O   UNL A   1      34.166  33.036  31.226  1.00  0.00    -0.744 OA
ENDBRANCH  77  80
ENDBRANCH  49  73
BRANCH  61  84
ATOM     84  C   UNL A   1      44.737  34.046  29.685  1.00  0.00     0.023 A 
ATOM     85  C   UNL A   1      45.592  34.255  30.783  1.00  0.00     0.012 A 
ATOM     86  C   UNL A   1      44.443  35.118  28.819  1.00  0.00     0.148 A 
ATOM     87  C   UNL A   1      46.130  35.517  31.030  1.00  0.00     0.002 A 
ATOM     88  C   UNL A   1      45.020  36.361  29.045  1.00  0.00     0.091 A 
ATOM     89  F   UNL A   1      43.611  34.902  27.790  1.00  0.00    -0.205 F 
ATOM     90  C   UNL A   1      45.856  36.565  30.155  1.00  0.00     0.022 A 
BRANCH  88  91
ATOM     91  S   UNL A   1      44.801  37.741  27.915  1.00  0.00     0.127 S 
ATOM     92  O   UNL A   1      44.555  38.846  28.840  1.00  0.00    -0.237 OA
ATOM     93  O   UNL A   1      46.094  37.794  27.232  1.00  0.00    -0.237 OA
ATOM     94  O   UNL A   1      43.681  37.381  27.057  1.00  0.00    -0.744 OA
ENDBRANCH  88  91
ENDBRANCH  61  84
ENDBRANCH  35  36
ENDBRANCH  27  30
ENDBRANCH  25  26
ENDBRANCH  24  25
ENDBRANCH   1  24
TORSDOF 19
ENDMDL
MODEL 3
REMARK VINA RESULT:     -10.5      5.380      8.709
REMARK SMILES CC[C@@H](COC)NC(=O)NC[C@@H]1CC[C@H](C(=O)NCCCNC(=O)c2ccc(-c3c4nc(c(-c5cccc(S(=O)(=O)[O-])c5F)c5ccc([nH]5)c(-c5cccc(S(=O)(=O)[O-])c5F)c5nc(c(-c6cccc(S(=O)(=O)[O-])c6F)c6ccc3[nH]6)C=C5)C=C4)cc2)O1
REMARK SMILES IDX 19 1 18 2 16 3 17 4 15 6 12 7 13 8 88 9 14 10 11 11 10 12
REMARK SMILES IDX 7 13 8 14 9 16 3 18 2 19 1 20 4 21 5 22 6 23 20 24 21 25
REMARK SMILES IDX 22 26 23 27 24 29 25 30 26 31 87 32 27 33 86 34 28 35 29 36
REMARK SMILES IDX 30 37 80 38 31 39 85 40 79 41 81 42 32 43 84 44 78 45 77 46
REMARK SMILES IDX 33 48 65 49 45 50 64 51 46 52 49 53 63 54 82 55 47 56 48 57
REMARK SMILES IDX 62 59 83 60 50 61 34 62 35 63 43 64 36 65 38 66 44 67 37 68
REMARK SMILES IDX 39 69 40 70 41 71 42 72 66 73 67 74 75 75 68 76 70 77 76 78
REMARK SMILES IDX 69 79 71 80 72 81 73 82 74 83 51 84 52 85 60 86 53 87 55 88
REMARK SMILES IDX 61 89 54 90 56 91 57 92 58 93 59 94
REMARK H PARENT 18 5 7 15 10 17 22 28 81 47 49 58
REMARK Flexibility Score: inf
ROOT
ATOM      1  C   UNL A   1      31.271  27.656  25.082  1.00  0.00     0.117 C 
ENDROOT
BRANCH   1   2
ATOM      2  N   UNL A   1      30.635  28.384  24.009  1.00  0.00    -0.354 N 
ATOM      3  C   UNL A   1      30.614  28.091  22.678  1.00  0.00     0.249 C 
ATOM      4  O   UNL A   1      29.829  28.730  21.967  1.00  0.00    -0.272 OA
ATOM      5  H   UNL A   1      30.152  29.200  24.273  1.00  0.00     0.163 HD
BRANCH   3   6
ATOM      6  C   UNL A   1      31.609  27.088  22.036  1.00  0.00     0.207 C 
ATOM      7  C   UNL A   1      32.754  25.101  22.434  1.00  0.00     0.138 C 
ATOM      8  C   UNL A   1      33.595  26.199  23.052  1.00  0.00     0.037 C 
ATOM      9  O   UNL A   1      31.455  25.679  22.230  1.00  0.00    -0.363 OA
ATOM     10  C   UNL A   1      33.043  27.451  22.414  1.00  0.00     0.045 C 
BRANCH   7  11
ATOM     11  C   UNL A   1      32.746  23.787  23.250  1.00  0.00     0.149 C 
BRANCH  11  12
ATOM     12  N   UNL A   1      32.836  23.937  24.694  1.00  0.00    -0.336 N 
ATOM     13  N   UNL A   1      33.025  21.752  25.584  1.00  0.00    -0.333 N 
ATOM     14  C   UNL A   1      32.839  23.071  25.722  1.00  0.00     0.315 C 
ATOM     15  H   UNL A   1      32.786  21.232  26.385  1.00  0.00     0.165 HD
ATOM     16  O   UNL A   1      32.640  23.522  26.853  1.00  0.00    -0.249 OA
ATOM     17  H   UNL A   1      32.910  24.876  24.981  1.00  0.00     0.165 HD
BRANCH  13  18
ATOM     18  C   UNL A   1      33.514  20.935  24.477  1.00  0.00     0.109 C 
BRANCH  18  19
ATOM     19  C   UNL A   1      34.729  20.127  24.961  1.00  0.00     0.024 C 
ATOM     20  C   UNL A   1      36.006  20.945  25.045  1.00  0.00     0.006 C 
ENDBRANCH  18  19
BRANCH  18  21
ATOM     21  C   UNL A   1      32.364  20.090  23.882  1.00  0.00     0.184 C 
BRANCH  21  22
ATOM     22  O   UNL A   1      32.598  18.680  23.914  1.00  0.00    -0.383 OA
ATOM     23  C   UNL A   1      32.528  18.038  22.650  1.00  0.00     0.194 C 
ENDBRANCH  21  22
ENDBRANCH  18  21
ENDBRANCH  13  18
ENDBRANCH  11  12
ENDBRANCH   7  11
ENDBRANCH   3   6
ENDBRANCH   1   2
BRANCH   1  24
ATOM     24  C   UNL A   1      31.759  28.551  26.214  1.00  0.00     0.042 C 
BRANCH  24  25
ATOM     25  C   UNL A   1      32.726  29.625  25.746  1.00  0.00     0.118 C 
BRANCH  25  26
ATOM     26  N   UNL A   1      32.456  30.944  26.306  1.00  0.00    -0.352 N 
ATOM     27  C   UNL A   1      33.234  31.703  27.151  1.00  0.00     0.251 C 
ATOM     28  H   UNL A   1      31.598  31.348  26.042  1.00  0.00     0.163 HD
ATOM     29  O   UNL A   1      32.848  32.811  27.520  1.00  0.00    -0.269 OA
BRANCH  27  30
ATOM     30  C   UNL A   1      34.503  31.164  27.695  1.00  0.00     0.039 A 
ATOM     31  C   UNL A   1      35.564  32.054  27.899  1.00  0.00     0.014 A 
ATOM     32  C   UNL A   1      34.652  29.820  28.042  1.00  0.00     0.014 A 
ATOM     33  C   UNL A   1      36.734  31.617  28.523  1.00  0.00     0.010 A 
ATOM     34  C   UNL A   1      35.779  29.407  28.748  1.00  0.00     0.010 A 
ATOM     35  C   UNL A   1      36.833  30.300  28.995  1.00  0.00    -0.014 A 
BRANCH  35  36
ATOM     36  C   UNL A   1      38.022  29.831  29.753  1.00  0.00     0.031 A 
ATOM     37  C   UNL A   1      38.264  30.329  31.154  1.00  0.00     0.074 A 
ATOM     38  C   UNL A   1      38.938  29.050  29.145  1.00  0.00     0.049 A 
ATOM     39  N   UNL A   1      39.293  30.125  31.934  1.00  0.00    -0.248 NA
ATOM     40  C   UNL A   1      37.231  31.199  31.742  1.00  0.00     0.031 C 
ATOM     41  C   UNL A   1      38.862  28.574  27.760  1.00  0.00     0.029 A 
ATOM     42  N   UNL A   1      40.132  28.545  29.600  1.00  0.00    -0.354 N 
ATOM     43  C   UNL A   1      39.059  30.883  33.076  1.00  0.00     0.074 A 
ATOM     44  C   UNL A   1      37.802  31.570  32.878  1.00  0.00     0.031 C 
ATOM     45  C   UNL A   1      39.961  27.854  27.480  1.00  0.00     0.029 A 
ATOM     46  C   UNL A   1      40.833  27.838  28.649  1.00  0.00     0.049 A 
ATOM     47  H   UNL A   1      40.456  28.677  30.520  1.00  0.00     0.167 HD
ATOM     48  C   UNL A   1      39.807  30.973  34.201  1.00  0.00     0.034 A 
ATOM     49  C   UNL A   1      42.045  27.252  28.709  1.00  0.00     0.034 A 
ATOM     50  C   UNL A   1      41.013  30.225  34.423  1.00  0.00     0.049 A 
ATOM     51  C   UNL A   1      42.814  27.302  30.004  1.00  0.00     0.074 A 
ATOM     52  C   UNL A   1      41.780  30.157  35.573  1.00  0.00     0.029 A 
ATOM     53  N   UNL A   1      41.626  29.416  33.481  1.00  0.00    -0.354 N 
ATOM     54  N   UNL A   1      42.487  27.881  31.134  1.00  0.00    -0.248 NA
ATOM     55  C   UNL A   1      44.096  26.585  30.046  1.00  0.00     0.031 C 
ATOM     56  C   UNL A   1      42.866  29.313  35.321  1.00  0.00     0.029 A 
ATOM     57  C   UNL A   1      42.765  28.845  34.021  1.00  0.00     0.049 A 
ATOM     58  H   UNL A   1      41.300  29.268  32.564  1.00  0.00     0.167 HD
ATOM     59  C   UNL A   1      43.503  27.568  32.030  1.00  0.00     0.074 A 
ATOM     60  C   UNL A   1      44.445  26.730  31.318  1.00  0.00     0.031 C 
ATOM     61  C   UNL A   1      43.654  27.956  33.319  1.00  0.00     0.034 A 
BRANCH  48  62
ATOM     62  C   UNL A   1      39.311  31.862  35.309  1.00  0.00     0.023 A 
ATOM     63  C   UNL A   1      38.429  31.341  36.276  1.00  0.00     0.012 A 
ATOM     64  C   UNL A   1      39.781  33.184  35.441  1.00  0.00     0.148 A 
ATOM     65  C   UNL A   1      38.001  32.127  37.345  1.00  0.00     0.002 A 
ATOM     66  C   UNL A   1      39.383  33.948  36.533  1.00  0.00     0.091 A 
ATOM     67  F   UNL A   1      40.604  33.667  34.500  1.00  0.00    -0.205 F 
ATOM     68  C   UNL A   1      38.486  33.425  37.479  1.00  0.00     0.022 A 
BRANCH  66  69
ATOM     69  S   UNL A   1      40.012  35.602  36.842  1.00  0.00     0.127 S 
ATOM     70  O   UNL A   1      41.456  35.370  36.859  1.00  0.00    -0.237 OA
ATOM     71  O   UNL A   1      39.527  36.338  35.674  1.00  0.00    -0.237 OA
ATOM     72  O   UNL A   1      39.434  36.024  38.111  1.00  0.00    -0.744 OA
ENDBRANCH  66  69
ENDBRANCH  48  62
BRANCH  49  73
ATOM     73  C   UNL A   1      42.581  26.513  27.531  1.00  0.00     0.023 A 
ATOM     74  C   UNL A   1      43.415  27.185  26.615  1.00  0.00     0.012 A 
ATOM     75  C   UNL A   1      42.286  25.153  27.317  1.00  0.00     0.148 A 
ATOM     76  C   UNL A   1      43.913  26.528  25.489  1.00  0.00     0.002 A 
ATOM     77  C   UNL A   1      42.831  24.488  26.222  1.00  0.00     0.091 A 
ATOM     78  F   UNL A   1      41.478  24.530  28.187  1.00  0.00    -0.205 F 
ATOM     79  C   UNL A   1      43.629  25.178  25.297  1.00  0.00     0.022 A 
BRANCH  77  80
ATOM     80  S   UNL A   1      42.625  22.720  25.984  1.00  0.00     0.127 S 
ATOM     81  O   UNL A   1      43.345  22.175  27.131  1.00  0.00    -0.237 OA
ATOM     82  O   UNL A   1      41.170  22.567  26.041  1.00  0.00    -0.237 OA
ATOM     83  O   UNL A   1      43.198  22.438  24.674  1.00  0.00    -0.744 OA
ENDBRANCH  77  80
ENDBRANCH  49  73
BRANCH  61  84
ATOM     84  C   UNL A   1      44.857  27.451  34.069  1.00  0.00     0.023 A 
ATOM     85  C   UNL A   1      46.039  28.215  34.089  1.00  0.00     0.012 A 
ATOM     86  C   UNL A   1      44.782  26.266  34.828  1.00  0.00     0.148 A 
ATOM     87  C   UNL A   1      47.139  27.795  34.834  1.00  0.00     0.002 A 
ATOM     88  C   UNL A   1      45.867  25.879  35.605  1.00  0.00     0.091 A 
ATOM     89  F   UNL A   1      43.653  25.543  34.780  1.00  0.00    -0.205 F 
ATOM     90  C   UNL A   1      47.049  26.637  35.602  1.00  0.00     0.022 A 
BRANCH  88  91
ATOM     91  S   UNL A   1      45.804  24.455  36.700  1.00  0.00     0.127 S 
ATOM     92  O   UNL A   1      45.685  23.353  35.747  1.00  0.00    -0.237 OA
ATOM     93  O   UNL A   1      47.094  24.532  37.386  1.00  0.00    -0.237 OA
ATOM     94  O   UNL A   1      44.649  24.665  37.563  1.00  0.00    -0.744 OA
ENDBRANCH  88  91
ENDBRANCH  61  84
ENDBRANCH  35  36
ENDBRANCH  27  30
ENDBRANCH  25  26
ENDBRANCH  24  25
ENDBRANCH   1  24
TORSDOF 19
ENDMDL
