MODEL 1
REMARK VINA RESULT:      -9.2      0.000      0.000
REMARK SMILES O=C(CCCCc1c[nH]c2ccccc12)NCCCNC(=O)c1ccc(-c2c3nc(c(-c4cccc(S(=O)(=O)[O-])c4F)c4ccc([nH]4)c(-c4cccc(S(=O)(=O)[O-])c4F)c4nc(c(-c5cccc(S(=O)(=O)[O-])c5F)c5ccc2[nH]5)C=C4)C=C3)cc1
REMARK SMILES IDX 17 1 16 2 1 3 2 4 3 6 4 7 5 8 6 9 7 10 8 11 15 12 9 13 10 14
REMARK SMILES IDX 14 15 11 17 13 18 12 19 18 20 19 21 20 22 21 23 22 25 23 26
REMARK SMILES IDX 24 27 85 28 25 29 84 30 26 31 27 32 28 33 78 34 29 35 83 36
REMARK SMILES IDX 77 37 79 38 30 39 82 40 76 41 75 42 31 44 63 45 43 46 62 47
REMARK SMILES IDX 44 48 47 49 61 50 80 51 45 52 46 53 60 55 81 56 48 57 32 58
REMARK SMILES IDX 33 59 41 60 34 61 36 62 42 63 35 64 37 65 38 66 39 67 40 68
REMARK SMILES IDX 64 69 65 70 73 71 66 72 68 73 74 74 67 75 69 76 70 77 71 78
REMARK SMILES IDX 72 79 49 80 50 81 58 82 51 83 53 84 59 85 52 86 54 87 55 88
REMARK SMILES IDX 56 89 57 90
REMARK H PARENT 16 5 9 16 20 24 79 43 47 54
REMARK Flexibility Score: inf
ROOT
ATOM      1  C   UNL A   1      44.182  18.833  24.571  1.00  0.00     0.117 C 
ENDROOT
BRANCH   1   2
ATOM      2  N   UNL A   1      44.171  20.280  24.589  1.00  0.00    -0.356 N 
ATOM      3  O   UNL A   1      46.434  20.561  24.885  1.00  0.00    -0.275 OA
ATOM      4  C   UNL A   1      45.316  21.032  24.701  1.00  0.00     0.219 C 
ATOM      5  H   UNL A   1      43.306  20.745  24.519  1.00  0.00     0.163 HD
BRANCH   4   6
ATOM      6  C   UNL A   1      45.081  22.519  24.535  1.00  0.00     0.100 C 
BRANCH   6   7
ATOM      7  C   UNL A   1      46.338  23.331  24.848  1.00  0.00     0.010 C 
BRANCH   7   8
ATOM      8  C   UNL A   1      46.163  24.858  24.905  1.00  0.00     0.005 C 
BRANCH   8   9
ATOM      9  C   UNL A   1      44.714  25.363  24.863  1.00  0.00     0.038 C 
BRANCH   9  10
ATOM     10  C   UNL A   1      44.560  26.745  25.410  1.00  0.00    -0.023 A 
ATOM     11  C   UNL A   1      45.593  27.597  25.753  1.00  0.00     0.087 A 
ATOM     12  C   UNL A   1      43.338  27.437  25.696  1.00  0.00     0.003 A 
ATOM     13  N   UNL A   1      45.053  28.742  26.267  1.00  0.00    -0.361 N 
ATOM     14  C   UNL A   1      43.680  28.668  26.259  1.00  0.00     0.046 A 
ATOM     15  C   UNL A   1      41.970  27.130  25.543  1.00  0.00     0.010 A 
ATOM     16  H   UNL A   1      45.572  29.511  26.596  1.00  0.00     0.166 HD
ATOM     17  C   UNL A   1      42.727  29.593  26.699  1.00  0.00     0.026 A 
ATOM     18  C   UNL A   1      41.003  28.048  25.970  1.00  0.00     0.001 A 
ATOM     19  C   UNL A   1      41.379  29.258  26.546  1.00  0.00     0.002 A 
ENDBRANCH   9  10
ENDBRANCH   8   9
ENDBRANCH   7   8
ENDBRANCH   6   7
ENDBRANCH   4   6
ENDBRANCH   1   2
BRANCH   1  20
ATOM     20  C   UNL A   1      44.199  18.233  25.971  1.00  0.00     0.042 C 
BRANCH  20  21
ATOM     21  C   UNL A   1      43.081  18.707  26.896  1.00  0.00     0.118 C 
BRANCH  21  22
ATOM     22  N   UNL A   1      41.777  18.760  26.255  1.00  0.00    -0.352 N 
ATOM     23  C   UNL A   1      40.877  19.797  26.182  1.00  0.00     0.251 C 
ATOM     24  H   UNL A   1      41.496  17.930  25.806  1.00  0.00     0.163 HD
ATOM     25  O   UNL A   1      39.767  19.592  25.689  1.00  0.00    -0.269 OA
BRANCH  23  26
ATOM     26  C   UNL A   1      41.211  21.142  26.709  1.00  0.00     0.039 A 
ATOM     27  C   UNL A   1      41.202  21.335  28.093  1.00  0.00     0.014 A 
ATOM     28  C   UNL A   1      41.511  22.214  25.864  1.00  0.00     0.014 A 
ATOM     29  C   UNL A   1      41.547  22.580  28.627  1.00  0.00     0.010 A 
ATOM     30  C   UNL A   1      41.932  23.432  26.401  1.00  0.00     0.010 A 
ATOM     31  C   UNL A   1      41.948  23.634  27.788  1.00  0.00    -0.014 A 
BRANCH  31  32
ATOM     32  C   UNL A   1      42.406  24.929  28.364  1.00  0.00     0.031 A 
ATOM     33  C   UNL A   1      43.872  25.235  28.529  1.00  0.00     0.074 A 
ATOM     34  C   UNL A   1      41.491  25.825  28.788  1.00  0.00     0.049 A 
ATOM     35  N   UNL A   1      44.442  26.328  28.970  1.00  0.00    -0.248 NA
ATOM     36  C   UNL A   1      44.824  24.169  28.176  1.00  0.00     0.031 C 
ATOM     37  C   UNL A   1      40.040  25.618  28.780  1.00  0.00     0.029 A 
ATOM     38  N   UNL A   1      41.641  27.081  29.320  1.00  0.00    -0.354 N 
ATOM     39  C   UNL A   1      45.809  26.075  28.974  1.00  0.00     0.074 A 
ATOM     40  C   UNL A   1      45.982  24.710  28.528  1.00  0.00     0.031 C 
ATOM     41  C   UNL A   1      39.435  26.716  29.260  1.00  0.00     0.029 A 
ATOM     42  C   UNL A   1      40.450  27.695  29.634  1.00  0.00     0.049 A 
ATOM     43  H   UNL A   1      42.519  27.504  29.463  1.00  0.00     0.167 HD
ATOM     44  C   UNL A   1      46.830  26.910  29.286  1.00  0.00     0.034 A 
ATOM     45  C   UNL A   1      40.200  28.912  30.157  1.00  0.00     0.034 A 
ATOM     46  C   UNL A   1      46.659  28.279  29.697  1.00  0.00     0.049 A 
ATOM     47  C   UNL A   1      41.350  29.840  30.439  1.00  0.00     0.074 A 
ATOM     48  C   UNL A   1      47.633  29.230  29.952  1.00  0.00     0.029 A 
ATOM     49  N   UNL A   1      45.437  28.893  29.924  1.00  0.00    -0.354 N 
ATOM     50  N   UNL A   1      42.634  29.640  30.269  1.00  0.00    -0.248 NA
ATOM     51  C   UNL A   1      41.012  31.178  30.943  1.00  0.00     0.031 C 
ATOM     52  C   UNL A   1      47.001  30.409  30.359  1.00  0.00     0.029 A 
ATOM     53  C   UNL A   1      45.631  30.206  30.324  1.00  0.00     0.049 A 
ATOM     54  H   UNL A   1      44.560  28.459  29.818  1.00  0.00     0.167 HD
ATOM     55  C   UNL A   1      43.254  30.836  30.609  1.00  0.00     0.074 A 
ATOM     56  C   UNL A   1      42.201  31.764  30.967  1.00  0.00     0.031 C 
ATOM     57  C   UNL A   1      44.577  31.136  30.636  1.00  0.00     0.034 A 
BRANCH  44  58
ATOM     58  C   UNL A   1      48.235  26.381  29.146  1.00  0.00     0.023 A 
ATOM     59  C   UNL A   1      48.832  25.695  30.225  1.00  0.00     0.012 A 
ATOM     60  C   UNL A   1      48.942  26.503  27.933  1.00  0.00     0.148 A 
ATOM     61  C   UNL A   1      50.120  25.173  30.114  1.00  0.00     0.002 A 
ATOM     62  C   UNL A   1      50.207  25.938  27.815  1.00  0.00     0.091 A 
ATOM     63  F   UNL A   1      48.370  27.173  26.923  1.00  0.00    -0.205 F 
ATOM     64  C   UNL A   1      50.802  25.285  28.906  1.00  0.00     0.022 A 
BRANCH  62  65
ATOM     65  S   UNL A   1      51.137  25.954  26.277  1.00  0.00     0.127 S 
ATOM     66  O   UNL A   1      51.837  27.235  26.368  1.00  0.00    -0.237 OA
ATOM     67  O   UNL A   1      51.997  24.779  26.426  1.00  0.00    -0.237 OA
ATOM     68  O   UNL A   1      50.153  25.855  25.210  1.00  0.00    -0.744 OA
ENDBRANCH  62  65
ENDBRANCH  44  58
BRANCH  45  69
ATOM     69  C   UNL A   1      38.792  29.353  30.374  1.00  0.00     0.023 A 
ATOM     70  C   UNL A   1      38.182  29.141  31.626  1.00  0.00     0.012 A 
ATOM     71  C   UNL A   1      38.064  29.997  29.356  1.00  0.00     0.148 A 
ATOM     72  C   UNL A   1      36.861  29.527  31.849  1.00  0.00     0.002 A 
ATOM     73  C   UNL A   1      36.767  30.432  29.603  1.00  0.00     0.091 A 
ATOM     74  F   UNL A   1      38.657  30.180  28.169  1.00  0.00    -0.205 F 
ATOM     75  C   UNL A   1      36.157  30.181  30.842  1.00  0.00     0.022 A 
BRANCH  73  76
ATOM     76  S   UNL A   1      35.836  31.401  28.412  1.00  0.00     0.127 S 
ATOM     77  O   UNL A   1      36.753  32.508  28.145  1.00  0.00    -0.237 OA
ATOM     78  O   UNL A   1      35.678  30.452  27.309  1.00  0.00    -0.237 OA
ATOM     79  O   UNL A   1      34.593  31.757  29.080  1.00  0.00    -0.744 OA
ENDBRANCH  73  76
ENDBRANCH  45  69
BRANCH  57  80
ATOM     80  C   UNL A   1      44.963  32.539  31.033  1.00  0.00     0.023 A 
ATOM     81  C   UNL A   1      45.186  32.853  32.389  1.00  0.00     0.012 A 
ATOM     82  C   UNL A   1      45.142  33.539  30.056  1.00  0.00     0.148 A 
ATOM     83  C   UNL A   1      45.529  34.150  32.771  1.00  0.00     0.002 A 
ATOM     84  C   UNL A   1      45.537  34.815  30.439  1.00  0.00     0.091 A 
ATOM     85  F   UNL A   1      44.908  33.230  28.773  1.00  0.00    -0.205 F 
ATOM     86  C   UNL A   1      45.715  35.127  31.796  1.00  0.00     0.022 A 
BRANCH  84  87
ATOM     87  S   UNL A   1      45.893  36.107  29.243  1.00  0.00     0.127 S 
ATOM     88  O   UNL A   1      46.113  37.264  30.109  1.00  0.00    -0.237 OA
ATOM     89  O   UNL A   1      47.099  35.599  28.586  1.00  0.00    -0.237 OA
ATOM     90  O   UNL A   1      44.723  36.181  28.378  1.00  0.00    -0.744 OA
ENDBRANCH  84  87
ENDBRANCH  57  80
ENDBRANCH  31  32
ENDBRANCH  23  26
ENDBRANCH  21  22
ENDBRANCH  20  21
ENDBRANCH   1  20
TORSDOF 17
ENDMDL
MODEL 2
REMARK VINA RESULT:      -8.6      6.517     11.687
REMARK SMILES O=C(CCCCc1c[nH]c2ccccc12)NCCCNC(=O)c1ccc(-c2c3nc(c(-c4cccc(S(=O)(=O)[O-])c4F)c4ccc([nH]4)c(-c4cccc(S(=O)(=O)[O-])c4F)c4nc(c(-c5cccc(S(=O)(=O)[O-])c5F)c5ccc2[nH]5)C=C4)C=C3)cc1
REMARK SMILES IDX 17 1 16 2 1 3 2 4 3 6 4 7 5 8 6 9 7 10 8 11 15 12 9 13 10 14
REMARK SMILES IDX 14 15 11 17 13 18 12 19 18 20 19 21 20 22 21 23 22 25 23 26
REMARK SMILES IDX 24 27 85 28 25 29 84 30 26 31 27 32 28 33 78 34 29 35 83 36
REMARK SMILES IDX 77 37 79 38 30 39 82 40 76 41 75 42 31 44 63 45 43 46 62 47
REMARK SMILES IDX 44 48 47 49 61 50 80 51 45 52 46 53 60 55 81 56 48 57 32 58
REMARK SMILES IDX 33 59 41 60 34 61 36 62 42 63 35 64 37 65 38 66 39 67 40 68
REMARK SMILES IDX 64 69 65 70 73 71 66 72 68 73 74 74 67 75 69 76 70 77 71 78
REMARK SMILES IDX 72 79 49 80 50 81 58 82 51 83 53 84 59 85 52 86 54 87 55 88
REMARK SMILES IDX 56 89 57 90
REMARK H PARENT 16 5 9 16 20 24 79 43 47 54
REMARK Flexibility Score: inf
ROOT
ATOM      1  C   UNL A   1      31.935  27.881  27.260  1.00  0.00     0.117 C 
ENDROOT
BRANCH   1   2
ATOM      2  N   UNL A   1      32.722  26.955  26.472  1.00  0.00    -0.356 N 
ATOM      3  O   UNL A   1      31.431  25.096  26.877  1.00  0.00    -0.275 OA
ATOM      4  C   UNL A   1      32.375  25.635  26.309  1.00  0.00     0.219 C 
ATOM      5  H   UNL A   1      33.540  27.285  26.036  1.00  0.00     0.163 HD
BRANCH   4   6
ATOM      6  C   UNL A   1      33.250  24.899  25.317  1.00  0.00     0.100 C 
BRANCH   6   7
ATOM      7  C   UNL A   1      33.768  25.828  24.218  1.00  0.00     0.010 C 
BRANCH   7   8
ATOM      8  C   UNL A   1      32.935  25.884  22.926  1.00  0.00     0.005 C 
BRANCH   8   9
ATOM      9  C   UNL A   1      32.323  27.252  22.590  1.00  0.00     0.038 C 
BRANCH   9  10
ATOM     10  C   UNL A   1      30.880  27.354  22.963  1.00  0.00    -0.023 A 
ATOM     11  C   UNL A   1      30.148  26.390  23.630  1.00  0.00     0.087 A 
ATOM     12  C   UNL A   1      29.986  28.441  22.693  1.00  0.00     0.003 A 
ATOM     13  N   UNL A   1      28.857  26.826  23.735  1.00  0.00    -0.361 N 
ATOM     14  C   UNL A   1      28.725  28.068  23.159  1.00  0.00     0.046 A 
ATOM     15  C   UNL A   1      30.125  29.706  22.085  1.00  0.00     0.010 A 
ATOM     16  H   UNL A   1      28.126  26.323  24.161  1.00  0.00     0.166 HD
ATOM     17  C   UNL A   1      27.593  28.880  23.024  1.00  0.00     0.026 A 
ATOM     18  C   UNL A   1      29.005  30.535  21.949  1.00  0.00     0.001 A 
ATOM     19  C   UNL A   1      27.757  30.123  22.407  1.00  0.00     0.002 A 
ENDBRANCH   9  10
ENDBRANCH   8   9
ENDBRANCH   7   8
ENDBRANCH   6   7
ENDBRANCH   4   6
ENDBRANCH   1   2
BRANCH   1  20
ATOM     20  C   UNL A   1      31.728  29.215  26.556  1.00  0.00     0.042 C 
BRANCH  20  21
ATOM     21  C   UNL A   1      32.999  30.021  26.300  1.00  0.00     0.118 C 
BRANCH  21  22
ATOM     22  N   UNL A   1      32.908  31.406  26.737  1.00  0.00    -0.352 N 
ATOM     23  C   UNL A   1      33.724  32.112  27.589  1.00  0.00     0.251 C 
ATOM     24  H   UNL A   1      32.150  31.913  26.367  1.00  0.00     0.163 HD
ATOM     25  O   UNL A   1      33.397  33.250  27.923  1.00  0.00    -0.269 OA
BRANCH  23  26
ATOM     26  C   UNL A   1      34.969  31.515  28.129  1.00  0.00     0.039 A 
ATOM     27  C   UNL A   1      36.128  32.297  28.150  1.00  0.00     0.014 A 
ATOM     28  C   UNL A   1      35.017  30.198  28.594  1.00  0.00     0.014 A 
ATOM     29  C   UNL A   1      37.310  31.778  28.685  1.00  0.00     0.010 A 
ATOM     30  C   UNL A   1      36.176  29.710  29.200  1.00  0.00     0.010 A 
ATOM     31  C   UNL A   1      37.339  30.490  29.248  1.00  0.00    -0.014 A 
BRANCH  31  32
ATOM     32  C   UNL A   1      38.575  29.978  29.902  1.00  0.00     0.031 A 
ATOM     33  C   UNL A   1      38.984  30.448  31.274  1.00  0.00     0.074 A 
ATOM     34  C   UNL A   1      39.365  29.111  29.236  1.00  0.00     0.049 A 
ATOM     35  N   UNL A   1      40.002  30.071  32.005  1.00  0.00    -0.248 NA
ATOM     36  C   UNL A   1      38.159  31.495  31.898  1.00  0.00     0.031 C 
ATOM     37  C   UNL A   1      39.142  28.647  27.864  1.00  0.00     0.029 A 
ATOM     38  N   UNL A   1      40.521  28.475  29.614  1.00  0.00    -0.354 N 
ATOM     39  C   UNL A   1      39.958  30.848  33.157  1.00  0.00     0.074 A 
ATOM     40  C   UNL A   1      38.834  31.747  33.011  1.00  0.00     0.031 C 
ATOM     41  C   UNL A   1      40.114  27.785  27.526  1.00  0.00     0.029 A 
ATOM     42  C   UNL A   1      41.043  27.651  28.643  1.00  0.00     0.049 A 
ATOM     43  H   UNL A   1      40.938  28.595  30.499  1.00  0.00     0.167 HD
ATOM     44  C   UNL A   1      40.756  30.798  34.251  1.00  0.00     0.034 A 
ATOM     45  C   UNL A   1      42.142  26.871  28.650  1.00  0.00     0.034 A 
ATOM     46  C   UNL A   1      41.853  29.880  34.411  1.00  0.00     0.049 A 
ATOM     47  C   UNL A   1      42.977  26.790  29.899  1.00  0.00     0.074 A 
ATOM     48  C   UNL A   1      42.666  29.693  35.517  1.00  0.00     0.029 A 
ATOM     49  N   UNL A   1      42.302  29.002  33.437  1.00  0.00    -0.354 N 
ATOM     50  N   UNL A   1      42.812  27.406  31.043  1.00  0.00    -0.248 NA
ATOM     51  C   UNL A   1      44.122  25.869  29.871  1.00  0.00     0.031 C 
ATOM     52  C   UNL A   1      43.622  28.721  35.201  1.00  0.00     0.029 A 
ATOM     53  C   UNL A   1      43.384  28.277  33.911  1.00  0.00     0.049 A 
ATOM     54  H   UNL A   1      41.909  28.908  32.539  1.00  0.00     0.167 HD
ATOM     55  C   UNL A   1      43.810  26.923  31.883  1.00  0.00     0.074 A 
ATOM     56  C   UNL A   1      44.554  25.941  31.122  1.00  0.00     0.031 C 
ATOM     57  C   UNL A   1      44.092  27.270  33.164  1.00  0.00     0.034 A 
BRANCH  44  58
ATOM     58  C   UNL A   1      40.439  31.731  35.393  1.00  0.00     0.023 A 
ATOM     59  C   UNL A   1      41.261  32.856  35.620  1.00  0.00     0.012 A 
ATOM     60  C   UNL A   1      39.300  31.538  36.199  1.00  0.00     0.148 A 
ATOM     61  C   UNL A   1      40.977  33.750  36.652  1.00  0.00     0.002 A 
ATOM     62  C   UNL A   1      38.997  32.460  37.195  1.00  0.00     0.091 A 
ATOM     63  F   UNL A   1      38.539  30.456  35.983  1.00  0.00    -0.205 F 
ATOM     64  C   UNL A   1      39.840  33.557  37.431  1.00  0.00     0.022 A 
BRANCH  62  65
ATOM     65  S   UNL A   1      37.511  32.350  38.200  1.00  0.00     0.127 S 
ATOM     66  O   UNL A   1      37.309  30.903  38.270  1.00  0.00    -0.237 OA
ATOM     67  O   UNL A   1      37.944  32.966  39.455  1.00  0.00    -0.237 OA
ATOM     68  O   UNL A   1      36.484  33.089  37.482  1.00  0.00    -0.744 OA
ENDBRANCH  62  65
ENDBRANCH  44  58
BRANCH  45  69
ATOM     69  C   UNL A   1      42.472  26.041  27.456  1.00  0.00     0.023 A 
ATOM     70  C   UNL A   1      43.202  26.609  26.394  1.00  0.00     0.012 A 
ATOM     71  C   UNL A   1      42.084  24.690  27.377  1.00  0.00     0.148 A 
ATOM     72  C   UNL A   1      43.507  25.859  25.258  1.00  0.00     0.002 A 
ATOM     73  C   UNL A   1      42.442  23.931  26.268  1.00  0.00     0.091 A 
ATOM     74  F   UNL A   1      41.381  24.170  28.392  1.00  0.00    -0.205 F 
ATOM     75  C   UNL A   1      43.137  24.519  25.199  1.00  0.00     0.022 A 
BRANCH  73  76
ATOM     76  S   UNL A   1      42.126  22.167  26.168  1.00  0.00     0.127 S 
ATOM     77  O   UNL A   1      42.965  21.776  25.037  1.00  0.00    -0.237 OA
ATOM     78  O   UNL A   1      42.599  21.702  27.474  1.00  0.00    -0.237 OA
ATOM     79  O   UNL A   1      40.691  22.035  25.968  1.00  0.00    -0.744 OA
ENDBRANCH  73  76
ENDBRANCH  45  69
BRANCH  57  80
ATOM     80  C   UNL A   1      45.236  26.557  33.840  1.00  0.00     0.023 A 
ATOM     81  C   UNL A   1      46.549  27.054  33.717  1.00  0.00     0.012 A 
ATOM     82  C   UNL A   1      45.003  25.414  34.631  1.00  0.00     0.148 A 
ATOM     83  C   UNL A   1      47.618  26.395  34.326  1.00  0.00     0.002 A 
ATOM     84  C   UNL A   1      46.065  24.795  35.279  1.00  0.00     0.091 A 
ATOM     85  F   UNL A   1      43.751  24.942  34.723  1.00  0.00    -0.205 F 
ATOM     86  C   UNL A   1      47.374  25.274  35.114  1.00  0.00     0.022 A 
BRANCH  84  87
ATOM     87  S   UNL A   1      45.830  23.405  36.392  1.00  0.00     0.127 S 
ATOM     88  O   UNL A   1      45.012  24.001  37.447  1.00  0.00    -0.237 OA
ATOM     89  O   UNL A   1      45.124  22.443  35.543  1.00  0.00    -0.237 OA
ATOM     90  O   UNL A   1      47.166  22.985  36.792  1.00  0.00    -0.744 OA
ENDBRANCH  84  87
ENDBRANCH  57  80
ENDBRANCH  31  32
ENDBRANCH  23  26
ENDBRANCH  21  22
ENDBRANCH  20  21
ENDBRANCH   1  20
TORSDOF 17
ENDMDL
MODEL 3
REMARK VINA RESULT:      -8.4      6.063     11.396
REMARK SMILES O=C(CCCCc1c[nH]c2ccccc12)NCCCNC(=O)c1ccc(-c2c3nc(c(-c4cccc(S(=O)(=O)[O-])c4F)c4ccc([nH]4)c(-c4cccc(S(=O)(=O)[O-])c4F)c4nc(c(-c5cccc(S(=O)(=O)[O-])c5F)c5ccc2[nH]5)C=C4)C=C3)cc1
REMARK SMILES IDX 17 1 16 2 1 3 2 4 3 6 4 7 5 8 6 9 7 10 8 11 15 12 9 13 10 14
REMARK SMILES IDX 14 15 11 17 13 18 12 19 18 20 19 21 20 22 21 23 22 25 23 26
REMARK SMILES IDX 24 27 85 28 25 29 84 30 26 31 27 32 28 33 78 34 29 35 83 36
REMARK SMILES IDX 77 37 79 38 30 39 82 40 76 41 75 42 31 44 63 45 43 46 62 47
REMARK SMILES IDX 44 48 47 49 61 50 80 51 45 52 46 53 60 55 81 56 48 57 32 58
REMARK SMILES IDX 33 59 41 60 34 61 36 62 42 63 35 64 37 65 38 66 39 67 40 68
REMARK SMILES IDX 64 69 65 70 73 71 66 72 68 73 74 74 67 75 69 76 70 77 71 78
REMARK SMILES IDX 72 79 49 80 50 81 58 82 51 83 53 84 59 85 52 86 54 87 55 88
REMARK SMILES IDX 56 89 57 90
REMARK H PARENT 16 5 9 16 20 24 79 43 47 54
REMARK Flexibility Score: inf
ROOT
ATOM      1  C   UNL A   1      31.005  28.315  24.617  1.00  0.00     0.117 C 
ENDROOT
BRANCH   1   2
ATOM      2  N   UNL A   1      31.798  27.121  24.818  1.00  0.00    -0.356 N 
ATOM      3  O   UNL A   1      30.067  25.757  25.473  1.00  0.00    -0.275 OA
ATOM      4  C   UNL A   1      31.250  25.917  25.190  1.00  0.00     0.219 C 
ATOM      5  H   UNL A   1      32.772  27.174  24.682  1.00  0.00     0.163 HD
BRANCH   4   6
ATOM      6  C   UNL A   1      32.242  24.773  25.181  1.00  0.00     0.100 C 
BRANCH   6   7
ATOM      7  C   UNL A   1      31.934  23.746  26.272  1.00  0.00     0.010 C 
BRANCH   7   8
ATOM      8  C   UNL A   1      31.508  22.349  25.789  1.00  0.00     0.005 C 
BRANCH   8   9
ATOM      9  C   UNL A   1      32.127  21.888  24.462  1.00  0.00     0.038 C 
BRANCH   9  10
ATOM     10  C   UNL A   1      33.410  21.144  24.643  1.00  0.00    -0.023 A 
ATOM     11  C   UNL A   1      33.530  19.790  24.892  1.00  0.00     0.087 A 
ATOM     12  C   UNL A   1      34.738  21.680  24.611  1.00  0.00     0.003 A 
ATOM     13  N   UNL A   1      34.856  19.498  25.052  1.00  0.00    -0.361 N 
ATOM     14  C   UNL A   1      35.616  20.634  24.901  1.00  0.00     0.046 A 
ATOM     15  C   UNL A   1      35.282  22.960  24.376  1.00  0.00     0.010 A 
ATOM     16  H   UNL A   1      35.215  18.603  25.248  1.00  0.00     0.166 HD
ATOM     17  C   UNL A   1      37.001  20.807  24.994  1.00  0.00     0.026 A 
ATOM     18  C   UNL A   1      36.667  23.150  24.456  1.00  0.00     0.001 A 
ATOM     19  C   UNL A   1      37.511  22.088  24.768  1.00  0.00     0.002 A 
ENDBRANCH   9  10
ENDBRANCH   8   9
ENDBRANCH   7   8
ENDBRANCH   6   7
ENDBRANCH   4   6
ENDBRANCH   1   2
BRANCH   1  20
ATOM     20  C   UNL A   1      31.834  29.589  24.718  1.00  0.00     0.042 C 
BRANCH  20  21
ATOM     21  C   UNL A   1      32.310  29.948  26.123  1.00  0.00     0.118 C 
BRANCH  21  22
ATOM     22  N   UNL A   1      32.169  31.359  26.444  1.00  0.00    -0.352 N 
ATOM     23  C   UNL A   1      32.950  32.161  27.242  1.00  0.00     0.251 C 
ATOM     24  H   UNL A   1      31.398  31.808  26.027  1.00  0.00     0.163 HD
ATOM     25  O   UNL A   1      32.581  33.311  27.478  1.00  0.00    -0.269 OA
BRANCH  23  26
ATOM     26  C   UNL A   1      34.209  31.653  27.841  1.00  0.00     0.039 A 
ATOM     27  C   UNL A   1      35.249  32.557  28.070  1.00  0.00     0.014 A 
ATOM     28  C   UNL A   1      34.384  30.303  28.158  1.00  0.00     0.014 A 
ATOM     29  C   UNL A   1      36.435  32.120  28.666  1.00  0.00     0.010 A 
ATOM     30  C   UNL A   1      35.537  29.885  28.825  1.00  0.00     0.010 A 
ATOM     31  C   UNL A   1      36.581  30.786  29.081  1.00  0.00    -0.014 A 
BRANCH  31  32
ATOM     32  C   UNL A   1      37.808  30.346  29.801  1.00  0.00     0.031 A 
ATOM     33  C   UNL A   1      38.105  30.822  31.200  1.00  0.00     0.074 A 
ATOM     34  C   UNL A   1      38.691  29.543  29.173  1.00  0.00     0.049 A 
ATOM     35  N   UNL A   1      39.102  30.502  31.984  1.00  0.00    -0.248 NA
ATOM     36  C   UNL A   1      37.178  31.802  31.786  1.00  0.00     0.031 C 
ATOM     37  C   UNL A   1      38.578  29.086  27.785  1.00  0.00     0.029 A 
ATOM     38  N   UNL A   1      39.863  28.979  29.611  1.00  0.00    -0.354 N 
ATOM     39  C   UNL A   1      38.940  31.256  33.141  1.00  0.00     0.074 A 
ATOM     40  C   UNL A   1      37.768  32.081  32.940  1.00  0.00     0.031 C 
ATOM     41  C   UNL A   1      39.624  28.295  27.494  1.00  0.00     0.029 A 
ATOM     42  C   UNL A   1      40.494  28.206  28.662  1.00  0.00     0.049 A 
ATOM     43  H   UNL A   1      40.220  29.113  30.519  1.00  0.00     0.167 HD
ATOM     44  C   UNL A   1      39.675  31.242  34.279  1.00  0.00     0.034 A 
ATOM     45  C   UNL A   1      41.641  27.500  28.725  1.00  0.00     0.034 A 
ATOM     46  C   UNL A   1      40.820  30.397  34.493  1.00  0.00     0.049 A 
ATOM     47  C   UNL A   1      42.405  27.455  30.019  1.00  0.00     0.074 A 
ATOM     48  C   UNL A   1      41.578  30.247  35.642  1.00  0.00     0.029 A 
ATOM     49  N   UNL A   1      41.382  29.565  33.537  1.00  0.00    -0.354 N 
ATOM     50  N   UNL A   1      42.135  28.042  31.159  1.00  0.00    -0.248 NA
ATOM     51  C   UNL A   1      43.609  26.613  30.048  1.00  0.00     0.031 C 
ATOM     52  C   UNL A   1      42.614  29.346  35.371  1.00  0.00     0.029 A 
ATOM     53  C   UNL A   1      42.481  28.906  34.065  1.00  0.00     0.049 A 
ATOM     54  H   UNL A   1      41.049  29.458  32.616  1.00  0.00     0.167 HD
ATOM     55  C   UNL A   1      43.112  27.613  32.050  1.00  0.00     0.074 A 
ATOM     56  C   UNL A   1      43.962  26.694  31.323  1.00  0.00     0.031 C 
ATOM     57  C   UNL A   1      43.297  27.959  33.349  1.00  0.00     0.034 A 
BRANCH  44  58
ATOM     58  C   UNL A   1      39.232  32.135  35.411  1.00  0.00     0.023 A 
ATOM     59  C   UNL A   1      38.327  31.640  36.375  1.00  0.00     0.012 A 
ATOM     60  C   UNL A   1      39.754  33.435  35.561  1.00  0.00     0.148 A 
ATOM     61  C   UNL A   1      37.921  32.435  37.446  1.00  0.00     0.002 A 
ATOM     62  C   UNL A   1      39.381  34.204  36.658  1.00  0.00     0.091 A 
ATOM     63  F   UNL A   1      40.598  33.898  34.629  1.00  0.00    -0.205 F 
ATOM     64  C   UNL A   1      38.456  33.711  37.593  1.00  0.00     0.022 A 
BRANCH  62  65
ATOM     65  S   UNL A   1      40.074  35.829  36.986  1.00  0.00     0.127 S 
ATOM     66  O   UNL A   1      39.682  36.565  35.785  1.00  0.00    -0.237 OA
ATOM     67  O   UNL A   1      39.365  36.226  38.202  1.00  0.00    -0.237 OA
ATOM     68  O   UNL A   1      41.506  35.629  37.155  1.00  0.00    -0.744 OA
ENDBRANCH  62  65
ENDBRANCH  44  58
BRANCH  45  69
ATOM     69  C   UNL A   1      42.093  26.711  27.543  1.00  0.00     0.023 A 
ATOM     70  C   UNL A   1      42.806  27.353  26.511  1.00  0.00     0.012 A 
ATOM     71  C   UNL A   1      41.839  25.330  27.446  1.00  0.00     0.148 A 
ATOM     72  C   UNL A   1      43.224  26.641  25.387  1.00  0.00     0.002 A 
ATOM     73  C   UNL A   1      42.310  24.615  26.351  1.00  0.00     0.091 A 
ATOM     74  F   UNL A   1      41.150  24.740  28.433  1.00  0.00    -0.205 F 
ATOM     75  C   UNL A   1      42.985  25.272  25.311  1.00  0.00     0.022 A 
BRANCH  73  76
ATOM     76  S   UNL A   1      42.166  22.829  26.236  1.00  0.00     0.127 S 
ATOM     77  O   UNL A   1      42.879  22.395  27.436  1.00  0.00    -0.237 OA
ATOM     78  O   UNL A   1      40.715  22.640  26.280  1.00  0.00    -0.237 OA
ATOM     79  O   UNL A   1      42.781  22.466  24.969  1.00  0.00    -0.744 OA
ENDBRANCH  73  76
ENDBRANCH  45  69
BRANCH  57  80
ATOM     80  C   UNL A   1      44.444  27.313  34.083  1.00  0.00     0.023 A 
ATOM     81  C   UNL A   1      45.727  27.896  34.040  1.00  0.00     0.012 A 
ATOM     82  C   UNL A   1      44.243  26.147  34.848  1.00  0.00     0.148 A 
ATOM     83  C   UNL A   1      46.800  27.300  34.703  1.00  0.00     0.002 A 
ATOM     84  C   UNL A   1      45.305  25.590  35.551  1.00  0.00     0.091 A 
ATOM     85  F   UNL A   1      43.021  25.594  34.864  1.00  0.00    -0.205 F 
ATOM     86  C   UNL A   1      46.587  26.155  35.466  1.00  0.00     0.022 A 
BRANCH  84  87
ATOM     87  S   UNL A   1      45.098  24.172  36.634  1.00  0.00     0.127 S 
ATOM     88  O   UNL A   1      44.204  24.707  37.659  1.00  0.00    -0.237 OA
ATOM     89  O   UNL A   1      44.485  23.186  35.744  1.00  0.00    -0.237 OA
ATOM     90  O   UNL A   1      46.437  23.821  37.088  1.00  0.00    -0.744 OA
ENDBRANCH  84  87
ENDBRANCH  57  80
ENDBRANCH  31  32
ENDBRANCH  23  26
ENDBRANCH  21  22
ENDBRANCH  20  21
ENDBRANCH   1  20
TORSDOF 17
ENDMDL
