MODEL 1
REMARK VINA RESULT:     -11.2      0.000      0.000
REMARK SMILES CC(C)c1cc(C(=O)NCCCNC(=O)c2ccc(-c3c4nc(c(-c5cccc(S(=O)(=O)[O-])c5F)c5ccc([nH]5)c(-c5cccc(S(=O)(=O)[O-])c5F)c5nc(c(-c6cccc(S(=O)(=O)[O-])c6F)c6ccc3[nH]6)C=C5)C=C4)cc2)ccc1[N+](=O)[O-]
REMARK SMILES IDX 12 1 11 2 10 3 9 4 7 5 8 6 6 8 4 9 5 10 81 11 80 12 79 13
REMARK SMILES IDX 2 14 1 15 3 16 82 17 83 18 84 19 13 20 14 21 15 23 16 24
REMARK SMILES IDX 17 25 78 26 18 27 77 28 19 29 20 30 21 31 71 32 22 33 76 34
REMARK SMILES IDX 70 35 72 36 23 37 75 38 69 39 68 40 24 42 56 43 36 44 55 45
REMARK SMILES IDX 37 46 40 47 54 48 73 49 38 50 39 51 53 53 74 54 41 55 25 56
REMARK SMILES IDX 26 57 34 58 27 59 29 60 35 61 28 62 30 63 31 64 32 65 33 66
REMARK SMILES IDX 57 67 58 68 66 69 59 70 61 71 67 72 60 73 62 74 63 75 64 76
REMARK SMILES IDX 65 77 42 78 43 79 51 80 44 81 46 82 52 83 45 84 47 85 48 86
REMARK SMILES IDX 49 87 50 88
REMARK H PARENT 9 7 13 22 72 41 40 52
REMARK Flexibility Score: inf
ROOT
ATOM      1  C   UNL A   1      38.731  19.750  26.053  1.00  0.00     0.118 C 
ENDROOT
BRANCH   1   2
ATOM      2  C   UNL A   1      38.037  19.776  24.702  1.00  0.00     0.042 C 
BRANCH   2   3
ATOM      3  C   UNL A   1      37.318  21.073  24.375  1.00  0.00     0.118 C 
BRANCH   3   4
ATOM      4  N   UNL A   1      37.898  22.252  25.002  1.00  0.00    -0.352 N 
ATOM      5  C   UNL A   1      37.352  23.283  25.728  1.00  0.00     0.251 C 
ATOM      6  O   UNL A   1      38.099  24.179  26.122  1.00  0.00    -0.269 OA
ATOM      7  H   UNL A   1      38.873  22.326  24.882  1.00  0.00     0.163 HD
BRANCH   5   8
ATOM      8  C   UNL A   1      35.895  23.385  26.016  1.00  0.00     0.040 A 
ATOM      9  C   UNL A   1      33.777  24.597  25.591  1.00  0.00     0.033 A 
ATOM     10  C   UNL A   1      35.177  24.445  25.431  1.00  0.00     0.025 A 
ATOM     11  C   UNL A   1      33.099  23.559  26.281  1.00  0.00     0.272 A 
ATOM     12  C   UNL A   1      33.834  22.561  26.951  1.00  0.00     0.087 A 
ATOM     13  C   UNL A   1      35.224  22.525  26.874  1.00  0.00     0.021 A 
BRANCH   9  14
ATOM     14  C   UNL A   1      33.104  25.888  25.122  1.00  0.00     0.020 C 
ATOM     15  C   UNL A   1      33.413  27.008  26.132  1.00  0.00     0.013 C 
ATOM     16  C   UNL A   1      33.493  26.398  23.725  1.00  0.00     0.013 C 
ENDBRANCH   9  14
BRANCH  11  17
ATOM     17  N   UNL A   1      31.622  23.429  26.350  1.00  0.00     0.063 N 
ATOM     18  O   UNL A   1      31.040  24.058  27.247  1.00  0.00    -0.258 OA
ATOM     19  O   UNL A   1      31.034  22.717  25.530  1.00  0.00    -0.258 OA
ENDBRANCH  11  17
ENDBRANCH   5   8
ENDBRANCH   3   4
ENDBRANCH   2   3
ENDBRANCH   1   2
BRANCH   1  20
ATOM     20  N   UNL A   1      39.968  18.980  26.045  1.00  0.00    -0.352 N 
ATOM     21  C   UNL A   1      41.284  19.373  26.111  1.00  0.00     0.251 C 
ATOM     22  H   UNL A   1      39.839  18.005  25.983  1.00  0.00     0.163 HD
ATOM     23  O   UNL A   1      42.163  18.542  25.898  1.00  0.00    -0.269 OA
BRANCH  21  24
ATOM     24  C   UNL A   1      41.654  20.776  26.415  1.00  0.00     0.039 A 
ATOM     25  C   UNL A   1      42.260  21.068  27.640  1.00  0.00     0.014 A 
ATOM     26  C   UNL A   1      41.375  21.811  25.523  1.00  0.00     0.014 A 
ATOM     27  C   UNL A   1      42.642  22.380  27.935  1.00  0.00     0.010 A 
ATOM     28  C   UNL A   1      41.861  23.092  25.765  1.00  0.00     0.010 A 
ATOM     29  C   UNL A   1      42.481  23.399  26.983  1.00  0.00    -0.014 A 
BRANCH  29  30
ATOM     30  C   UNL A   1      42.932  24.792  27.245  1.00  0.00     0.031 A 
ATOM     31  C   UNL A   1      42.001  25.780  27.902  1.00  0.00     0.074 A 
ATOM     32  C   UNL A   1      44.145  25.193  26.815  1.00  0.00     0.049 A 
ATOM     33  N   UNL A   1      42.192  27.050  28.157  1.00  0.00    -0.248 NA
ATOM     34  C   UNL A   1      40.668  25.290  28.293  1.00  0.00     0.031 C 
ATOM     35  C   UNL A   1      45.105  24.359  26.089  1.00  0.00     0.029 A 
ATOM     36  N   UNL A   1      44.769  26.413  26.906  1.00  0.00    -0.354 N 
ATOM     37  C   UNL A   1      40.997  27.514  28.694  1.00  0.00     0.074 A 
ATOM     38  C   UNL A   1      40.072  26.404  28.689  1.00  0.00     0.031 C 
ATOM     39  C   UNL A   1      46.200  25.086  25.813  1.00  0.00     0.029 A 
ATOM     40  C   UNL A   1      46.009  26.444  26.310  1.00  0.00     0.049 A 
ATOM     41  H   UNL A   1      44.368  27.191  27.355  1.00  0.00     0.167 HD
ATOM     42  C   UNL A   1      40.703  28.743  29.182  1.00  0.00     0.034 A 
ATOM     43  C   UNL A   1      46.891  27.454  26.175  1.00  0.00     0.034 A 
ATOM     44  C   UNL A   1      41.642  29.831  29.233  1.00  0.00     0.049 A 
ATOM     45  C   UNL A   1      46.560  28.795  26.771  1.00  0.00     0.074 A 
ATOM     46  C   UNL A   1      41.474  31.085  29.792  1.00  0.00     0.029 A 
ATOM     47  N   UNL A   1      42.921  29.797  28.702  1.00  0.00    -0.354 N 
ATOM     48  N   UNL A   1      45.482  29.169  27.417  1.00  0.00    -0.248 NA
ATOM     49  C   UNL A   1      47.583  29.845  26.652  1.00  0.00     0.031 C 
ATOM     50  C   UNL A   1      42.644  31.820  29.573  1.00  0.00     0.029 A 
ATOM     51  C   UNL A   1      43.553  31.009  28.910  1.00  0.00     0.049 A 
ATOM     52  H   UNL A   1      43.321  29.022  28.244  1.00  0.00     0.167 HD
ATOM     53  C   UNL A   1      45.714  30.480  27.817  1.00  0.00     0.074 A 
ATOM     54  C   UNL A   1      47.042  30.828  27.358  1.00  0.00     0.031 C 
ATOM     55  C   UNL A   1      44.895  31.324  28.492  1.00  0.00     0.034 A 
BRANCH  42  56
ATOM     56  C   UNL A   1      39.323  28.961  29.750  1.00  0.00     0.023 A 
ATOM     57  C   UNL A   1      39.049  28.590  31.083  1.00  0.00     0.012 A 
ATOM     58  C   UNL A   1      38.313  29.579  28.986  1.00  0.00     0.148 A 
ATOM     59  C   UNL A   1      37.784  28.791  31.633  1.00  0.00     0.002 A 
ATOM     60  C   UNL A   1      37.070  29.821  29.557  1.00  0.00     0.091 A 
ATOM     61  F   UNL A   1      38.583  29.907  27.715  1.00  0.00    -0.205 F 
ATOM     62  C   UNL A   1      36.798  29.417  30.875  1.00  0.00     0.022 A 
BRANCH  60  63
ATOM     63  S   UNL A   1      35.759  30.695  28.694  1.00  0.00     0.127 S 
ATOM     64  O   UNL A   1      34.974  29.587  28.150  1.00  0.00    -0.237 OA
ATOM     65  O   UNL A   1      35.109  31.427  29.781  1.00  0.00    -0.237 OA
ATOM     66  O   UNL A   1      36.419  31.536  27.705  1.00  0.00    -0.744 OA
ENDBRANCH  60  63
ENDBRANCH  42  56
BRANCH  43  67
ATOM     67  C   UNL A   1      48.201  27.216  25.505  1.00  0.00     0.023 A 
ATOM     68  C   UNL A   1      49.295  26.760  26.268  1.00  0.00     0.012 A 
ATOM     69  C   UNL A   1      48.366  27.414  24.122  1.00  0.00     0.148 A 
ATOM     70  C   UNL A   1      50.537  26.542  25.672  1.00  0.00     0.002 A 
ATOM     71  C   UNL A   1      49.590  27.141  23.524  1.00  0.00     0.091 A 
ATOM     72  F   UNL A   1      47.316  27.857  23.416  1.00  0.00    -0.205 F 
ATOM     73  C   UNL A   1      50.682  26.723  24.299  1.00  0.00     0.022 A 
BRANCH  71  74
ATOM     74  S   UNL A   1      49.833  27.217  21.745  1.00  0.00     0.127 S 
ATOM     75  O   UNL A   1      48.792  26.313  21.263  1.00  0.00    -0.237 OA
ATOM     76  O   UNL A   1      49.597  28.634  21.470  1.00  0.00    -0.237 OA
ATOM     77  O   UNL A   1      51.204  26.781  21.518  1.00  0.00    -0.744 OA
ENDBRANCH  71  74
ENDBRANCH  43  67
BRANCH  55  78
ATOM     78  C   UNL A   1      45.425  32.696  28.822  1.00  0.00     0.023 A 
ATOM     79  C   UNL A   1      46.089  32.922  30.043  1.00  0.00     0.012 A 
ATOM     80  C   UNL A   1      45.320  33.746  27.887  1.00  0.00     0.148 A 
ATOM     81  C   UNL A   1      46.606  34.181  30.347  1.00  0.00     0.002 A 
ATOM     82  C   UNL A   1      45.883  34.982  28.174  1.00  0.00     0.091 A 
ATOM     83  F   UNL A   1      44.668  33.516  26.738  1.00  0.00    -0.205 F 
ATOM     84  C   UNL A   1      46.514  35.206  29.409  1.00  0.00     0.022 A 
BRANCH  82  85
ATOM     85  S   UNL A   1      45.901  36.329  26.986  1.00  0.00     0.127 S 
ATOM     86  O   UNL A   1      44.481  36.667  26.899  1.00  0.00    -0.237 OA
ATOM     87  O   UNL A   1      46.725  37.330  27.664  1.00  0.00    -0.237 OA
ATOM     88  O   UNL A   1      46.491  35.784  25.771  1.00  0.00    -0.744 OA
ENDBRANCH  82  85
ENDBRANCH  55  78
ENDBRANCH  29  30
ENDBRANCH  21  24
ENDBRANCH   1  20
TORSDOF 15
ENDMDL
MODEL 2
REMARK VINA RESULT:     -11.2      5.561      8.797
REMARK SMILES CC(C)c1cc(C(=O)NCCCNC(=O)c2ccc(-c3c4nc(c(-c5cccc(S(=O)(=O)[O-])c5F)c5ccc([nH]5)c(-c5cccc(S(=O)(=O)[O-])c5F)c5nc(c(-c6cccc(S(=O)(=O)[O-])c6F)c6ccc3[nH]6)C=C5)C=C4)cc2)ccc1[N+](=O)[O-]
REMARK SMILES IDX 12 1 11 2 10 3 9 4 7 5 8 6 6 8 4 9 5 10 81 11 80 12 79 13
REMARK SMILES IDX 2 14 1 15 3 16 82 17 83 18 84 19 13 20 14 21 15 23 16 24
REMARK SMILES IDX 17 25 78 26 18 27 77 28 19 29 20 30 21 31 71 32 22 33 76 34
REMARK SMILES IDX 70 35 72 36 23 37 75 38 69 39 68 40 24 42 56 43 36 44 55 45
REMARK SMILES IDX 37 46 40 47 54 48 73 49 38 50 39 51 53 53 74 54 41 55 25 56
REMARK SMILES IDX 26 57 34 58 27 59 29 60 35 61 28 62 30 63 31 64 32 65 33 66
REMARK SMILES IDX 57 67 58 68 66 69 59 70 61 71 67 72 60 73 62 74 63 75 64 76
REMARK SMILES IDX 65 77 42 78 43 79 51 80 44 81 46 82 52 83 45 84 47 85 48 86
REMARK SMILES IDX 49 87 50 88
REMARK H PARENT 9 7 13 22 72 41 40 52
REMARK Flexibility Score: inf
ROOT
ATOM      1  C   UNL A   1      32.464  29.431  25.995  1.00  0.00     0.118 C 
ENDROOT
BRANCH   1   2
ATOM      2  C   UNL A   1      33.178  29.096  24.697  1.00  0.00     0.042 C 
BRANCH   2   3
ATOM      3  C   UNL A   1      32.265  28.813  23.517  1.00  0.00     0.118 C 
BRANCH   3   4
ATOM      4  N   UNL A   1      32.893  28.054  22.445  1.00  0.00    -0.352 N 
ATOM      5  C   UNL A   1      33.015  26.707  22.207  1.00  0.00     0.251 C 
ATOM      6  O   UNL A   1      33.636  26.345  21.207  1.00  0.00    -0.269 OA
ATOM      7  H   UNL A   1      33.314  28.618  21.756  1.00  0.00     0.163 HD
BRANCH   5   8
ATOM      8  C   UNL A   1      32.469  25.672  23.127  1.00  0.00     0.040 A 
ATOM      9  C   UNL A   1      32.958  23.986  24.875  1.00  0.00     0.033 A 
ATOM     10  C   UNL A   1      33.377  24.948  23.923  1.00  0.00     0.025 A 
ATOM     11  C   UNL A   1      31.559  23.859  25.077  1.00  0.00     0.272 A 
ATOM     12  C   UNL A   1      30.659  24.505  24.207  1.00  0.00     0.087 A 
ATOM     13  C   UNL A   1      31.122  25.345  23.196  1.00  0.00     0.021 A 
BRANCH   9  14
ATOM     14  C   UNL A   1      33.998  23.081  25.536  1.00  0.00     0.020 C 
ATOM     15  C   UNL A   1      34.228  21.847  24.643  1.00  0.00     0.013 C 
ATOM     16  C   UNL A   1      35.371  23.711  25.826  1.00  0.00     0.013 C 
ENDBRANCH   9  14
BRANCH  11  17
ATOM     17  N   UNL A   1      30.943  23.077  26.178  1.00  0.00     0.063 N 
ATOM     18  O   UNL A   1      30.738  23.671  27.248  1.00  0.00    -0.258 OA
ATOM     19  O   UNL A   1      30.660  21.889  25.998  1.00  0.00    -0.258 OA
ENDBRANCH  11  17
ENDBRANCH   5   8
ENDBRANCH   3   4
ENDBRANCH   2   3
ENDBRANCH   1   2
BRANCH   1  20
ATOM     20  N   UNL A   1      32.377  30.864  26.247  1.00  0.00    -0.352 N 
ATOM     21  C   UNL A   1      33.113  31.690  27.062  1.00  0.00     0.251 C 
ATOM     22  H   UNL A   1      31.665  31.322  25.742  1.00  0.00     0.163 HD
ATOM     23  O   UNL A   1      32.725  32.840  27.247  1.00  0.00    -0.269 OA
BRANCH  21  24
ATOM     24  C   UNL A   1      34.346  31.211  27.731  1.00  0.00     0.039 A 
ATOM     25  C   UNL A   1      35.390  32.113  27.957  1.00  0.00     0.014 A 
ATOM     26  C   UNL A   1      34.501  29.875  28.103  1.00  0.00     0.014 A 
ATOM     27  C   UNL A   1      36.551  31.689  28.612  1.00  0.00     0.010 A 
ATOM     28  C   UNL A   1      35.602  29.482  28.856  1.00  0.00     0.010 A 
ATOM     29  C   UNL A   1      36.651  30.377  29.102  1.00  0.00    -0.014 A 
BRANCH  29  30
ATOM     30  C   UNL A   1      37.848  29.914  29.854  1.00  0.00     0.031 A 
ATOM     31  C   UNL A   1      38.111  30.423  31.250  1.00  0.00     0.074 A 
ATOM     32  C   UNL A   1      38.743  29.105  29.253  1.00  0.00     0.049 A 
ATOM     33  N   UNL A   1      39.129  30.182  32.037  1.00  0.00    -0.248 NA
ATOM     34  C   UNL A   1      37.122  31.351  31.824  1.00  0.00     0.031 C 
ATOM     35  C   UNL A   1      38.650  28.613  27.877  1.00  0.00     0.029 A 
ATOM     36  N   UNL A   1      39.922  28.573  29.715  1.00  0.00    -0.354 N 
ATOM     37  C   UNL A   1      38.923  30.957  33.173  1.00  0.00     0.074 A 
ATOM     38  C   UNL A   1      37.708  31.709  32.957  1.00  0.00     0.031 C 
ATOM     39  C   UNL A   1      39.716  27.842  27.611  1.00  0.00     0.029 A 
ATOM     40  C   UNL A   1      40.586  27.810  28.782  1.00  0.00     0.049 A 
ATOM     41  H   UNL A   1      40.259  28.723  30.627  1.00  0.00     0.167 HD
ATOM     42  C   UNL A   1      39.657  31.012  34.310  1.00  0.00     0.034 A 
ATOM     43  C   UNL A   1      41.765  27.161  28.859  1.00  0.00     0.034 A 
ATOM     44  C   UNL A   1      40.836  30.225  34.543  1.00  0.00     0.049 A 
ATOM     45  C   UNL A   1      42.534  27.199  30.151  1.00  0.00     0.074 A 
ATOM     46  C   UNL A   1      41.598  30.137  35.695  1.00  0.00     0.029 A 
ATOM     47  N   UNL A   1      41.428  29.392  33.607  1.00  0.00    -0.354 N 
ATOM     48  N   UNL A   1      42.238  27.814  31.271  1.00  0.00    -0.248 NA
ATOM     49  C   UNL A   1      43.781  26.423  30.204  1.00  0.00     0.031 C 
ATOM     50  C   UNL A   1      42.669  29.272  35.444  1.00  0.00     0.029 A 
ATOM     51  C   UNL A   1      42.551  28.793  34.149  1.00  0.00     0.049 A 
ATOM     52  H   UNL A   1      41.097  29.247  32.691  1.00  0.00     0.167 HD
ATOM     53  C   UNL A   1      43.239  27.466  32.171  1.00  0.00     0.074 A 
ATOM     54  C   UNL A   1      44.137  26.570  31.472  1.00  0.00     0.031 C 
ATOM     55  C   UNL A   1      43.407  27.863  33.457  1.00  0.00     0.034 A 
BRANCH  42  56
ATOM     56  C   UNL A   1      39.173  31.921  35.413  1.00  0.00     0.023 A 
ATOM     57  C   UNL A   1      38.215  31.451  36.336  1.00  0.00     0.012 A 
ATOM     58  C   UNL A   1      39.702  33.218  35.569  1.00  0.00     0.148 A 
ATOM     59  C   UNL A   1      37.761  32.269  37.370  1.00  0.00     0.002 A 
ATOM     60  C   UNL A   1      39.281  34.009  36.631  1.00  0.00     0.091 A 
ATOM     61  F   UNL A   1      40.596  33.656  34.672  1.00  0.00    -0.205 F 
ATOM     62  C   UNL A   1      38.302  33.543  37.524  1.00  0.00     0.022 A 
BRANCH  60  63
ATOM     63  S   UNL A   1      39.975  35.631  36.968  1.00  0.00     0.127 S 
ATOM     64  O   UNL A   1      39.288  35.995  38.206  1.00  0.00    -0.237 OA
ATOM     65  O   UNL A   1      41.397  35.331  37.125  1.00  0.00    -0.237 OA
ATOM     66  O   UNL A   1      39.652  36.455  35.810  1.00  0.00    -0.744 OA
ENDBRANCH  60  63
ENDBRANCH  42  56
BRANCH  43  67
ATOM     67  C   UNL A   1      42.254  26.364  27.699  1.00  0.00     0.023 A 
ATOM     68  C   UNL A   1      43.136  26.957  26.773  1.00  0.00     0.012 A 
ATOM     69  C   UNL A   1      41.873  25.022  27.518  1.00  0.00     0.148 A 
ATOM     70  C   UNL A   1      43.599  26.241  25.670  1.00  0.00     0.002 A 
ATOM     71  C   UNL A   1      42.383  24.295  26.448  1.00  0.00     0.091 A 
ATOM     72  F   UNL A   1      41.027  24.478  28.404  1.00  0.00    -0.205 F 
ATOM     73  C   UNL A   1      43.230  24.907  25.512  1.00  0.00     0.022 A 
BRANCH  71  74
ATOM     74  S   UNL A   1      42.071  22.538  26.239  1.00  0.00     0.127 S 
ATOM     75  O   UNL A   1      42.654  21.984  27.459  1.00  0.00    -0.237 OA
ATOM     76  O   UNL A   1      40.610  22.497  26.180  1.00  0.00    -0.237 OA
ATOM     77  O   UNL A   1      42.733  22.167  24.996  1.00  0.00    -0.744 OA
ENDBRANCH  71  74
ENDBRANCH  43  67
BRANCH  55  78
ATOM     78  C   UNL A   1      44.579  27.297  34.215  1.00  0.00     0.023 A 
ATOM     79  C   UNL A   1      45.810  27.983  34.227  1.00  0.00     0.012 A 
ATOM     80  C   UNL A   1      44.439  26.115  34.970  1.00  0.00     0.148 A 
ATOM     81  C   UNL A   1      46.894  27.481  34.946  1.00  0.00     0.002 A 
ATOM     82  C   UNL A   1      45.507  25.650  35.726  1.00  0.00     0.091 A 
ATOM     83  F   UNL A   1      43.266  25.467  34.931  1.00  0.00    -0.205 F 
ATOM     84  C   UNL A   1      46.740  26.323  35.703  1.00  0.00     0.022 A 
BRANCH  82  85
ATOM     85  S   UNL A   1      45.369  24.224  36.810  1.00  0.00     0.127 S 
ATOM     86  O   UNL A   1      46.736  24.096  37.310  1.00  0.00    -0.237 OA
ATOM     87  O   UNL A   1      44.396  24.683  37.802  1.00  0.00    -0.237 OA
ATOM     88  O   UNL A   1      44.903  23.127  35.972  1.00  0.00    -0.744 OA
ENDBRANCH  82  85
ENDBRANCH  55  78
ENDBRANCH  29  30
ENDBRANCH  21  24
ENDBRANCH   1  20
TORSDOF 15
ENDMDL
MODEL 3
REMARK VINA RESULT:     -11.1      6.490     11.818
REMARK SMILES CC(C)c1cc(C(=O)NCCCNC(=O)c2ccc(-c3c4nc(c(-c5cccc(S(=O)(=O)[O-])c5F)c5ccc([nH]5)c(-c5cccc(S(=O)(=O)[O-])c5F)c5nc(c(-c6cccc(S(=O)(=O)[O-])c6F)c6ccc3[nH]6)C=C5)C=C4)cc2)ccc1[N+](=O)[O-]
REMARK SMILES IDX 12 1 11 2 10 3 9 4 7 5 8 6 6 8 4 9 5 10 81 11 80 12 79 13
REMARK SMILES IDX 2 14 1 15 3 16 82 17 83 18 84 19 13 20 14 21 15 23 16 24
REMARK SMILES IDX 17 25 78 26 18 27 77 28 19 29 20 30 21 31 71 32 22 33 76 34
REMARK SMILES IDX 70 35 72 36 23 37 75 38 69 39 68 40 24 42 56 43 36 44 55 45
REMARK SMILES IDX 37 46 40 47 54 48 73 49 38 50 39 51 53 53 74 54 41 55 25 56
REMARK SMILES IDX 26 57 34 58 27 59 29 60 35 61 28 62 30 63 31 64 32 65 33 66
REMARK SMILES IDX 57 67 58 68 66 69 59 70 61 71 67 72 60 73 62 74 63 75 64 76
REMARK SMILES IDX 65 77 42 78 43 79 51 80 44 81 46 82 52 83 45 84 47 85 48 86
REMARK SMILES IDX 49 87 50 88
REMARK H PARENT 9 7 13 22 72 41 40 52
REMARK Flexibility Score: inf
ROOT
ATOM      1  C   UNL A   1      32.657  32.848  26.877  1.00  0.00     0.118 C 
ENDROOT
BRANCH   1   2
ATOM      2  C   UNL A   1      31.408  31.983  26.873  1.00  0.00     0.042 C 
BRANCH   2   3
ATOM      3  C   UNL A   1      31.663  30.488  26.800  1.00  0.00     0.118 C 
BRANCH   3   4
ATOM      4  N   UNL A   1      32.944  30.073  27.354  1.00  0.00    -0.352 N 
ATOM      5  C   UNL A   1      33.905  29.193  26.918  1.00  0.00     0.251 C 
ATOM      6  O   UNL A   1      34.900  29.019  27.623  1.00  0.00    -0.269 OA
ATOM      7  H   UNL A   1      33.166  30.508  28.209  1.00  0.00     0.163 HD
BRANCH   5   8
ATOM      8  C   UNL A   1      33.771  28.410  25.659  1.00  0.00     0.040 A 
ATOM      9  C   UNL A   1      33.599  26.169  24.619  1.00  0.00     0.033 A 
ATOM     10  C   UNL A   1      33.782  27.005  25.748  1.00  0.00     0.025 A 
ATOM     11  C   UNL A   1      33.288  26.813  23.393  1.00  0.00     0.272 A 
ATOM     12  C   UNL A   1      33.383  28.215  23.290  1.00  0.00     0.087 A 
ATOM     13  C   UNL A   1      33.695  28.993  24.402  1.00  0.00     0.021 A 
BRANCH   9  14
ATOM     14  C   UNL A   1      33.850  24.665  24.750  1.00  0.00     0.020 C 
ATOM     15  C   UNL A   1      35.133  24.442  25.571  1.00  0.00     0.013 C 
ATOM     16  C   UNL A   1      32.728  23.837  25.399  1.00  0.00     0.013 C 
ENDBRANCH   9  14
BRANCH  11  17
ATOM     17  N   UNL A   1      32.845  26.103  22.167  1.00  0.00     0.063 N 
ATOM     18  O   UNL A   1      31.659  25.743  22.119  1.00  0.00    -0.258 OA
ATOM     19  O   UNL A   1      33.652  25.901  21.255  1.00  0.00    -0.258 OA
ENDBRANCH  11  17
ENDBRANCH   5   8
ENDBRANCH   3   4
ENDBRANCH   2   3
ENDBRANCH   1   2
BRANCH   1  20
ATOM     20  N   UNL A   1      32.473  34.114  27.575  1.00  0.00    -0.352 N 
ATOM     21  C   UNL A   1      33.060  34.619  28.711  1.00  0.00     0.251 C 
ATOM     22  H   UNL A   1      31.813  34.715  27.158  1.00  0.00     0.163 HD
ATOM     23  O   UNL A   1      32.600  35.642  29.212  1.00  0.00    -0.269 OA
BRANCH  21  24
ATOM     24  C   UNL A   1      34.217  33.943  29.345  1.00  0.00     0.039 A 
ATOM     25  C   UNL A   1      35.507  34.410  29.077  1.00  0.00     0.014 A 
ATOM     26  C   UNL A   1      34.047  32.831  30.170  1.00  0.00     0.014 A 
ATOM     27  C   UNL A   1      36.610  33.805  29.687  1.00  0.00     0.010 A 
ATOM     28  C   UNL A   1      35.130  32.306  30.867  1.00  0.00     0.010 A 
ATOM     29  C   UNL A   1      36.429  32.771  30.618  1.00  0.00    -0.014 A 
BRANCH  29  30
ATOM     30  C   UNL A   1      37.578  32.147  31.327  1.00  0.00     0.031 A 
ATOM     31  C   UNL A   1      38.354  31.028  30.678  1.00  0.00     0.074 A 
ATOM     32  C   UNL A   1      37.871  32.526  32.587  1.00  0.00     0.049 A 
ATOM     33  N   UNL A   1      39.344  30.323  31.161  1.00  0.00    -0.248 NA
ATOM     34  C   UNL A   1      37.943  30.624  29.322  1.00  0.00     0.031 C 
ATOM     35  C   UNL A   1      37.142  33.535  33.359  1.00  0.00     0.029 A 
ATOM     36  N   UNL A   1      38.846  32.090  33.451  1.00  0.00    -0.354 N 
ATOM     37  C   UNL A   1      39.642  29.371  30.193  1.00  0.00     0.074 A 
ATOM     38  C   UNL A   1      38.701  29.559  29.112  1.00  0.00     0.031 C 
ATOM     39  C   UNL A   1      37.703  33.650  34.574  1.00  0.00     0.029 A 
ATOM     40  C   UNL A   1      38.807  32.703  34.682  1.00  0.00     0.049 A 
ATOM     41  H   UNL A   1      39.509  31.404  33.211  1.00  0.00     0.167 HD
ATOM     42  C   UNL A   1      40.631  28.446  30.184  1.00  0.00     0.034 A 
ATOM     43  C   UNL A   1      39.571  32.518  35.777  1.00  0.00     0.034 A 
ATOM     44  C   UNL A   1      41.598  28.295  31.237  1.00  0.00     0.049 A 
ATOM     45  C   UNL A   1      40.694  31.520  35.721  1.00  0.00     0.074 A 
ATOM     46  C   UNL A   1      42.695  27.453  31.283  1.00  0.00     0.029 A 
ATOM     47  N   UNL A   1      41.582  28.998  32.431  1.00  0.00    -0.354 N 
ATOM     48  N   UNL A   1      41.058  30.739  34.732  1.00  0.00    -0.248 NA
ATOM     49  C   UNL A   1      41.538  31.403  36.919  1.00  0.00     0.031 C 
ATOM     50  C   UNL A   1      43.327  27.627  32.519  1.00  0.00     0.029 A 
ATOM     51  C   UNL A   1      42.643  28.604  33.226  1.00  0.00     0.049 A 
ATOM     52  H   UNL A   1      40.914  29.678  32.676  1.00  0.00     0.167 HD
ATOM     53  C   UNL A   1      42.194  30.070  35.174  1.00  0.00     0.074 A 
ATOM     54  C   UNL A   1      42.471  30.554  36.511  1.00  0.00     0.031 C 
ATOM     55  C   UNL A   1      42.935  29.131  34.535  1.00  0.00     0.034 A 
BRANCH  42  56
ATOM     56  C   UNL A   1      40.751  27.558  28.970  1.00  0.00     0.023 A 
ATOM     57  C   UNL A   1      39.890  26.449  28.828  1.00  0.00     0.012 A 
ATOM     58  C   UNL A   1      41.675  27.847  27.947  1.00  0.00     0.148 A 
ATOM     59  C   UNL A   1      39.974  25.620  27.711  1.00  0.00     0.002 A 
ATOM     60  C   UNL A   1      41.720  27.045  26.813  1.00  0.00     0.091 A 
ATOM     61  F   UNL A   1      42.500  28.892  28.107  1.00  0.00    -0.205 F 
ATOM     62  C   UNL A   1      40.880  25.924  26.698  1.00  0.00     0.022 A 
BRANCH  60  63
ATOM     63  S   UNL A   1      42.792  27.398  25.416  1.00  0.00     0.127 S 
ATOM     64  O   UNL A   1      42.660  26.175  24.626  1.00  0.00    -0.237 OA
ATOM     65  O   UNL A   1      42.154  28.576  24.828  1.00  0.00    -0.237 OA
ATOM     66  O   UNL A   1      44.115  27.639  25.975  1.00  0.00    -0.744 OA
ENDBRANCH  60  63
ENDBRANCH  42  56
BRANCH  43  67
ATOM     67  C   UNL A   1      39.342  33.347  36.994  1.00  0.00     0.023 A 
ATOM     68  C   UNL A   1      39.852  34.660  37.044  1.00  0.00     0.012 A 
ATOM     69  C   UNL A   1      38.606  32.856  38.089  1.00  0.00     0.148 A 
ATOM     70  C   UNL A   1      39.666  35.453  38.176  1.00  0.00     0.002 A 
ATOM     71  C   UNL A   1      38.376  33.671  39.190  1.00  0.00     0.091 A 
ATOM     72  F   UNL A   1      38.136  31.602  38.026  1.00  0.00    -0.205 F 
ATOM     73  C   UNL A   1      38.921  34.963  39.245  1.00  0.00     0.022 A 
BRANCH  71  74
ATOM     74  S   UNL A   1      37.316  33.175  40.553  1.00  0.00     0.127 S 
ATOM     75  O   UNL A   1      37.295  34.385  41.372  1.00  0.00    -0.237 OA
ATOM     76  O   UNL A   1      36.062  32.873  39.865  1.00  0.00    -0.237 OA
ATOM     77  O   UNL A   1      37.966  32.017  41.153  1.00  0.00    -0.744 OA
ENDBRANCH  71  74
ENDBRANCH  43  67
BRANCH  55  78
ATOM     78  C   UNL A   1      44.147  28.593  35.250  1.00  0.00     0.023 A 
ATOM     79  C   UNL A   1      45.419  29.145  34.998  1.00  0.00     0.012 A 
ATOM     80  C   UNL A   1      44.013  27.581  36.221  1.00  0.00     0.148 A 
ATOM     81  C   UNL A   1      46.543  28.672  35.673  1.00  0.00     0.002 A 
ATOM     82  C   UNL A   1      45.129  27.152  36.927  1.00  0.00     0.091 A 
ATOM     83  F   UNL A   1      42.798  27.055  36.433  1.00  0.00    -0.205 F 
ATOM     84  C   UNL A   1      46.398  27.685  36.644  1.00  0.00     0.022 A 
BRANCH  82  85
ATOM     85  S   UNL A   1      45.019  25.958  38.265  1.00  0.00     0.127 S 
ATOM     86  O   UNL A   1      46.415  25.858  38.690  1.00  0.00    -0.237 OA
ATOM     87  O   UNL A   1      44.139  26.638  39.216  1.00  0.00    -0.237 OA
ATOM     88  O   UNL A   1      44.455  24.750  37.679  1.00  0.00    -0.744 OA
ENDBRANCH  82  85
ENDBRANCH  55  78
ENDBRANCH  29  30
ENDBRANCH  21  24
ENDBRANCH   1  20
TORSDOF 15
ENDMDL
