MODEL 1
REMARK VINA RESULT:     -11.6      0.000      0.000
REMARK SMILES C[C@@H](CC1CC1)NC(=O)c1cccn1CC(=O)NCCCNC(=O)c1ccc(-c2c3nc(c(-c4cccc(S(=O)(=O)[O-])c4F)c4ccc([nH]4)c(-c4cccc(S(=O)(=O)[O-])c4F)c4nc(c(-c5cccc(S(=O)(=O)[O-])c5F)c5ccc2[nH]5)C=C4)C=C3)cc1
REMARK SMILES IDX 19 1 18 2 16 3 17 4 15 6 14 7 10 8 11 9 12 10 13 11 8 12
REMARK SMILES IDX 7 13 9 15 2 16 1 17 3 18 4 19 5 20 6 21 20 22 21 23 22 24
REMARK SMILES IDX 23 25 24 27 25 28 26 29 87 30 27 31 86 32 28 33 29 34 30 35
REMARK SMILES IDX 80 36 31 37 85 38 79 39 81 40 32 41 84 42 78 43 77 44 33 46
REMARK SMILES IDX 65 47 45 48 64 49 46 50 49 51 63 52 82 53 47 54 48 55 62 57
REMARK SMILES IDX 83 58 50 59 34 60 35 61 43 62 36 63 38 64 44 65 37 66 39 67
REMARK SMILES IDX 40 68 41 69 42 70 66 71 67 72 75 73 68 74 70 75 76 76 69 77
REMARK SMILES IDX 71 78 72 79 73 80 74 81 51 82 52 83 60 84 53 85 55 86 61 87
REMARK SMILES IDX 54 88 56 89 57 90 58 91 59 92
REMARK H PARENT 18 5 7 14 22 26 81 45 49 56
REMARK Flexibility Score: inf
ROOT
ATOM      1  C   UNL A   1      32.237  28.833  26.288  1.00  0.00     0.117 C 
ENDROOT
BRANCH   1   2
ATOM      2  N   UNL A   1      32.848  29.163  25.017  1.00  0.00    -0.354 N 
ATOM      3  C   UNL A   1      33.025  28.355  23.930  1.00  0.00     0.239 C 
ATOM      4  O   UNL A   1      33.565  28.823  22.925  1.00  0.00    -0.273 OA
ATOM      5  H   UNL A   1      33.176  30.086  24.925  1.00  0.00     0.163 HD
BRANCH   3   6
ATOM      6  C   UNL A   1      32.469  26.944  23.925  1.00  0.00     0.222 C 
BRANCH   6   7
ATOM      7  N   UNL A   1      33.443  25.908  24.260  1.00  0.00    -0.334 N 
ATOM      8  C   UNL A   1      33.765  24.792  23.496  1.00  0.00     0.107 A 
ATOM      9  C   UNL A   1      34.753  24.116  24.203  1.00  0.00     0.033 A 
ATOM     10  C   UNL A   1      35.005  24.812  25.407  1.00  0.00     0.020 A 
ATOM     11  C   UNL A   1      34.195  25.921  25.410  1.00  0.00     0.087 A 
BRANCH   8  12
ATOM     12  C   UNL A   1      33.188  24.492  22.203  1.00  0.00     0.268 C 
ATOM     13  N   UNL A   1      32.245  23.509  22.061  1.00  0.00    -0.348 N 
ATOM     14  H   UNL A   1      31.903  23.412  21.144  1.00  0.00     0.164 HD
ATOM     15  O   UNL A   1      33.463  25.138  21.186  1.00  0.00    -0.268 OA
BRANCH  13  16
ATOM     16  C   UNL A   1      31.649  22.576  23.021  1.00  0.00     0.079 C 
ATOM     17  C   UNL A   1      32.695  21.566  23.499  1.00  0.00     0.031 C 
BRANCH  16  18
ATOM     18  C   UNL A   1      31.020  23.346  24.198  1.00  0.00     0.028 C 
BRANCH  18  19
ATOM     19  C   UNL A   1      31.125  22.616  25.515  1.00  0.00    -0.009 C 
ATOM     20  C   UNL A   1      31.857  23.245  26.670  1.00  0.00     0.004 C 
ATOM     21  C   UNL A   1      30.361  23.113  26.717  1.00  0.00     0.004 C 
ENDBRANCH  18  19
ENDBRANCH  16  18
ENDBRANCH  13  16
ENDBRANCH   8  12
ENDBRANCH   6   7
ENDBRANCH   3   6
ENDBRANCH   1   2
BRANCH   1  22
ATOM     22  C   UNL A   1      33.185  29.100  27.461  1.00  0.00     0.042 C 
BRANCH  22  23
ATOM     23  C   UNL A   1      34.627  29.253  26.994  1.00  0.00     0.118 C 
BRANCH  23  24
ATOM     24  N   UNL A   1      35.143  30.582  27.321  1.00  0.00    -0.352 N 
ATOM     25  C   UNL A   1      36.302  30.951  27.953  1.00  0.00     0.251 C 
ATOM     26  H   UNL A   1      34.566  31.331  27.044  1.00  0.00     0.163 HD
ATOM     27  O   UNL A   1      36.420  32.110  28.347  1.00  0.00    -0.269 OA
BRANCH  25  28
ATOM     28  C   UNL A   1      37.378  29.973  28.194  1.00  0.00     0.039 A 
ATOM     29  C   UNL A   1      38.312  29.750  27.173  1.00  0.00     0.014 A 
ATOM     30  C   UNL A   1      37.457  29.265  29.394  1.00  0.00     0.014 A 
ATOM     31  C   UNL A   1      39.386  28.896  27.397  1.00  0.00     0.010 A 
ATOM     32  C   UNL A   1      38.544  28.445  29.637  1.00  0.00     0.010 A 
ATOM     33  C   UNL A   1      39.520  28.286  28.649  1.00  0.00    -0.014 A 
BRANCH  33  34
ATOM     34  C   UNL A   1      40.774  27.592  29.008  1.00  0.00     0.031 A 
ATOM     35  C   UNL A   1      40.772  26.118  28.524  1.00  0.00     0.074 A 
ATOM     36  C   UNL A   1      41.711  28.371  29.634  1.00  0.00     0.049 A 
ATOM     37  N   UNL A   1      41.427  25.084  28.965  1.00  0.00    -0.248 NA
ATOM     38  C   UNL A   1      39.826  25.711  27.444  1.00  0.00     0.031 C 
ATOM     39  C   UNL A   1      41.522  29.802  29.976  1.00  0.00     0.029 A 
ATOM     40  N   UNL A   1      42.996  28.158  30.089  1.00  0.00    -0.354 N 
ATOM     41  C   UNL A   1      41.178  24.010  28.065  1.00  0.00     0.074 A 
ATOM     42  C   UNL A   1      40.075  24.413  27.252  1.00  0.00     0.031 C 
ATOM     43  C   UNL A   1      42.596  30.293  30.629  1.00  0.00     0.029 A 
ATOM     44  C   UNL A   1      43.601  29.257  30.753  1.00  0.00     0.049 A 
ATOM     45  H   UNL A   1      43.462  27.300  29.960  1.00  0.00     0.167 HD
ATOM     46  C   UNL A   1      42.015  22.934  27.932  1.00  0.00     0.034 A 
ATOM     47  C   UNL A   1      44.814  29.324  31.386  1.00  0.00     0.034 A 
ATOM     48  C   UNL A   1      43.128  23.116  28.803  1.00  0.00     0.049 A 
ATOM     49  C   UNL A   1      45.506  28.075  31.044  1.00  0.00     0.074 A 
ATOM     50  C   UNL A   1      43.289  23.017  30.157  1.00  0.00     0.029 A 
ATOM     51  N   UNL A   1      44.187  23.798  28.253  1.00  0.00    -0.354 N 
ATOM     52  N   UNL A   1      45.990  27.808  29.868  1.00  0.00    -0.248 NA
ATOM     53  C   UNL A   1      45.562  26.995  32.036  1.00  0.00     0.031 C 
ATOM     54  C   UNL A   1      44.223  24.032  30.442  1.00  0.00     0.029 A 
ATOM     55  C   UNL A   1      44.735  24.559  29.249  1.00  0.00     0.049 A 
ATOM     56  H   UNL A   1      44.493  23.749  27.319  1.00  0.00     0.167 HD
ATOM     57  C   UNL A   1      46.037  26.438  29.888  1.00  0.00     0.074 A 
ATOM     58  C   UNL A   1      46.105  26.047  31.279  1.00  0.00     0.031 C 
ATOM     59  C   UNL A   1      45.474  25.738  28.869  1.00  0.00     0.034 A 
BRANCH  46  60
ATOM     60  C   UNL A   1      42.167  21.801  26.933  1.00  0.00     0.023 A 
ATOM     61  C   UNL A   1      41.214  20.745  27.077  1.00  0.00     0.012 A 
ATOM     62  C   UNL A   1      43.288  21.537  26.130  1.00  0.00     0.148 A 
ATOM     63  C   UNL A   1      41.435  19.456  26.598  1.00  0.00     0.002 A 
ATOM     64  C   UNL A   1      43.476  20.253  25.597  1.00  0.00     0.091 A 
ATOM     65  F   UNL A   1      44.206  22.491  25.944  1.00  0.00    -0.205 F 
ATOM     66  C   UNL A   1      42.581  19.206  25.871  1.00  0.00     0.022 A 
BRANCH  64  67
ATOM     67  S   UNL A   1      44.861  19.830  24.532  1.00  0.00     0.127 S 
ATOM     68  O   UNL A   1      44.587  18.432  24.213  1.00  0.00    -0.237 OA
ATOM     69  O   UNL A   1      44.675  20.753  23.408  1.00  0.00    -0.237 OA
ATOM     70  O   UNL A   1      46.054  20.100  25.322  1.00  0.00    -0.744 OA
ENDBRANCH  64  67
ENDBRANCH  46  60
BRANCH  47  71
ATOM     71  C   UNL A   1      45.500  30.247  32.367  1.00  0.00     0.023 A 
ATOM     72  C   UNL A   1      44.975  30.617  33.612  1.00  0.00     0.012 A 
ATOM     73  C   UNL A   1      46.834  30.682  32.106  1.00  0.00     0.148 A 
ATOM     74  C   UNL A   1      45.770  31.266  34.580  1.00  0.00     0.002 A 
ATOM     75  C   UNL A   1      47.657  31.189  33.102  1.00  0.00     0.091 A 
ATOM     76  F   UNL A   1      47.320  30.629  30.860  1.00  0.00    -0.205 F 
ATOM     77  C   UNL A   1      47.124  31.499  34.348  1.00  0.00     0.022 A 
BRANCH  75  78
ATOM     78  S   UNL A   1      49.448  31.278  32.893  1.00  0.00     0.127 S 
ATOM     79  O   UNL A   1      49.900  31.664  34.228  1.00  0.00    -0.237 OA
ATOM     80  O   UNL A   1      49.762  29.901  32.512  1.00  0.00    -0.237 OA
ATOM     81  O   UNL A   1      49.692  32.262  31.848  1.00  0.00    -0.744 OA
ENDBRANCH  75  78
ENDBRANCH  47  71
BRANCH  59  82
ATOM     82  C   UNL A   1      45.419  26.480  27.529  1.00  0.00     0.023 A 
ATOM     83  C   UNL A   1      44.158  26.959  27.117  1.00  0.00     0.012 A 
ATOM     84  C   UNL A   1      46.492  26.638  26.617  1.00  0.00     0.148 A 
ATOM     85  C   UNL A   1      43.960  27.539  25.861  1.00  0.00     0.002 A 
ATOM     86  C   UNL A   1      46.294  27.210  25.354  1.00  0.00     0.091 A 
ATOM     87  F   UNL A   1      47.702  26.218  26.976  1.00  0.00    -0.205 F 
ATOM     88  C   UNL A   1      45.025  27.664  24.979  1.00  0.00     0.022 A 
BRANCH  86  89
ATOM     89  S   UNL A   1      47.590  27.382  24.105  1.00  0.00     0.127 S 
ATOM     90  O   UNL A   1      48.629  28.119  24.829  1.00  0.00    -0.237 OA
ATOM     91  O   UNL A   1      47.934  25.990  23.819  1.00  0.00    -0.237 OA
ATOM     92  O   UNL A   1      47.005  28.117  22.992  1.00  0.00    -0.744 OA
ENDBRANCH  86  89
ENDBRANCH  59  82
ENDBRANCH  33  34
ENDBRANCH  25  28
ENDBRANCH  23  24
ENDBRANCH  22  23
ENDBRANCH   1  22
TORSDOF 18
ENDMDL
MODEL 2
REMARK VINA RESULT:     -11.5      1.843      2.559
REMARK SMILES C[C@@H](CC1CC1)NC(=O)c1cccn1CC(=O)NCCCNC(=O)c1ccc(-c2c3nc(c(-c4cccc(S(=O)(=O)[O-])c4F)c4ccc([nH]4)c(-c4cccc(S(=O)(=O)[O-])c4F)c4nc(c(-c5cccc(S(=O)(=O)[O-])c5F)c5ccc2[nH]5)C=C4)C=C3)cc1
REMARK SMILES IDX 19 1 18 2 16 3 17 4 15 6 14 7 10 8 11 9 12 10 13 11 8 12
REMARK SMILES IDX 7 13 9 15 2 16 1 17 3 18 4 19 5 20 6 21 20 22 21 23 22 24
REMARK SMILES IDX 23 25 24 27 25 28 26 29 87 30 27 31 86 32 28 33 29 34 30 35
REMARK SMILES IDX 80 36 31 37 85 38 79 39 81 40 32 41 84 42 78 43 77 44 33 46
REMARK SMILES IDX 65 47 45 48 64 49 46 50 49 51 63 52 82 53 47 54 48 55 62 57
REMARK SMILES IDX 83 58 50 59 34 60 35 61 43 62 36 63 38 64 44 65 37 66 39 67
REMARK SMILES IDX 40 68 41 69 42 70 66 71 67 72 75 73 68 74 70 75 76 76 69 77
REMARK SMILES IDX 71 78 72 79 73 80 74 81 51 82 52 83 60 84 53 85 55 86 61 87
REMARK SMILES IDX 54 88 56 89 57 90 58 91 59 92
REMARK H PARENT 18 5 7 14 22 26 81 45 49 56
REMARK Flexibility Score: inf
ROOT
ATOM      1  C   UNL A   1      32.479  27.901  26.513  1.00  0.00     0.117 C 
ENDROOT
BRANCH   1   2
ATOM      2  N   UNL A   1      33.023  27.880  25.171  1.00  0.00    -0.354 N 
ATOM      3  C   UNL A   1      33.633  26.843  24.523  1.00  0.00     0.239 C 
ATOM      4  O   UNL A   1      34.027  27.016  23.368  1.00  0.00    -0.273 OA
ATOM      5  H   UNL A   1      32.943  28.718  24.662  1.00  0.00     0.163 HD
BRANCH   3   6
ATOM      6  C   UNL A   1      33.720  25.477  25.176  1.00  0.00     0.222 C 
BRANCH   6   7
ATOM      7  N   UNL A   1      32.844  24.467  24.589  1.00  0.00    -0.334 N 
ATOM      8  C   UNL A   1      32.169  23.458  25.265  1.00  0.00     0.107 A 
ATOM      9  C   UNL A   1      31.446  22.767  24.299  1.00  0.00     0.033 A 
ATOM     10  C   UNL A   1      31.707  23.346  23.037  1.00  0.00     0.020 A 
ATOM     11  C   UNL A   1      32.561  24.401  23.245  1.00  0.00     0.087 A 
BRANCH   8  12
ATOM     12  C   UNL A   1      32.212  23.263  26.699  1.00  0.00     0.268 C 
ATOM     13  N   UNL A   1      33.120  22.412  27.269  1.00  0.00    -0.348 N 
ATOM     14  H   UNL A   1      33.076  22.380  28.251  1.00  0.00     0.164 HD
ATOM     15  O   UNL A   1      31.486  23.892  27.476  1.00  0.00    -0.268 OA
BRANCH  13  16
ATOM     16  C   UNL A   1      34.145  21.541  26.690  1.00  0.00     0.079 C 
ATOM     17  C   UNL A   1      33.510  20.548  25.714  1.00  0.00     0.031 C 
BRANCH  16  18
ATOM     18  C   UNL A   1      35.244  22.383  26.012  1.00  0.00     0.028 C 
BRANCH  18  19
ATOM     19  C   UNL A   1      35.612  21.888  24.634  1.00  0.00    -0.009 C 
ATOM     20  C   UNL A   1      35.872  22.870  23.524  1.00  0.00     0.004 C 
ATOM     21  C   UNL A   1      37.012  22.086  24.109  1.00  0.00     0.004 C 
ENDBRANCH  18  19
ENDBRANCH  16  18
ENDBRANCH  13  16
ENDBRANCH   8  12
ENDBRANCH   6   7
ENDBRANCH   3   6
ENDBRANCH   1   2
BRANCH   1  22
ATOM     22  C   UNL A   1      33.312  28.780  27.450  1.00  0.00     0.042 C 
BRANCH  22  23
ATOM     23  C   UNL A   1      34.720  28.997  26.912  1.00  0.00     0.118 C 
BRANCH  23  24
ATOM     24  N   UNL A   1      35.200  30.341  27.234  1.00  0.00    -0.352 N 
ATOM     25  C   UNL A   1      36.354  30.745  27.852  1.00  0.00     0.251 C 
ATOM     26  H   UNL A   1      34.597  31.072  26.964  1.00  0.00     0.163 HD
ATOM     27  O   UNL A   1      36.442  31.908  28.246  1.00  0.00    -0.269 OA
BRANCH  25  28
ATOM     28  C   UNL A   1      37.462  29.801  28.080  1.00  0.00     0.039 A 
ATOM     29  C   UNL A   1      38.469  29.712  27.109  1.00  0.00     0.014 A 
ATOM     30  C   UNL A   1      37.502  28.993  29.218  1.00  0.00     0.014 A 
ATOM     31  C   UNL A   1      39.569  28.892  27.331  1.00  0.00     0.010 A 
ATOM     32  C   UNL A   1      38.612  28.205  29.462  1.00  0.00     0.010 A 
ATOM     33  C   UNL A   1      39.656  28.180  28.532  1.00  0.00    -0.014 A 
BRANCH  33  34
ATOM     34  C   UNL A   1      40.918  27.515  28.915  1.00  0.00     0.031 A 
ATOM     35  C   UNL A   1      40.939  26.028  28.473  1.00  0.00     0.074 A 
ATOM     36  C   UNL A   1      41.842  28.325  29.520  1.00  0.00     0.049 A 
ATOM     37  N   UNL A   1      41.608  25.017  28.945  1.00  0.00    -0.248 NA
ATOM     38  C   UNL A   1      40.002  25.576  27.402  1.00  0.00     0.031 C 
ATOM     39  C   UNL A   1      41.631  29.763  29.820  1.00  0.00     0.029 A 
ATOM     40  N   UNL A   1      43.129  28.145  29.983  1.00  0.00    -0.354 N 
ATOM     41  C   UNL A   1      41.378  23.914  28.075  1.00  0.00     0.074 A 
ATOM     42  C   UNL A   1      40.271  24.277  27.249  1.00  0.00     0.031 C 
ATOM     43  C   UNL A   1      42.696  30.288  30.462  1.00  0.00     0.029 A 
ATOM     44  C   UNL A   1      43.716  29.271  30.617  1.00  0.00     0.049 A 
ATOM     45  H   UNL A   1      43.608  27.291  29.881  1.00  0.00     0.167 HD
ATOM     46  C   UNL A   1      42.230  22.847  27.975  1.00  0.00     0.034 A 
ATOM     47  C   UNL A   1      44.925  29.373  31.251  1.00  0.00     0.034 A 
ATOM     48  C   UNL A   1      43.338  23.070  28.843  1.00  0.00     0.049 A 
ATOM     49  C   UNL A   1      45.637  28.126  30.947  1.00  0.00     0.074 A 
ATOM     50  C   UNL A   1      43.497  23.012  30.200  1.00  0.00     0.029 A 
ATOM     51  N   UNL A   1      44.388  23.752  28.276  1.00  0.00    -0.354 N 
ATOM     52  N   UNL A   1      46.129  27.832  29.780  1.00  0.00    -0.248 NA
ATOM     53  C   UNL A   1      45.706  27.076  31.969  1.00  0.00     0.031 C 
ATOM     54  C   UNL A   1      44.415  24.049  30.458  1.00  0.00     0.029 A 
ATOM     55  C   UNL A   1      44.923  24.549  29.251  1.00  0.00     0.049 A 
ATOM     56  H   UNL A   1      44.698  23.680  27.345  1.00  0.00     0.167 HD
ATOM     57  C   UNL A   1      46.195  26.464  29.840  1.00  0.00     0.074 A 
ATOM     58  C   UNL A   1      46.265  26.114  31.241  1.00  0.00     0.031 C 
ATOM     59  C   UNL A   1      45.645  25.728  28.839  1.00  0.00     0.034 A 
BRANCH  46  60
ATOM     60  C   UNL A   1      42.403  21.688  27.010  1.00  0.00     0.023 A 
ATOM     61  C   UNL A   1      41.673  20.509  27.356  1.00  0.00     0.012 A 
ATOM     62  C   UNL A   1      43.405  21.550  26.036  1.00  0.00     0.148 A 
ATOM     63  C   UNL A   1      42.022  19.241  26.896  1.00  0.00     0.002 A 
ATOM     64  C   UNL A   1      43.712  20.278  25.529  1.00  0.00     0.091 A 
ATOM     65  F   UNL A   1      44.110  22.621  25.659  1.00  0.00    -0.205 F 
ATOM     66  C   UNL A   1      43.059  19.125  25.993  1.00  0.00     0.022 A 
BRANCH  64  67
ATOM     67  S   UNL A   1      44.955  20.007  24.259  1.00  0.00     0.127 S 
ATOM     68  O   UNL A   1      46.191  20.338  24.963  1.00  0.00    -0.237 OA
ATOM     69  O   UNL A   1      44.790  18.579  23.971  1.00  0.00    -0.237 OA
ATOM     70  O   UNL A   1      44.576  20.877  23.154  1.00  0.00    -0.744 OA
ENDBRANCH  64  67
ENDBRANCH  46  60
BRANCH  47  71
ATOM     71  C   UNL A   1      45.595  30.334  32.207  1.00  0.00     0.023 A 
ATOM     72  C   UNL A   1      46.543  31.296  31.834  1.00  0.00     0.012 A 
ATOM     73  C   UNL A   1      45.159  30.392  33.565  1.00  0.00     0.148 A 
ATOM     74  C   UNL A   1      46.934  32.323  32.719  1.00  0.00     0.002 A 
ATOM     75  C   UNL A   1      45.430  31.479  34.386  1.00  0.00     0.091 A 
ATOM     76  F   UNL A   1      44.482  29.365  34.091  1.00  0.00    -0.205 F 
ATOM     77  C   UNL A   1      46.336  32.449  33.971  1.00  0.00     0.022 A 
BRANCH  75  78
ATOM     78  S   UNL A   1      44.494  31.775  35.900  1.00  0.00     0.127 S 
ATOM     79  O   UNL A   1      44.813  33.170  36.197  1.00  0.00    -0.237 OA
ATOM     80  O   UNL A   1      43.124  31.542  35.443  1.00  0.00    -0.237 OA
ATOM     81  O   UNL A   1      44.976  30.809  36.877  1.00  0.00    -0.744 OA
ENDBRANCH  75  78
ENDBRANCH  47  71
BRANCH  59  82
ATOM     82  C   UNL A   1      45.583  26.430  27.479  1.00  0.00     0.023 A 
ATOM     83  C   UNL A   1      44.312  26.851  27.036  1.00  0.00     0.012 A 
ATOM     84  C   UNL A   1      46.664  26.602  26.578  1.00  0.00     0.148 A 
ATOM     85  C   UNL A   1      44.111  27.388  25.762  1.00  0.00     0.002 A 
ATOM     86  C   UNL A   1      46.464  27.132  25.296  1.00  0.00     0.091 A 
ATOM     87  F   UNL A   1      47.883  26.237  26.965  1.00  0.00    -0.205 F 
ATOM     88  C   UNL A   1      45.184  27.528  24.892  1.00  0.00     0.022 A 
BRANCH  86  89
ATOM     89  S   UNL A   1      47.770  27.317  24.062  1.00  0.00     0.127 S 
ATOM     90  O   UNL A   1      48.044  25.929  23.681  1.00  0.00    -0.237 OA
ATOM     91  O   UNL A   1      47.108  28.102  23.022  1.00  0.00    -0.237 OA
ATOM     92  O   UNL A   1      48.883  27.982  24.726  1.00  0.00    -0.744 OA
ENDBRANCH  86  89
ENDBRANCH  59  82
ENDBRANCH  33  34
ENDBRANCH  25  28
ENDBRANCH  23  24
ENDBRANCH  22  23
ENDBRANCH   1  22
TORSDOF 18
ENDMDL
MODEL 3
REMARK VINA RESULT:     -11.4      1.425      2.140
REMARK SMILES C[C@@H](CC1CC1)NC(=O)c1cccn1CC(=O)NCCCNC(=O)c1ccc(-c2c3nc(c(-c4cccc(S(=O)(=O)[O-])c4F)c4ccc([nH]4)c(-c4cccc(S(=O)(=O)[O-])c4F)c4nc(c(-c5cccc(S(=O)(=O)[O-])c5F)c5ccc2[nH]5)C=C4)C=C3)cc1
REMARK SMILES IDX 19 1 18 2 16 3 17 4 15 6 14 7 10 8 11 9 12 10 13 11 8 12
REMARK SMILES IDX 7 13 9 15 2 16 1 17 3 18 4 19 5 20 6 21 20 22 21 23 22 24
REMARK SMILES IDX 23 25 24 27 25 28 26 29 87 30 27 31 86 32 28 33 29 34 30 35
REMARK SMILES IDX 80 36 31 37 85 38 79 39 81 40 32 41 84 42 78 43 77 44 33 46
REMARK SMILES IDX 65 47 45 48 64 49 46 50 49 51 63 52 82 53 47 54 48 55 62 57
REMARK SMILES IDX 83 58 50 59 34 60 35 61 43 62 36 63 38 64 44 65 37 66 39 67
REMARK SMILES IDX 40 68 41 69 42 70 66 71 67 72 75 73 68 74 70 75 76 76 69 77
REMARK SMILES IDX 71 78 72 79 73 80 74 81 51 82 52 83 60 84 53 85 55 86 61 87
REMARK SMILES IDX 54 88 56 89 57 90 58 91 59 92
REMARK H PARENT 18 5 7 14 22 26 81 45 49 56
REMARK Flexibility Score: inf
ROOT
ATOM      1  C   UNL A   1      33.332  28.176  25.280  1.00  0.00     0.117 C 
ENDROOT
BRANCH   1   2
ATOM      2  N   UNL A   1      33.446  27.236  24.185  1.00  0.00    -0.354 N 
ATOM      3  C   UNL A   1      33.674  25.890  24.245  1.00  0.00     0.239 C 
ATOM      4  O   UNL A   1      33.732  25.251  23.192  1.00  0.00    -0.273 OA
ATOM      5  H   UNL A   1      33.346  27.615  23.282  1.00  0.00     0.163 HD
BRANCH   3   6
ATOM      6  C   UNL A   1      33.745  25.186  25.586  1.00  0.00     0.222 C 
BRANCH   6   7
ATOM      7  N   UNL A   1      32.509  24.518  25.985  1.00  0.00    -0.334 N 
ATOM      8  C   UNL A   1      32.396  23.273  26.594  1.00  0.00     0.107 A 
ATOM      9  C   UNL A   1      31.037  23.071  26.805  1.00  0.00     0.033 A 
ATOM     10  C   UNL A   1      30.330  24.185  26.297  1.00  0.00     0.020 A 
ATOM     11  C   UNL A   1      31.262  25.068  25.811  1.00  0.00     0.087 A 
BRANCH   8  12
ATOM     12  C   UNL A   1      33.519  22.437  26.960  1.00  0.00     0.268 C 
ATOM     13  N   UNL A   1      33.889  21.372  26.182  1.00  0.00    -0.348 N 
ATOM     14  H   UNL A   1      34.683  20.893  26.512  1.00  0.00     0.164 HD
ATOM     15  O   UNL A   1      34.230  22.672  27.942  1.00  0.00    -0.268 OA
BRANCH  13  16
ATOM     16  C   UNL A   1      33.327  20.814  24.950  1.00  0.00     0.079 C 
ATOM     17  C   UNL A   1      33.536  21.783  23.784  1.00  0.00     0.031 C 
BRANCH  16  18
ATOM     18  C   UNL A   1      33.941  19.431  24.659  1.00  0.00     0.028 C 
BRANCH  18  19
ATOM     19  C   UNL A   1      32.955  18.450  24.071  1.00  0.00    -0.009 C 
ATOM     20  C   UNL A   1      33.430  17.371  23.136  1.00  0.00     0.004 C 
ATOM     21  C   UNL A   1      32.965  17.010  24.518  1.00  0.00     0.004 C 
ENDBRANCH  18  19
ENDBRANCH  16  18
ENDBRANCH  13  16
ENDBRANCH   8  12
ENDBRANCH   6   7
ENDBRANCH   3   6
ENDBRANCH   1   2
BRANCH   1  22
ATOM     22  C   UNL A   1      34.699  28.526  25.874  1.00  0.00     0.042 C 
BRANCH  22  23
ATOM     23  C   UNL A   1      34.583  28.976  27.324  1.00  0.00     0.118 C 
BRANCH  23  24
ATOM     24  N   UNL A   1      35.117  30.327  27.496  1.00  0.00    -0.352 N 
ATOM     25  C   UNL A   1      36.328  30.745  27.982  1.00  0.00     0.251 C 
ATOM     26  H   UNL A   1      34.510  31.051  27.218  1.00  0.00     0.163 HD
ATOM     27  O   UNL A   1      36.474  31.932  28.272  1.00  0.00    -0.269 OA
BRANCH  25  28
ATOM     28  C   UNL A   1      37.430  29.790  28.194  1.00  0.00     0.039 A 
ATOM     29  C   UNL A   1      38.420  29.689  27.207  1.00  0.00     0.014 A 
ATOM     30  C   UNL A   1      37.481  28.984  29.333  1.00  0.00     0.014 A 
ATOM     31  C   UNL A   1      39.515  28.858  27.412  1.00  0.00     0.010 A 
ATOM     32  C   UNL A   1      38.588  28.186  29.561  1.00  0.00     0.010 A 
ATOM     33  C   UNL A   1      39.615  28.148  28.614  1.00  0.00    -0.014 A 
BRANCH  33  34
ATOM     34  C   UNL A   1      40.877  27.472  28.977  1.00  0.00     0.031 A 
ATOM     35  C   UNL A   1      40.900  26.000  28.486  1.00  0.00     0.074 A 
ATOM     36  C   UNL A   1      41.799  28.262  29.611  1.00  0.00     0.049 A 
ATOM     37  N   UNL A   1      41.569  24.974  28.926  1.00  0.00    -0.248 NA
ATOM     38  C   UNL A   1      39.965  25.584  27.399  1.00  0.00     0.031 C 
ATOM     39  C   UNL A   1      41.586  29.688  29.958  1.00  0.00     0.029 A 
ATOM     40  N   UNL A   1      43.085  28.067  30.071  1.00  0.00    -0.354 N 
ATOM     41  C   UNL A   1      41.341  23.901  28.019  1.00  0.00     0.074 A 
ATOM     42  C   UNL A   1      40.235  24.290  27.203  1.00  0.00     0.031 C 
ATOM     43  C   UNL A   1      42.649  30.193  30.619  1.00  0.00     0.029 A 
ATOM     44  C   UNL A   1      43.669  29.171  30.743  1.00  0.00     0.049 A 
ATOM     45  H   UNL A   1      43.565  27.217  29.941  1.00  0.00     0.167 HD
ATOM     46  C   UNL A   1      42.194  22.838  27.887  1.00  0.00     0.034 A 
ATOM     47  C   UNL A   1      44.878  29.254  31.383  1.00  0.00     0.034 A 
ATOM     48  C   UNL A   1      43.300  23.033  28.763  1.00  0.00     0.049 A 
ATOM     49  C   UNL A   1      45.591  28.017  31.039  1.00  0.00     0.074 A 
ATOM     50  C   UNL A   1      43.455  22.930  30.118  1.00  0.00     0.029 A 
ATOM     51  N   UNL A   1      44.351  23.734  28.222  1.00  0.00    -0.354 N 
ATOM     52  N   UNL A   1      46.085  27.763  29.864  1.00  0.00    -0.248 NA
ATOM     53  C   UNL A   1      45.658  26.934  32.026  1.00  0.00     0.031 C 
ATOM     54  C   UNL A   1      44.372  23.958  30.413  1.00  0.00     0.029 A 
ATOM     55  C   UNL A   1      44.882  24.498  29.224  1.00  0.00     0.049 A 
ATOM     56  H   UNL A   1      44.663  23.693  27.289  1.00  0.00     0.167 HD
ATOM     57  C   UNL A   1      46.152  26.393  29.879  1.00  0.00     0.074 A 
ATOM     58  C   UNL A   1      46.219  25.997  31.268  1.00  0.00     0.031 C 
ATOM     59  C   UNL A   1      45.605  25.690  28.853  1.00  0.00     0.034 A 
BRANCH  46  60
ATOM     60  C   UNL A   1      42.369  21.712  26.883  1.00  0.00     0.023 A 
ATOM     61  C   UNL A   1      41.599  20.540  27.161  1.00  0.00     0.012 A 
ATOM     62  C   UNL A   1      43.399  21.584  25.938  1.00  0.00     0.148 A 
ATOM     63  C   UNL A   1      41.932  19.281  26.664  1.00  0.00     0.002 A 
ATOM     64  C   UNL A   1      43.691  20.325  25.393  1.00  0.00     0.091 A 
ATOM     65  F   UNL A   1      44.143  22.650  25.625  1.00  0.00    -0.205 F 
ATOM     66  C   UNL A   1      42.995  19.172  25.792  1.00  0.00     0.022 A 
BRANCH  64  67
ATOM     67  S   UNL A   1      44.968  20.069  24.154  1.00  0.00     0.127 S 
ATOM     68  O   UNL A   1      44.756  18.674  23.778  1.00  0.00    -0.237 OA
ATOM     69  O   UNL A   1      44.588  21.036  23.119  1.00  0.00    -0.237 OA
ATOM     70  O   UNL A   1      46.224  20.385  24.820  1.00  0.00    -0.744 OA
ENDBRANCH  64  67
ENDBRANCH  46  60
BRANCH  47  71
ATOM     71  C   UNL A   1      45.545  30.183  32.371  1.00  0.00     0.023 A 
ATOM     72  C   UNL A   1      45.265  30.219  33.744  1.00  0.00     0.012 A 
ATOM     73  C   UNL A   1      46.637  30.997  31.943  1.00  0.00     0.148 A 
ATOM     74  C   UNL A   1      46.095  30.918  34.644  1.00  0.00     0.002 A 
ATOM     75  C   UNL A   1      47.534  31.565  32.838  1.00  0.00     0.091 A 
ATOM     76  F   UNL A   1      46.806  31.252  30.641  1.00  0.00    -0.205 F 
ATOM     77  C   UNL A   1      47.260  31.541  34.200  1.00  0.00     0.022 A 
BRANCH  75  78
ATOM     78  S   UNL A   1      49.150  32.165  32.301  1.00  0.00     0.127 S 
ATOM     79  O   UNL A   1      48.806  33.394  31.589  1.00  0.00    -0.237 OA
ATOM     80  O   UNL A   1      49.823  32.365  33.584  1.00  0.00    -0.237 OA
ATOM     81  O   UNL A   1      49.726  31.113  31.476  1.00  0.00    -0.744 OA
ENDBRANCH  75  78
ENDBRANCH  47  71
BRANCH  59  82
ATOM     82  C   UNL A   1      45.546  26.437  27.516  1.00  0.00     0.023 A 
ATOM     83  C   UNL A   1      44.287  26.930  27.117  1.00  0.00     0.012 A 
ATOM     84  C   UNL A   1      46.613  26.587  26.596  1.00  0.00     0.148 A 
ATOM     85  C   UNL A   1      44.083  27.516  25.865  1.00  0.00     0.002 A 
ATOM     86  C   UNL A   1      46.409  27.166  25.336  1.00  0.00     0.091 A 
ATOM     87  F   UNL A   1      47.822  26.155  26.943  1.00  0.00    -0.205 F 
ATOM     88  C   UNL A   1      45.141  27.634  24.974  1.00  0.00     0.022 A 
BRANCH  86  89
ATOM     89  S   UNL A   1      47.695  27.330  24.077  1.00  0.00     0.127 S 
ATOM     90  O   UNL A   1      48.772  27.999  24.811  1.00  0.00    -0.237 OA
ATOM     91  O   UNL A   1      47.980  25.937  23.739  1.00  0.00    -0.237 OA
ATOM     92  O   UNL A   1      47.127  28.126  22.998  1.00  0.00    -0.744 OA
ENDBRANCH  86  89
ENDBRANCH  59  82
ENDBRANCH  33  34
ENDBRANCH  25  28
ENDBRANCH  23  24
ENDBRANCH  22  23
ENDBRANCH   1  22
TORSDOF 18
ENDMDL
