MODEL 1
REMARK VINA RESULT:     -13.6      0.000      0.000
REMARK SMILES COc1cccc(-c2nn(-c3cc4c(cc3C(N)=O)OCO4)cc2C(=O)NCCCNC(=O)c2ccc(-c3c4nc(c(-c5cccc(S(=O)(=O)[O-])c5F)c5ccc([nH]5)c(-c5cccc(S(=O)(=O)[O-])c5F)c5nc(c(-c6cccc(S(=O)(=O)[O-])c6F)c6ccc3[nH]6)C=C5)C=C4)cc2)c1
REMARK SMILES IDX 29 1 28 2 27 3 25 4 26 5 24 7 8 8 9 9 10 10 23 11 7 12 3 13
REMARK SMILES IDX 4 14 97 15 5 16 6 17 2 18 1 19 11 20 12 21 16 22 13 23 15 24
REMARK SMILES IDX 14 25 22 26 20 27 21 28 17 29 18 30 19 31 30 34 31 35 32 36
REMARK SMILES IDX 33 38 34 39 35 40 96 41 36 42 95 43 37 44 38 45 39 46 89 47
REMARK SMILES IDX 40 48 94 49 88 50 90 51 41 52 93 53 87 54 86 55 42 57 74 58
REMARK SMILES IDX 54 59 73 60 55 61 58 62 72 63 91 64 56 65 57 66 71 68 92 69
REMARK SMILES IDX 59 70 43 71 44 72 52 73 45 74 47 75 53 76 46 77 48 78 49 79
REMARK SMILES IDX 50 80 51 81 75 82 76 83 84 84 77 85 79 86 85 87 78 88 80 89
REMARK SMILES IDX 81 90 82 91 83 92 60 93 61 94 69 95 62 96 64 97 70 98 63 99
REMARK SMILES IDX 65 100 66 101 67 102 68 103
REMARK H PARENT 27 6 18 32 18 33 31 37 90 56 58 67
REMARK Flexibility Score: inf
ROOT
ATOM      1  C   UNL A   1      31.314  30.869  26.259  1.00  0.00     0.042 C 
ENDROOT
BRANCH   1   2
ATOM      2  C   UNL A   1      31.682  29.474  25.744  1.00  0.00     0.118 C 
BRANCH   2   3
ATOM      3  N   UNL A   1      32.606  29.511  24.624  1.00  0.00    -0.352 N 
ATOM      4  C   UNL A   1      32.743  28.697  23.529  1.00  0.00     0.255 C 
ATOM      5  O   UNL A   1      33.482  29.121  22.632  1.00  0.00    -0.269 OA
ATOM      6  H   UNL A   1      33.249  30.255  24.657  1.00  0.00     0.163 HD
BRANCH   4   7
ATOM      7  C   UNL A   1      32.016  27.445  23.402  1.00  0.00     0.086 A 
ATOM      8  C   UNL A   1      30.605  27.235  23.215  1.00  0.00     0.106 A 
ATOM      9  N   UNL A   1      30.282  25.924  23.304  1.00  0.00    -0.167 NA
ATOM     10  N   UNL A   1      31.442  25.346  23.680  1.00  0.00    -0.239 N 
ATOM     11  C   UNL A   1      32.511  26.160  23.420  1.00  0.00     0.129 A 
BRANCH   8  12
ATOM     12  C   UNL A   1      29.589  28.263  22.971  1.00  0.00     0.007 A 
ATOM     13  C   UNL A   1      28.900  30.344  21.933  1.00  0.00     0.119 A 
ATOM     14  C   UNL A   1      27.590  30.130  22.367  1.00  0.00     0.046 A 
ATOM     15  C   UNL A   1      29.904  29.421  22.248  1.00  0.00     0.056 A 
ATOM     16  C   UNL A   1      27.273  28.986  23.098  1.00  0.00     0.005 A 
ATOM     17  C   UNL A   1      28.271  28.062  23.407  1.00  0.00     0.011 A 
BRANCH  13  18
ATOM     18  O   UNL A   1      29.121  31.514  21.253  1.00  0.00    -0.497 OA
ATOM     19  C   UNL A   1      28.229  32.564  21.609  1.00  0.00     0.278 C 
ENDBRANCH  13  18
ENDBRANCH   8  12
BRANCH  10  20
ATOM     20  C   UNL A   1      31.555  24.010  24.135  1.00  0.00     0.081 A 
ATOM     21  C   UNL A   1      31.866  23.015  23.192  1.00  0.00     0.079 A 
ATOM     22  C   UNL A   1      31.474  23.705  25.530  1.00  0.00     0.069 A 
ATOM     23  C   UNL A   1      32.165  21.761  23.682  1.00  0.00     0.167 A 
ATOM     24  C   UNL A   1      31.899  22.447  25.978  1.00  0.00     0.066 A 
ATOM     25  C   UNL A   1      32.212  21.500  25.033  1.00  0.00     0.166 A 
ATOM     26  O   UNL A   1      32.453  20.652  22.947  1.00  0.00    -0.454 OA
ATOM     27  O   UNL A   1      32.532  20.206  25.307  1.00  0.00    -0.454 OA
ATOM     28  C   UNL A   1      32.467  19.646  23.981  1.00  0.00     0.468 C 
BRANCH  22  29
ATOM     29  C   UNL A   1      30.740  24.600  26.493  1.00  0.00     0.251 C 
ATOM     30  N   UNL A   1      29.478  24.244  26.889  1.00  0.00    -0.366 N 
ATOM     31  O   UNL A   1      31.163  25.678  26.876  1.00  0.00    -0.269 OA
ATOM     32  H   UNL A   1      29.096  23.383  26.603  1.00  0.00     0.159 HD
ATOM     33  H   UNL A   1      28.951  24.850  27.460  1.00  0.00     0.159 HD
ENDBRANCH  22  29
ENDBRANCH  10  20
ENDBRANCH   4   7
ENDBRANCH   2   3
ENDBRANCH   1   2
BRANCH   1  34
ATOM     34  C   UNL A   1      32.508  31.539  26.907  1.00  0.00     0.118 C 
BRANCH  34  35
ATOM     35  N   UNL A   1      32.263  32.965  27.191  1.00  0.00    -0.352 N 
ATOM     36  C   UNL A   1      32.875  33.797  28.113  1.00  0.00     0.251 C 
ATOM     37  H   UNL A   1      31.559  33.387  26.646  1.00  0.00     0.163 HD
ATOM     38  O   UNL A   1      32.353  34.856  28.444  1.00  0.00    -0.269 OA
BRANCH  36  39
ATOM     39  C   UNL A   1      34.175  33.390  28.672  1.00  0.00     0.039 A 
ATOM     40  C   UNL A   1      34.322  32.749  29.906  1.00  0.00     0.014 A 
ATOM     41  C   UNL A   1      35.282  33.644  27.879  1.00  0.00     0.014 A 
ATOM     42  C   UNL A   1      35.602  32.354  30.294  1.00  0.00     0.010 A 
ATOM     43  C   UNL A   1      36.425  32.948  28.090  1.00  0.00     0.010 A 
ATOM     44  C   UNL A   1      36.645  32.474  29.367  1.00  0.00    -0.014 A 
BRANCH  44  45
ATOM     45  C   UNL A   1      38.013  32.070  29.625  1.00  0.00     0.031 A 
ATOM     46  C   UNL A   1      38.293  30.686  29.185  1.00  0.00     0.074 A 
ATOM     47  C   UNL A   1      38.972  32.984  29.906  1.00  0.00     0.049 A 
ATOM     48  N   UNL A   1      38.425  29.640  29.930  1.00  0.00    -0.248 NA
ATOM     49  C   UNL A   1      38.179  30.384  27.748  1.00  0.00     0.031 C 
ATOM     50  C   UNL A   1      38.866  34.452  29.942  1.00  0.00     0.029 A 
ATOM     51  N   UNL A   1      40.305  32.793  30.057  1.00  0.00    -0.354 N 
ATOM     52  C   UNL A   1      38.698  28.601  29.043  1.00  0.00     0.074 A 
ATOM     53  C   UNL A   1      38.222  29.052  27.766  1.00  0.00     0.031 C 
ATOM     54  C   UNL A   1      40.100  34.998  29.837  1.00  0.00     0.029 A 
ATOM     55  C   UNL A   1      41.085  33.935  29.881  1.00  0.00     0.049 A 
ATOM     56  H   UNL A   1      40.694  31.915  30.274  1.00  0.00     0.167 HD
ATOM     57  C   UNL A   1      39.587  27.620  29.370  1.00  0.00     0.034 A 
ATOM     58  C   UNL A   1      42.433  33.969  29.711  1.00  0.00     0.034 A 
ATOM     59  C   UNL A   1      39.917  27.690  30.778  1.00  0.00     0.049 A 
ATOM     60  C   UNL A   1      42.951  32.657  30.178  1.00  0.00     0.074 A 
ATOM     61  C   UNL A   1      39.195  27.660  31.956  1.00  0.00     0.029 A 
ATOM     62  N   UNL A   1      41.132  28.254  31.098  1.00  0.00    -0.354 N 
ATOM     63  N   UNL A   1      42.881  32.256  31.419  1.00  0.00    -0.248 NA
ATOM     64  C   UNL A   1      43.085  31.602  29.184  1.00  0.00     0.031 C 
ATOM     65  C   UNL A   1      39.811  28.645  32.786  1.00  0.00     0.029 A 
ATOM     66  C   UNL A   1      40.924  29.151  32.109  1.00  0.00     0.049 A 
ATOM     67  H   UNL A   1      41.996  28.048  30.673  1.00  0.00     0.167 HD
ATOM     68  C   UNL A   1      42.491  30.925  31.329  1.00  0.00     0.074 A 
ATOM     69  C   UNL A   1      42.721  30.554  29.930  1.00  0.00     0.031 C 
ATOM     70  C   UNL A   1      41.723  30.343  32.297  1.00  0.00     0.034 A 
BRANCH  57  71
ATOM     71  C   UNL A   1      40.498  26.883  28.400  1.00  0.00     0.023 A 
ATOM     72  C   UNL A   1      40.715  25.511  28.675  1.00  0.00     0.012 A 
ATOM     73  C   UNL A   1      41.353  27.473  27.440  1.00  0.00     0.148 A 
ATOM     74  C   UNL A   1      41.790  24.805  28.126  1.00  0.00     0.002 A 
ATOM     75  C   UNL A   1      42.386  26.752  26.850  1.00  0.00     0.091 A 
ATOM     76  F   UNL A   1      41.257  28.766  27.143  1.00  0.00    -0.205 F 
ATOM     77  C   UNL A   1      42.634  25.429  27.221  1.00  0.00     0.022 A 
BRANCH  75  78
ATOM     78  S   UNL A   1      43.491  27.495  25.639  1.00  0.00     0.127 S 
ATOM     79  O   UNL A   1      44.390  26.382  25.345  1.00  0.00    -0.237 OA
ATOM     80  O   UNL A   1      42.560  27.842  24.565  1.00  0.00    -0.237 OA
ATOM     81  O   UNL A   1      44.096  28.644  26.301  1.00  0.00    -0.744 OA
ENDBRANCH  75  78
ENDBRANCH  57  71
BRANCH  58  82
ATOM     82  C   UNL A   1      43.275  34.894  28.907  1.00  0.00     0.023 A 
ATOM     83  C   UNL A   1      43.478  34.643  27.532  1.00  0.00     0.012 A 
ATOM     84  C   UNL A   1      43.639  36.166  29.403  1.00  0.00     0.148 A 
ATOM     85  C   UNL A   1      43.989  35.632  26.679  1.00  0.00     0.002 A 
ATOM     86  C   UNL A   1      44.150  37.145  28.551  1.00  0.00     0.091 A 
ATOM     87  F   UNL A   1      43.393  36.450  30.688  1.00  0.00    -0.205 F 
ATOM     88  C   UNL A   1      44.315  36.885  27.185  1.00  0.00     0.022 A 
BRANCH  86  89
ATOM     89  S   UNL A   1      44.559  38.798  29.130  1.00  0.00     0.127 S 
ATOM     90  O   UNL A   1      45.597  38.524  30.123  1.00  0.00    -0.237 OA
ATOM     91  O   UNL A   1      45.034  39.437  27.905  1.00  0.00    -0.237 OA
ATOM     92  O   UNL A   1      43.323  39.335  29.684  1.00  0.00    -0.744 OA
ENDBRANCH  86  89
ENDBRANCH  58  82
BRANCH  70  93
ATOM     93  C   UNL A   1      41.484  31.097  33.582  1.00  0.00     0.023 A 
ATOM     94  C   UNL A   1      42.451  31.189  34.606  1.00  0.00     0.012 A 
ATOM     95  C   UNL A   1      40.338  31.905  33.658  1.00  0.00     0.148 A 
ATOM     96  C   UNL A   1      42.272  32.063  35.685  1.00  0.00     0.002 A 
ATOM     97  C   UNL A   1      40.187  32.805  34.705  1.00  0.00     0.091 A 
ATOM     98  F   UNL A   1      39.432  31.808  32.675  1.00  0.00    -0.205 F 
ATOM     99  C   UNL A   1      41.146  32.882  35.726  1.00  0.00     0.022 A 
BRANCH  97 100
ATOM    100  S   UNL A   1      38.828  33.975  34.740  1.00  0.00     0.127 S 
ATOM    101  O   UNL A   1      39.124  34.747  35.945  1.00  0.00    -0.237 OA
ATOM    102  O   UNL A   1      39.011  34.706  33.485  1.00  0.00    -0.237 OA
ATOM    103  O   UNL A   1      37.609  33.177  34.791  1.00  0.00    -0.744 OA
ENDBRANCH  97 100
ENDBRANCH  70  93
ENDBRANCH  44  45
ENDBRANCH  36  39
ENDBRANCH  34  35
ENDBRANCH   1  34
TORSDOF 17
ENDMDL
MODEL 2
REMARK VINA RESULT:     -13.4      3.302      7.250
REMARK SMILES COc1cccc(-c2nn(-c3cc4c(cc3C(N)=O)OCO4)cc2C(=O)NCCCNC(=O)c2ccc(-c3c4nc(c(-c5cccc(S(=O)(=O)[O-])c5F)c5ccc([nH]5)c(-c5cccc(S(=O)(=O)[O-])c5F)c5nc(c(-c6cccc(S(=O)(=O)[O-])c6F)c6ccc3[nH]6)C=C5)C=C4)cc2)c1
REMARK SMILES IDX 29 1 28 2 27 3 25 4 26 5 24 7 8 8 9 9 10 10 23 11 7 12 3 13
REMARK SMILES IDX 4 14 97 15 5 16 6 17 2 18 1 19 11 20 12 21 16 22 13 23 15 24
REMARK SMILES IDX 14 25 22 26 20 27 21 28 17 29 18 30 19 31 30 34 31 35 32 36
REMARK SMILES IDX 33 38 34 39 35 40 96 41 36 42 95 43 37 44 38 45 39 46 89 47
REMARK SMILES IDX 40 48 94 49 88 50 90 51 41 52 93 53 87 54 86 55 42 57 74 58
REMARK SMILES IDX 54 59 73 60 55 61 58 62 72 63 91 64 56 65 57 66 71 68 92 69
REMARK SMILES IDX 59 70 43 71 44 72 52 73 45 74 47 75 53 76 46 77 48 78 49 79
REMARK SMILES IDX 50 80 51 81 75 82 76 83 84 84 77 85 79 86 85 87 78 88 80 89
REMARK SMILES IDX 81 90 82 91 83 92 60 93 61 94 69 95 62 96 64 97 70 98 63 99
REMARK SMILES IDX 65 100 66 101 67 102 68 103
REMARK H PARENT 27 6 18 32 18 33 31 37 90 56 58 67
REMARK Flexibility Score: inf
ROOT
ATOM      1  C   UNL A   1      32.814  29.136  27.154  1.00  0.00     0.042 C 
ENDROOT
BRANCH   1   2
ATOM      2  C   UNL A   1      31.970  29.152  25.875  1.00  0.00     0.118 C 
BRANCH   2   3
ATOM      3  N   UNL A   1      32.774  29.246  24.669  1.00  0.00    -0.352 N 
ATOM      4  C   UNL A   1      32.787  28.495  23.521  1.00  0.00     0.255 C 
ATOM      5  O   UNL A   1      33.435  28.965  22.578  1.00  0.00    -0.269 OA
ATOM      6  H   UNL A   1      33.428  29.982  24.678  1.00  0.00     0.163 HD
BRANCH   4   7
ATOM      7  C   UNL A   1      32.033  27.259  23.400  1.00  0.00     0.086 A 
ATOM      8  C   UNL A   1      30.614  27.078  23.240  1.00  0.00     0.106 A 
ATOM      9  N   UNL A   1      30.268  25.772  23.326  1.00  0.00    -0.167 NA
ATOM     10  N   UNL A   1      31.424  25.169  23.674  1.00  0.00    -0.239 N 
ATOM     11  C   UNL A   1      32.503  25.964  23.398  1.00  0.00     0.129 A 
BRANCH   8  12
ATOM     12  C   UNL A   1      29.614  28.127  23.024  1.00  0.00     0.007 A 
ATOM     13  C   UNL A   1      28.984  30.289  22.123  1.00  0.00     0.119 A 
ATOM     14  C   UNL A   1      27.652  30.046  22.465  1.00  0.00     0.046 A 
ATOM     15  C   UNL A   1      29.969  29.339  22.418  1.00  0.00     0.056 A 
ATOM     16  C   UNL A   1      27.295  28.849  23.080  1.00  0.00     0.005 A 
ATOM     17  C   UNL A   1      28.273  27.897  23.368  1.00  0.00     0.011 A 
BRANCH  13  18
ATOM     18  O   UNL A   1      29.244  31.509  21.555  1.00  0.00    -0.497 OA
ATOM     19  C   UNL A   1      28.731  32.610  22.297  1.00  0.00     0.278 C 
ENDBRANCH  13  18
ENDBRANCH   8  12
BRANCH  10  20
ATOM     20  C   UNL A   1      31.519  23.828  24.116  1.00  0.00     0.081 A 
ATOM     21  C   UNL A   1      31.806  22.836  23.162  1.00  0.00     0.079 A 
ATOM     22  C   UNL A   1      31.446  23.512  25.509  1.00  0.00     0.069 A 
ATOM     23  C   UNL A   1      32.090  21.574  23.638  1.00  0.00     0.167 A 
ATOM     24  C   UNL A   1      31.856  22.244  25.943  1.00  0.00     0.066 A 
ATOM     25  C   UNL A   1      32.145  21.300  24.987  1.00  0.00     0.166 A 
ATOM     26  O   UNL A   1      32.354  20.466  22.892  1.00  0.00    -0.454 OA
ATOM     27  O   UNL A   1      32.447  19.999  25.247  1.00  0.00    -0.454 OA
ATOM     28  C   UNL A   1      32.362  19.451  23.917  1.00  0.00     0.468 C 
BRANCH  22  29
ATOM     29  C   UNL A   1      30.735  24.410  26.487  1.00  0.00     0.251 C 
ATOM     30  N   UNL A   1      29.444  24.112  26.834  1.00  0.00    -0.366 N 
ATOM     31  O   UNL A   1      31.206  25.447  26.923  1.00  0.00    -0.269 OA
ATOM     32  H   UNL A   1      29.024  23.285  26.504  1.00  0.00     0.159 HD
ATOM     33  H   UNL A   1      28.935  24.724  27.414  1.00  0.00     0.159 HD
ENDBRANCH  22  29
ENDBRANCH  10  20
ENDBRANCH   4   7
ENDBRANCH   2   3
ENDBRANCH   1   2
BRANCH   1  34
ATOM     34  C   UNL A   1      34.083  29.944  26.974  1.00  0.00     0.118 C 
BRANCH  34  35
ATOM     35  N   UNL A   1      34.076  31.181  27.775  1.00  0.00    -0.352 N 
ATOM     36  C   UNL A   1      34.915  31.567  28.807  1.00  0.00     0.251 C 
ATOM     37  H   UNL A   1      33.371  31.829  27.543  1.00  0.00     0.163 HD
ATOM     38  O   UNL A   1      34.592  32.469  29.572  1.00  0.00    -0.269 OA
BRANCH  36  39
ATOM     39  C   UNL A   1      36.210  30.882  28.953  1.00  0.00     0.039 A 
ATOM     40  C   UNL A   1      36.372  29.497  28.839  1.00  0.00     0.014 A 
ATOM     41  C   UNL A   1      37.306  31.699  29.177  1.00  0.00     0.014 A 
ATOM     42  C   UNL A   1      37.662  28.976  28.931  1.00  0.00     0.010 A 
ATOM     43  C   UNL A   1      38.548  31.234  28.902  1.00  0.00     0.010 A 
ATOM     44  C   UNL A   1      38.740  29.870  28.973  1.00  0.00    -0.014 A 
BRANCH  44  45
ATOM     45  C   UNL A   1      40.130  29.466  29.033  1.00  0.00     0.031 A 
ATOM     46  C   UNL A   1      40.618  29.300  30.419  1.00  0.00     0.074 A 
ATOM     47  C   UNL A   1      40.763  28.969  27.943  1.00  0.00     0.049 A 
ATOM     48  N   UNL A   1      41.393  30.096  31.076  1.00  0.00    -0.248 NA
ATOM     49  C   UNL A   1      39.987  28.261  31.251  1.00  0.00     0.031 C 
ATOM     50  C   UNL A   1      40.216  28.693  26.604  1.00  0.00     0.029 A 
ATOM     51  N   UNL A   1      42.008  28.442  27.854  1.00  0.00    -0.354 N 
ATOM     52  C   UNL A   1      41.567  29.484  32.316  1.00  0.00     0.074 A 
ATOM     53  C   UNL A   1      40.462  28.579  32.456  1.00  0.00     0.031 C 
ATOM     54  C   UNL A   1      41.027  27.828  25.953  1.00  0.00     0.029 A 
ATOM     55  C   UNL A   1      42.215  27.611  26.755  1.00  0.00     0.049 A 
ATOM     56  H   UNL A   1      42.713  28.631  28.515  1.00  0.00     0.167 HD
ATOM     57  C   UNL A   1      42.773  29.527  32.952  1.00  0.00     0.034 A 
ATOM     58  C   UNL A   1      43.260  26.759  26.578  1.00  0.00     0.034 A 
ATOM     59  C   UNL A   1      43.647  30.487  32.309  1.00  0.00     0.049 A 
ATOM     60  C   UNL A   1      44.323  27.191  27.522  1.00  0.00     0.074 A 
ATOM     61  C   UNL A   1      43.569  31.833  32.007  1.00  0.00     0.029 A 
ATOM     62  N   UNL A   1      44.623  29.974  31.485  1.00  0.00    -0.354 N 
ATOM     63  N   UNL A   1      44.939  28.339  27.434  1.00  0.00    -0.248 NA
ATOM     64  C   UNL A   1      44.339  26.568  28.838  1.00  0.00     0.031 C 
ATOM     65  C   UNL A   1      44.132  31.946  30.701  1.00  0.00     0.029 A 
ATOM     66  C   UNL A   1      44.604  30.688  30.319  1.00  0.00     0.049 A 
ATOM     67  H   UNL A   1      45.227  29.226  31.698  1.00  0.00     0.167 HD
ATOM     68  C   UNL A   1      45.002  28.796  28.746  1.00  0.00     0.074 A 
ATOM     69  C   UNL A   1      44.700  27.625  29.573  1.00  0.00     0.031 C 
ATOM     70  C   UNL A   1      44.972  30.131  29.035  1.00  0.00     0.034 A 
BRANCH  57  71
ATOM     71  C   UNL A   1      43.349  28.440  33.847  1.00  0.00     0.023 A 
ATOM     72  C   UNL A   1      43.867  28.872  35.091  1.00  0.00     0.012 A 
ATOM     73  C   UNL A   1      43.666  27.117  33.461  1.00  0.00     0.148 A 
ATOM     74  C   UNL A   1      44.748  28.087  35.841  1.00  0.00     0.002 A 
ATOM     75  C   UNL A   1      44.495  26.315  34.239  1.00  0.00     0.091 A 
ATOM     76  F   UNL A   1      43.261  26.631  32.290  1.00  0.00    -0.205 F 
ATOM     77  C   UNL A   1      45.071  26.810  35.409  1.00  0.00     0.022 A 
BRANCH  75  78
ATOM     78  S   UNL A   1      44.921  24.635  33.751  1.00  0.00     0.127 S 
ATOM     79  O   UNL A   1      45.919  24.285  34.757  1.00  0.00    -0.237 OA
ATOM     80  O   UNL A   1      43.633  23.954  33.888  1.00  0.00    -0.237 OA
ATOM     81  O   UNL A   1      45.405  24.728  32.379  1.00  0.00    -0.744 OA
ENDBRANCH  75  78
ENDBRANCH  57  71
BRANCH  58  82
ATOM     82  C   UNL A   1      43.314  25.435  25.903  1.00  0.00     0.023 A 
ATOM     83  C   UNL A   1      44.398  25.124  25.053  1.00  0.00     0.012 A 
ATOM     84  C   UNL A   1      42.474  24.374  26.310  1.00  0.00     0.148 A 
ATOM     85  C   UNL A   1      44.655  23.804  24.653  1.00  0.00     0.002 A 
ATOM     86  C   UNL A   1      42.731  23.064  25.906  1.00  0.00     0.091 A 
ATOM     87  F   UNL A   1      41.481  24.633  27.170  1.00  0.00    -0.205 F 
ATOM     88  C   UNL A   1      43.828  22.774  25.086  1.00  0.00     0.022 A 
BRANCH  86  89
ATOM     89  S   UNL A   1      41.727  21.677  26.458  1.00  0.00     0.127 S 
ATOM     90  O   UNL A   1      42.294  20.568  25.691  1.00  0.00    -0.237 OA
ATOM     91  O   UNL A   1      42.018  21.645  27.889  1.00  0.00    -0.237 OA
ATOM     92  O   UNL A   1      40.357  22.019  26.099  1.00  0.00    -0.744 OA
ENDBRANCH  86  89
ENDBRANCH  58  82
BRANCH  70  93
ATOM     93  C   UNL A   1      45.093  31.119  27.901  1.00  0.00     0.023 A 
ATOM     94  C   UNL A   1      43.973  31.661  27.235  1.00  0.00     0.012 A 
ATOM     95  C   UNL A   1      46.361  31.669  27.650  1.00  0.00     0.148 A 
ATOM     96  C   UNL A   1      44.118  32.722  26.334  1.00  0.00     0.002 A 
ATOM     97  C   UNL A   1      46.495  32.753  26.792  1.00  0.00     0.091 A 
ATOM     98  F   UNL A   1      47.414  31.145  28.295  1.00  0.00    -0.205 F 
ATOM     99  C   UNL A   1      45.378  33.278  26.124  1.00  0.00     0.022 A 
BRANCH  97 100
ATOM    100  S   UNL A   1      48.066  33.592  26.587  1.00  0.00     0.127 S 
ATOM    101  O   UNL A   1      48.979  32.476  26.349  1.00  0.00    -0.237 OA
ATOM    102  O   UNL A   1      47.819  34.441  25.420  1.00  0.00    -0.237 OA
ATOM    103  O   UNL A   1      48.292  34.333  27.823  1.00  0.00    -0.744 OA
ENDBRANCH  97 100
ENDBRANCH  70  93
ENDBRANCH  44  45
ENDBRANCH  36  39
ENDBRANCH  34  35
ENDBRANCH   1  34
TORSDOF 17
ENDMDL
MODEL 3
REMARK VINA RESULT:     -13.4      3.467      7.662
REMARK SMILES COc1cccc(-c2nn(-c3cc4c(cc3C(N)=O)OCO4)cc2C(=O)NCCCNC(=O)c2ccc(-c3c4nc(c(-c5cccc(S(=O)(=O)[O-])c5F)c5ccc([nH]5)c(-c5cccc(S(=O)(=O)[O-])c5F)c5nc(c(-c6cccc(S(=O)(=O)[O-])c6F)c6ccc3[nH]6)C=C5)C=C4)cc2)c1
REMARK SMILES IDX 29 1 28 2 27 3 25 4 26 5 24 7 8 8 9 9 10 10 23 11 7 12 3 13
REMARK SMILES IDX 4 14 97 15 5 16 6 17 2 18 1 19 11 20 12 21 16 22 13 23 15 24
REMARK SMILES IDX 14 25 22 26 20 27 21 28 17 29 18 30 19 31 30 34 31 35 32 36
REMARK SMILES IDX 33 38 34 39 35 40 96 41 36 42 95 43 37 44 38 45 39 46 89 47
REMARK SMILES IDX 40 48 94 49 88 50 90 51 41 52 93 53 87 54 86 55 42 57 74 58
REMARK SMILES IDX 54 59 73 60 55 61 58 62 72 63 91 64 56 65 57 66 71 68 92 69
REMARK SMILES IDX 59 70 43 71 44 72 52 73 45 74 47 75 53 76 46 77 48 78 49 79
REMARK SMILES IDX 50 80 51 81 75 82 76 83 84 84 77 85 79 86 85 87 78 88 80 89
REMARK SMILES IDX 81 90 82 91 83 92 60 93 61 94 69 95 62 96 64 97 70 98 63 99
REMARK SMILES IDX 65 100 66 101 67 102 68 103
REMARK H PARENT 27 6 18 32 18 33 31 37 90 56 58 67
REMARK Flexibility Score: inf
ROOT
ATOM      1  C   UNL A   1      32.182  29.209  26.856  1.00  0.00     0.042 C 
ENDROOT
BRANCH   1   2
ATOM      2  C   UNL A   1      32.137  27.792  27.438  1.00  0.00     0.118 C 
BRANCH   2   3
ATOM      3  N   UNL A   1      30.916  27.083  27.103  1.00  0.00    -0.352 N 
ATOM      4  C   UNL A   1      30.702  25.857  26.526  1.00  0.00     0.255 C 
ATOM      5  O   UNL A   1      29.541  25.432  26.577  1.00  0.00    -0.269 OA
ATOM      6  H   UNL A   1      30.091  27.570  27.332  1.00  0.00     0.163 HD
BRANCH   4   7
ATOM      7  C   UNL A   1      31.784  25.077  25.949  1.00  0.00     0.086 A 
ATOM      8  C   UNL A   1      32.549  25.337  24.757  1.00  0.00     0.106 A 
ATOM      9  N   UNL A   1      33.363  24.299  24.455  1.00  0.00    -0.167 NA
ATOM     10  N   UNL A   1      33.010  23.357  25.354  1.00  0.00    -0.239 N 
ATOM     11  C   UNL A   1      32.343  23.908  26.415  1.00  0.00     0.129 A 
BRANCH   8  12
ATOM     12  C   UNL A   1      32.491  26.539  23.922  1.00  0.00     0.007 A 
ATOM     13  C   UNL A   1      31.219  28.163  22.645  1.00  0.00     0.119 A 
ATOM     14  C   UNL A   1      32.370  28.934  22.473  1.00  0.00     0.046 A 
ATOM     15  C   UNL A   1      31.280  26.957  23.354  1.00  0.00     0.056 A 
ATOM     16  C   UNL A   1      33.580  28.517  23.024  1.00  0.00     0.005 A 
ATOM     17  C   UNL A   1      33.642  27.319  23.737  1.00  0.00     0.011 A 
BRANCH  13  18
ATOM     18  O   UNL A   1      30.085  28.635  22.037  1.00  0.00    -0.497 OA
ATOM     19  C   UNL A   1      28.920  28.556  22.850  1.00  0.00     0.278 C 
ENDBRANCH  13  18
ENDBRANCH   8  12
BRANCH  10  20
ATOM     20  C   UNL A   1      33.417  22.003  25.290  1.00  0.00     0.081 A 
ATOM     21  C   UNL A   1      32.420  21.012  25.312  1.00  0.00     0.079 A 
ATOM     22  C   UNL A   1      34.790  21.663  25.086  1.00  0.00     0.069 A 
ATOM     23  C   UNL A   1      32.818  19.718  25.049  1.00  0.00     0.167 A 
ATOM     24  C   UNL A   1      35.120  20.353  24.711  1.00  0.00     0.066 A 
ATOM     25  C   UNL A   1      34.121  19.409  24.727  1.00  0.00     0.166 A 
ATOM     26  O   UNL A   1      32.028  18.610  25.059  1.00  0.00    -0.454 OA
ATOM     27  O   UNL A   1      34.305  18.081  24.498  1.00  0.00    -0.454 OA
ATOM     28  C   UNL A   1      33.024  17.574  24.923  1.00  0.00     0.468 C 
BRANCH  22  29
ATOM     29  C   UNL A   1      35.903  22.598  25.479  1.00  0.00     0.251 C 
ATOM     30  N   UNL A   1      36.037  22.941  26.799  1.00  0.00    -0.366 N 
ATOM     31  O   UNL A   1      36.642  23.148  24.681  1.00  0.00    -0.269 OA
ATOM     32  H   UNL A   1      35.460  22.523  27.478  1.00  0.00     0.159 HD
ATOM     33  H   UNL A   1      36.711  23.608  27.069  1.00  0.00     0.159 HD
ENDBRANCH  22  29
ENDBRANCH  10  20
ENDBRANCH   4   7
ENDBRANCH   2   3
ENDBRANCH   1   2
BRANCH   1  34
ATOM     34  C   UNL A   1      33.612  29.697  26.733  1.00  0.00     0.118 C 
BRANCH  34  35
ATOM     35  N   UNL A   1      33.749  31.120  27.097  1.00  0.00    -0.352 N 
ATOM     36  C   UNL A   1      34.635  31.723  27.974  1.00  0.00     0.251 C 
ATOM     37  H   UNL A   1      33.117  31.731  26.652  1.00  0.00     0.163 HD
ATOM     38  O   UNL A   1      34.421  32.851  28.402  1.00  0.00    -0.269 OA
BRANCH  36  39
ATOM     39  C   UNL A   1      35.848  30.985  28.365  1.00  0.00     0.039 A 
ATOM     40  C   UNL A   1      35.973  29.595  28.276  1.00  0.00     0.014 A 
ATOM     41  C   UNL A   1      36.911  31.757  28.802  1.00  0.00     0.014 A 
ATOM     42  C   UNL A   1      37.197  29.022  28.615  1.00  0.00     0.010 A 
ATOM     43  C   UNL A   1      38.164  31.242  28.771  1.00  0.00     0.010 A 
ATOM     44  C   UNL A   1      38.282  29.871  28.870  1.00  0.00    -0.014 A 
BRANCH  44  45
ATOM     45  C   UNL A   1      39.616  29.409  29.197  1.00  0.00     0.031 A 
ATOM     46  C   UNL A   1      39.918  29.507  30.642  1.00  0.00     0.074 A 
ATOM     47  C   UNL A   1      40.333  28.663  28.323  1.00  0.00     0.049 A 
ATOM     48  N   UNL A   1      40.671  30.377  31.227  1.00  0.00    -0.248 NA
ATOM     49  C   UNL A   1      39.107  28.700  31.570  1.00  0.00     0.031 C 
ATOM     50  C   UNL A   1      39.931  28.147  27.004  1.00  0.00     0.029 A 
ATOM     51  N   UNL A   1      41.532  28.059  28.509  1.00  0.00    -0.354 N 
ATOM     52  C   UNL A   1      40.643  30.027  32.574  1.00  0.00     0.074 A 
ATOM     53  C   UNL A   1      39.457  29.234  32.740  1.00  0.00     0.031 C 
ATOM     54  C   UNL A   1      40.741  27.121  26.652  1.00  0.00     0.029 A 
ATOM     55  C   UNL A   1      41.801  27.008  27.635  1.00  0.00     0.049 A 
ATOM     56  H   UNL A   1      42.165  28.341  29.210  1.00  0.00     0.167 HD
ATOM     57  C   UNL A   1      41.762  30.132  33.347  1.00  0.00     0.034 A 
ATOM     58  C   UNL A   1      42.785  26.080  27.774  1.00  0.00     0.034 A 
ATOM     59  C   UNL A   1      42.783  30.887  32.651  1.00  0.00     0.049 A 
ATOM     60  C   UNL A   1      43.758  26.638  28.749  1.00  0.00     0.074 A 
ATOM     61  C   UNL A   1      42.854  32.144  32.081  1.00  0.00     0.029 A 
ATOM     62  N   UNL A   1      43.807  30.161  32.085  1.00  0.00    -0.354 N 
ATOM     63  N   UNL A   1      44.473  27.706  28.519  1.00  0.00    -0.248 NA
ATOM     64  C   UNL A   1      43.563  26.302  30.151  1.00  0.00     0.031 C 
ATOM     65  C   UNL A   1      43.579  31.952  30.866  1.00  0.00     0.029 A 
ATOM     66  C   UNL A   1      43.988  30.617  30.808  1.00  0.00     0.049 A 
ATOM     67  H   UNL A   1      44.316  29.440  32.521  1.00  0.00     0.167 HD
ATOM     68  C   UNL A   1      44.415  28.421  29.710  1.00  0.00     0.074 A 
ATOM     69  C   UNL A   1      43.919  27.466  30.704  1.00  0.00     0.031 C 
ATOM     70  C   UNL A   1      44.461  29.787  29.722  1.00  0.00     0.034 A 
BRANCH  57  71
ATOM     71  C   UNL A   1      42.133  29.224  34.509  1.00  0.00     0.023 A 
ATOM     72  C   UNL A   1      42.671  29.866  35.650  1.00  0.00     0.012 A 
ATOM     73  C   UNL A   1      42.254  27.815  34.467  1.00  0.00     0.148 A 
ATOM     74  C   UNL A   1      43.394  29.168  36.622  1.00  0.00     0.002 A 
ATOM     75  C   UNL A   1      42.923  27.116  35.466  1.00  0.00     0.091 A 
ATOM     76  F   UNL A   1      41.817  27.124  33.417  1.00  0.00    -0.205 F 
ATOM     77  C   UNL A   1      43.530  27.792  36.524  1.00  0.00     0.022 A 
BRANCH  75  78
ATOM     78  S   UNL A   1      43.099  25.325  35.416  1.00  0.00     0.127 S 
ATOM     79  O   UNL A   1      41.704  24.896  35.440  1.00  0.00    -0.237 OA
ATOM     80  O   UNL A   1      43.787  25.132  34.139  1.00  0.00    -0.237 OA
ATOM     81  O   UNL A   1      43.894  24.968  36.584  1.00  0.00    -0.744 OA
ENDBRANCH  75  78
ENDBRANCH  57  71
BRANCH  58  82
ATOM     82  C   UNL A   1      42.811  24.644  27.388  1.00  0.00     0.023 A 
ATOM     83  C   UNL A   1      41.668  23.840  27.598  1.00  0.00     0.012 A 
ATOM     84  C   UNL A   1      43.832  24.130  26.557  1.00  0.00     0.148 A 
ATOM     85  C   UNL A   1      41.534  22.590  26.975  1.00  0.00     0.002 A 
ATOM     86  C   UNL A   1      43.694  22.886  25.944  1.00  0.00     0.091 A 
ATOM     87  F   UNL A   1      44.892  24.902  26.290  1.00  0.00    -0.205 F 
ATOM     88  C   UNL A   1      42.540  22.118  26.141  1.00  0.00     0.022 A 
BRANCH  86  89
ATOM     89  S   UNL A   1      44.938  22.228  24.823  1.00  0.00     0.127 S 
ATOM     90  O   UNL A   1      44.311  20.987  24.369  1.00  0.00    -0.237 OA
ATOM     91  O   UNL A   1      45.020  23.279  23.813  1.00  0.00    -0.237 OA
ATOM     92  O   UNL A   1      46.133  22.036  25.635  1.00  0.00    -0.744 OA
ENDBRANCH  86  89
ENDBRANCH  58  82
BRANCH  70  93
ATOM     93  C   UNL A   1      44.800  30.510  28.442  1.00  0.00     0.023 A 
ATOM     94  C   UNL A   1      43.817  30.994  27.553  1.00  0.00     0.012 A 
ATOM     95  C   UNL A   1      46.138  30.891  28.245  1.00  0.00     0.148 A 
ATOM     96  C   UNL A   1      44.163  31.833  26.488  1.00  0.00     0.002 A 
ATOM     97  C   UNL A   1      46.471  31.763  27.217  1.00  0.00     0.091 A 
ATOM     98  F   UNL A   1      47.059  30.426  29.102  1.00  0.00    -0.205 F 
ATOM     99  C   UNL A   1      45.489  32.230  26.330  1.00  0.00     0.022 A 
BRANCH  97 100
ATOM    100  S   UNL A   1      48.134  32.412  27.046  1.00  0.00     0.127 S 
ATOM    101  O   UNL A   1      47.987  33.327  25.916  1.00  0.00    -0.237 OA
ATOM    102  O   UNL A   1      48.350  33.065  28.338  1.00  0.00    -0.237 OA
ATOM    103  O   UNL A   1      48.994  31.259  26.810  1.00  0.00    -0.744 OA
ENDBRANCH  97 100
ENDBRANCH  70  93
ENDBRANCH  44  45
ENDBRANCH  36  39
ENDBRANCH  34  35
ENDBRANCH   1  34
TORSDOF 17
ENDMDL
