MODEL 1
REMARK VINA RESULT:     -12.6      0.000      0.000
REMARK SMILES O=C(NCCCNC(=O)c1csc(C[NH2+][C@H]2CCSc3ccc(F)cc32)c1)c1ccc(-c2c3nc(c(-c4cccc(S(=O)(=O)[O-])c4F)c4ccc([nH]4)c(-c4cccc(S(=O)(=O)[O-])c4F)c4nc(c(-c5cccc(S(=O)(=O)[O-])c5F)c5ccc2[nH]5)C=C4)C=C3)cc1
REMARK SMILES IDX 5 1 4 2 3 3 1 4 2 5 28 7 29 8 90 9 30 10 89 11 31 12 32 13
REMARK SMILES IDX 33 14 83 15 34 16 88 17 82 18 84 19 35 20 87 21 81 22 80 23
REMARK SMILES IDX 36 25 68 26 48 27 67 28 49 29 52 30 66 31 85 32 50 33 51 34
REMARK SMILES IDX 65 36 86 37 53 38 37 39 38 40 46 41 39 42 41 43 47 44 40 45
REMARK SMILES IDX 42 46 43 47 44 48 45 49 69 50 70 51 78 52 71 53 73 54 79 55
REMARK SMILES IDX 72 56 74 57 75 58 76 59 77 60 54 61 55 62 63 63 56 64 58 65
REMARK SMILES IDX 64 66 57 67 59 68 60 69 61 70 62 71 6 72 7 73 8 74 9 76
REMARK SMILES IDX 10 77 11 78 27 79 12 80 13 81 14 82 15 83 16 86 17 87 26 88
REMARK SMILES IDX 18 89 20 90 25 91 19 92 21 93 23 94 22 95 24 96
REMARK H PARENT 3 6 84 24 52 35 7 75 15 84 15 85
REMARK Flexibility Score: inf
ROOT
ATOM      1  C   UNL A   1      35.942  21.655  24.453  1.00  0.00     0.042 C 
ENDROOT
BRANCH   1   2
ATOM      2  C   UNL A   1      37.329  22.214  24.767  1.00  0.00     0.118 C 
BRANCH   2   3
ATOM      3  N   UNL A   1      38.204  21.225  25.375  1.00  0.00    -0.352 N 
ATOM      4  O   UNL A   1      40.018  20.354  26.340  1.00  0.00    -0.269 OA
ATOM      5  C   UNL A   1      39.342  21.360  26.128  1.00  0.00     0.251 C 
ATOM      6  H   UNL A   1      37.931  20.292  25.219  1.00  0.00     0.163 HD
BRANCH   5   7
ATOM      7  C   UNL A   1      39.774  22.662  26.694  1.00  0.00     0.039 A 
ATOM      8  C   UNL A   1      39.249  23.832  26.130  1.00  0.00     0.014 A 
ATOM      9  C   UNL A   1      40.766  22.759  27.673  1.00  0.00     0.014 A 
ATOM     10  C   UNL A   1      39.708  25.085  26.548  1.00  0.00     0.010 A 
ATOM     11  C   UNL A   1      41.178  24.011  28.137  1.00  0.00     0.010 A 
ATOM     12  C   UNL A   1      40.678  25.185  27.556  1.00  0.00    -0.014 A 
BRANCH  12  13
ATOM     13  C   UNL A   1      41.235  26.506  27.948  1.00  0.00     0.031 A 
ATOM     14  C   UNL A   1      42.649  26.867  27.574  1.00  0.00     0.074 A 
ATOM     15  C   UNL A   1      40.489  27.374  28.659  1.00  0.00     0.049 A 
ATOM     16  N   UNL A   1      43.317  27.961  27.838  1.00  0.00    -0.248 NA
ATOM     17  C   UNL A   1      43.421  25.863  26.822  1.00  0.00     0.031 C 
ATOM     18  C   UNL A   1      39.124  27.134  29.126  1.00  0.00     0.029 A 
ATOM     19  N   UNL A   1      40.781  28.636  29.116  1.00  0.00    -0.354 N 
ATOM     20  C   UNL A   1      44.596  27.754  27.338  1.00  0.00     0.074 A 
ATOM     21  C   UNL A   1      44.617  26.430  26.758  1.00  0.00     0.031 C 
ATOM     22  C   UNL A   1      38.685  28.225  29.776  1.00  0.00     0.029 A 
ATOM     23  C   UNL A   1      39.742  29.234  29.787  1.00  0.00     0.049 A 
ATOM     24  H   UNL A   1      41.652  29.072  28.975  1.00  0.00     0.167 HD
ATOM     25  C   UNL A   1      45.649  28.602  27.326  1.00  0.00     0.034 A 
ATOM     26  C   UNL A   1      39.641  30.463  30.331  1.00  0.00     0.034 A 
ATOM     27  C   UNL A   1      45.604  29.959  27.791  1.00  0.00     0.049 A 
ATOM     28  C   UNL A   1      40.802  31.414  30.239  1.00  0.00     0.074 A 
ATOM     29  C   UNL A   1      46.586  30.931  27.703  1.00  0.00     0.029 A 
ATOM     30  N   UNL A   1      44.515  30.540  28.418  1.00  0.00    -0.354 N 
ATOM     31  N   UNL A   1      41.959  31.243  29.648  1.00  0.00    -0.248 NA
ATOM     32  C   UNL A   1      40.638  32.734  30.869  1.00  0.00     0.031 C 
ATOM     33  C   UNL A   1      46.082  32.108  28.264  1.00  0.00     0.029 A 
ATOM     34  C   UNL A   1      44.797  31.861  28.718  1.00  0.00     0.049 A 
ATOM     35  H   UNL A   1      43.667  30.083  28.618  1.00  0.00     0.167 HD
ATOM     36  C   UNL A   1      42.651  32.438  29.814  1.00  0.00     0.074 A 
ATOM     37  C   UNL A   1      41.781  33.329  30.553  1.00  0.00     0.031 C 
ATOM     38  C   UNL A   1      43.902  32.756  29.403  1.00  0.00     0.034 A 
BRANCH  25  39
ATOM     39  C   UNL A   1      46.925  28.114  26.704  1.00  0.00     0.023 A 
ATOM     40  C   UNL A   1      47.969  27.677  27.542  1.00  0.00     0.012 A 
ATOM     41  C   UNL A   1      47.076  28.040  25.307  1.00  0.00     0.148 A 
ATOM     42  C   UNL A   1      49.152  27.182  26.998  1.00  0.00     0.002 A 
ATOM     43  C   UNL A   1      48.252  27.528  24.771  1.00  0.00     0.091 A 
ATOM     44  F   UNL A   1      46.081  28.493  24.529  1.00  0.00    -0.205 F 
ATOM     45  C   UNL A   1      49.291  27.100  25.615  1.00  0.00     0.022 A 
BRANCH  43  46
ATOM     46  S   UNL A   1      48.502  27.352  23.001  1.00  0.00     0.127 S 
ATOM     47  O   UNL A   1      49.890  27.785  22.854  1.00  0.00    -0.237 OA
ATOM     48  O   UNL A   1      48.284  25.920  22.793  1.00  0.00    -0.237 OA
ATOM     49  O   UNL A   1      47.504  28.209  22.376  1.00  0.00    -0.744 OA
ENDBRANCH  43  46
ENDBRANCH  25  39
BRANCH  26  50
ATOM     50  C   UNL A   1      38.342  30.899  30.910  1.00  0.00     0.023 A 
ATOM     51  C   UNL A   1      38.119  30.697  32.286  1.00  0.00     0.012 A 
ATOM     52  C   UNL A   1      37.370  31.563  30.140  1.00  0.00     0.148 A 
ATOM     53  C   UNL A   1      36.942  31.144  32.886  1.00  0.00     0.002 A 
ATOM     54  C   UNL A   1      36.213  32.032  30.751  1.00  0.00     0.091 A 
ATOM     55  F   UNL A   1      37.608  31.737  28.833  1.00  0.00    -0.205 F 
ATOM     56  C   UNL A   1      35.994  31.818  32.122  1.00  0.00     0.022 A 
BRANCH  54  57
ATOM     57  S   UNL A   1      34.969  32.988  29.875  1.00  0.00     0.127 S 
ATOM     58  O   UNL A   1      34.029  33.308  30.947  1.00  0.00    -0.237 OA
ATOM     59  O   UNL A   1      35.754  34.122  29.386  1.00  0.00    -0.237 OA
ATOM     60  O   UNL A   1      34.456  32.111  28.833  1.00  0.00    -0.744 OA
ENDBRANCH  54  57
ENDBRANCH  26  50
BRANCH  38  61
ATOM     61  C   UNL A   1      44.429  34.124  29.728  1.00  0.00     0.023 A 
ATOM     62  C   UNL A   1      45.203  34.293  30.891  1.00  0.00     0.012 A 
ATOM     63  C   UNL A   1      44.281  35.194  28.826  1.00  0.00     0.148 A 
ATOM     64  C   UNL A   1      45.827  35.512  31.153  1.00  0.00     0.002 A 
ATOM     65  C   UNL A   1      44.925  36.399  29.082  1.00  0.00     0.091 A 
ATOM     66  F   UNL A   1      43.539  35.002  27.725  1.00  0.00    -0.205 F 
ATOM     67  C   UNL A   1      45.696  36.560  30.246  1.00  0.00     0.022 A 
BRANCH  65  68
ATOM     68  S   UNL A   1      44.871  37.793  27.948  1.00  0.00     0.127 S 
ATOM     69  O   UNL A   1      45.627  38.806  28.685  1.00  0.00    -0.237 OA
ATOM     70  O   UNL A   1      45.553  37.256  26.771  1.00  0.00    -0.237 OA
ATOM     71  O   UNL A   1      43.461  38.102  27.751  1.00  0.00    -0.744 OA
ENDBRANCH  65  68
ENDBRANCH  38  61
ENDBRANCH  12  13
ENDBRANCH   5   7
ENDBRANCH   2   3
ENDBRANCH   1   2
BRANCH   1  72
ATOM     72  C   UNL A   1      35.193  21.078  25.653  1.00  0.00     0.118 C 
BRANCH  72  73
ATOM     73  N   UNL A   1      34.191  20.101  25.263  1.00  0.00    -0.352 N 
ATOM     74  C   UNL A   1      32.836  20.232  25.110  1.00  0.00     0.252 C 
ATOM     75  H   UNL A   1      34.542  19.200  25.078  1.00  0.00     0.163 HD
ATOM     76  O   UNL A   1      32.153  19.213  25.046  1.00  0.00    -0.269 OA
BRANCH  74  77
ATOM     77  C   UNL A   1      32.224  21.554  25.037  1.00  0.00     0.051 A 
ATOM     78  C   UNL A   1      31.596  22.207  26.080  1.00  0.00     0.079 A 
ATOM     79  C   UNL A   1      32.314  22.420  23.894  1.00  0.00     0.035 A 
ATOM     80  S   UNL A   1      31.056  23.774  25.661  1.00  0.00    -0.142 S 
ATOM     81  C   UNL A   1      31.727  23.654  24.094  1.00  0.00     0.059 A 
BRANCH  81  82
ATOM     82  C   UNL A   1      31.677  24.811  23.141  1.00  0.00     0.308 C 
BRANCH  82  83
ATOM     83  N   UNL A   1      32.677  25.818  23.489  1.00  0.00    -0.336 N 
ATOM     84  H   UNL A   1      33.525  25.634  22.953  1.00  0.00     0.347 HD
ATOM     85  H   UNL A   1      32.847  25.753  24.492  1.00  0.00     0.347 HD
BRANCH  83  86
ATOM     86  C   UNL A   1      32.220  27.188  23.196  1.00  0.00     0.215 C 
ATOM     87  C   UNL A   1      30.743  27.141  22.767  1.00  0.00     0.081 C 
ATOM     88  C   UNL A   1      32.469  28.120  24.375  1.00  0.00     0.026 A 
ATOM     89  C   UNL A   1      30.245  28.517  22.376  1.00  0.00     0.081 C 
ATOM     90  C   UNL A   1      31.617  29.194  24.696  1.00  0.00     0.017 A 
ATOM     91  C   UNL A   1      33.653  27.965  25.130  1.00  0.00     0.050 A 
ATOM     92  S   UNL A   1      30.110  29.592  23.822  1.00  0.00    -0.125 SA
ATOM     93  C   UNL A   1      31.929  30.040  25.776  1.00  0.00     0.018 A 
ATOM     94  C   UNL A   1      33.948  28.820  26.186  1.00  0.00     0.123 A 
ATOM     95  C   UNL A   1      33.092  29.854  26.522  1.00  0.00     0.040 A 
ATOM     96  F   UNL A   1      35.080  28.647  26.881  1.00  0.00    -0.207 F 
ENDBRANCH  83  86
ENDBRANCH  82  83
ENDBRANCH  81  82
ENDBRANCH  74  77
ENDBRANCH  72  73
ENDBRANCH   1  72
TORSDOF 16
ENDMDL
MODEL 2
REMARK VINA RESULT:     -12.4      5.143     10.490
REMARK SMILES O=C(NCCCNC(=O)c1csc(C[NH2+][C@H]2CCSc3ccc(F)cc32)c1)c1ccc(-c2c3nc(c(-c4cccc(S(=O)(=O)[O-])c4F)c4ccc([nH]4)c(-c4cccc(S(=O)(=O)[O-])c4F)c4nc(c(-c5cccc(S(=O)(=O)[O-])c5F)c5ccc2[nH]5)C=C4)C=C3)cc1
REMARK SMILES IDX 5 1 4 2 3 3 1 4 2 5 28 7 29 8 90 9 30 10 89 11 31 12 32 13
REMARK SMILES IDX 33 14 83 15 34 16 88 17 82 18 84 19 35 20 87 21 81 22 80 23
REMARK SMILES IDX 36 25 68 26 48 27 67 28 49 29 52 30 66 31 85 32 50 33 51 34
REMARK SMILES IDX 65 36 86 37 53 38 37 39 38 40 46 41 39 42 41 43 47 44 40 45
REMARK SMILES IDX 42 46 43 47 44 48 45 49 69 50 70 51 78 52 71 53 73 54 79 55
REMARK SMILES IDX 72 56 74 57 75 58 76 59 77 60 54 61 55 62 63 63 56 64 58 65
REMARK SMILES IDX 64 66 57 67 59 68 60 69 61 70 62 71 6 72 7 73 8 74 9 76
REMARK SMILES IDX 10 77 11 78 27 79 12 80 13 81 14 82 15 83 16 86 17 87 26 88
REMARK SMILES IDX 18 89 20 90 25 91 19 92 21 93 23 94 22 95 24 96
REMARK H PARENT 3 6 84 24 52 35 7 75 15 84 15 85
REMARK Flexibility Score: inf
ROOT
ATOM      1  C   UNL A   1      31.404  30.839  25.853  1.00  0.00     0.042 C 
ENDROOT
BRANCH   1   2
ATOM      2  C   UNL A   1      32.496  31.090  26.891  1.00  0.00     0.118 C 
BRANCH   2   3
ATOM      3  N   UNL A   1      32.683  32.504  27.174  1.00  0.00    -0.352 N 
ATOM      4  O   UNL A   1      33.456  34.353  28.156  1.00  0.00    -0.269 OA
ATOM      5  C   UNL A   1      33.649  33.168  27.885  1.00  0.00     0.251 C 
ATOM      6  H   UNL A   1      31.993  33.089  26.786  1.00  0.00     0.163 HD
BRANCH   5   7
ATOM      7  C   UNL A   1      34.906  32.514  28.324  1.00  0.00     0.039 A 
ATOM      8  C   UNL A   1      34.819  31.245  28.911  1.00  0.00     0.014 A 
ATOM      9  C   UNL A   1      36.142  33.167  28.285  1.00  0.00     0.014 A 
ATOM     10  C   UNL A   1      35.957  30.634  29.445  1.00  0.00     0.010 A 
ATOM     11  C   UNL A   1      37.290  32.529  28.760  1.00  0.00     0.010 A 
ATOM     12  C   UNL A   1      37.204  31.272  29.375  1.00  0.00    -0.014 A 
BRANCH  12  13
ATOM     13  C   UNL A   1      38.404  30.671  30.014  1.00  0.00     0.031 A 
ATOM     14  C   UNL A   1      38.774  31.051  31.424  1.00  0.00     0.074 A 
ATOM     15  C   UNL A   1      39.178  29.807  29.330  1.00  0.00     0.049 A 
ATOM     16  N   UNL A   1      39.789  30.650  32.146  1.00  0.00    -0.248 NA
ATOM     17  C   UNL A   1      37.904  32.024  32.107  1.00  0.00     0.031 C 
ATOM     18  C   UNL A   1      38.961  29.388  27.945  1.00  0.00     0.029 A 
ATOM     19  N   UNL A   1      40.309  29.127  29.711  1.00  0.00    -0.354 N 
ATOM     20  C   UNL A   1      39.710  31.358  33.338  1.00  0.00     0.074 A 
ATOM     21  C   UNL A   1      38.554  32.220  33.246  1.00  0.00     0.031 C 
ATOM     22  C   UNL A   1      39.909  28.500  27.602  1.00  0.00     0.029 A 
ATOM     23  C   UNL A   1      40.809  28.298  28.735  1.00  0.00     0.049 A 
ATOM     24  H   UNL A   1      40.721  29.222  30.599  1.00  0.00     0.167 HD
ATOM     25  C   UNL A   1      40.505  31.273  34.429  1.00  0.00     0.034 A 
ATOM     26  C   UNL A   1      41.860  27.456  28.756  1.00  0.00     0.034 A 
ATOM     27  C   UNL A   1      41.583  30.337  34.577  1.00  0.00     0.049 A 
ATOM     28  C   UNL A   1      42.685  27.325  30.007  1.00  0.00     0.074 A 
ATOM     29  C   UNL A   1      42.362  30.093  35.695  1.00  0.00     0.029 A 
ATOM     30  N   UNL A   1      42.024  29.480  33.583  1.00  0.00    -0.354 N 
ATOM     31  N   UNL A   1      42.515  27.910  31.167  1.00  0.00    -0.248 NA
ATOM     32  C   UNL A   1      43.831  26.403  29.961  1.00  0.00     0.031 C 
ATOM     33  C   UNL A   1      43.266  29.074  35.379  1.00  0.00     0.029 A 
ATOM     34  C   UNL A   1      43.062  28.701  34.061  1.00  0.00     0.049 A 
ATOM     35  H   UNL A   1      41.653  29.432  32.672  1.00  0.00     0.167 HD
ATOM     36  C   UNL A   1      43.516  27.412  31.994  1.00  0.00     0.074 A 
ATOM     37  C   UNL A   1      44.283  26.470  31.207  1.00  0.00     0.031 C 
ATOM     38  C   UNL A   1      43.781  27.725  33.285  1.00  0.00     0.034 A 
BRANCH  25  39
ATOM     39  C   UNL A   1      40.180  32.161  35.594  1.00  0.00     0.023 A 
ATOM     40  C   UNL A   1      40.947  33.324  35.801  1.00  0.00     0.012 A 
ATOM     41  C   UNL A   1      39.098  31.878  36.449  1.00  0.00     0.148 A 
ATOM     42  C   UNL A   1      40.648  34.191  36.850  1.00  0.00     0.002 A 
ATOM     43  C   UNL A   1      38.794  32.757  37.482  1.00  0.00     0.091 A 
ATOM     44  F   UNL A   1      38.403  30.748  36.252  1.00  0.00    -0.205 F 
ATOM     45  C   UNL A   1      39.569  33.912  37.685  1.00  0.00     0.022 A 
BRANCH  43  46
ATOM     46  S   UNL A   1      37.400  32.496  38.584  1.00  0.00     0.127 S 
ATOM     47  O   UNL A   1      37.728  33.390  39.693  1.00  0.00    -0.237 OA
ATOM     48  O   UNL A   1      36.267  32.930  37.766  1.00  0.00    -0.237 OA
ATOM     49  O   UNL A   1      37.406  31.074  38.896  1.00  0.00    -0.744 OA
ENDBRANCH  43  46
ENDBRANCH  25  39
BRANCH  26  50
ATOM     50  C   UNL A   1      42.118  26.582  27.580  1.00  0.00     0.023 A 
ATOM     51  C   UNL A   1      42.758  27.140  26.456  1.00  0.00     0.012 A 
ATOM     52  C   UNL A   1      41.800  25.211  27.588  1.00  0.00     0.148 A 
ATOM     53  C   UNL A   1      43.075  26.346  25.354  1.00  0.00     0.002 A 
ATOM     54  C   UNL A   1      42.146  24.421  26.498  1.00  0.00     0.091 A 
ATOM     55  F   UNL A   1      41.187  24.710  28.668  1.00  0.00    -0.205 F 
ATOM     56  C   UNL A   1      42.776  24.987  25.378  1.00  0.00     0.022 A 
BRANCH  54  57
ATOM     57  S   UNL A   1      41.885  22.643  26.464  1.00  0.00     0.127 S 
ATOM     58  O   UNL A   1      42.308  22.305  25.107  1.00  0.00    -0.237 OA
ATOM     59  O   UNL A   1      42.787  22.189  27.522  1.00  0.00    -0.237 OA
ATOM     60  O   UNL A   1      40.470  22.444  26.747  1.00  0.00    -0.744 OA
ENDBRANCH  54  57
ENDBRANCH  26  50
BRANCH  38  61
ATOM     61  C   UNL A   1      44.944  27.051  33.954  1.00  0.00     0.023 A 
ATOM     62  C   UNL A   1      46.214  27.652  33.871  1.00  0.00     0.012 A 
ATOM     63  C   UNL A   1      44.759  25.919  34.770  1.00  0.00     0.148 A 
ATOM     64  C   UNL A   1      47.288  27.135  34.594  1.00  0.00     0.002 A 
ATOM     65  C   UNL A   1      45.828  25.423  35.505  1.00  0.00     0.091 A 
ATOM     66  F   UNL A   1      43.537  25.370  34.830  1.00  0.00    -0.205 F 
ATOM     67  C   UNL A   1      47.093  26.029  35.417  1.00  0.00     0.022 A 
BRANCH  65  68
ATOM     68  S   UNL A   1      45.671  24.039  36.642  1.00  0.00     0.127 S 
ATOM     69  O   UNL A   1      45.265  22.959  35.743  1.00  0.00    -0.237 OA
ATOM     70  O   UNL A   1      47.031  23.920  37.167  1.00  0.00    -0.237 OA
ATOM     71  O   UNL A   1      44.668  24.431  37.623  1.00  0.00    -0.744 OA
ENDBRANCH  65  68
ENDBRANCH  38  61
ENDBRANCH  12  13
ENDBRANCH   5   7
ENDBRANCH   2   3
ENDBRANCH   1   2
BRANCH   1  72
ATOM     72  C   UNL A   1      31.570  29.557  25.039  1.00  0.00     0.118 C 
BRANCH  72  73
ATOM     73  N   UNL A   1      30.689  29.515  23.884  1.00  0.00    -0.352 N 
ATOM     74  C   UNL A   1      30.662  28.653  22.819  1.00  0.00     0.252 C 
ATOM     75  H   UNL A   1      30.001  30.219  23.864  1.00  0.00     0.163 HD
ATOM     76  O   UNL A   1      30.013  28.973  21.826  1.00  0.00    -0.269 OA
BRANCH  74  77
ATOM     77  C   UNL A   1      31.395  27.394  22.867  1.00  0.00     0.051 A 
ATOM     78  C   UNL A   1      32.656  27.180  22.344  1.00  0.00     0.079 A 
ATOM     79  C   UNL A   1      30.957  26.234  23.593  1.00  0.00     0.035 A 
ATOM     80  S   UNL A   1      33.246  25.602  22.643  1.00  0.00    -0.142 S 
ATOM     81  C   UNL A   1      31.862  25.191  23.558  1.00  0.00     0.059 A 
BRANCH  81  82
ATOM     82  C   UNL A   1      31.754  23.860  24.239  1.00  0.00     0.308 C 
BRANCH  82  83
ATOM     83  N   UNL A   1      32.664  23.781  25.379  1.00  0.00    -0.336 N 
ATOM     84  H   UNL A   1      32.206  24.193  26.192  1.00  0.00     0.347 HD
ATOM     85  H   UNL A   1      33.515  24.286  25.133  1.00  0.00     0.347 HD
BRANCH  83  86
ATOM     86  C   UNL A   1      33.041  22.393  25.701  1.00  0.00     0.215 C 
ATOM     87  C   UNL A   1      32.188  21.434  24.853  1.00  0.00     0.081 C 
ATOM     88  C   UNL A   1      34.538  22.171  25.529  1.00  0.00     0.026 A 
ATOM     89  C   UNL A   1      32.480  19.989  25.204  1.00  0.00     0.081 C 
ATOM     90  C   UNL A   1      35.087  20.946  25.099  1.00  0.00     0.017 A 
ATOM     91  C   UNL A   1      35.430  23.201  25.901  1.00  0.00     0.050 A 
ATOM     92  S   UNL A   1      34.130  19.508  24.645  1.00  0.00    -0.125 SA
ATOM     93  C   UNL A   1      36.483  20.798  25.000  1.00  0.00     0.018 A 
ATOM     94  C   UNL A   1      36.806  23.030  25.807  1.00  0.00     0.123 A 
ATOM     95  C   UNL A   1      37.342  21.838  25.352  1.00  0.00     0.040 A 
ATOM     96  F   UNL A   1      37.624  24.026  26.171  1.00  0.00    -0.207 F 
ENDBRANCH  83  86
ENDBRANCH  82  83
ENDBRANCH  81  82
ENDBRANCH  74  77
ENDBRANCH  72  73
ENDBRANCH   1  72
TORSDOF 16
ENDMDL
MODEL 3
REMARK VINA RESULT:     -12.3      5.351     10.862
REMARK SMILES O=C(NCCCNC(=O)c1csc(C[NH2+][C@H]2CCSc3ccc(F)cc32)c1)c1ccc(-c2c3nc(c(-c4cccc(S(=O)(=O)[O-])c4F)c4ccc([nH]4)c(-c4cccc(S(=O)(=O)[O-])c4F)c4nc(c(-c5cccc(S(=O)(=O)[O-])c5F)c5ccc2[nH]5)C=C4)C=C3)cc1
REMARK SMILES IDX 5 1 4 2 3 3 1 4 2 5 28 7 29 8 90 9 30 10 89 11 31 12 32 13
REMARK SMILES IDX 33 14 83 15 34 16 88 17 82 18 84 19 35 20 87 21 81 22 80 23
REMARK SMILES IDX 36 25 68 26 48 27 67 28 49 29 52 30 66 31 85 32 50 33 51 34
REMARK SMILES IDX 65 36 86 37 53 38 37 39 38 40 46 41 39 42 41 43 47 44 40 45
REMARK SMILES IDX 42 46 43 47 44 48 45 49 69 50 70 51 78 52 71 53 73 54 79 55
REMARK SMILES IDX 72 56 74 57 75 58 76 59 77 60 54 61 55 62 63 63 56 64 58 65
REMARK SMILES IDX 64 66 57 67 59 68 60 69 61 70 62 71 6 72 7 73 8 74 9 76
REMARK SMILES IDX 10 77 11 78 27 79 12 80 13 81 14 82 15 83 16 86 17 87 26 88
REMARK SMILES IDX 18 89 20 90 25 91 19 92 21 93 23 94 22 95 24 96
REMARK H PARENT 3 6 84 24 52 35 7 75 15 84 15 85
REMARK Flexibility Score: inf
ROOT
ATOM      1  C   UNL A   1      31.391  31.678  26.834  1.00  0.00     0.042 C 
ENDROOT
BRANCH   1   2
ATOM      2  C   UNL A   1      32.530  32.656  26.547  1.00  0.00     0.118 C 
BRANCH   2   3
ATOM      3  N   UNL A   1      32.475  33.838  27.391  1.00  0.00    -0.352 N 
ATOM      4  O   UNL A   1      32.810  35.161  29.157  1.00  0.00    -0.269 OA
ATOM      5  C   UNL A   1      33.203  34.202  28.495  1.00  0.00     0.251 C 
ATOM      6  H   UNL A   1      31.793  34.496  27.122  1.00  0.00     0.163 HD
BRANCH   5   7
ATOM      7  C   UNL A   1      34.437  33.488  28.905  1.00  0.00     0.039 A 
ATOM      8  C   UNL A   1      34.303  32.227  29.500  1.00  0.00     0.014 A 
ATOM      9  C   UNL A   1      35.702  34.079  28.830  1.00  0.00     0.014 A 
ATOM     10  C   UNL A   1      35.423  31.563  30.007  1.00  0.00     0.010 A 
ATOM     11  C   UNL A   1      36.830  33.387  29.279  1.00  0.00     0.010 A 
ATOM     12  C   UNL A   1      36.698  32.138  29.902  1.00  0.00    -0.014 A 
BRANCH  12  13
ATOM     13  C   UNL A   1      37.883  31.481  30.514  1.00  0.00     0.031 A 
ATOM     14  C   UNL A   1      38.236  31.757  31.952  1.00  0.00     0.074 A 
ATOM     15  C   UNL A   1      38.659  30.660  29.780  1.00  0.00     0.049 A 
ATOM     16  N   UNL A   1      39.237  31.295  32.657  1.00  0.00    -0.248 NA
ATOM     17  C   UNL A   1      37.366  32.687  32.690  1.00  0.00     0.031 C 
ATOM     18  C   UNL A   1      38.457  30.343  28.367  1.00  0.00     0.029 A 
ATOM     19  N   UNL A   1      39.777  29.943  30.127  1.00  0.00    -0.354 N 
ATOM     20  C   UNL A   1      39.148  31.917  33.895  1.00  0.00     0.074 A 
ATOM     21  C   UNL A   1      38.001  32.796  33.849  1.00  0.00     0.031 C 
ATOM     22  C   UNL A   1      39.402  29.471  27.974  1.00  0.00     0.029 A 
ATOM     23  C   UNL A   1      40.284  29.181  29.102  1.00  0.00     0.049 A 
ATOM     24  H   UNL A   1      40.178  29.971  31.025  1.00  0.00     0.167 HD
ATOM     25  C   UNL A   1      39.927  31.747  34.988  1.00  0.00     0.034 A 
ATOM     26  C   UNL A   1      41.327  28.328  29.077  1.00  0.00     0.034 A 
ATOM     27  C   UNL A   1      40.994  30.792  35.083  1.00  0.00     0.049 A 
ATOM     28  C   UNL A   1      42.133  28.101  30.327  1.00  0.00     0.074 A 
ATOM     29  C   UNL A   1      41.754  30.462  36.192  1.00  0.00     0.029 A 
ATOM     30  N   UNL A   1      41.441  30.004  34.037  1.00  0.00    -0.354 N 
ATOM     31  N   UNL A   1      41.952  28.604  31.523  1.00  0.00    -0.248 NA
ATOM     32  C   UNL A   1      43.270  27.173  30.230  1.00  0.00     0.031 C 
ATOM     33  C   UNL A   1      42.654  29.458  35.817  1.00  0.00     0.029 A 
ATOM     34  C   UNL A   1      42.464  29.182  34.473  1.00  0.00     0.049 A 
ATOM     35  H   UNL A   1      41.082  30.024  33.121  1.00  0.00     0.167 HD
ATOM     36  C   UNL A   1      42.936  28.039  32.326  1.00  0.00     0.074 A 
ATOM     37  C   UNL A   1      43.706  27.147  31.484  1.00  0.00     0.031 C 
ATOM     38  C   UNL A   1      43.185  28.256  33.639  1.00  0.00     0.034 A 
BRANCH  25  39
ATOM     39  C   UNL A   1      39.593  32.554  36.209  1.00  0.00     0.023 A 
ATOM     40  C   UNL A   1      40.225  33.798  36.398  1.00  0.00     0.012 A 
ATOM     41  C   UNL A   1      38.630  32.113  37.135  1.00  0.00     0.148 A 
ATOM     42  C   UNL A   1      39.911  34.590  37.501  1.00  0.00     0.002 A 
ATOM     43  C   UNL A   1      38.307  32.917  38.223  1.00  0.00     0.091 A 
ATOM     44  F   UNL A   1      38.066  30.910  36.951  1.00  0.00    -0.205 F 
ATOM     45  C   UNL A   1      38.948  34.154  38.408  1.00  0.00     0.022 A 
BRANCH  43  46
ATOM     46  S   UNL A   1      37.052  32.451  39.421  1.00  0.00     0.127 S 
ATOM     47  O   UNL A   1      37.270  33.440  40.475  1.00  0.00    -0.237 OA
ATOM     48  O   UNL A   1      35.813  32.628  38.664  1.00  0.00    -0.237 OA
ATOM     49  O   UNL A   1      37.345  31.071  39.780  1.00  0.00    -0.744 OA
ENDBRANCH  43  46
ENDBRANCH  25  39
BRANCH  26  50
ATOM     50  C   UNL A   1      41.593  27.537  27.845  1.00  0.00     0.023 A 
ATOM     51  C   UNL A   1      42.097  28.207  26.713  1.00  0.00     0.012 A 
ATOM     52  C   UNL A   1      41.419  26.142  27.805  1.00  0.00     0.148 A 
ATOM     53  C   UNL A   1      42.418  27.499  25.555  1.00  0.00     0.002 A 
ATOM     54  C   UNL A   1      41.769  25.439  26.658  1.00  0.00     0.091 A 
ATOM     55  F   UNL A   1      40.933  25.533  28.895  1.00  0.00    -0.205 F 
ATOM     56  C   UNL A   1      42.263  26.116  25.530  1.00  0.00     0.022 A 
BRANCH  54  57
ATOM     57  S   UNL A   1      41.690  23.647  26.552  1.00  0.00     0.127 S 
ATOM     58  O   UNL A   1      42.351  23.245  27.791  1.00  0.00    -0.237 OA
ATOM     59  O   UNL A   1      40.246  23.414  26.520  1.00  0.00    -0.237 OA
ATOM     60  O   UNL A   1      42.388  23.291  25.325  1.00  0.00    -0.744 OA
ENDBRANCH  54  57
ENDBRANCH  26  50
BRANCH  38  61
ATOM     61  C   UNL A   1      44.333  27.525  34.275  1.00  0.00     0.023 A 
ATOM     62  C   UNL A   1      45.610  28.118  34.252  1.00  0.00     0.012 A 
ATOM     63  C   UNL A   1      44.126  26.340  35.004  1.00  0.00     0.148 A 
ATOM     64  C   UNL A   1      46.668  27.540  34.951  1.00  0.00     0.002 A 
ATOM     65  C   UNL A   1      45.180  25.782  35.717  1.00  0.00     0.091 A 
ATOM     66  F   UNL A   1      42.898  25.800  35.009  1.00  0.00    -0.205 F 
ATOM     67  C   UNL A   1      46.452  26.380  35.690  1.00  0.00     0.022 A 
BRANCH  65  68
ATOM     68  S   UNL A   1      44.995  24.322  36.750  1.00  0.00     0.127 S 
ATOM     69  O   UNL A   1      44.173  24.835  37.847  1.00  0.00    -0.237 OA
ATOM     70  O   UNL A   1      44.306  23.398  35.851  1.00  0.00    -0.237 OA
ATOM     71  O   UNL A   1      46.342  23.919  37.130  1.00  0.00    -0.744 OA
ENDBRANCH  65  68
ENDBRANCH  38  61
ENDBRANCH  12  13
ENDBRANCH   5   7
ENDBRANCH   2   3
ENDBRANCH   1   2
BRANCH   1  72
ATOM     72  C   UNL A   1      31.799  30.206  26.865  1.00  0.00     0.118 C 
BRANCH  72  73
ATOM     73  N   UNL A   1      33.224  30.030  27.090  1.00  0.00    -0.352 N 
ATOM     74  C   UNL A   1      34.058  29.003  26.736  1.00  0.00     0.252 C 
ATOM     75  H   UNL A   1      33.659  30.768  27.574  1.00  0.00     0.163 HD
ATOM     76  O   UNL A   1      35.163  28.936  27.271  1.00  0.00    -0.269 OA
BRANCH  74  77
ATOM     77  C   UNL A   1      33.635  28.010  25.756  1.00  0.00     0.051 A 
ATOM     78  C   UNL A   1      33.752  28.136  24.384  1.00  0.00     0.079 A 
ATOM     79  C   UNL A   1      33.160  26.697  26.093  1.00  0.00     0.035 A 
ATOM     80  S   UNL A   1      33.220  26.749  23.537  1.00  0.00    -0.142 S 
ATOM     81  C   UNL A   1      32.900  25.907  24.989  1.00  0.00     0.059 A 
BRANCH  81  82
ATOM     82  C   UNL A   1      32.441  24.481  24.971  1.00  0.00     0.308 C 
BRANCH  82  83
ATOM     83  N   UNL A   1      33.311  23.641  25.792  1.00  0.00    -0.336 N 
ATOM     84  H   UNL A   1      32.781  22.828  26.103  1.00  0.00     0.347 HD
ATOM     85  H   UNL A   1      33.631  24.204  26.580  1.00  0.00     0.347 HD
BRANCH  83  86
ATOM     86  C   UNL A   1      34.501  23.178  25.056  1.00  0.00     0.215 C 
ATOM     87  C   UNL A   1      35.759  23.756  25.725  1.00  0.00     0.081 C 
ATOM     88  C   UNL A   1      34.528  21.659  24.946  1.00  0.00     0.026 A 
ATOM     89  C   UNL A   1      37.009  23.375  24.958  1.00  0.00     0.081 C 
ATOM     90  C   UNL A   1      35.722  20.912  24.945  1.00  0.00     0.017 A 
ATOM     91  C   UNL A   1      33.314  20.966  24.743  1.00  0.00     0.050 A 
ATOM     92  S   UNL A   1      37.358  21.610  25.124  1.00  0.00    -0.125 SA
ATOM     93  C   UNL A   1      35.676  19.513  24.800  1.00  0.00     0.018 A 
ATOM     94  C   UNL A   1      33.292  19.584  24.590  1.00  0.00     0.123 A 
ATOM     95  C   UNL A   1      34.463  18.848  24.624  1.00  0.00     0.040 A 
ATOM     96  F   UNL A   1      32.123  18.958  24.397  1.00  0.00    -0.207 F 
ENDBRANCH  83  86
ENDBRANCH  82  83
ENDBRANCH  81  82
ENDBRANCH  74  77
ENDBRANCH  72  73
ENDBRANCH   1  72
TORSDOF 16
ENDMDL
