MODEL 1
REMARK VINA RESULT:     -10.7      0.000      0.000
REMARK SMILES CCOc1cc(C(=O)NCCCNC(=O)c2ccc(-c3c4nc(c(-c5cccc(S(=O)(=O)[O-])c5F)c5ccc([nH]5)c(-c5cccc(S(=O)(=O)[O-])c5F)c5nc(c(-c6cccc(S(=O)(=O)[O-])c6F)c6ccc3[nH]6)C=C5)C=C4)cc2)cc(I)c1OCC
REMARK SMILES IDX 11 1 10 2 9 3 7 4 8 5 6 7 4 8 5 9 82 10 80 11 79 12 81 13
REMARK SMILES IDX 3 14 2 15 1 16 83 17 84 18 85 19 12 20 13 21 14 22 15 24
REMARK SMILES IDX 16 25 17 26 78 27 18 28 77 29 19 30 20 31 21 32 71 33 22 34
REMARK SMILES IDX 76 35 70 36 72 37 23 38 75 39 69 40 68 41 24 43 56 44 36 45
REMARK SMILES IDX 55 46 37 47 40 48 54 49 73 50 38 51 39 52 53 54 74 55 41 56
REMARK SMILES IDX 25 57 26 58 34 59 27 60 29 61 35 62 28 63 30 64 31 65 32 66
REMARK SMILES IDX 33 67 57 68 58 69 66 70 59 71 61 72 67 73 60 74 62 75 63 76
REMARK SMILES IDX 64 77 65 78 42 79 43 80 51 81 44 82 46 83 52 84 45 85 47 86
REMARK SMILES IDX 48 87 49 88 50 89
REMARK H PARENT 9 6 13 23 72 42 40 53
REMARK Flexibility Score: inf
ROOT
ATOM      1  C   UNL A   1      34.722  22.032  27.035  1.00  0.00     0.042 C 
ENDROOT
BRANCH   1   2
ATOM      2  C   UNL A   1      33.506  21.452  26.311  1.00  0.00     0.118 C 
BRANCH   2   3
ATOM      3  N   UNL A   1      32.280  22.038  26.816  1.00  0.00    -0.352 N 
ATOM      4  C   UNL A   1      31.724  23.281  26.681  1.00  0.00     0.251 C 
ATOM      5  O   UNL A   1      30.638  23.473  27.231  1.00  0.00    -0.269 OA
ATOM      6  H   UNL A   1      31.743  21.420  27.362  1.00  0.00     0.163 HD
BRANCH   4   7
ATOM      7  C   UNL A   1      32.327  24.377  25.872  1.00  0.00     0.044 A 
ATOM      8  C   UNL A   1      33.181  26.648  25.879  1.00  0.00     0.163 A 
ATOM      9  C   UNL A   1      32.579  25.572  26.536  1.00  0.00     0.064 A 
ATOM     10  C   UNL A   1      33.421  26.620  24.484  1.00  0.00     0.174 A 
ATOM     11  C   UNL A   1      33.049  25.455  23.803  1.00  0.00     0.060 A 
ATOM     12  C   UNL A   1      32.627  24.317  24.517  1.00  0.00     0.032 A 
ATOM     13  I   UNL A   1      32.760  25.207  21.709  1.00  0.00    -0.040 I 
BRANCH   8  14
ATOM     14  O   UNL A   1      33.416  27.800  26.597  1.00  0.00    -0.490 OA
BRANCH  14  15
ATOM     15  C   UNL A   1      32.214  28.474  27.002  1.00  0.00     0.226 C 
ATOM     16  C   UNL A   1      32.332  29.991  26.910  1.00  0.00     0.049 C 
ENDBRANCH  14  15
ENDBRANCH   8  14
BRANCH  10  17
ATOM     17  O   UNL A   1      33.994  27.765  24.007  1.00  0.00    -0.489 OA
BRANCH  17  18
ATOM     18  C   UNL A   1      33.241  28.918  23.647  1.00  0.00     0.226 C 
ATOM     19  C   UNL A   1      31.927  28.638  22.927  1.00  0.00     0.049 C 
ENDBRANCH  17  18
ENDBRANCH  10  17
ENDBRANCH   4   7
ENDBRANCH   2   3
ENDBRANCH   1   2
BRANCH   1  20
ATOM     20  C   UNL A   1      35.834  22.434  26.072  1.00  0.00     0.118 C 
BRANCH  20  21
ATOM     21  N   UNL A   1      36.802  21.357  25.904  1.00  0.00    -0.352 N 
ATOM     22  C   UNL A   1      38.172  21.405  25.881  1.00  0.00     0.251 C 
ATOM     23  H   UNL A   1      36.413  20.459  25.790  1.00  0.00     0.163 HD
ATOM     24  O   UNL A   1      38.803  20.447  25.446  1.00  0.00    -0.269 OA
BRANCH  22  25
ATOM     25  C   UNL A   1      38.879  22.600  26.382  1.00  0.00     0.039 A 
ATOM     26  C   UNL A   1      40.010  22.432  27.185  1.00  0.00     0.014 A 
ATOM     27  C   UNL A   1      38.405  23.882  26.089  1.00  0.00     0.014 A 
ATOM     28  C   UNL A   1      40.696  23.553  27.653  1.00  0.00     0.010 A 
ATOM     29  C   UNL A   1      39.132  24.995  26.494  1.00  0.00     0.010 A 
ATOM     30  C   UNL A   1      40.279  24.843  27.286  1.00  0.00    -0.014 A 
BRANCH  30  31
ATOM     31  C   UNL A   1      41.038  26.048  27.698  1.00  0.00     0.031 A 
ATOM     32  C   UNL A   1      40.352  27.151  28.455  1.00  0.00     0.074 A 
ATOM     33  C   UNL A   1      42.316  26.190  27.297  1.00  0.00     0.049 A 
ATOM     34  N   UNL A   1      40.821  28.316  28.817  1.00  0.00    -0.248 NA
ATOM     35  C   UNL A   1      38.945  26.928  28.828  1.00  0.00     0.031 C 
ATOM     36  C   UNL A   1      43.063  25.219  26.495  1.00  0.00     0.029 A 
ATOM     37  N   UNL A   1      43.202  27.221  27.478  1.00  0.00    -0.354 N 
ATOM     38  C   UNL A   1      39.761  28.979  29.426  1.00  0.00     0.074 A 
ATOM     39  C   UNL A   1      38.616  28.099  29.356  1.00  0.00     0.031 C 
ATOM     40  C   UNL A   1      44.291  25.700  26.250  1.00  0.00     0.029 A 
ATOM     41  C   UNL A   1      44.408  27.028  26.844  1.00  0.00     0.049 A 
ATOM     42  H   UNL A   1      42.996  28.024  28.010  1.00  0.00     0.167 HD
ATOM     43  C   UNL A   1      39.751  30.201  30.011  1.00  0.00     0.034 A 
ATOM     44  C   UNL A   1      45.480  27.836  26.738  1.00  0.00     0.034 A 
ATOM     45  C   UNL A   1      40.905  31.053  30.108  1.00  0.00     0.049 A 
ATOM     46  C   UNL A   1      45.450  29.177  27.419  1.00  0.00     0.074 A 
ATOM     47  C   UNL A   1      41.025  32.266  30.761  1.00  0.00     0.029 A 
ATOM     48  N   UNL A   1      42.135  30.788  29.526  1.00  0.00    -0.354 N 
ATOM     49  N   UNL A   1      44.491  29.720  28.128  1.00  0.00    -0.248 NA
ATOM     50  C   UNL A   1      46.661  30.005  27.311  1.00  0.00     0.031 C 
ATOM     51  C   UNL A   1      42.320  32.749  30.549  1.00  0.00     0.029 A 
ATOM     52  C   UNL A   1      43.016  31.822  29.789  1.00  0.00     0.049 A 
ATOM     53  H   UNL A   1      42.350  29.983  29.001  1.00  0.00     0.167 HD
ATOM     54  C   UNL A   1      44.990  30.936  28.578  1.00  0.00     0.074 A 
ATOM     55  C   UNL A   1      46.347  31.040  28.079  1.00  0.00     0.031 C 
ATOM     56  C   UNL A   1      44.378  31.888  29.324  1.00  0.00     0.034 A 
BRANCH  43  57
ATOM     57  C   UNL A   1      38.462  30.671  30.633  1.00  0.00     0.023 A 
ATOM     58  C   UNL A   1      38.218  30.422  32.000  1.00  0.00     0.012 A 
ATOM     59  C   UNL A   1      37.522  31.410  29.889  1.00  0.00     0.148 A 
ATOM     60  C   UNL A   1      37.044  30.868  32.606  1.00  0.00     0.002 A 
ATOM     61  C   UNL A   1      36.376  31.892  30.511  1.00  0.00     0.091 A 
ATOM     62  F   UNL A   1      37.761  31.621  28.587  1.00  0.00    -0.205 F 
ATOM     63  C   UNL A   1      36.130  31.611  31.865  1.00  0.00     0.022 A 
BRANCH  61  64
ATOM     64  S   UNL A   1      35.176  32.927  29.666  1.00  0.00     0.127 S 
ATOM     65  O   UNL A   1      34.644  32.003  28.664  1.00  0.00    -0.237 OA
ATOM     66  O   UNL A   1      34.244  33.259  30.744  1.00  0.00    -0.237 OA
ATOM     67  O   UNL A   1      35.922  34.059  29.137  1.00  0.00    -0.744 OA
ENDBRANCH  61  64
ENDBRANCH  43  57
BRANCH  44  68
ATOM     68  C   UNL A   1      46.690  27.374  26.002  1.00  0.00     0.023 A 
ATOM     69  C   UNL A   1      46.788  27.610  24.616  1.00  0.00     0.012 A 
ATOM     70  C   UNL A   1      47.756  26.736  26.666  1.00  0.00     0.148 A 
ATOM     71  C   UNL A   1      47.910  27.191  23.900  1.00  0.00     0.002 A 
ATOM     72  C   UNL A   1      48.895  26.372  25.958  1.00  0.00     0.091 A 
ATOM     73  F   UNL A   1      47.640  26.513  27.983  1.00  0.00    -0.205 F 
ATOM     74  C   UNL A   1      48.967  26.582  24.572  1.00  0.00     0.022 A 
BRANCH  72  75
ATOM     75  S   UNL A   1      50.358  25.708  26.761  1.00  0.00     0.127 S 
ATOM     76  O   UNL A   1      49.850  24.460  27.324  1.00  0.00    -0.237 OA
ATOM     77  O   UNL A   1      51.276  25.547  25.633  1.00  0.00    -0.237 OA
ATOM     78  O   UNL A   1      50.770  26.717  27.728  1.00  0.00    -0.744 OA
ENDBRANCH  72  75
ENDBRANCH  44  68
BRANCH  56  79
ATOM     79  C   UNL A   1      45.173  33.118  29.678  1.00  0.00     0.023 A 
ATOM     80  C   UNL A   1      45.979  33.121  30.834  1.00  0.00     0.012 A 
ATOM     81  C   UNL A   1      45.190  34.234  28.818  1.00  0.00     0.148 A 
ATOM     82  C   UNL A   1      46.768  34.228  31.143  1.00  0.00     0.002 A 
ATOM     83  C   UNL A   1      46.018  35.312  29.106  1.00  0.00     0.091 A 
ATOM     84  F   UNL A   1      44.403  34.215  27.732  1.00  0.00    -0.205 F 
ATOM     85  C   UNL A   1      46.797  35.317  30.274  1.00  0.00     0.022 A 
BRANCH  83  86
ATOM     86  S   UNL A   1      46.196  36.714  27.998  1.00  0.00     0.127 S 
ATOM     87  O   UNL A   1      44.869  37.325  28.075  1.00  0.00    -0.237 OA
ATOM     88  O   UNL A   1      47.260  37.483  28.643  1.00  0.00    -0.237 OA
ATOM     89  O   UNL A   1      46.551  36.159  26.698  1.00  0.00    -0.744 OA
ENDBRANCH  83  86
ENDBRANCH  56  79
ENDBRANCH  30  31
ENDBRANCH  22  25
ENDBRANCH  20  21
ENDBRANCH   1  20
TORSDOF 17
ENDMDL
MODEL 2
REMARK VINA RESULT:     -10.6      2.466      3.810
REMARK SMILES CCOc1cc(C(=O)NCCCNC(=O)c2ccc(-c3c4nc(c(-c5cccc(S(=O)(=O)[O-])c5F)c5ccc([nH]5)c(-c5cccc(S(=O)(=O)[O-])c5F)c5nc(c(-c6cccc(S(=O)(=O)[O-])c6F)c6ccc3[nH]6)C=C5)C=C4)cc2)cc(I)c1OCC
REMARK SMILES IDX 11 1 10 2 9 3 7 4 8 5 6 7 4 8 5 9 82 10 80 11 79 12 81 13
REMARK SMILES IDX 3 14 2 15 1 16 83 17 84 18 85 19 12 20 13 21 14 22 15 24
REMARK SMILES IDX 16 25 17 26 78 27 18 28 77 29 19 30 20 31 21 32 71 33 22 34
REMARK SMILES IDX 76 35 70 36 72 37 23 38 75 39 69 40 68 41 24 43 56 44 36 45
REMARK SMILES IDX 55 46 37 47 40 48 54 49 73 50 38 51 39 52 53 54 74 55 41 56
REMARK SMILES IDX 25 57 26 58 34 59 27 60 29 61 35 62 28 63 30 64 31 65 32 66
REMARK SMILES IDX 33 67 57 68 58 69 66 70 59 71 61 72 67 73 60 74 62 75 63 76
REMARK SMILES IDX 64 77 65 78 42 79 43 80 51 81 44 82 46 83 52 84 45 85 47 86
REMARK SMILES IDX 48 87 49 88 50 89
REMARK H PARENT 9 6 13 23 72 42 40 53
REMARK Flexibility Score: inf
ROOT
ATOM      1  C   UNL A   1      37.922  19.647  24.977  1.00  0.00     0.042 C 
ENDROOT
BRANCH   1   2
ATOM      2  C   UNL A   1      36.679  20.536  24.984  1.00  0.00     0.118 C 
BRANCH   2   3
ATOM      3  N   UNL A   1      36.826  21.632  24.046  1.00  0.00    -0.352 N 
ATOM      4  C   UNL A   1      35.969  22.613  23.627  1.00  0.00     0.251 C 
ATOM      5  O   UNL A   1      36.405  23.428  22.812  1.00  0.00    -0.269 OA
ATOM      6  H   UNL A   1      37.717  21.679  23.630  1.00  0.00     0.163 HD
BRANCH   4   7
ATOM      7  C   UNL A   1      34.580  22.776  24.140  1.00  0.00     0.044 A 
ATOM      8  C   UNL A   1      32.560  21.650  24.874  1.00  0.00     0.163 A 
ATOM      9  C   UNL A   1      33.856  21.609  24.355  1.00  0.00     0.064 A 
ATOM     10  C   UNL A   1      31.879  22.877  25.060  1.00  0.00     0.174 A 
ATOM     11  C   UNL A   1      32.576  24.044  24.723  1.00  0.00     0.060 A 
ATOM     12  C   UNL A   1      33.943  23.985  24.389  1.00  0.00     0.032 A 
ATOM     13  I   UNL A   1      31.773  25.982  24.366  1.00  0.00    -0.040 I 
BRANCH   8  14
ATOM     14  O   UNL A   1      31.902  20.457  25.076  1.00  0.00    -0.490 OA
BRANCH  14  15
ATOM     15  C   UNL A   1      32.658  19.311  24.654  1.00  0.00     0.226 C 
ATOM     16  C   UNL A   1      32.247  18.036  25.381  1.00  0.00     0.049 C 
ENDBRANCH  14  15
ENDBRANCH   8  14
BRANCH  10  17
ATOM     17  O   UNL A   1      30.613  22.727  25.554  1.00  0.00    -0.489 OA
BRANCH  17  18
ATOM     18  C   UNL A   1      30.251  23.092  26.881  1.00  0.00     0.226 C 
ATOM     19  C   UNL A   1      28.961  22.468  27.399  1.00  0.00     0.049 C 
ENDBRANCH  17  18
ENDBRANCH  10  17
ENDBRANCH   4   7
ENDBRANCH   2   3
ENDBRANCH   1   2
BRANCH   1  20
ATOM     20  C   UNL A   1      39.095  20.282  25.717  1.00  0.00     0.118 C 
BRANCH  20  21
ATOM     21  N   UNL A   1      40.160  19.314  25.946  1.00  0.00    -0.352 N 
ATOM     22  C   UNL A   1      41.504  19.516  26.128  1.00  0.00     0.251 C 
ATOM     23  H   UNL A   1      39.872  18.372  25.973  1.00  0.00     0.163 HD
ATOM     24  O   UNL A   1      42.278  18.570  26.021  1.00  0.00    -0.269 OA
BRANCH  22  25
ATOM     25  C   UNL A   1      42.012  20.862  26.458  1.00  0.00     0.039 A 
ATOM     26  C   UNL A   1      42.262  21.766  25.422  1.00  0.00     0.014 A 
ATOM     27  C   UNL A   1      42.274  21.218  27.785  1.00  0.00     0.014 A 
ATOM     28  C   UNL A   1      42.728  23.046  25.722  1.00  0.00     0.010 A 
ATOM     29  C   UNL A   1      42.667  22.517  28.086  1.00  0.00     0.010 A 
ATOM     30  C   UNL A   1      42.905  23.441  27.058  1.00  0.00    -0.014 A 
BRANCH  30  31
ATOM     31  C   UNL A   1      43.318  24.821  27.409  1.00  0.00     0.031 A 
ATOM     32  C   UNL A   1      42.328  25.774  28.021  1.00  0.00     0.074 A 
ATOM     33  C   UNL A   1      44.554  25.242  27.079  1.00  0.00     0.049 A 
ATOM     34  N   UNL A   1      42.475  27.041  28.308  1.00  0.00    -0.248 NA
ATOM     35  C   UNL A   1      40.989  25.241  28.323  1.00  0.00     0.031 C 
ATOM     36  C   UNL A   1      45.575  24.429  26.414  1.00  0.00     0.029 A 
ATOM     37  N   UNL A   1      45.152  26.469  27.224  1.00  0.00    -0.354 N 
ATOM     38  C   UNL A   1      41.241  27.466  28.787  1.00  0.00     0.074 A 
ATOM     39  C   UNL A   1      40.349  26.330  28.724  1.00  0.00     0.031 C 
ATOM     40  C   UNL A   1      46.669  25.177  26.207  1.00  0.00     0.029 A 
ATOM     41  C   UNL A   1      46.417  26.531  26.687  1.00  0.00     0.049 A 
ATOM     42  H   UNL A   1      44.717  27.232  27.669  1.00  0.00     0.167 HD
ATOM     43  C   UNL A   1      40.893  28.686  29.260  1.00  0.00     0.034 A 
ATOM     44  C   UNL A   1      47.271  27.567  26.579  1.00  0.00     0.034 A 
ATOM     45  C   UNL A   1      41.798  29.799  29.355  1.00  0.00     0.049 A 
ATOM     46  C   UNL A   1      46.866  28.905  27.135  1.00  0.00     0.074 A 
ATOM     47  C   UNL A   1      41.572  31.048  29.905  1.00  0.00     0.029 A 
ATOM     48  N   UNL A   1      43.100  29.802  28.877  1.00  0.00    -0.354 N 
ATOM     49  N   UNL A   1      45.749  29.246  27.732  1.00  0.00    -0.248 NA
ATOM     50  C   UNL A   1      47.849  29.993  27.032  1.00  0.00     0.031 C 
ATOM     51  C   UNL A   1      42.727  31.816  29.734  1.00  0.00     0.029 A 
ATOM     52  C   UNL A   1      43.684  31.036  29.104  1.00  0.00     0.049 A 
ATOM     53  H   UNL A   1      43.543  29.039  28.441  1.00  0.00     0.167 HD
ATOM     54  C   UNL A   1      45.906  30.575  28.104  1.00  0.00     0.074 A 
ATOM     55  C   UNL A   1      47.235  30.972  27.684  1.00  0.00     0.031 C 
ATOM     56  C   UNL A   1      45.025  31.399  28.722  1.00  0.00     0.034 A 
BRANCH  43  57
ATOM     57  C   UNL A   1      39.482  28.871  29.757  1.00  0.00     0.023 A 
ATOM     58  C   UNL A   1      39.160  28.524  31.086  1.00  0.00     0.012 A 
ATOM     59  C   UNL A   1      38.491  29.441  28.934  1.00  0.00     0.148 A 
ATOM     60  C   UNL A   1      37.868  28.708  31.576  1.00  0.00     0.002 A 
ATOM     61  C   UNL A   1      37.217  29.665  29.444  1.00  0.00     0.091 A 
ATOM     62  F   UNL A   1      38.808  29.746  27.668  1.00  0.00    -0.205 F 
ATOM     63  C   UNL A   1      36.901  29.287  30.760  1.00  0.00     0.022 A 
BRANCH  61  64
ATOM     64  S   UNL A   1      35.923  30.478  28.501  1.00  0.00     0.127 S 
ATOM     65  O   UNL A   1      35.217  31.217  29.547  1.00  0.00    -0.237 OA
ATOM     66  O   UNL A   1      36.693  31.312  27.578  1.00  0.00    -0.237 OA
ATOM     67  O   UNL A   1      35.159  29.414  27.865  1.00  0.00    -0.744 OA
ENDBRANCH  61  64
ENDBRANCH  43  57
BRANCH  44  68
ATOM     68  C   UNL A   1      48.612  27.364  25.964  1.00  0.00     0.023 A 
ATOM     69  C   UNL A   1      49.680  26.917  26.766  1.00  0.00     0.012 A 
ATOM     70  C   UNL A   1      48.830  27.575  24.588  1.00  0.00     0.148 A 
ATOM     71  C   UNL A   1      50.947  26.715  26.218  1.00  0.00     0.002 A 
ATOM     72  C   UNL A   1      50.079  27.317  24.036  1.00  0.00     0.091 A 
ATOM     73  F   UNL A   1      47.803  28.008  23.842  1.00  0.00    -0.205 F 
ATOM     74  C   UNL A   1      51.144  26.905  24.852  1.00  0.00     0.022 A 
BRANCH  72  75
ATOM     75  S   UNL A   1      50.389  27.402  22.269  1.00  0.00     0.127 S 
ATOM     76  O   UNL A   1      51.766  26.924  22.183  1.00  0.00    -0.237 OA
ATOM     77  O   UNL A   1      49.381  26.482  21.740  1.00  0.00    -0.237 OA
ATOM     78  O   UNL A   1      50.178  28.796  21.899  1.00  0.00    -0.744 OA
ENDBRANCH  72  75
ENDBRANCH  44  68
BRANCH  56  79
ATOM     79  C   UNL A   1      45.473  32.807  29.016  1.00  0.00     0.023 A 
ATOM     80  C   UNL A   1      46.229  33.073  30.175  1.00  0.00     0.012 A 
ATOM     81  C   UNL A   1      45.219  33.847  28.099  1.00  0.00     0.148 A 
ATOM     82  C   UNL A   1      46.704  34.360  30.430  1.00  0.00     0.002 A 
ATOM     83  C   UNL A   1      45.738  35.114  28.335  1.00  0.00     0.091 A 
ATOM     84  F   UNL A   1      44.483  33.574  27.012  1.00  0.00    -0.205 F 
ATOM     85  C   UNL A   1      46.468  35.375  29.506  1.00  0.00     0.022 A 
BRANCH  83  86
ATOM     86  S   UNL A   1      45.572  36.459  27.157  1.00  0.00     0.127 S 
ATOM     87  O   UNL A   1      46.313  35.941  26.007  1.00  0.00    -0.237 OA
ATOM     88  O   UNL A   1      44.123  36.528  26.969  1.00  0.00    -0.237 OA
ATOM     89  O   UNL A   1      46.156  37.631  27.797  1.00  0.00    -0.744 OA
ENDBRANCH  83  86
ENDBRANCH  56  79
ENDBRANCH  30  31
ENDBRANCH  22  25
ENDBRANCH  20  21
ENDBRANCH   1  20
TORSDOF 17
ENDMDL
MODEL 3
REMARK VINA RESULT:     -10.4      1.193      8.129
REMARK SMILES CCOc1cc(C(=O)NCCCNC(=O)c2ccc(-c3c4nc(c(-c5cccc(S(=O)(=O)[O-])c5F)c5ccc([nH]5)c(-c5cccc(S(=O)(=O)[O-])c5F)c5nc(c(-c6cccc(S(=O)(=O)[O-])c6F)c6ccc3[nH]6)C=C5)C=C4)cc2)cc(I)c1OCC
REMARK SMILES IDX 11 1 10 2 9 3 7 4 8 5 6 7 4 8 5 9 82 10 80 11 79 12 81 13
REMARK SMILES IDX 3 14 2 15 1 16 83 17 84 18 85 19 12 20 13 21 14 22 15 24
REMARK SMILES IDX 16 25 17 26 78 27 18 28 77 29 19 30 20 31 21 32 71 33 22 34
REMARK SMILES IDX 76 35 70 36 72 37 23 38 75 39 69 40 68 41 24 43 56 44 36 45
REMARK SMILES IDX 55 46 37 47 40 48 54 49 73 50 38 51 39 52 53 54 74 55 41 56
REMARK SMILES IDX 25 57 26 58 34 59 27 60 29 61 35 62 28 63 30 64 31 65 32 66
REMARK SMILES IDX 33 67 57 68 58 69 66 70 59 71 61 72 67 73 60 74 62 75 63 76
REMARK SMILES IDX 64 77 65 78 42 79 43 80 51 81 44 82 46 83 52 84 45 85 47 86
REMARK SMILES IDX 48 87 49 88 50 89
REMARK H PARENT 9 6 13 23 72 42 40 53
REMARK Flexibility Score: inf
ROOT
ATOM      1  C   UNL A   1      35.459  22.121  26.177  1.00  0.00     0.042 C 
ENDROOT
BRANCH   1   2
ATOM      2  C   UNL A   1      34.153  22.560  25.514  1.00  0.00     0.118 C 
BRANCH   2   3
ATOM      3  N   UNL A   1      33.070  22.577  26.476  1.00  0.00    -0.352 N 
ATOM      4  C   UNL A   1      32.096  23.496  26.757  1.00  0.00     0.251 C 
ATOM      5  O   UNL A   1      31.290  23.207  27.644  1.00  0.00    -0.269 OA
ATOM      6  H   UNL A   1      33.026  21.768  27.037  1.00  0.00     0.163 HD
BRANCH   4   7
ATOM      7  C   UNL A   1      31.929  24.780  26.022  1.00  0.00     0.044 A 
ATOM      8  C   UNL A   1      31.436  25.830  23.889  1.00  0.00     0.163 A 
ATOM      9  C   UNL A   1      31.652  24.686  24.662  1.00  0.00     0.064 A 
ATOM     10  C   UNL A   1      31.635  27.127  24.420  1.00  0.00     0.174 A 
ATOM     11  C   UNL A   1      32.034  27.207  25.760  1.00  0.00     0.060 A 
ATOM     12  C   UNL A   1      32.055  26.052  26.566  1.00  0.00     0.032 A 
ATOM     13  I   UNL A   1      32.916  28.866  26.759  1.00  0.00    -0.040 I 
BRANCH   8  14
ATOM     14  O   UNL A   1      31.153  25.667  22.551  1.00  0.00    -0.490 OA
BRANCH  14  15
ATOM     15  C   UNL A   1      32.217  25.038  21.817  1.00  0.00     0.226 C 
ATOM     16  C   UNL A   1      32.622  25.829  20.578  1.00  0.00     0.049 C 
ENDBRANCH  14  15
ENDBRANCH   8  14
BRANCH  10  17
ATOM     17  O   UNL A   1      31.400  28.126  23.518  1.00  0.00    -0.489 OA
BRANCH  17  18
ATOM     18  C   UNL A   1      30.363  29.087  23.678  1.00  0.00     0.226 C 
ATOM     19  C   UNL A   1      29.189  28.946  22.717  1.00  0.00     0.049 C 
ENDBRANCH  17  18
ENDBRANCH  10  17
ENDBRANCH   4   7
ENDBRANCH   2   3
ENDBRANCH   1   2
BRANCH   1  20
ATOM     20  C   UNL A   1      36.608  22.007  25.179  1.00  0.00     0.118 C 
BRANCH  20  21
ATOM     21  N   UNL A   1      37.542  20.958  25.568  1.00  0.00    -0.352 N 
ATOM     22  C   UNL A   1      38.851  21.053  25.963  1.00  0.00     0.251 C 
ATOM     23  H   UNL A   1      37.178  20.043  25.545  1.00  0.00     0.163 HD
ATOM     24  O   UNL A   1      39.554  20.047  25.974  1.00  0.00    -0.269 OA
BRANCH  22  25
ATOM     25  C   UNL A   1      39.407  22.356  26.376  1.00  0.00     0.039 A 
ATOM     26  C   UNL A   1      40.470  22.384  27.283  1.00  0.00     0.014 A 
ATOM     27  C   UNL A   1      38.857  23.549  25.897  1.00  0.00     0.014 A 
ATOM     28  C   UNL A   1      41.014  23.609  27.671  1.00  0.00     0.010 A 
ATOM     29  C   UNL A   1      39.447  24.763  26.226  1.00  0.00     0.010 A 
ATOM     30  C   UNL A   1      40.526  24.806  27.121  1.00  0.00    -0.014 A 
BRANCH  30  31
ATOM     31  C   UNL A   1      41.140  26.116  27.450  1.00  0.00     0.031 A 
ATOM     32  C   UNL A   1      42.573  26.391  27.089  1.00  0.00     0.074 A 
ATOM     33  C   UNL A   1      40.433  27.012  28.165  1.00  0.00     0.049 A 
ATOM     34  N   UNL A   1      43.308  27.433  27.375  1.00  0.00    -0.248 NA
ATOM     35  C   UNL A   1      43.283  25.345  26.333  1.00  0.00     0.031 C 
ATOM     36  C   UNL A   1      39.059  26.824  28.636  1.00  0.00     0.029 A 
ATOM     37  N   UNL A   1      40.784  28.246  28.653  1.00  0.00    -0.354 N 
ATOM     38  C   UNL A   1      44.573  27.155  26.869  1.00  0.00     0.074 A 
ATOM     39  C   UNL A   1      44.514  25.834  26.286  1.00  0.00     0.031 C 
ATOM     40  C   UNL A   1      38.684  27.899  29.345  1.00  0.00     0.029 A 
ATOM     41  C   UNL A   1      39.801  28.836  29.413  1.00  0.00     0.049 A 
ATOM     42  H   UNL A   1      41.656  28.668  28.477  1.00  0.00     0.167 HD
ATOM     43  C   UNL A   1      45.676  27.941  26.870  1.00  0.00     0.034 A 
ATOM     44  C   UNL A   1      39.805  29.994  30.102  1.00  0.00     0.034 A 
ATOM     45  C   UNL A   1      45.714  29.270  27.419  1.00  0.00     0.049 A 
ATOM     46  C   UNL A   1      41.035  30.858  30.065  1.00  0.00     0.074 A 
ATOM     47  C   UNL A   1      46.752  30.184  27.388  1.00  0.00     0.029 A 
ATOM     48  N   UNL A   1      44.673  29.870  28.110  1.00  0.00    -0.354 N 
ATOM     49  N   UNL A   1      42.171  30.649  29.444  1.00  0.00    -0.248 NA
ATOM     50  C   UNL A   1      40.976  32.132  30.797  1.00  0.00     0.031 C 
ATOM     51  C   UNL A   1      46.348  31.326  28.086  1.00  0.00     0.029 A 
ATOM     52  C   UNL A   1      45.047  31.136  28.526  1.00  0.00     0.049 A 
ATOM     53  H   UNL A   1      43.795  29.456  28.281  1.00  0.00     0.167 HD
ATOM     54  C   UNL A   1      42.949  31.776  29.682  1.00  0.00     0.074 A 
ATOM     55  C   UNL A   1      42.146  32.674  30.486  1.00  0.00     0.031 C 
ATOM     56  C   UNL A   1      44.218  32.037  29.285  1.00  0.00     0.034 A 
BRANCH  43  57
ATOM     57  C   UNL A   1      46.923  27.404  26.216  1.00  0.00     0.023 A 
ATOM     58  C   UNL A   1      47.154  27.654  24.847  1.00  0.00     0.012 A 
ATOM     59  C   UNL A   1      47.892  26.707  26.963  1.00  0.00     0.148 A 
ATOM     60  C   UNL A   1      48.311  27.189  24.225  1.00  0.00     0.002 A 
ATOM     61  C   UNL A   1      49.065  26.287  26.347  1.00  0.00     0.091 A 
ATOM     62  F   UNL A   1      47.647  26.461  28.258  1.00  0.00    -0.205 F 
ATOM     63  C   UNL A   1      49.270  26.516  24.976  1.00  0.00     0.022 A 
BRANCH  61  64
ATOM     64  S   UNL A   1      50.398  25.483  27.243  1.00  0.00     0.127 S 
ATOM     65  O   UNL A   1      49.750  24.251  27.691  1.00  0.00    -0.237 OA
ATOM     66  O   UNL A   1      51.403  25.296  26.196  1.00  0.00    -0.237 OA
ATOM     67  O   UNL A   1      50.786  26.404  28.300  1.00  0.00    -0.744 OA
ENDBRANCH  61  64
ENDBRANCH  43  57
BRANCH  44  68
ATOM     68  C   UNL A   1      38.584  30.424  30.840  1.00  0.00     0.023 A 
ATOM     69  C   UNL A   1      38.473  30.143  32.216  1.00  0.00     0.012 A 
ATOM     70  C   UNL A   1      37.552  31.137  30.200  1.00  0.00     0.148 A 
ATOM     71  C   UNL A   1      37.344  30.535  32.934  1.00  0.00     0.002 A 
ATOM     72  C   UNL A   1      36.455  31.576  30.933  1.00  0.00     0.091 A 
ATOM     73  F   UNL A   1      37.671  31.387  28.889  1.00  0.00    -0.205 F 
ATOM     74  C   UNL A   1      36.340  31.260  32.295  1.00  0.00     0.022 A 
BRANCH  72  75
ATOM     75  S   UNL A   1      35.183  32.629  30.227  1.00  0.00     0.127 S 
ATOM     76  O   UNL A   1      34.679  31.799  29.136  1.00  0.00    -0.237 OA
ATOM     77  O   UNL A   1      34.264  32.790  31.355  1.00  0.00    -0.237 OA
ATOM     78  O   UNL A   1      35.863  33.855  29.829  1.00  0.00    -0.744 OA
ENDBRANCH  72  75
ENDBRANCH  44  68
BRANCH  56  79
ATOM     79  C   UNL A   1      44.817  33.361  29.683  1.00  0.00     0.023 A 
ATOM     80  C   UNL A   1      45.588  33.455  30.858  1.00  0.00     0.012 A 
ATOM     81  C   UNL A   1      44.688  34.487  28.845  1.00  0.00     0.148 A 
ATOM     82  C   UNL A   1      46.200  34.658  31.208  1.00  0.00     0.002 A 
ATOM     83  C   UNL A   1      45.342  35.668  29.175  1.00  0.00     0.091 A 
ATOM     84  F   UNL A   1      43.936  34.379  27.740  1.00  0.00    -0.205 F 
ATOM     85  C   UNL A   1      46.087  35.759  30.363  1.00  0.00     0.022 A 
BRANCH  83  86
ATOM     86  S   UNL A   1      45.337  37.106  28.101  1.00  0.00     0.127 S 
ATOM     87  O   UNL A   1      46.045  36.602  26.924  1.00  0.00    -0.237 OA
ATOM     88  O   UNL A   1      43.907  37.337  27.900  1.00  0.00    -0.237 OA
ATOM     89  O   UNL A   1      46.024  38.161  28.835  1.00  0.00    -0.744 OA
ENDBRANCH  83  86
ENDBRANCH  56  79
ENDBRANCH  30  31
ENDBRANCH  22  25
ENDBRANCH  20  21
ENDBRANCH   1  20
TORSDOF 17
ENDMDL
