MODEL 1
REMARK VINA RESULT:     -13.2      0.000      0.000
REMARK SMILES COc1ccc(-c2cc(CC3(C(=O)NCCCNC(=O)c4ccc(-c5c6nc(c(-c7cccc(S(=O)(=O)[O-])c7F)c7ccc([nH]7)c(-c7cccc(S(=O)(=O)[O-])c7F)c7nc(c(-c8cccc(S(=O)(=O)[O-])c8F)c8ccc5[nH]8)C=C7)C=C6)cc4)CCN(C(=O)C4CCCC4)CC3)on2)cc1
REMARK SMILES IDX 15 1 14 2 12 3 13 4 11 6 84 7 95 8 85 9 94 10 86 11 87 12
REMARK SMILES IDX 88 13 10 14 9 15 7 16 8 17 97 18 96 19 6 20 3 21 4 22 99 23
REMARK SMILES IDX 5 24 98 25 2 26 1 27 89 28 90 29 93 30 91 31 92 32 16 33
REMARK SMILES IDX 17 34 18 35 19 36 20 38 21 39 22 40 83 41 23 42 82 43 24 44
REMARK SMILES IDX 25 45 26 46 76 47 27 48 81 49 75 50 77 51 28 52 80 53 74 54
REMARK SMILES IDX 73 55 29 57 61 58 41 59 60 60 42 61 45 62 59 63 78 64 43 65
REMARK SMILES IDX 44 66 58 68 79 69 46 70 30 71 31 72 39 73 32 74 34 75 40 76
REMARK SMILES IDX 33 77 35 78 36 79 37 80 38 81 62 82 63 83 71 84 64 85 66 86
REMARK SMILES IDX 72 87 65 88 67 89 68 90 69 91 70 92 47 93 48 94 56 95 49 96
REMARK SMILES IDX 51 97 57 98 50 99 52 100 53 101 54 102 55 103
REMARK H PARENT 14 5 18 37 77 56 45 67
REMARK Flexibility Score: inf
ROOT
ATOM      1  C   UNL A   1      33.090  30.338  26.832  1.00  0.00     0.117 C 
ENDROOT
BRANCH   1   2
ATOM      2  N   UNL A   1      32.403  29.183  27.398  1.00  0.00    -0.356 N 
ATOM      3  C   UNL A   1      31.748  28.134  26.825  1.00  0.00     0.226 C 
ATOM      4  O   UNL A   1      31.292  27.290  27.602  1.00  0.00    -0.274 OA
ATOM      5  H   UNL A   1      32.415  29.155  28.383  1.00  0.00     0.163 HD
BRANCH   3   6
ATOM      6  C   UNL A   1      31.616  27.974  25.288  1.00  0.00     0.060 C 
ATOM      7  C   UNL A   1      30.547  26.886  25.000  1.00  0.00     0.039 C 
ATOM      8  C   UNL A   1      31.303  29.374  24.697  1.00  0.00     0.039 C 
ATOM      9  C   UNL A   1      29.665  27.087  23.772  1.00  0.00     0.120 C 
ATOM     10  C   UNL A   1      30.497  29.356  23.407  1.00  0.00     0.120 C 
ATOM     11  N   UNL A   1      29.341  28.484  23.503  1.00  0.00    -0.342 N 
ATOM     12  C   UNL A   1      28.042  28.780  23.111  1.00  0.00     0.225 C 
ATOM     13  O   UNL A   1      27.158  27.919  23.127  1.00  0.00    -0.275 OA
BRANCH   6  14
ATOM     14  C   UNL A   1      33.016  27.486  24.779  1.00  0.00     0.095 C 
BRANCH  14  15
ATOM     15  C   UNL A   1      33.063  26.062  24.363  1.00  0.00     0.138 A 
ATOM     16  C   UNL A   1      33.269  23.894  24.029  1.00  0.00     0.114 A 
ATOM     17  C   UNL A   1      33.155  24.874  25.044  1.00  0.00     0.077 A 
ATOM     18  N   UNL A   1      33.205  24.455  22.815  1.00  0.00    -0.080 NA
ATOM     19  O   UNL A   1      33.035  25.809  23.030  1.00  0.00    -0.361 OA
BRANCH  16  20
ATOM     20  C   UNL A   1      33.402  22.462  24.196  1.00  0.00     0.004 A 
ATOM     21  C   UNL A   1      33.673  19.714  24.619  1.00  0.00     0.118 A 
ATOM     22  C   UNL A   1      32.537  20.213  23.979  1.00  0.00     0.047 A 
ATOM     23  C   UNL A   1      34.695  20.583  25.004  1.00  0.00     0.047 A 
ATOM     24  C   UNL A   1      32.391  21.588  23.778  1.00  0.00     0.014 A 
ATOM     25  C   UNL A   1      34.559  21.955  24.794  1.00  0.00     0.014 A 
BRANCH  21  26
ATOM     26  O   UNL A   1      33.729  18.358  24.796  1.00  0.00    -0.497 OA
ATOM     27  C   UNL A   1      32.527  17.808  25.336  1.00  0.00     0.278 C 
ENDBRANCH  21  26
ENDBRANCH  16  20
ENDBRANCH  14  15
ENDBRANCH   6  14
BRANCH  12  28
ATOM     28  C   UNL A   1      27.653  30.180  22.642  1.00  0.00     0.078 C 
ATOM     29  C   UNL A   1      28.179  31.316  23.508  1.00  0.00     0.013 C 
ATOM     30  C   UNL A   1      28.030  30.495  21.197  1.00  0.00     0.013 C 
ATOM     31  C   UNL A   1      28.247  32.516  22.578  1.00  0.00     0.001 C 
ATOM     32  C   UNL A   1      28.401  31.974  21.162  1.00  0.00     0.001 C 
ENDBRANCH  12  28
ENDBRANCH   3   6
ENDBRANCH   1   2
BRANCH   1  33
ATOM     33  C   UNL A   1      32.476  31.664  27.264  1.00  0.00     0.042 C 
BRANCH  33  34
ATOM     34  C   UNL A   1      33.383  32.870  27.064  1.00  0.00     0.118 C 
BRANCH  34  35
ATOM     35  N   UNL A   1      32.883  34.066  27.726  1.00  0.00    -0.352 N 
ATOM     36  C   UNL A   1      33.214  34.605  28.946  1.00  0.00     0.251 C 
ATOM     37  H   UNL A   1      32.202  34.566  27.221  1.00  0.00     0.163 HD
ATOM     38  O   UNL A   1      32.536  35.521  29.400  1.00  0.00    -0.269 OA
BRANCH  36  39
ATOM     39  C   UNL A   1      34.365  34.080  29.716  1.00  0.00     0.039 A 
ATOM     40  C   UNL A   1      34.125  33.189  30.765  1.00  0.00     0.014 A 
ATOM     41  C   UNL A   1      35.674  34.475  29.427  1.00  0.00     0.014 A 
ATOM     42  C   UNL A   1      35.199  32.651  31.480  1.00  0.00     0.010 A 
ATOM     43  C   UNL A   1      36.745  33.866  30.075  1.00  0.00     0.010 A 
ATOM     44  C   UNL A   1      36.522  32.957  31.119  1.00  0.00    -0.014 A 
BRANCH  44  45
ATOM     45  C   UNL A   1      37.677  32.337  31.819  1.00  0.00     0.031 A 
ATOM     46  C   UNL A   1      38.437  31.202  31.182  1.00  0.00     0.074 A 
ATOM     47  C   UNL A   1      37.995  32.742  33.065  1.00  0.00     0.049 A 
ATOM     48  N   UNL A   1      39.444  30.514  31.658  1.00  0.00    -0.248 NA
ATOM     49  C   UNL A   1      37.990  30.761  29.850  1.00  0.00     0.031 C 
ATOM     50  C   UNL A   1      37.283  33.769  33.830  1.00  0.00     0.029 A 
ATOM     51  N   UNL A   1      38.984  32.321  33.920  1.00  0.00    -0.354 N 
ATOM     52  C   UNL A   1      39.725  29.541  30.705  1.00  0.00     0.074 A 
ATOM     53  C   UNL A   1      38.759  29.701  29.641  1.00  0.00     0.031 C 
ATOM     54  C   UNL A   1      37.864  33.905  35.032  1.00  0.00     0.029 A 
ATOM     55  C   UNL A   1      38.968  32.958  35.140  1.00  0.00     0.049 A 
ATOM     56  H   UNL A   1      39.643  31.628  33.683  1.00  0.00     0.167 HD
ATOM     57  C   UNL A   1      40.716  28.618  30.700  1.00  0.00     0.034 A 
ATOM     58  C   UNL A   1      39.750  32.794  36.224  1.00  0.00     0.034 A 
ATOM     59  C   UNL A   1      41.704  28.491  31.738  1.00  0.00     0.049 A 
ATOM     60  C   UNL A   1      40.874  31.795  36.172  1.00  0.00     0.074 A 
ATOM     61  C   UNL A   1      42.804  27.652  31.780  1.00  0.00     0.029 A 
ATOM     62  N   UNL A   1      41.709  29.217  32.918  1.00  0.00    -0.354 N 
ATOM     63  N   UNL A   1      41.226  30.999  35.192  1.00  0.00    -0.248 NA
ATOM     64  C   UNL A   1      41.735  31.700  37.361  1.00  0.00     0.031 C 
ATOM     65  C   UNL A   1      43.459  27.851  32.999  1.00  0.00     0.029 A 
ATOM     66  C   UNL A   1      42.787  28.839  33.702  1.00  0.00     0.049 A 
ATOM     67  H   UNL A   1      41.045  29.900  33.164  1.00  0.00     0.167 HD
ATOM     68  C   UNL A   1      42.368  30.337  35.629  1.00  0.00     0.074 A 
ATOM     69  C   UNL A   1      42.661  30.843  36.955  1.00  0.00     0.031 C 
ATOM     70  C   UNL A   1      43.099  29.387  34.997  1.00  0.00     0.034 A 
BRANCH  57  71
ATOM     71  C   UNL A   1      40.818  27.704  29.506  1.00  0.00     0.023 A 
ATOM     72  C   UNL A   1      39.986  26.567  29.427  1.00  0.00     0.012 A 
ATOM     73  C   UNL A   1      41.685  27.998  28.436  1.00  0.00     0.148 A 
ATOM     74  C   UNL A   1      40.042  25.719  28.322  1.00  0.00     0.002 A 
ATOM     75  C   UNL A   1      41.701  27.174  27.316  1.00  0.00     0.091 A 
ATOM     76  F   UNL A   1      42.483  29.070  28.536  1.00  0.00    -0.205 F 
ATOM     77  C   UNL A   1      40.890  26.028  27.263  1.00  0.00     0.022 A 
BRANCH  75  78
ATOM     78  S   UNL A   1      42.698  27.529  25.864  1.00  0.00     0.127 S 
ATOM     79  O   UNL A   1      42.260  26.482  24.943  1.00  0.00    -0.237 OA
ATOM     80  O   UNL A   1      42.251  28.877  25.509  1.00  0.00    -0.237 OA
ATOM     81  O   UNL A   1      44.085  27.442  26.296  1.00  0.00    -0.744 OA
ENDBRANCH  75  78
ENDBRANCH  57  71
BRANCH  58  82
ATOM     82  C   UNL A   1      39.540  33.645  37.431  1.00  0.00     0.023 A 
ATOM     83  C   UNL A   1      40.110  34.933  37.477  1.00  0.00     0.012 A 
ATOM     84  C   UNL A   1      38.765  33.196  38.517  1.00  0.00     0.148 A 
ATOM     85  C   UNL A   1      39.941  35.745  38.599  1.00  0.00     0.002 A 
ATOM     86  C   UNL A   1      38.554  34.032  39.608  1.00  0.00     0.091 A 
ATOM     87  F   UNL A   1      38.239  31.965  38.457  1.00  0.00    -0.205 F 
ATOM     88  C   UNL A   1      39.156  35.299  39.659  1.00  0.00     0.022 A 
BRANCH  86  89
ATOM     89  S   UNL A   1      37.457  33.594  40.960  1.00  0.00     0.127 S 
ATOM     90  O   UNL A   1      38.256  32.612  41.687  1.00  0.00    -0.237 OA
ATOM     91  O   UNL A   1      37.290  34.879  41.640  1.00  0.00    -0.237 OA
ATOM     92  O   UNL A   1      36.245  33.084  40.331  1.00  0.00    -0.744 OA
ENDBRANCH  86  89
ENDBRANCH  58  82
BRANCH  70  93
ATOM     93  C   UNL A   1      44.318  28.855  35.704  1.00  0.00     0.023 A 
ATOM     94  C   UNL A   1      45.573  29.456  35.492  1.00  0.00     0.012 A 
ATOM     95  C   UNL A   1      44.203  27.803  36.636  1.00  0.00     0.148 A 
ATOM     96  C   UNL A   1      46.703  28.996  36.168  1.00  0.00     0.002 A 
ATOM     97  C   UNL A   1      45.322  27.384  37.344  1.00  0.00     0.091 A 
ATOM     98  F   UNL A   1      43.002  27.232  36.810  1.00  0.00    -0.205 F 
ATOM     99  C   UNL A   1      46.576  27.970  37.102  1.00  0.00     0.022 A 
BRANCH  97 100
ATOM    100  S   UNL A   1      45.233  26.139  38.635  1.00  0.00     0.127 S 
ATOM    101  O   UNL A   1      46.555  26.250  39.247  1.00  0.00    -0.237 OA
ATOM    102  O   UNL A   1      44.133  26.632  39.465  1.00  0.00    -0.237 OA
ATOM    103  O   UNL A   1      44.960  24.878  37.959  1.00  0.00    -0.744 OA
ENDBRANCH  97 100
ENDBRANCH  70  93
ENDBRANCH  44  45
ENDBRANCH  36  39
ENDBRANCH  34  35
ENDBRANCH  33  34
ENDBRANCH   1  33
TORSDOF 18
ENDMDL
MODEL 2
REMARK VINA RESULT:     -12.8      1.790      7.283
REMARK SMILES COc1ccc(-c2cc(CC3(C(=O)NCCCNC(=O)c4ccc(-c5c6nc(c(-c7cccc(S(=O)(=O)[O-])c7F)c7ccc([nH]7)c(-c7cccc(S(=O)(=O)[O-])c7F)c7nc(c(-c8cccc(S(=O)(=O)[O-])c8F)c8ccc5[nH]8)C=C7)C=C6)cc4)CCN(C(=O)C4CCCC4)CC3)on2)cc1
REMARK SMILES IDX 15 1 14 2 12 3 13 4 11 6 84 7 95 8 85 9 94 10 86 11 87 12
REMARK SMILES IDX 88 13 10 14 9 15 7 16 8 17 97 18 96 19 6 20 3 21 4 22 99 23
REMARK SMILES IDX 5 24 98 25 2 26 1 27 89 28 90 29 93 30 91 31 92 32 16 33
REMARK SMILES IDX 17 34 18 35 19 36 20 38 21 39 22 40 83 41 23 42 82 43 24 44
REMARK SMILES IDX 25 45 26 46 76 47 27 48 81 49 75 50 77 51 28 52 80 53 74 54
REMARK SMILES IDX 73 55 29 57 61 58 41 59 60 60 42 61 45 62 59 63 78 64 43 65
REMARK SMILES IDX 44 66 58 68 79 69 46 70 30 71 31 72 39 73 32 74 34 75 40 76
REMARK SMILES IDX 33 77 35 78 36 79 37 80 38 81 62 82 63 83 71 84 64 85 66 86
REMARK SMILES IDX 72 87 65 88 67 89 68 90 69 91 70 92 47 93 48 94 56 95 49 96
REMARK SMILES IDX 51 97 57 98 50 99 52 100 53 101 54 102 55 103
REMARK H PARENT 14 5 18 37 77 56 45 67
REMARK Flexibility Score: inf
ROOT
ATOM      1  C   UNL A   1      33.181  30.491  27.056  1.00  0.00     0.117 C 
ENDROOT
BRANCH   1   2
ATOM      2  N   UNL A   1      32.474  29.320  27.561  1.00  0.00    -0.356 N 
ATOM      3  C   UNL A   1      31.839  28.291  26.932  1.00  0.00     0.226 C 
ATOM      4  O   UNL A   1      31.354  27.424  27.665  1.00  0.00    -0.274 OA
ATOM      5  H   UNL A   1      32.451  29.260  28.544  1.00  0.00     0.163 HD
BRANCH   3   6
ATOM      6  C   UNL A   1      31.760  28.180  25.387  1.00  0.00     0.060 C 
ATOM      7  C   UNL A   1      30.760  27.048  25.028  1.00  0.00     0.039 C 
ATOM      8  C   UNL A   1      31.388  29.582  24.836  1.00  0.00     0.039 C 
ATOM      9  C   UNL A   1      29.905  27.247  23.781  1.00  0.00     0.120 C 
ATOM     10  C   UNL A   1      30.623  29.569  23.521  1.00  0.00     0.120 C 
ATOM     11  N   UNL A   1      29.514  28.633  23.551  1.00  0.00    -0.342 N 
ATOM     12  C   UNL A   1      28.212  28.874  23.129  1.00  0.00     0.225 C 
ATOM     13  O   UNL A   1      27.376  27.966  23.088  1.00  0.00    -0.275 OA
BRANCH   6  14
ATOM     14  C   UNL A   1      33.199  27.787  24.905  1.00  0.00     0.095 C 
BRANCH  14  15
ATOM     15  C   UNL A   1      33.337  26.381  24.450  1.00  0.00     0.138 A 
ATOM     16  C   UNL A   1      33.619  24.228  24.078  1.00  0.00     0.114 A 
ATOM     17  C   UNL A   1      33.292  25.166  25.087  1.00  0.00     0.077 A 
ATOM     18  N   UNL A   1      33.805  24.838  22.901  1.00  0.00    -0.080 NA
ATOM     19  O   UNL A   1      33.588  26.182  23.131  1.00  0.00    -0.361 OA
BRANCH  16  20
ATOM     20  C   UNL A   1      33.720  22.790  24.211  1.00  0.00     0.004 A 
ATOM     21  C   UNL A   1      33.927  20.027  24.568  1.00  0.00     0.118 A 
ATOM     22  C   UNL A   1      32.831  20.562  23.888  1.00  0.00     0.047 A 
ATOM     23  C   UNL A   1      34.943  20.866  25.026  1.00  0.00     0.047 A 
ATOM     24  C   UNL A   1      32.717  21.945  23.721  1.00  0.00     0.014 A 
ATOM     25  C   UNL A   1      34.839  22.246  24.849  1.00  0.00     0.014 A 
BRANCH  21  26
ATOM     26  O   UNL A   1      33.953  18.665  24.709  1.00  0.00    -0.497 OA
ATOM     27  C   UNL A   1      33.140  17.982  23.755  1.00  0.00     0.278 C 
ENDBRANCH  21  26
ENDBRANCH  16  20
ENDBRANCH  14  15
ENDBRANCH   6  14
BRANCH  12  28
ATOM     28  C   UNL A   1      27.761  30.266  22.698  1.00  0.00     0.078 C 
ATOM     29  C   UNL A   1      28.295  31.408  23.552  1.00  0.00     0.013 C 
ATOM     30  C   UNL A   1      28.060  30.609  21.240  1.00  0.00     0.013 C 
ATOM     31  C   UNL A   1      28.285  32.620  22.636  1.00  0.00     0.001 C 
ATOM     32  C   UNL A   1      28.386  32.099  21.207  1.00  0.00     0.001 C 
ENDBRANCH  12  28
ENDBRANCH   3   6
ENDBRANCH   1   2
BRANCH   1  33
ATOM     33  C   UNL A   1      32.510  31.802  27.443  1.00  0.00     0.042 C 
BRANCH  33  34
ATOM     34  C   UNL A   1      33.387  33.033  27.264  1.00  0.00     0.118 C 
BRANCH  34  35
ATOM     35  N   UNL A   1      32.961  34.153  28.093  1.00  0.00    -0.352 N 
ATOM     36  C   UNL A   1      33.392  34.544  29.338  1.00  0.00     0.251 C 
ATOM     37  H   UNL A   1      32.256  34.716  27.699  1.00  0.00     0.163 HD
ATOM     38  O   UNL A   1      32.768  35.411  29.942  1.00  0.00    -0.269 OA
BRANCH  36  39
ATOM     39  C   UNL A   1      34.584  33.919  29.955  1.00  0.00     0.039 A 
ATOM     40  C   UNL A   1      34.402  32.967  30.962  1.00  0.00     0.014 A 
ATOM     41  C   UNL A   1      35.877  34.279  29.566  1.00  0.00     0.014 A 
ATOM     42  C   UNL A   1      35.511  32.337  31.532  1.00  0.00     0.010 A 
ATOM     43  C   UNL A   1      36.974  33.582  30.065  1.00  0.00     0.010 A 
ATOM     44  C   UNL A   1      36.807  32.612  31.065  1.00  0.00    -0.014 A 
BRANCH  44  45
ATOM     45  C   UNL A   1      37.992  31.897  31.606  1.00  0.00     0.031 A 
ATOM     46  C   UNL A   1      38.633  32.348  32.894  1.00  0.00     0.074 A 
ATOM     47  C   UNL A   1      38.543  30.891  30.899  1.00  0.00     0.049 A 
ATOM     48  N   UNL A   1      39.692  31.872  33.498  1.00  0.00    -0.248 NA
ATOM     49  C   UNL A   1      38.024  33.500  33.579  1.00  0.00     0.031 C 
ATOM     50  C   UNL A   1      38.073  30.417  29.594  1.00  0.00     0.029 A 
ATOM     51  N   UNL A   1      39.634  30.101  31.163  1.00  0.00    -0.354 N 
ATOM     52  C   UNL A   1      39.896  32.686  34.607  1.00  0.00     0.074 A 
ATOM     53  C   UNL A   1      38.875  33.709  34.573  1.00  0.00     0.031 C 
ATOM     54  C   UNL A   1      38.863  29.413  29.180  1.00  0.00     0.029 A 
ATOM     55  C   UNL A   1      39.912  29.191  30.169  1.00  0.00     0.049 A 
ATOM     56  H   UNL A   1      40.168  30.177  31.987  1.00  0.00     0.167 HD
ATOM     57  C   UNL A   1      40.829  32.574  35.583  1.00  0.00     0.034 A 
ATOM     58  C   UNL A   1      40.902  28.284  30.063  1.00  0.00     0.034 A 
ATOM     59  C   UNL A   1      41.814  31.528  35.639  1.00  0.00     0.049 A 
ATOM     60  C   UNL A   1      41.896  28.149  31.185  1.00  0.00     0.074 A 
ATOM     61  C   UNL A   1      42.741  31.273  36.635  1.00  0.00     0.029 A 
ATOM     62  N   UNL A   1      42.007  30.569  34.658  1.00  0.00    -0.354 N 
ATOM     63  N   UNL A   1      41.969  28.823  32.307  1.00  0.00    -0.248 NA
ATOM     64  C   UNL A   1      42.919  27.102  31.045  1.00  0.00     0.031 C 
ATOM     65  C   UNL A   1      43.513  30.175  36.243  1.00  0.00     0.029 A 
ATOM     66  C   UNL A   1      43.045  29.725  35.018  1.00  0.00     0.049 A 
ATOM     67  H   UNL A   1      41.485  30.498  33.828  1.00  0.00     0.167 HD
ATOM     68  C   UNL A   1      43.019  28.259  33.023  1.00  0.00     0.074 A 
ATOM     69  C   UNL A   1      43.538  27.173  32.215  1.00  0.00     0.031 C 
ATOM     70  C   UNL A   1      43.517  28.615  34.231  1.00  0.00     0.034 A 
BRANCH  57  71
ATOM     71  C   UNL A   1      40.795  33.581  36.704  1.00  0.00     0.023 A 
ATOM     72  C   UNL A   1      39.799  33.483  37.699  1.00  0.00     0.012 A 
ATOM     73  C   UNL A   1      41.780  34.582  36.813  1.00  0.00     0.148 A 
ATOM     74  C   UNL A   1      39.761  34.385  38.760  1.00  0.00     0.002 A 
ATOM     75  C   UNL A   1      41.763  35.449  37.900  1.00  0.00     0.091 A 
ATOM     76  F   UNL A   1      42.707  34.674  35.849  1.00  0.00    -0.205 F 
ATOM     77  C   UNL A   1      40.748  35.361  38.867  1.00  0.00     0.022 A 
BRANCH  75  78
ATOM     78  S   UNL A   1      43.036  36.687  38.172  1.00  0.00     0.127 S 
ATOM     79  O   UNL A   1      42.517  37.390  39.345  1.00  0.00    -0.237 OA
ATOM     80  O   UNL A   1      44.216  35.861  38.432  1.00  0.00    -0.237 OA
ATOM     81  O   UNL A   1      43.102  37.474  36.950  1.00  0.00    -0.744 OA
ENDBRANCH  75  78
ENDBRANCH  57  71
BRANCH  58  82
ATOM     82  C   UNL A   1      40.964  27.382  28.876  1.00  0.00     0.023 A 
ATOM     83  C   UNL A   1      40.055  26.311  28.773  1.00  0.00     0.012 A 
ATOM     84  C   UNL A   1      41.898  27.593  27.844  1.00  0.00     0.148 A 
ATOM     85  C   UNL A   1      40.099  25.444  27.681  1.00  0.00     0.002 A 
ATOM     86  C   UNL A   1      41.900  26.759  26.733  1.00  0.00     0.091 A 
ATOM     87  F   UNL A   1      42.760  28.612  27.967  1.00  0.00    -0.205 F 
ATOM     88  C   UNL A   1      41.014  25.673  26.657  1.00  0.00     0.022 A 
BRANCH  86  89
ATOM     89  S   UNL A   1      42.956  27.052  25.309  1.00  0.00     0.127 S 
ATOM     90  O   UNL A   1      44.253  27.273  25.941  1.00  0.00    -0.237 OA
ATOM     91  O   UNL A   1      42.832  25.790  24.578  1.00  0.00    -0.237 OA
ATOM     92  O   UNL A   1      42.380  28.202  24.625  1.00  0.00    -0.744 OA
ENDBRANCH  86  89
ENDBRANCH  58  82
BRANCH  70  93
ATOM     93  C   UNL A   1      44.658  27.802  34.786  1.00  0.00     0.023 A 
ATOM     94  C   UNL A   1      45.983  28.257  34.641  1.00  0.00     0.012 A 
ATOM     95  C   UNL A   1      44.407  26.621  35.515  1.00  0.00     0.148 A 
ATOM     96  C   UNL A   1      47.044  27.531  35.181  1.00  0.00     0.002 A 
ATOM     97  C   UNL A   1      45.466  25.932  36.094  1.00  0.00     0.091 A 
ATOM     98  F   UNL A   1      43.141  26.195  35.626  1.00  0.00    -0.205 F 
ATOM     99  C   UNL A   1      46.786  26.377  35.917  1.00  0.00     0.022 A 
BRANCH  97 100
ATOM    100  S   UNL A   1      45.218  24.493  37.141  1.00  0.00     0.127 S 
ATOM    101  O   UNL A   1      46.586  24.180  37.545  1.00  0.00    -0.237 OA
ATOM    102  O   UNL A   1      44.372  25.029  38.208  1.00  0.00    -0.237 OA
ATOM    103  O   UNL A   1      44.569  23.494  36.303  1.00  0.00    -0.744 OA
ENDBRANCH  97 100
ENDBRANCH  70  93
ENDBRANCH  44  45
ENDBRANCH  36  39
ENDBRANCH  34  35
ENDBRANCH  33  34
ENDBRANCH   1  33
TORSDOF 18
ENDMDL
MODEL 3
REMARK VINA RESULT:     -12.6      3.007      8.021
REMARK SMILES COc1ccc(-c2cc(CC3(C(=O)NCCCNC(=O)c4ccc(-c5c6nc(c(-c7cccc(S(=O)(=O)[O-])c7F)c7ccc([nH]7)c(-c7cccc(S(=O)(=O)[O-])c7F)c7nc(c(-c8cccc(S(=O)(=O)[O-])c8F)c8ccc5[nH]8)C=C7)C=C6)cc4)CCN(C(=O)C4CCCC4)CC3)on2)cc1
REMARK SMILES IDX 15 1 14 2 12 3 13 4 11 6 84 7 95 8 85 9 94 10 86 11 87 12
REMARK SMILES IDX 88 13 10 14 9 15 7 16 8 17 97 18 96 19 6 20 3 21 4 22 99 23
REMARK SMILES IDX 5 24 98 25 2 26 1 27 89 28 90 29 93 30 91 31 92 32 16 33
REMARK SMILES IDX 17 34 18 35 19 36 20 38 21 39 22 40 83 41 23 42 82 43 24 44
REMARK SMILES IDX 25 45 26 46 76 47 27 48 81 49 75 50 77 51 28 52 80 53 74 54
REMARK SMILES IDX 73 55 29 57 61 58 41 59 60 60 42 61 45 62 59 63 78 64 43 65
REMARK SMILES IDX 44 66 58 68 79 69 46 70 30 71 31 72 39 73 32 74 34 75 40 76
REMARK SMILES IDX 33 77 35 78 36 79 37 80 38 81 62 82 63 83 71 84 64 85 66 86
REMARK SMILES IDX 72 87 65 88 67 89 68 90 69 91 70 92 47 93 48 94 56 95 49 96
REMARK SMILES IDX 51 97 57 98 50 99 52 100 53 101 54 102 55 103
REMARK H PARENT 14 5 18 37 77 56 45 67
REMARK Flexibility Score: inf
ROOT
ATOM      1  C   UNL A   1      34.209  29.596  27.257  1.00  0.00     0.117 C 
ENDROOT
BRANCH   1   2
ATOM      2  N   UNL A   1      33.058  28.895  27.812  1.00  0.00    -0.356 N 
ATOM      3  C   UNL A   1      32.111  28.095  27.245  1.00  0.00     0.226 C 
ATOM      4  O   UNL A   1      31.268  27.624  28.014  1.00  0.00    -0.274 OA
ATOM      5  H   UNL A   1      32.942  29.023  28.782  1.00  0.00     0.163 HD
BRANCH   3   6
ATOM      6  C   UNL A   1      32.107  27.752  25.733  1.00  0.00     0.060 C 
ATOM      7  C   UNL A   1      30.828  26.927  25.422  1.00  0.00     0.039 C 
ATOM      8  C   UNL A   1      32.232  29.086  24.950  1.00  0.00     0.039 C 
ATOM      9  C   UNL A   1      30.166  27.157  24.067  1.00  0.00     0.120 C 
ATOM     10  C   UNL A   1      31.592  29.079  23.570  1.00  0.00     0.120 C 
ATOM     11  N   UNL A   1      30.245  28.537  23.601  1.00  0.00    -0.342 N 
ATOM     12  C   UNL A   1      29.117  29.081  23.001  1.00  0.00     0.225 C 
ATOM     13  O   UNL A   1      28.043  28.472  22.989  1.00  0.00    -0.275 OA
BRANCH   6  14
ATOM     14  C   UNL A   1      33.378  26.871  25.482  1.00  0.00     0.095 C 
BRANCH  14  15
ATOM     15  C   UNL A   1      33.109  25.568  24.824  1.00  0.00     0.138 A 
ATOM     16  C   UNL A   1      32.847  23.502  24.105  1.00  0.00     0.114 A 
ATOM     17  C   UNL A   1      32.989  24.278  25.280  1.00  0.00     0.077 A 
ATOM     18  N   UNL A   1      32.840  24.280  23.016  1.00  0.00    -0.080 NA
ATOM     19  O   UNL A   1      32.964  25.577  23.475  1.00  0.00    -0.361 OA
BRANCH  16  20
ATOM     20  C   UNL A   1      32.690  22.066  24.011  1.00  0.00     0.004 A 
ATOM     21  C   UNL A   1      32.453  19.294  23.752  1.00  0.00     0.118 A 
ATOM     22  C   UNL A   1      32.763  19.855  24.993  1.00  0.00     0.047 A 
ATOM     23  C   UNL A   1      32.213  20.119  22.653  1.00  0.00     0.047 A 
ATOM     24  C   UNL A   1      32.897  21.240  25.122  1.00  0.00     0.014 A 
ATOM     25  C   UNL A   1      32.332  21.503  22.782  1.00  0.00     0.014 A 
BRANCH  21  26
ATOM     26  O   UNL A   1      32.362  17.929  23.705  1.00  0.00    -0.497 OA
ATOM     27  C   UNL A   1      33.628  17.275  23.790  1.00  0.00     0.278 C 
ENDBRANCH  21  26
ENDBRANCH  16  20
ENDBRANCH  14  15
ENDBRANCH   6  14
BRANCH  12  28
ATOM     28  C   UNL A   1      29.156  30.450  22.328  1.00  0.00     0.078 C 
ATOM     29  C   UNL A   1      28.207  30.613  21.148  1.00  0.00     0.013 C 
ATOM     30  C   UNL A   1      28.919  31.629  23.269  1.00  0.00     0.013 C 
ATOM     31  C   UNL A   1      27.936  32.106  21.068  1.00  0.00     0.001 C 
ATOM     32  C   UNL A   1      28.152  32.673  22.465  1.00  0.00     0.001 C 
ENDBRANCH  12  28
ENDBRANCH   3   6
ENDBRANCH   1   2
BRANCH   1  33
ATOM     33  C   UNL A   1      34.036  31.109  27.251  1.00  0.00     0.042 C 
BRANCH  33  34
ATOM     34  C   UNL A   1      35.082  31.864  28.060  1.00  0.00     0.118 C 
BRANCH  34  35
ATOM     35  N   UNL A   1      34.546  32.418  29.295  1.00  0.00    -0.352 N 
ATOM     36  C   UNL A   1      35.015  32.320  30.583  1.00  0.00     0.251 C 
ATOM     37  H   UNL A   1      33.721  32.944  29.191  1.00  0.00     0.163 HD
ATOM     38  O   UNL A   1      34.308  32.707  31.509  1.00  0.00    -0.269 OA
BRANCH  36  39
ATOM     39  C   UNL A   1      36.350  31.741  30.860  1.00  0.00     0.039 A 
ATOM     40  C   UNL A   1      36.431  30.553  31.592  1.00  0.00     0.014 A 
ATOM     41  C   UNL A   1      37.519  32.369  30.423  1.00  0.00     0.014 A 
ATOM     42  C   UNL A   1      37.678  29.969  31.831  1.00  0.00     0.010 A 
ATOM     43  C   UNL A   1      38.749  31.736  30.578  1.00  0.00     0.010 A 
ATOM     44  C   UNL A   1      38.847  30.535  31.296  1.00  0.00    -0.014 A 
BRANCH  44  45
ATOM     45  C   UNL A   1      40.172  29.887  31.477  1.00  0.00     0.031 A 
ATOM     46  C   UNL A   1      41.110  30.355  32.559  1.00  0.00     0.074 A 
ATOM     47  C   UNL A   1      40.568  28.929  30.614  1.00  0.00     0.049 A 
ATOM     48  N   UNL A   1      42.317  29.937  32.842  1.00  0.00    -0.248 NA
ATOM     49  C   UNL A   1      40.644  31.455  33.421  1.00  0.00     0.031 C 
ATOM     50  C   UNL A   1      39.791  28.449  29.468  1.00  0.00     0.029 A 
ATOM     51  N   UNL A   1      41.732  28.205  30.551  1.00  0.00    -0.354 N 
ATOM     52  C   UNL A   1      42.767  30.743  33.882  1.00  0.00     0.074 A 
ATOM     53  C   UNL A   1      41.719  31.701  34.156  1.00  0.00     0.031 C 
ATOM     54  C   UNL A   1      40.495  27.504  28.825  1.00  0.00     0.029 A 
ATOM     55  C   UNL A   1      41.782  27.331  29.489  1.00  0.00     0.049 A 
ATOM     56  H   UNL A   1      42.463  28.301  31.204  1.00  0.00     0.167 HD
ATOM     57  C   UNL A   1      43.933  30.674  34.568  1.00  0.00     0.034 A 
ATOM     58  C   UNL A   1      42.756  26.490  29.091  1.00  0.00     0.034 A 
ATOM     59  C   UNL A   1      44.954  29.691  34.324  1.00  0.00     0.049 A 
ATOM     60  C   UNL A   1      44.021  26.399  29.901  1.00  0.00     0.074 A 
ATOM     61  C   UNL A   1      46.127  29.478  35.026  1.00  0.00     0.029 A 
ATOM     62  N   UNL A   1      44.929  28.763  33.296  1.00  0.00    -0.354 N 
ATOM     63  N   UNL A   1      44.356  27.057  30.985  1.00  0.00    -0.248 NA
ATOM     64  C   UNL A   1      45.026  25.421  29.458  1.00  0.00     0.031 C 
ATOM     65  C   UNL A   1      46.825  28.438  34.405  1.00  0.00     0.029 A 
ATOM     66  C   UNL A   1      46.071  27.980  33.336  1.00  0.00     0.049 A 
ATOM     67  H   UNL A   1      44.207  28.673  32.634  1.00  0.00     0.167 HD
ATOM     68  C   UNL A   1      45.591  26.548  31.374  1.00  0.00     0.074 A 
ATOM     69  C   UNL A   1      45.932  25.511  30.422  1.00  0.00     0.031 C 
ATOM     70  C   UNL A   1      46.375  26.915  32.416  1.00  0.00     0.034 A 
BRANCH  57  71
ATOM     71  C   UNL A   1      44.146  31.658  35.690  1.00  0.00     0.023 A 
ATOM     72  C   UNL A   1      44.797  32.882  35.429  1.00  0.00     0.012 A 
ATOM     73  C   UNL A   1      43.651  31.403  36.985  1.00  0.00     0.148 A 
ATOM     74  C   UNL A   1      44.984  33.819  36.444  1.00  0.00     0.002 A 
ATOM     75  C   UNL A   1      43.799  32.363  37.979  1.00  0.00     0.091 A 
ATOM     76  F   UNL A   1      43.053  30.227  37.220  1.00  0.00    -0.205 F 
ATOM     77  C   UNL A   1      44.476  33.565  37.715  1.00  0.00     0.022 A 
BRANCH  75  78
ATOM     78  S   UNL A   1      43.109  32.167  39.627  1.00  0.00     0.127 S 
ATOM     79  O   UNL A   1      43.887  31.040  40.139  1.00  0.00    -0.237 OA
ATOM     80  O   UNL A   1      43.425  33.455  40.246  1.00  0.00    -0.237 OA
ATOM     81  O   UNL A   1      41.688  31.913  39.441  1.00  0.00    -0.744 OA
ENDBRANCH  75  78
ENDBRANCH  57  71
BRANCH  58  82
ATOM     82  C   UNL A   1      42.546  25.614  27.902  1.00  0.00     0.023 A 
ATOM     83  C   UNL A   1      42.784  26.130  26.613  1.00  0.00     0.012 A 
ATOM     84  C   UNL A   1      42.136  24.275  28.043  1.00  0.00     0.148 A 
ATOM     85  C   UNL A   1      42.583  25.338  25.483  1.00  0.00     0.002 A 
ATOM     86  C   UNL A   1      41.991  23.475  26.915  1.00  0.00     0.091 A 
ATOM     87  F   UNL A   1      41.906  23.807  29.277  1.00  0.00    -0.205 F 
ATOM     88  C   UNL A   1      42.196  24.009  25.633  1.00  0.00     0.022 A 
BRANCH  86  89
ATOM     89  S   UNL A   1      41.620  21.721  27.019  1.00  0.00     0.127 S 
ATOM     90  O   UNL A   1      40.225  21.736  27.450  1.00  0.00    -0.237 OA
ATOM     91  O   UNL A   1      41.835  21.286  25.639  1.00  0.00    -0.237 OA
ATOM     92  O   UNL A   1      42.573  21.175  27.977  1.00  0.00    -0.744 OA
ENDBRANCH  86  89
ENDBRANCH  58  82
BRANCH  70  93
ATOM     93  C   UNL A   1      47.667  26.166  32.617  1.00  0.00     0.023 A 
ATOM     94  C   UNL A   1      48.832  26.578  31.943  1.00  0.00     0.012 A 
ATOM     95  C   UNL A   1      47.738  25.096  33.533  1.00  0.00     0.148 A 
ATOM     96  C   UNL A   1      50.042  25.915  32.149  1.00  0.00     0.002 A 
ATOM     97  C   UNL A   1      48.958  24.474  33.771  1.00  0.00     0.091 A 
ATOM     98  F   UNL A   1      46.614  24.707  34.151  1.00  0.00    -0.205 F 
ATOM     99  C   UNL A   1      50.107  24.873  33.070  1.00  0.00     0.022 A 
BRANCH  97 100
ATOM    100  S   UNL A   1      49.156  23.190  35.012  1.00  0.00     0.127 S 
ATOM    101  O   UNL A   1      48.276  22.143  34.500  1.00  0.00    -0.237 OA
ATOM    102  O   UNL A   1      50.585  22.887  34.919  1.00  0.00    -0.237 OA
ATOM    103  O   UNL A   1      48.748  23.788  36.276  1.00  0.00    -0.744 OA
ENDBRANCH  97 100
ENDBRANCH  70  93
ENDBRANCH  44  45
ENDBRANCH  36  39
ENDBRANCH  34  35
ENDBRANCH  33  34
ENDBRANCH   1  33
TORSDOF 18
ENDMDL
