MODEL 1
REMARK VINA RESULT:     -13.0      0.000      0.000
REMARK SMILES O=C(NCCCNC(=O)[C@@H](Cc1c[nH]c2ccccc12)Nc1ncnc2ccccc12)c1ccc(-c2c3nc(c(-c4cccc(S(=O)(=O)[O-])c4F)c4ccc([nH]4)c(-c4cccc(S(=O)(=O)[O-])c4F)c4nc(c(-c5cccc(S(=O)(=O)[O-])c5F)c5ccc2[nH]5)C=C4)C=C3)cc1
REMARK SMILES IDX 4 1 3 2 1 3 2 4 32 6 33 7 94 8 34 9 93 10 35 11 36 12 37 13
REMARK SMILES IDX 87 14 38 15 92 16 86 17 88 18 39 19 91 20 85 21 84 22 40 24
REMARK SMILES IDX 72 25 52 26 71 27 53 28 56 29 70 30 89 31 54 32 55 33 69 35
REMARK SMILES IDX 90 36 57 37 41 38 42 39 50 40 43 41 45 42 51 43 44 44 46 45
REMARK SMILES IDX 47 46 48 47 49 48 73 49 74 50 82 51 75 52 77 53 83 54 76 55
REMARK SMILES IDX 78 56 79 57 80 58 81 59 58 60 59 61 67 62 60 63 62 64 68 65
REMARK SMILES IDX 61 66 63 67 64 68 65 69 66 70 5 71 6 72 7 73 8 74 9 76 10 77
REMARK SMILES IDX 11 78 12 79 13 80 20 81 14 82 15 83 19 84 16 86 18 87 17 88
REMARK SMILES IDX 21 89 22 91 23 92 31 93 24 94 26 95 30 96 25 97 27 98 29 99
REMARK SMILES IDX 28 100
REMARK H PARENT 3 5 88 23 56 34 7 75 14 85 21 90
REMARK Flexibility Score: inf
ROOT
ATOM      1  C   UNL A   1      32.706  29.447  25.369  1.00  0.00     0.118 C 
ENDROOT
BRANCH   1   2
ATOM      2  N   UNL A   1      32.464  30.779  25.896  1.00  0.00    -0.352 N 
ATOM      3  O   UNL A   1      32.485  32.532  27.265  1.00  0.00    -0.269 OA
ATOM      4  C   UNL A   1      33.067  31.510  26.893  1.00  0.00     0.251 C 
ATOM      5  H   UNL A   1      31.725  31.251  25.452  1.00  0.00     0.163 HD
BRANCH   4   6
ATOM      6  C   UNL A   1      34.350  31.133  27.556  1.00  0.00     0.039 A 
ATOM      7  C   UNL A   1      35.331  32.050  27.928  1.00  0.00     0.014 A 
ATOM      8  C   UNL A   1      34.515  29.796  27.955  1.00  0.00     0.014 A 
ATOM      9  C   UNL A   1      36.496  31.624  28.587  1.00  0.00     0.010 A 
ATOM     10  C   UNL A   1      35.645  29.385  28.683  1.00  0.00     0.010 A 
ATOM     11  C   UNL A   1      36.673  30.288  28.988  1.00  0.00    -0.014 A 
BRANCH  11  12
ATOM     12  C   UNL A   1      37.886  29.877  29.768  1.00  0.00     0.031 A 
ATOM     13  C   UNL A   1      38.116  30.339  31.190  1.00  0.00     0.074 A 
ATOM     14  C   UNL A   1      38.821  29.089  29.191  1.00  0.00     0.049 A 
ATOM     15  N   UNL A   1      39.111  30.060  32.000  1.00  0.00    -0.248 NA
ATOM     16  C   UNL A   1      37.113  31.240  31.779  1.00  0.00     0.031 C 
ATOM     17  C   UNL A   1      38.786  28.612  27.807  1.00  0.00     0.029 A 
ATOM     18  N   UNL A   1      39.985  28.552  29.692  1.00  0.00    -0.354 N 
ATOM     19  C   UNL A   1      38.885  30.790  33.163  1.00  0.00     0.074 A 
ATOM     20  C   UNL A   1      37.657  31.528  32.955  1.00  0.00     0.031 C 
ATOM     21  C   UNL A   1      39.845  27.821  27.584  1.00  0.00     0.029 A 
ATOM     22  C   UNL A   1      40.672  27.776  28.785  1.00  0.00     0.049 A 
ATOM     23  H   UNL A   1      40.297  28.706  30.612  1.00  0.00     0.167 HD
ATOM     24  C   UNL A   1      39.615  30.833  34.306  1.00  0.00     0.034 A 
ATOM     25  C   UNL A   1      41.839  27.107  28.891  1.00  0.00     0.034 A 
ATOM     26  C   UNL A   1      40.805  30.060  34.552  1.00  0.00     0.049 A 
ATOM     27  C   UNL A   1      42.601  27.135  30.187  1.00  0.00     0.074 A 
ATOM     28  C   UNL A   1      41.550  29.979  35.719  1.00  0.00     0.029 A 
ATOM     29  N   UNL A   1      41.432  29.244  33.626  1.00  0.00    -0.354 N 
ATOM     30  N   UNL A   1      42.286  27.716  31.317  1.00  0.00    -0.248 NA
ATOM     31  C   UNL A   1      43.869  26.391  30.228  1.00  0.00     0.031 C 
ATOM     32  C   UNL A   1      42.638  29.130  35.491  1.00  0.00     0.029 A 
ATOM     33  C   UNL A   1      42.558  28.663  34.189  1.00  0.00     0.049 A 
ATOM     34  H   UNL A   1      41.124  29.099  32.702  1.00  0.00     0.167 HD
ATOM     35  C   UNL A   1      43.297  27.382  32.211  1.00  0.00     0.074 A 
ATOM     36  C   UNL A   1      44.222  26.526  31.498  1.00  0.00     0.031 C 
ATOM     37  C   UNL A   1      43.451  27.765  33.503  1.00  0.00     0.034 A 
BRANCH  24  38
ATOM     38  C   UNL A   1      39.126  31.725  35.422  1.00  0.00     0.023 A 
ATOM     39  C   UNL A   1      38.195  31.229  36.357  1.00  0.00     0.012 A 
ATOM     40  C   UNL A   1      39.653  33.021  35.598  1.00  0.00     0.148 A 
ATOM     41  C   UNL A   1      37.773  32.016  37.427  1.00  0.00     0.002 A 
ATOM     42  C   UNL A   1      39.260  33.784  36.693  1.00  0.00     0.091 A 
ATOM     43  F   UNL A   1      40.526  33.486  34.692  1.00  0.00    -0.205 F 
ATOM     44  C   UNL A   1      38.313  33.287  37.601  1.00  0.00     0.022 A 
BRANCH  42  45
ATOM     45  S   UNL A   1      39.963  35.399  37.047  1.00  0.00     0.127 S 
ATOM     46  O   UNL A   1      41.387  35.083  37.151  1.00  0.00    -0.237 OA
ATOM     47  O   UNL A   1      39.596  36.167  35.857  1.00  0.00    -0.237 OA
ATOM     48  O   UNL A   1      39.327  35.850  38.277  1.00  0.00    -0.744 OA
ENDBRANCH  42  45
ENDBRANCH  24  38
BRANCH  25  49
ATOM     49  C   UNL A   1      42.333  26.293  27.742  1.00  0.00     0.023 A 
ATOM     50  C   UNL A   1      43.277  26.850  26.858  1.00  0.00     0.012 A 
ATOM     51  C   UNL A   1      41.898  24.969  27.537  1.00  0.00     0.148 A 
ATOM     52  C   UNL A   1      43.761  26.113  25.777  1.00  0.00     0.002 A 
ATOM     53  C   UNL A   1      42.430  24.220  26.496  1.00  0.00     0.091 A 
ATOM     54  F   UNL A   1      40.981  24.465  28.376  1.00  0.00    -0.205 F 
ATOM     55  C   UNL A   1      43.349  24.795  25.603  1.00  0.00     0.022 A 
BRANCH  53  56
ATOM     56  S   UNL A   1      42.066  22.474  26.286  1.00  0.00     0.127 S 
ATOM     57  O   UNL A   1      42.711  22.184  25.009  1.00  0.00    -0.237 OA
ATOM     58  O   UNL A   1      42.719  21.885  27.456  1.00  0.00    -0.237 OA
ATOM     59  O   UNL A   1      40.612  22.376  26.301  1.00  0.00    -0.744 OA
ENDBRANCH  53  56
ENDBRANCH  25  49
BRANCH  37  60
ATOM     60  C   UNL A   1      44.644  27.235  34.255  1.00  0.00     0.023 A 
ATOM     61  C   UNL A   1      45.863  27.943  34.230  1.00  0.00     0.012 A 
ATOM     62  C   UNL A   1      44.546  26.061  35.028  1.00  0.00     0.148 A 
ATOM     63  C   UNL A   1      46.972  27.473  34.932  1.00  0.00     0.002 A 
ATOM     64  C   UNL A   1      45.643  25.623  35.763  1.00  0.00     0.091 A 
ATOM     65  F   UNL A   1      43.388  25.385  35.024  1.00  0.00    -0.205 F 
ATOM     66  C   UNL A   1      46.860  26.321  35.707  1.00  0.00     0.022 A 
BRANCH  64  67
ATOM     67  S   UNL A   1      45.554  24.200  36.858  1.00  0.00     0.127 S 
ATOM     68  O   UNL A   1      44.588  24.655  37.860  1.00  0.00    -0.237 OA
ATOM     69  O   UNL A   1      45.054  23.150  35.966  1.00  0.00    -0.237 OA
ATOM     70  O   UNL A   1      46.908  23.985  37.340  1.00  0.00    -0.744 OA
ENDBRANCH  64  67
ENDBRANCH  37  60
ENDBRANCH  11  12
ENDBRANCH   4   6
ENDBRANCH   1   2
BRANCH   1  71
ATOM     71  C   UNL A   1      31.715  28.422  25.907  1.00  0.00     0.042 C 
BRANCH  71  72
ATOM     72  C   UNL A   1      32.274  27.037  26.235  1.00  0.00     0.117 C 
BRANCH  72  73
ATOM     73  N   UNL A   1      31.244  26.101  26.668  1.00  0.00    -0.354 N 
ATOM     74  C   UNL A   1      30.748  24.935  26.170  1.00  0.00     0.242 C 
ATOM     75  H   UNL A   1      30.808  26.374  27.506  1.00  0.00     0.163 HD
ATOM     76  O   UNL A   1      29.764  24.483  26.775  1.00  0.00    -0.273 OA
BRANCH  74  77
ATOM     77  C   UNL A   1      31.279  24.168  24.934  1.00  0.00     0.174 C 
BRANCH  77  78
ATOM     78  C   UNL A   1      30.626  24.629  23.623  1.00  0.00     0.072 C 
BRANCH  78  79
ATOM     79  C   UNL A   1      30.908  26.006  23.122  1.00  0.00    -0.020 A 
ATOM     80  C   UNL A   1      32.080  26.470  22.558  1.00  0.00     0.087 A 
ATOM     81  C   UNL A   1      29.966  27.082  23.069  1.00  0.00     0.003 A 
ATOM     82  N   UNL A   1      31.892  27.774  22.184  1.00  0.00    -0.361 N 
ATOM     83  C   UNL A   1      30.618  28.180  22.504  1.00  0.00     0.046 A 
ATOM     84  C   UNL A   1      28.633  27.236  23.504  1.00  0.00     0.010 A 
ATOM     85  H   UNL A   1      32.571  28.338  21.748  1.00  0.00     0.166 HD
ATOM     86  C   UNL A   1      30.006  29.431  22.369  1.00  0.00     0.026 A 
ATOM     87  C   UNL A   1      28.009  28.481  23.381  1.00  0.00     0.001 A 
ATOM     88  C   UNL A   1      28.687  29.557  22.818  1.00  0.00     0.002 A 
ENDBRANCH  78  79
ENDBRANCH  77  78
BRANCH  77  89
ATOM     89  N   UNL A   1      32.752  24.028  24.880  1.00  0.00    -0.358 N 
ATOM     90  H   UNL A   1      33.330  24.819  24.776  1.00  0.00     0.162 HD
BRANCH  89  91
ATOM     91  C   UNL A   1      33.301  22.749  24.977  1.00  0.00     0.137 A 
ATOM     92  N   UNL A   1      32.372  21.781  25.011  1.00  0.00    -0.219 NA
ATOM     93  C   UNL A   1      34.682  22.467  25.023  1.00  0.00     0.043 A 
ATOM     94  C   UNL A   1      32.823  20.522  25.018  1.00  0.00     0.224 A 
ATOM     95  C   UNL A   1      35.019  21.105  24.999  1.00  0.00     0.076 A 
ATOM     96  C   UNL A   1      35.727  23.419  25.125  1.00  0.00     0.014 A 
ATOM     97  N   UNL A   1      34.104  20.133  24.990  1.00  0.00    -0.236 NA
ATOM     98  C   UNL A   1      36.364  20.746  24.997  1.00  0.00     0.029 A 
ATOM     99  C   UNL A   1      37.067  23.039  25.119  1.00  0.00     0.001 A 
ATOM    100  C   UNL A   1      37.388  21.695  25.042  1.00  0.00     0.002 A 
ENDBRANCH  89  91
ENDBRANCH  77  89
ENDBRANCH  74  77
ENDBRANCH  72  73
ENDBRANCH  71  72
ENDBRANCH   1  71
TORSDOF 17
ENDMDL
MODEL 2
REMARK VINA RESULT:     -13.0      0.737      3.924
REMARK SMILES O=C(NCCCNC(=O)[C@@H](Cc1c[nH]c2ccccc12)Nc1ncnc2ccccc12)c1ccc(-c2c3nc(c(-c4cccc(S(=O)(=O)[O-])c4F)c4ccc([nH]4)c(-c4cccc(S(=O)(=O)[O-])c4F)c4nc(c(-c5cccc(S(=O)(=O)[O-])c5F)c5ccc2[nH]5)C=C4)C=C3)cc1
REMARK SMILES IDX 4 1 3 2 1 3 2 4 32 6 33 7 94 8 34 9 93 10 35 11 36 12 37 13
REMARK SMILES IDX 87 14 38 15 92 16 86 17 88 18 39 19 91 20 85 21 84 22 40 24
REMARK SMILES IDX 72 25 52 26 71 27 53 28 56 29 70 30 89 31 54 32 55 33 69 35
REMARK SMILES IDX 90 36 57 37 41 38 42 39 50 40 43 41 45 42 51 43 44 44 46 45
REMARK SMILES IDX 47 46 48 47 49 48 73 49 74 50 82 51 75 52 77 53 83 54 76 55
REMARK SMILES IDX 78 56 79 57 80 58 81 59 58 60 59 61 67 62 60 63 62 64 68 65
REMARK SMILES IDX 61 66 63 67 64 68 65 69 66 70 5 71 6 72 7 73 8 74 9 76 10 77
REMARK SMILES IDX 11 78 12 79 13 80 20 81 14 82 15 83 19 84 16 86 18 87 17 88
REMARK SMILES IDX 21 89 22 91 23 92 31 93 24 94 26 95 30 96 25 97 27 98 29 99
REMARK SMILES IDX 28 100
REMARK H PARENT 3 5 88 23 56 34 7 75 14 85 21 90
REMARK Flexibility Score: inf
ROOT
ATOM      1  C   UNL A   1      32.512  29.610  25.518  1.00  0.00     0.118 C 
ENDROOT
BRANCH   1   2
ATOM      2  N   UNL A   1      32.310  30.960  26.014  1.00  0.00    -0.352 N 
ATOM      3  O   UNL A   1      32.410  32.752  27.326  1.00  0.00    -0.269 OA
ATOM      4  C   UNL A   1      32.964  31.712  26.962  1.00  0.00     0.251 C 
ATOM      5  H   UNL A   1      31.558  31.428  25.587  1.00  0.00     0.163 HD
BRANCH   4   6
ATOM      6  C   UNL A   1      34.269  31.339  27.581  1.00  0.00     0.039 A 
ATOM      7  C   UNL A   1      35.272  32.254  27.892  1.00  0.00     0.014 A 
ATOM      8  C   UNL A   1      34.440  30.009  28.002  1.00  0.00     0.014 A 
ATOM      9  C   UNL A   1      36.459  31.832  28.513  1.00  0.00     0.010 A 
ATOM     10  C   UNL A   1      35.595  29.604  28.693  1.00  0.00     0.010 A 
ATOM     11  C   UNL A   1      36.641  30.504  28.936  1.00  0.00    -0.014 A 
BRANCH  11  12
ATOM     12  C   UNL A   1      37.881  30.099  29.676  1.00  0.00     0.031 A 
ATOM     13  C   UNL A   1      38.150  30.553  31.094  1.00  0.00     0.074 A 
ATOM     14  C   UNL A   1      38.805  29.325  29.065  1.00  0.00     0.049 A 
ATOM     15  N   UNL A   1      39.172  30.278  31.870  1.00  0.00    -0.248 NA
ATOM     16  C   UNL A   1      37.158  31.441  31.719  1.00  0.00     0.031 C 
ATOM     17  C   UNL A   1      38.733  28.857  27.679  1.00  0.00     0.029 A 
ATOM     18  N   UNL A   1      39.990  28.795  29.526  1.00  0.00    -0.354 N 
ATOM     19  C   UNL A   1      38.975  30.997  33.046  1.00  0.00     0.074 A 
ATOM     20  C   UNL A   1      37.734  31.725  32.880  1.00  0.00     0.031 C 
ATOM     21  C   UNL A   1      39.792  28.078  27.417  1.00  0.00     0.029 A 
ATOM     22  C   UNL A   1      40.656  28.032  28.592  1.00  0.00     0.049 A 
ATOM     23  H   UNL A   1      40.328  28.946  30.437  1.00  0.00     0.167 HD
ATOM     24  C   UNL A   1      39.739  31.039  34.166  1.00  0.00     0.034 A 
ATOM     25  C   UNL A   1      41.831  27.373  28.658  1.00  0.00     0.034 A 
ATOM     26  C   UNL A   1      40.944  30.277  34.370  1.00  0.00     0.049 A 
ATOM     27  C   UNL A   1      42.633  27.399  29.930  1.00  0.00     0.074 A 
ATOM     28  C   UNL A   1      41.725  30.194  35.512  1.00  0.00     0.029 A 
ATOM     29  N   UNL A   1      41.550  29.473  33.419  1.00  0.00    -0.354 N 
ATOM     30  N   UNL A   1      42.347  27.969  31.073  1.00  0.00    -0.248 NA
ATOM     31  C   UNL A   1      43.908  26.667  29.927  1.00  0.00     0.031 C 
ATOM     32  C   UNL A   1      42.814  29.357  35.245  1.00  0.00     0.029 A 
ATOM     33  C   UNL A   1      42.698  28.899  33.943  1.00  0.00     0.049 A 
ATOM     34  H   UNL A   1      41.215  29.331  32.504  1.00  0.00     0.167 HD
ATOM     35  C   UNL A   1      43.388  27.639  31.934  1.00  0.00     0.074 A 
ATOM     36  C   UNL A   1      44.299  26.797  31.187  1.00  0.00     0.031 C 
ATOM     37  C   UNL A   1      43.577  28.015  33.223  1.00  0.00     0.034 A 
BRANCH  24  38
ATOM     38  C   UNL A   1      39.277  31.919  35.303  1.00  0.00     0.023 A 
ATOM     39  C   UNL A   1      38.419  31.392  36.290  1.00  0.00     0.012 A 
ATOM     40  C   UNL A   1      39.760  33.236  35.443  1.00  0.00     0.148 A 
ATOM     41  C   UNL A   1      38.025  32.169  37.378  1.00  0.00     0.002 A 
ATOM     42  C   UNL A   1      39.396  33.991  36.554  1.00  0.00     0.091 A 
ATOM     43  F   UNL A   1      40.561  33.730  34.488  1.00  0.00    -0.205 F 
ATOM     44  C   UNL A   1      38.521  33.462  37.516  1.00  0.00     0.022 A 
BRANCH  42  45
ATOM     45  S   UNL A   1      40.051  35.635  36.862  1.00  0.00     0.127 S 
ATOM     46  O   UNL A   1      39.542  36.375  35.708  1.00  0.00    -0.237 OA
ATOM     47  O   UNL A   1      39.422  35.988  38.135  1.00  0.00    -0.237 OA
ATOM     48  O   UNL A   1      41.498  35.483  36.923  1.00  0.00    -0.744 OA
ENDBRANCH  42  45
ENDBRANCH  24  38
BRANCH  25  49
ATOM     49  C   UNL A   1      42.298  26.572  27.489  1.00  0.00     0.023 A 
ATOM     50  C   UNL A   1      43.105  27.185  26.511  1.00  0.00     0.012 A 
ATOM     51  C   UNL A   1      41.973  25.209  27.354  1.00  0.00     0.148 A 
ATOM     52  C   UNL A   1      43.560  26.462  25.408  1.00  0.00     0.002 A 
ATOM     53  C   UNL A   1      42.481  24.479  26.287  1.00  0.00     0.091 A 
ATOM     54  F   UNL A   1      41.185  24.649  28.284  1.00  0.00    -0.205 F 
ATOM     55  C   UNL A   1      43.259  25.107  25.303  1.00  0.00     0.022 A 
BRANCH  53  56
ATOM     56  S   UNL A   1      42.265  22.701  26.151  1.00  0.00     0.127 S 
ATOM     57  O   UNL A   1      42.894  22.420  24.864  1.00  0.00    -0.237 OA
ATOM     58  O   UNL A   1      43.003  22.216  27.318  1.00  0.00    -0.237 OA
ATOM     59  O   UNL A   1      40.827  22.478  26.219  1.00  0.00    -0.744 OA
ENDBRANCH  53  56
ENDBRANCH  25  49
BRANCH  37  60
ATOM     60  C   UNL A   1      44.799  27.490  33.934  1.00  0.00     0.023 A 
ATOM     61  C   UNL A   1      45.992  28.240  33.927  1.00  0.00     0.012 A 
ATOM     62  C   UNL A   1      44.750  26.280  34.653  1.00  0.00     0.148 A 
ATOM     63  C   UNL A   1      47.127  27.775  34.593  1.00  0.00     0.002 A 
ATOM     64  C   UNL A   1      45.871  25.845  35.353  1.00  0.00     0.091 A 
ATOM     65  F   UNL A   1      43.615  25.566  34.632  1.00  0.00    -0.205 F 
ATOM     66  C   UNL A   1      47.064  26.585  35.314  1.00  0.00     0.022 A 
BRANCH  64  67
ATOM     67  S   UNL A   1      45.845  24.371  36.381  1.00  0.00     0.127 S 
ATOM     68  O   UNL A   1      45.595  23.322  35.391  1.00  0.00    -0.237 OA
ATOM     69  O   UNL A   1      47.197  24.361  36.948  1.00  0.00    -0.237 OA
ATOM     70  O   UNL A   1      44.787  24.583  37.355  1.00  0.00    -0.744 OA
ENDBRANCH  64  67
ENDBRANCH  37  60
ENDBRANCH  11  12
ENDBRANCH   4   6
ENDBRANCH   1   2
BRANCH   1  71
ATOM     71  C   UNL A   1      31.627  28.593  26.227  1.00  0.00     0.042 C 
BRANCH  71  72
ATOM     72  C   UNL A   1      32.268  27.246  26.566  1.00  0.00     0.117 C 
BRANCH  72  73
ATOM     73  N   UNL A   1      31.284  26.212  26.860  1.00  0.00    -0.354 N 
ATOM     74  C   UNL A   1      30.964  25.015  26.296  1.00  0.00     0.242 C 
ATOM     75  H   UNL A   1      30.724  26.427  27.641  1.00  0.00     0.163 HD
ATOM     76  O   UNL A   1      29.959  24.463  26.771  1.00  0.00    -0.273 OA
BRANCH  74  77
ATOM     77  C   UNL A   1      31.711  24.324  25.129  1.00  0.00     0.174 C 
BRANCH  77  78
ATOM     78  C   UNL A   1      31.929  22.823  25.369  1.00  0.00     0.072 C 
BRANCH  78  79
ATOM     79  C   UNL A   1      33.252  22.358  25.877  1.00  0.00    -0.020 A 
ATOM     80  C   UNL A   1      33.524  21.779  27.101  1.00  0.00     0.087 A 
ATOM     81  C   UNL A   1      34.477  22.363  25.137  1.00  0.00     0.003 A 
ATOM     82  N   UNL A   1      34.854  21.450  27.136  1.00  0.00    -0.361 N 
ATOM     83  C   UNL A   1      35.463  21.816  25.959  1.00  0.00     0.046 A 
ATOM     84  C   UNL A   1      34.845  22.837  23.860  1.00  0.00     0.010 A 
ATOM     85  H   UNL A   1      35.306  21.015  27.894  1.00  0.00     0.166 HD
ATOM     86  C   UNL A   1      36.806  21.737  25.573  1.00  0.00     0.026 A 
ATOM     87  C   UNL A   1      36.183  22.770  23.462  1.00  0.00     0.001 A 
ATOM     88  C   UNL A   1      37.145  22.223  24.306  1.00  0.00     0.002 A 
ENDBRANCH  78  79
ENDBRANCH  77  78
BRANCH  77  89
ATOM     89  N   UNL A   1      31.208  24.673  23.781  1.00  0.00    -0.358 N 
ATOM     90  H   UNL A   1      30.780  23.993  23.211  1.00  0.00     0.162 HD
BRANCH  89  91
ATOM     91  C   UNL A   1      31.357  25.987  23.336  1.00  0.00     0.137 A 
ATOM     92  N   UNL A   1      32.621  26.287  23.000  1.00  0.00    -0.219 NA
ATOM     93  C   UNL A   1      30.309  26.923  23.226  1.00  0.00     0.043 A 
ATOM     94  C   UNL A   1      32.829  27.503  22.484  1.00  0.00     0.224 A 
ATOM     95  C   UNL A   1      30.657  28.151  22.643  1.00  0.00     0.076 A 
ATOM     96  C   UNL A   1      28.977  26.744  23.677  1.00  0.00     0.014 A 
ATOM     97  N   UNL A   1      31.904  28.445  22.266  1.00  0.00    -0.236 NA
ATOM     98  C   UNL A   1      29.667  29.112  22.459  1.00  0.00     0.029 A 
ATOM     99  C   UNL A   1      28.000  27.718  23.481  1.00  0.00     0.001 A 
ATOM    100  C   UNL A   1      28.344  28.905  22.857  1.00  0.00     0.002 A 
ENDBRANCH  89  91
ENDBRANCH  77  89
ENDBRANCH  74  77
ENDBRANCH  72  73
ENDBRANCH  71  72
ENDBRANCH   1  71
TORSDOF 17
ENDMDL
MODEL 3
REMARK VINA RESULT:     -12.8      4.578      9.796
REMARK SMILES O=C(NCCCNC(=O)[C@@H](Cc1c[nH]c2ccccc12)Nc1ncnc2ccccc12)c1ccc(-c2c3nc(c(-c4cccc(S(=O)(=O)[O-])c4F)c4ccc([nH]4)c(-c4cccc(S(=O)(=O)[O-])c4F)c4nc(c(-c5cccc(S(=O)(=O)[O-])c5F)c5ccc2[nH]5)C=C4)C=C3)cc1
REMARK SMILES IDX 4 1 3 2 1 3 2 4 32 6 33 7 94 8 34 9 93 10 35 11 36 12 37 13
REMARK SMILES IDX 87 14 38 15 92 16 86 17 88 18 39 19 91 20 85 21 84 22 40 24
REMARK SMILES IDX 72 25 52 26 71 27 53 28 56 29 70 30 89 31 54 32 55 33 69 35
REMARK SMILES IDX 90 36 57 37 41 38 42 39 50 40 43 41 45 42 51 43 44 44 46 45
REMARK SMILES IDX 47 46 48 47 49 48 73 49 74 50 82 51 75 52 77 53 83 54 76 55
REMARK SMILES IDX 78 56 79 57 80 58 81 59 58 60 59 61 67 62 60 63 62 64 68 65
REMARK SMILES IDX 61 66 63 67 64 68 65 69 66 70 5 71 6 72 7 73 8 74 9 76 10 77
REMARK SMILES IDX 11 78 12 79 13 80 20 81 14 82 15 83 19 84 16 86 18 87 17 88
REMARK SMILES IDX 21 89 22 91 23 92 31 93 24 94 26 95 30 96 25 97 27 98 29 99
REMARK SMILES IDX 28 100
REMARK H PARENT 3 5 88 23 56 34 7 75 14 85 21 90
REMARK Flexibility Score: inf
ROOT
ATOM      1  C   UNL A   1      35.798  21.814  25.542  1.00  0.00     0.118 C 
ENDROOT
BRANCH   1   2
ATOM      2  N   UNL A   1      36.888  20.854  25.511  1.00  0.00    -0.352 N 
ATOM      3  O   UNL A   1      38.941  20.011  25.375  1.00  0.00    -0.269 OA
ATOM      4  C   UNL A   1      38.246  20.979  25.690  1.00  0.00     0.251 C 
ATOM      5  H   UNL A   1      36.597  19.932  25.327  1.00  0.00     0.163 HD
BRANCH   4   6
ATOM      6  C   UNL A   1      38.918  22.206  26.212  1.00  0.00     0.039 A 
ATOM      7  C   UNL A   1      40.114  22.193  26.924  1.00  0.00     0.014 A 
ATOM      8  C   UNL A   1      38.387  23.453  25.843  1.00  0.00     0.014 A 
ATOM      9  C   UNL A   1      40.709  23.393  27.348  1.00  0.00     0.010 A 
ATOM     10  C   UNL A   1      39.024  24.654  26.200  1.00  0.00     0.010 A 
ATOM     11  C   UNL A   1      40.184  24.646  26.987  1.00  0.00    -0.014 A 
BRANCH  11  12
ATOM     12  C   UNL A   1      40.886  25.912  27.377  1.00  0.00     0.031 A 
ATOM     13  C   UNL A   1      42.308  26.204  26.946  1.00  0.00     0.074 A 
ATOM     14  C   UNL A   1      40.255  26.819  28.155  1.00  0.00     0.049 A 
ATOM     15  N   UNL A   1      43.047  27.259  27.195  1.00  0.00    -0.248 NA
ATOM     16  C   UNL A   1      42.995  25.178  26.147  1.00  0.00     0.031 C 
ATOM     17  C   UNL A   1      38.909  26.662  28.713  1.00  0.00     0.029 A 
ATOM     18  N   UNL A   1      40.656  28.052  28.617  1.00  0.00    -0.354 N 
ATOM     19  C   UNL A   1      44.296  27.002  26.636  1.00  0.00     0.074 A 
ATOM     20  C   UNL A   1      44.215  25.687  26.034  1.00  0.00     0.031 C 
ATOM     21  C   UNL A   1      38.581  27.768  29.397  1.00  0.00     0.029 A 
ATOM     22  C   UNL A   1      39.708  28.694  29.382  1.00  0.00     0.049 A 
ATOM     23  H   UNL A   1      41.538  28.440  28.417  1.00  0.00     0.167 HD
ATOM     24  C   UNL A   1      45.402  27.787  26.605  1.00  0.00     0.034 A 
ATOM     25  C   UNL A   1      39.732  29.886  30.013  1.00  0.00     0.034 A 
ATOM     26  C   UNL A   1      45.481  29.120  27.146  1.00  0.00     0.049 A 
ATOM     27  C   UNL A   1      40.956  30.755  29.921  1.00  0.00     0.074 A 
ATOM     28  C   UNL A   1      46.537  30.014  27.074  1.00  0.00     0.029 A 
ATOM     29  N   UNL A   1      44.477  29.750  27.862  1.00  0.00    -0.354 N 
ATOM     30  N   UNL A   1      42.068  30.547  29.261  1.00  0.00    -0.248 NA
ATOM     31  C   UNL A   1      40.916  32.037  30.641  1.00  0.00     0.031 C 
ATOM     32  C   UNL A   1      46.179  31.178  27.764  1.00  0.00     0.029 A 
ATOM     33  C   UNL A   1      44.891  31.018  28.246  1.00  0.00     0.049 A 
ATOM     34  H   UNL A   1      43.599  29.357  28.069  1.00  0.00     0.167 HD
ATOM     35  C   UNL A   1      42.845  31.683  29.459  1.00  0.00     0.074 A 
ATOM     36  C   UNL A   1      42.066  32.587  30.279  1.00  0.00     0.031 C 
ATOM     37  C   UNL A   1      44.099  31.943  29.013  1.00  0.00     0.034 A 
BRANCH  24  38
ATOM     38  C   UNL A   1      46.633  27.245  25.921  1.00  0.00     0.023 A 
ATOM     39  C   UNL A   1      46.773  27.380  24.525  1.00  0.00     0.012 A 
ATOM     40  C   UNL A   1      47.689  26.682  26.667  1.00  0.00     0.148 A 
ATOM     41  C   UNL A   1      47.927  26.938  23.879  1.00  0.00     0.002 A 
ATOM     42  C   UNL A   1      48.855  26.281  26.021  1.00  0.00     0.091 A 
ATOM     43  F   UNL A   1      47.535  26.544  27.992  1.00  0.00    -0.205 F 
ATOM     44  C   UNL A   1      48.971  26.399  24.627  1.00  0.00     0.022 A 
BRANCH  42  45
ATOM     45  S   UNL A   1      50.285  25.655  26.910  1.00  0.00     0.127 S 
ATOM     46  O   UNL A   1      49.738  24.453  27.537  1.00  0.00    -0.237 OA
ATOM     47  O   UNL A   1      51.235  25.396  25.827  1.00  0.00    -0.237 OA
ATOM     48  O   UNL A   1      50.683  26.716  27.823  1.00  0.00    -0.744 OA
ENDBRANCH  42  45
ENDBRANCH  24  38
BRANCH  25  49
ATOM     49  C   UNL A   1      38.523  30.362  30.745  1.00  0.00     0.023 A 
ATOM     50  C   UNL A   1      38.400  30.092  32.122  1.00  0.00     0.012 A 
ATOM     51  C   UNL A   1      37.513  31.098  30.098  1.00  0.00     0.148 A 
ATOM     52  C   UNL A   1      37.283  30.527  32.836  1.00  0.00     0.002 A 
ATOM     53  C   UNL A   1      36.433  31.581  30.827  1.00  0.00     0.091 A 
ATOM     54  F   UNL A   1      37.636  31.325  28.781  1.00  0.00    -0.205 F 
ATOM     55  C   UNL A   1      36.306  31.282  32.192  1.00  0.00     0.022 A 
BRANCH  53  56
ATOM     56  S   UNL A   1      35.208  32.682  30.111  1.00  0.00     0.127 S 
ATOM     57  O   UNL A   1      34.327  32.930  31.248  1.00  0.00    -0.237 OA
ATOM     58  O   UNL A   1      36.027  33.825  29.705  1.00  0.00    -0.237 OA
ATOM     59  O   UNL A   1      34.622  31.943  29.001  1.00  0.00    -0.744 OA
ENDBRANCH  53  56
ENDBRANCH  25  49
BRANCH  37  60
ATOM     60  C   UNL A   1      44.706  33.278  29.364  1.00  0.00     0.023 A 
ATOM     61  C   UNL A   1      45.470  33.415  30.541  1.00  0.00     0.012 A 
ATOM     62  C   UNL A   1      44.563  34.384  28.504  1.00  0.00     0.148 A 
ATOM     63  C   UNL A   1      46.050  34.640  30.873  1.00  0.00     0.002 A 
ATOM     64  C   UNL A   1      45.182  35.589  28.818  1.00  0.00     0.091 A 
ATOM     65  F   UNL A   1      43.814  34.246  27.400  1.00  0.00    -0.205 F 
ATOM     66  C   UNL A   1      45.916  35.722  30.008  1.00  0.00     0.022 A 
BRANCH  64  67
ATOM     67  S   UNL A   1      45.136  37.006  27.712  1.00  0.00     0.127 S 
ATOM     68  O   UNL A   1      43.695  37.233  27.580  1.00  0.00    -0.237 OA
ATOM     69  O   UNL A   1      45.843  38.030  28.485  1.00  0.00    -0.237 OA
ATOM     70  O   UNL A   1      45.821  36.588  26.501  1.00  0.00    -0.744 OA
ENDBRANCH  64  67
ENDBRANCH  37  60
ENDBRANCH  11  12
ENDBRANCH   4   6
ENDBRANCH   1   2
BRANCH   1  71
ATOM     71  C   UNL A   1      34.527  21.228  26.143  1.00  0.00     0.042 C 
BRANCH  71  72
ATOM     72  C   UNL A   1      34.009  21.886  27.423  1.00  0.00     0.117 C 
BRANCH  72  73
ATOM     73  N   UNL A   1      32.556  22.004  27.448  1.00  0.00    -0.354 N 
ATOM     74  C   UNL A   1      31.682  23.030  27.262  1.00  0.00     0.242 C 
ATOM     75  H   UNL A   1      32.108  21.151  27.646  1.00  0.00     0.163 HD
ATOM     76  O   UNL A   1      30.493  22.754  27.491  1.00  0.00    -0.273 OA
BRANCH  74  77
ATOM     77  C   UNL A   1      32.041  24.473  26.830  1.00  0.00     0.174 C 
BRANCH  77  78
ATOM     78  C   UNL A   1      33.185  24.519  25.807  1.00  0.00     0.072 C 
BRANCH  78  79
ATOM     79  C   UNL A   1      32.862  24.376  24.358  1.00  0.00    -0.020 A 
ATOM     80  C   UNL A   1      32.292  23.287  23.728  1.00  0.00     0.087 A 
ATOM     81  C   UNL A   1      33.022  25.394  23.365  1.00  0.00     0.003 A 
ATOM     82  N   UNL A   1      32.116  23.597  22.405  1.00  0.00    -0.361 N 
ATOM     83  C   UNL A   1      32.573  24.869  22.152  1.00  0.00     0.046 A 
ATOM     84  C   UNL A   1      33.561  26.698  23.380  1.00  0.00     0.010 A 
ATOM     85  H   UNL A   1      31.719  22.996  21.734  1.00  0.00     0.166 HD
ATOM     86  C   UNL A   1      32.654  25.578  20.948  1.00  0.00     0.026 A 
ATOM     87  C   UNL A   1      33.654  27.417  22.185  1.00  0.00     0.001 A 
ATOM     88  C   UNL A   1      33.202  26.864  20.991  1.00  0.00     0.002 A 
ENDBRANCH  78  79
ENDBRANCH  77  78
BRANCH  77  89
ATOM     89  N   UNL A   1      30.878  25.328  26.502  1.00  0.00    -0.358 N 
ATOM     90  H   UNL A   1      29.977  24.940  26.414  1.00  0.00     0.162 HD
BRANCH  89  91
ATOM     91  C   UNL A   1      31.089  26.695  26.319  1.00  0.00     0.137 A 
ATOM     92  N   UNL A   1      31.681  27.279  27.372  1.00  0.00    -0.219 NA
ATOM     93  C   UNL A   1      30.741  27.414  25.158  1.00  0.00     0.043 A 
ATOM     94  C   UNL A   1      31.995  28.573  27.237  1.00  0.00     0.224 A 
ATOM     95  C   UNL A   1      31.151  28.756  25.135  1.00  0.00     0.076 A 
ATOM     96  C   UNL A   1      29.999  26.918  24.057  1.00  0.00     0.014 A 
ATOM     97  N   UNL A   1      31.779  29.338  26.161  1.00  0.00    -0.236 NA
ATOM     98  C   UNL A   1      30.884  29.522  24.004  1.00  0.00     0.029 A 
ATOM     99  C   UNL A   1      29.743  27.700  22.933  1.00  0.00     0.001 A 
ATOM    100  C   UNL A   1      30.200  29.007  22.901  1.00  0.00     0.002 A 
ENDBRANCH  89  91
ENDBRANCH  77  89
ENDBRANCH  74  77
ENDBRANCH  72  73
ENDBRANCH  71  72
ENDBRANCH   1  71
TORSDOF 17
ENDMDL
