MODEL 1
REMARK VINA RESULT:      -9.3      0.000      0.000
REMARK SMILES C[C@@H](CCCO)[NH2+][C@@H](C)CC(=O)NCCCNC(=O)c1ccc(-c2c3nc(c(-c4cccc(S(=O)(=O)[O-])c4F)c4ccc([nH]4)c(-c4cccc(S(=O)(=O)[O-])c4F)c4nc(c(-c5cccc(S(=O)(=O)[O-])c5F)c5ccc2[nH]5)C=C4)C=C3)cc1
REMARK SMILES IDX 11 1 12 2 13 3 10 5 8 6 9 7 7 8 2 11 1 12 3 13 4 14 5 15
REMARK SMILES IDX 6 16 14 18 15 19 16 20 17 21 18 22 19 24 20 25 21 26 82 27
REMARK SMILES IDX 22 28 81 29 23 30 24 31 25 32 75 33 26 34 80 35 74 36 76 37
REMARK SMILES IDX 27 38 79 39 73 40 72 41 28 43 60 44 40 45 59 46 41 47 44 48
REMARK SMILES IDX 58 49 77 50 42 51 43 52 57 54 78 55 45 56 29 57 30 58 38 59
REMARK SMILES IDX 31 60 33 61 39 62 32 63 34 64 35 65 36 66 37 67 61 68 62 69
REMARK SMILES IDX 70 70 63 71 65 72 71 73 64 74 66 75 67 76 68 77 69 78 46 79
REMARK SMILES IDX 47 80 55 81 48 82 50 83 56 84 49 85 51 86 52 87 53 88 54 89
REMARK H PARENT 13 4 7 9 7 10 6 17 17 23 76 42 44 53
REMARK Flexibility Score: inf
ROOT
ATOM      1  C   UNL A   1      30.889  24.211  26.237  1.00  0.00     0.225 C 
ATOM      2  O   UNL A   1      30.393  23.545  27.148  1.00  0.00    -0.275 OA
ATOM      3  N   UNL A   1      31.376  25.449  26.536  1.00  0.00    -0.356 N 
ATOM      4  H   UNL A   1      31.372  25.682  27.492  1.00  0.00     0.163 HD
ENDROOT
BRANCH   1   5
ATOM      5  C   UNL A   1      30.995  23.646  24.835  1.00  0.00     0.164 C 
BRANCH   5   6
ATOM      6  C   UNL A   1      32.326  22.911  24.560  1.00  0.00     0.188 C 
ATOM      7  C   UNL A   1      32.179  22.058  23.294  1.00  0.00     0.075 C 
BRANCH   6   8
ATOM      8  N   UNL A   1      32.701  22.141  25.745  1.00  0.00    -0.341 N 
ATOM      9  H   UNL A   1      31.977  22.306  26.444  1.00  0.00     0.346 HD
ATOM     10  H   UNL A   1      32.800  21.193  25.381  1.00  0.00     0.346 HD
BRANCH   8  11
ATOM     11  C   UNL A   1      33.979  22.376  26.403  1.00  0.00     0.179 C 
ATOM     12  C   UNL A   1      33.764  22.324  27.922  1.00  0.00     0.075 C 
BRANCH  11  13
ATOM     13  C   UNL A   1      35.077  21.379  25.976  1.00  0.00     0.067 C 
BRANCH  13  14
ATOM     14  C   UNL A   1      36.486  21.912  25.656  1.00  0.00     0.034 C 
BRANCH  14  15
ATOM     15  C   UNL A   1      36.882  22.099  24.195  1.00  0.00     0.156 C 
BRANCH  15  16
ATOM     16  O   UNL A   1      37.391  23.398  23.927  1.00  0.00    -0.396 OA
ATOM     17  H   UNL A   1      36.684  23.955  23.568  1.00  0.00     0.210 HD
ENDBRANCH  15  16
ENDBRANCH  14  15
ENDBRANCH  13  14
ENDBRANCH  11  13
ENDBRANCH   8  11
ENDBRANCH   6   8
ENDBRANCH   5   6
ENDBRANCH   1   5
BRANCH   3  18
ATOM     18  C   UNL A   1      31.900  26.475  25.651  1.00  0.00     0.117 C 
BRANCH  18  19
ATOM     19  C   UNL A   1      31.874  27.850  26.308  1.00  0.00     0.042 C 
BRANCH  19  20
ATOM     20  C   UNL A   1      32.786  28.882  25.663  1.00  0.00     0.118 C 
BRANCH  20  21
ATOM     21  N   UNL A   1      32.364  30.245  25.942  1.00  0.00    -0.352 N 
ATOM     22  C   UNL A   1      32.865  31.171  26.825  1.00  0.00     0.251 C 
ATOM     23  H   UNL A   1      31.593  30.554  25.413  1.00  0.00     0.163 HD
ATOM     24  O   UNL A   1      32.215  32.194  27.032  1.00  0.00    -0.269 OA
BRANCH  22  25
ATOM     25  C   UNL A   1      34.153  30.963  27.535  1.00  0.00     0.039 A 
ATOM     26  C   UNL A   1      34.419  29.699  28.074  1.00  0.00     0.014 A 
ATOM     27  C   UNL A   1      35.070  31.998  27.736  1.00  0.00     0.014 A 
ATOM     28  C   UNL A   1      35.608  29.466  28.773  1.00  0.00     0.010 A 
ATOM     29  C   UNL A   1      36.295  31.742  28.355  1.00  0.00     0.010 A 
ATOM     30  C   UNL A   1      36.571  30.480  28.899  1.00  0.00    -0.014 A 
BRANCH  30  31
ATOM     31  C   UNL A   1      37.861  30.234  29.599  1.00  0.00     0.031 A 
ATOM     32  C   UNL A   1      38.903  29.329  28.997  1.00  0.00     0.074 A 
ATOM     33  C   UNL A   1      38.067  30.764  30.821  1.00  0.00     0.049 A 
ATOM     34  N   UNL A   1      40.069  28.978  29.478  1.00  0.00    -0.248 NA
ATOM     35  C   UNL A   1      38.585  28.712  27.700  1.00  0.00     0.031 C 
ATOM     36  C   UNL A   1      37.103  31.583  31.557  1.00  0.00     0.029 A 
ATOM     37  N   UNL A   1      39.141  30.668  31.672  1.00  0.00    -0.354 N 
ATOM     38  C   UNL A   1      40.601  28.070  28.570  1.00  0.00     0.074 A 
ATOM     39  C   UNL A   1      39.617  27.899  27.523  1.00  0.00     0.031 C 
ATOM     40  C   UNL A   1      37.625  31.913  32.748  1.00  0.00     0.029 A 
ATOM     41  C   UNL A   1      38.949  31.308  32.874  1.00  0.00     0.049 A 
ATOM     42  H   UNL A   1      39.969  30.188  31.443  1.00  0.00     0.167 HD
ATOM     43  C   UNL A   1      41.807  27.452  28.588  1.00  0.00     0.034 A 
ATOM     44  C   UNL A   1      39.740  31.392  33.961  1.00  0.00     0.034 A 
ATOM     45  C   UNL A   1      42.803  27.657  29.606  1.00  0.00     0.049 A 
ATOM     46  C   UNL A   1      41.100  30.750  33.935  1.00  0.00     0.074 A 
ATOM     47  C   UNL A   1      44.098  27.172  29.652  1.00  0.00     0.029 A 
ATOM     48  N   UNL A   1      42.611  28.391  30.766  1.00  0.00    -0.354 N 
ATOM     49  N   UNL A   1      41.659  30.046  32.980  1.00  0.00    -0.248 NA
ATOM     50  C   UNL A   1      41.952  30.948  35.115  1.00  0.00     0.031 C 
ATOM     51  C   UNL A   1      44.678  27.585  30.857  1.00  0.00     0.029 A 
ATOM     52  C   UNL A   1      43.755  28.356  31.546  1.00  0.00     0.049 A 
ATOM     53  H   UNL A   1      41.782  28.867  31.002  1.00  0.00     0.167 HD
ATOM     54  C   UNL A   1      42.937  29.737  33.433  1.00  0.00     0.074 A 
ATOM     55  C   UNL A   1      43.077  30.354  34.737  1.00  0.00     0.031 C 
ATOM     56  C   UNL A   1      43.901  29.001  32.827  1.00  0.00     0.034 A 
BRANCH  43  57
ATOM     57  C   UNL A   1      42.131  26.521  27.446  1.00  0.00     0.023 A 
ATOM     58  C   UNL A   1      42.844  27.002  26.330  1.00  0.00     0.012 A 
ATOM     59  C   UNL A   1      41.765  25.161  27.494  1.00  0.00     0.148 A 
ATOM     60  C   UNL A   1      43.145  26.161  25.258  1.00  0.00     0.002 A 
ATOM     61  C   UNL A   1      42.110  24.317  26.445  1.00  0.00     0.091 A 
ATOM     62  F   UNL A   1      41.069  24.721  28.553  1.00  0.00    -0.205 F 
ATOM     63  C   UNL A   1      42.787  24.818  25.320  1.00  0.00     0.022 A 
BRANCH  61  64
ATOM     64  S   UNL A   1      41.767  22.554  26.472  1.00  0.00     0.127 S 
ATOM     65  O   UNL A   1      40.304  22.539  26.470  1.00  0.00    -0.237 OA
ATOM     66  O   UNL A   1      42.382  22.098  25.225  1.00  0.00    -0.237 OA
ATOM     67  O   UNL A   1      42.400  22.043  27.680  1.00  0.00    -0.744 OA
ENDBRANCH  61  64
ENDBRANCH  43  57
BRANCH  44  68
ATOM     68  C   UNL A   1      39.274  32.171  35.143  1.00  0.00     0.023 A 
ATOM     69  C   UNL A   1      38.436  31.557  36.094  1.00  0.00     0.012 A 
ATOM     70  C   UNL A   1      39.715  33.491  35.364  1.00  0.00     0.148 A 
ATOM     71  C   UNL A   1      38.031  32.250  37.235  1.00  0.00     0.002 A 
ATOM     72  C   UNL A   1      39.355  34.153  36.530  1.00  0.00     0.091 A 
ATOM     73  F   UNL A   1      40.506  34.056  34.441  1.00  0.00    -0.205 F 
ATOM     74  C   UNL A   1      38.500  33.541  37.459  1.00  0.00     0.022 A 
BRANCH  72  75
ATOM     75  S   UNL A   1      40.028  35.759  36.973  1.00  0.00     0.127 S 
ATOM     76  O   UNL A   1      41.464  35.483  37.009  1.00  0.00    -0.237 OA
ATOM     77  O   UNL A   1      39.590  36.588  35.849  1.00  0.00    -0.237 OA
ATOM     78  O   UNL A   1      39.421  36.106  38.248  1.00  0.00    -0.744 OA
ENDBRANCH  72  75
ENDBRANCH  44  68
BRANCH  56  79
ATOM     79  C   UNL A   1      45.211  28.829  33.553  1.00  0.00     0.023 A 
ATOM     80  C   UNL A   1      46.247  29.764  33.363  1.00  0.00     0.012 A 
ATOM     81  C   UNL A   1      45.389  27.779  34.477  1.00  0.00     0.148 A 
ATOM     82  C   UNL A   1      47.452  29.639  34.054  1.00  0.00     0.002 A 
ATOM     83  C   UNL A   1      46.573  27.691  35.200  1.00  0.00     0.091 A 
ATOM     84  F   UNL A   1      44.399  26.888  34.631  1.00  0.00    -0.205 F 
ATOM     85  C   UNL A   1      47.610  28.611  34.981  1.00  0.00     0.022 A 
BRANCH  83  86
ATOM     86  S   UNL A   1      46.827  26.458  36.482  1.00  0.00     0.127 S 
ATOM     87  O   UNL A   1      46.520  25.218  35.770  1.00  0.00    -0.237 OA
ATOM     88  O   UNL A   1      48.242  26.638  36.809  1.00  0.00    -0.237 OA
ATOM     89  O   UNL A   1      45.910  26.804  37.559  1.00  0.00    -0.744 OA
ENDBRANCH  83  86
ENDBRANCH  56  79
ENDBRANCH  30  31
ENDBRANCH  22  25
ENDBRANCH  20  21
ENDBRANCH  19  20
ENDBRANCH  18  19
ENDBRANCH   3  18
TORSDOF 20
ENDMDL
MODEL 2
REMARK VINA RESULT:      -9.3      4.844      8.957
REMARK SMILES C[C@@H](CCCO)[NH2+][C@@H](C)CC(=O)NCCCNC(=O)c1ccc(-c2c3nc(c(-c4cccc(S(=O)(=O)[O-])c4F)c4ccc([nH]4)c(-c4cccc(S(=O)(=O)[O-])c4F)c4nc(c(-c5cccc(S(=O)(=O)[O-])c5F)c5ccc2[nH]5)C=C4)C=C3)cc1
REMARK SMILES IDX 11 1 12 2 13 3 10 5 8 6 9 7 7 8 2 11 1 12 3 13 4 14 5 15
REMARK SMILES IDX 6 16 14 18 15 19 16 20 17 21 18 22 19 24 20 25 21 26 82 27
REMARK SMILES IDX 22 28 81 29 23 30 24 31 25 32 75 33 26 34 80 35 74 36 76 37
REMARK SMILES IDX 27 38 79 39 73 40 72 41 28 43 60 44 40 45 59 46 41 47 44 48
REMARK SMILES IDX 58 49 77 50 42 51 43 52 57 54 78 55 45 56 29 57 30 58 38 59
REMARK SMILES IDX 31 60 33 61 39 62 32 63 34 64 35 65 36 66 37 67 61 68 62 69
REMARK SMILES IDX 70 70 63 71 65 72 71 73 64 74 66 75 67 76 68 77 69 78 46 79
REMARK SMILES IDX 47 80 55 81 48 82 50 83 56 84 49 85 51 86 52 87 53 88 54 89
REMARK H PARENT 13 4 7 9 7 10 6 17 17 23 76 42 44 53
REMARK Flexibility Score: inf
ROOT
ATOM      1  C   UNL A   1      44.117  20.530  25.094  1.00  0.00     0.225 C 
ATOM      2  O   UNL A   1      44.813  20.175  24.140  1.00  0.00    -0.275 OA
ATOM      3  N   UNL A   1      43.601  19.566  25.908  1.00  0.00    -0.356 N 
ATOM      4  H   UNL A   1      43.902  18.649  25.717  1.00  0.00     0.163 HD
ENDROOT
BRANCH   1   5
ATOM      5  C   UNL A   1      43.885  22.000  25.378  1.00  0.00     0.164 C 
BRANCH   5   6
ATOM      6  C   UNL A   1      44.594  22.507  26.654  1.00  0.00     0.188 C 
ATOM      7  C   UNL A   1      43.619  23.370  27.464  1.00  0.00     0.075 C 
BRANCH   6   8
ATOM      8  N   UNL A   1      45.820  23.207  26.274  1.00  0.00    -0.341 N 
ATOM      9  H   UNL A   1      46.588  22.738  26.756  1.00  0.00     0.346 HD
ATOM     10  H   UNL A   1      45.804  23.164  25.255  1.00  0.00     0.346 HD
BRANCH   8  11
ATOM     11  C   UNL A   1      45.969  24.631  26.541  1.00  0.00     0.179 C 
ATOM     12  C   UNL A   1      47.226  24.841  27.395  1.00  0.00     0.075 C 
BRANCH  11  13
ATOM     13  C   UNL A   1      46.034  25.488  25.258  1.00  0.00     0.067 C 
BRANCH  13  14
ATOM     14  C   UNL A   1      47.397  26.032  24.791  1.00  0.00     0.034 C 
BRANCH  14  15
ATOM     15  C   UNL A   1      47.440  27.377  24.074  1.00  0.00     0.156 C 
BRANCH  15  16
ATOM     16  O   UNL A   1      46.147  27.863  23.743  1.00  0.00    -0.396 OA
ATOM     17  H   UNL A   1      45.590  27.127  23.447  1.00  0.00     0.210 HD
ENDBRANCH  15  16
ENDBRANCH  14  15
ENDBRANCH  13  14
ENDBRANCH  11  13
ENDBRANCH   8  11
ENDBRANCH   6   8
ENDBRANCH   5   6
ENDBRANCH   1   5
BRANCH   3  18
ATOM     18  C   UNL A   1      42.671  19.692  27.017  1.00  0.00     0.117 C 
BRANCH  18  19
ATOM     19  C   UNL A   1      41.242  19.898  26.531  1.00  0.00     0.042 C 
BRANCH  19  20
ATOM     20  C   UNL A   1      40.622  21.231  26.924  1.00  0.00     0.118 C 
BRANCH  20  21
ATOM     21  N   UNL A   1      39.377  21.490  26.221  1.00  0.00    -0.352 N 
ATOM     22  C   UNL A   1      38.623  22.636  26.132  1.00  0.00     0.251 C 
ATOM     23  H   UNL A   1      39.013  20.719  25.728  1.00  0.00     0.163 HD
ATOM     24  O   UNL A   1      37.496  22.560  25.644  1.00  0.00    -0.269 OA
BRANCH  22  25
ATOM     25  C   UNL A   1      39.126  23.946  26.618  1.00  0.00     0.039 A 
ATOM     26  C   UNL A   1      38.765  24.363  27.904  1.00  0.00     0.014 A 
ATOM     27  C   UNL A   1      39.889  24.797  25.814  1.00  0.00     0.014 A 
ATOM     28  C   UNL A   1      39.196  25.601  28.392  1.00  0.00     0.010 A 
ATOM     29  C   UNL A   1      40.393  25.991  26.333  1.00  0.00     0.010 A 
ATOM     30  C   UNL A   1      40.037  26.418  27.620  1.00  0.00    -0.014 A 
BRANCH  30  31
ATOM     31  C   UNL A   1      40.542  27.716  28.142  1.00  0.00     0.031 A 
ATOM     32  C   UNL A   1      42.021  27.988  28.231  1.00  0.00     0.074 A 
ATOM     33  C   UNL A   1      39.669  28.629  28.615  1.00  0.00     0.049 A 
ATOM     34  N   UNL A   1      42.639  29.048  28.686  1.00  0.00    -0.248 NA
ATOM     35  C   UNL A   1      42.925  26.919  27.778  1.00  0.00     0.031 C 
ATOM     36  C   UNL A   1      38.217  28.455  28.673  1.00  0.00     0.029 A 
ATOM     37  N   UNL A   1      39.878  29.870  29.164  1.00  0.00    -0.354 N 
ATOM     38  C   UNL A   1      43.998  28.758  28.616  1.00  0.00     0.074 A 
ATOM     39  C   UNL A   1      44.112  27.409  28.104  1.00  0.00     0.031 C 
ATOM     40  C   UNL A   1      37.666  29.544  29.228  1.00  0.00     0.029 A 
ATOM     41  C   UNL A   1      38.724  30.484  29.591  1.00  0.00     0.049 A 
ATOM     42  H   UNL A   1      40.768  30.281  29.245  1.00  0.00     0.167 HD
ATOM     43  C   UNL A   1      45.055  29.547  28.926  1.00  0.00     0.034 A 
ATOM     44  C   UNL A   1      38.533  31.663  30.213  1.00  0.00     0.034 A 
ATOM     45  C   UNL A   1      44.940  30.903  29.392  1.00  0.00     0.049 A 
ATOM     46  C   UNL A   1      39.716  32.550  30.491  1.00  0.00     0.074 A 
ATOM     47  C   UNL A   1      45.949  31.823  29.618  1.00  0.00     0.029 A 
ATOM     48  N   UNL A   1      43.749  31.530  29.723  1.00  0.00    -0.354 N 
ATOM     49  N   UNL A   1      40.985  32.330  30.243  1.00  0.00    -0.248 NA
ATOM     50  C   UNL A   1      39.439  33.861  31.093  1.00  0.00     0.031 C 
ATOM     51  C   UNL A   1      45.370  32.995  30.118  1.00  0.00     0.029 A 
ATOM     52  C   UNL A   1      43.996  32.816  30.172  1.00  0.00     0.049 A 
ATOM     53  H   UNL A   1      42.856  31.119  29.651  1.00  0.00     0.167 HD
ATOM     54  C   UNL A   1      41.656  33.483  30.635  1.00  0.00     0.074 A 
ATOM     55  C   UNL A   1      40.648  34.408  31.113  1.00  0.00     0.031 C 
ATOM     56  C   UNL A   1      42.986  33.746  30.613  1.00  0.00     0.034 A 
BRANCH  43  57
ATOM     57  C   UNL A   1      46.435  28.971  28.729  1.00  0.00     0.023 A 
ATOM     58  C   UNL A   1      47.109  29.164  27.506  1.00  0.00     0.012 A 
ATOM     59  C   UNL A   1      47.082  28.273  29.768  1.00  0.00     0.148 A 
ATOM     60  C   UNL A   1      48.382  28.631  27.301  1.00  0.00     0.002 A 
ATOM     61  C   UNL A   1      48.371  27.787  29.574  1.00  0.00     0.091 A 
ATOM     62  F   UNL A   1      46.423  28.079  30.920  1.00  0.00    -0.205 F 
ATOM     63  C   UNL A   1      49.015  27.952  28.336  1.00  0.00     0.022 A 
BRANCH  61  64
ATOM     64  S   UNL A   1      49.301  26.972  30.877  1.00  0.00     0.127 S 
ATOM     65  O   UNL A   1      50.657  27.453  30.615  1.00  0.00    -0.237 OA
ATOM     66  O   UNL A   1      48.684  27.519  32.086  1.00  0.00    -0.237 OA
ATOM     67  O   UNL A   1      49.091  25.544  30.684  1.00  0.00    -0.744 OA
ENDBRANCH  61  64
ENDBRANCH  43  57
BRANCH  44  68
ATOM     68  C   UNL A   1      37.148  32.090  30.560  1.00  0.00     0.023 A 
ATOM     69  C   UNL A   1      36.694  31.966  31.887  1.00  0.00     0.012 A 
ATOM     70  C   UNL A   1      36.307  32.681  29.596  1.00  0.00     0.148 A 
ATOM     71  C   UNL A   1      35.420  32.408  32.244  1.00  0.00     0.002 A 
ATOM     72  C   UNL A   1      35.064  33.172  29.971  1.00  0.00     0.091 A 
ATOM     73  F   UNL A   1      36.759  32.781  28.338  1.00  0.00    -0.205 F 
ATOM     74  C   UNL A   1      34.611  33.021  31.292  1.00  0.00     0.022 A 
BRANCH  72  75
ATOM     75  S   UNL A   1      34.017  34.106  28.850  1.00  0.00     0.127 S 
ATOM     76  O   UNL A   1      34.936  35.137  28.370  1.00  0.00    -0.237 OA
ATOM     77  O   UNL A   1      33.660  33.090  27.858  1.00  0.00    -0.237 OA
ATOM     78  O   UNL A   1      32.901  34.581  29.651  1.00  0.00    -0.744 OA
ENDBRANCH  72  75
ENDBRANCH  44  68
BRANCH  56  79
ATOM     79  C   UNL A   1      43.442  35.097  31.100  1.00  0.00     0.023 A 
ATOM     80  C   UNL A   1      43.837  35.263  32.442  1.00  0.00     0.012 A 
ATOM     81  C   UNL A   1      43.545  36.185  30.210  1.00  0.00     0.148 A 
ATOM     82  C   UNL A   1      44.295  36.498  32.900  1.00  0.00     0.002 A 
ATOM     83  C   UNL A   1      44.050  37.399  30.661  1.00  0.00     0.091 A 
ATOM     84  F   UNL A   1      43.147  36.015  28.941  1.00  0.00    -0.205 F 
ATOM     85  C   UNL A   1      44.413  37.562  32.008  1.00  0.00     0.022 A 
BRANCH  83  86
ATOM     86  S   UNL A   1      44.328  38.794  29.563  1.00  0.00     0.127 S 
ATOM     87  O   UNL A   1      42.981  39.045  29.053  1.00  0.00    -0.237 OA
ATOM     88  O   UNL A   1      44.832  39.816  30.481  1.00  0.00    -0.237 OA
ATOM     89  O   UNL A   1      45.296  38.339  28.575  1.00  0.00    -0.744 OA
ENDBRANCH  83  86
ENDBRANCH  56  79
ENDBRANCH  30  31
ENDBRANCH  22  25
ENDBRANCH  20  21
ENDBRANCH  19  20
ENDBRANCH  18  19
ENDBRANCH   3  18
TORSDOF 20
ENDMDL
MODEL 3
REMARK VINA RESULT:      -9.3      5.217      9.135
REMARK SMILES C[C@@H](CCCO)[NH2+][C@@H](C)CC(=O)NCCCNC(=O)c1ccc(-c2c3nc(c(-c4cccc(S(=O)(=O)[O-])c4F)c4ccc([nH]4)c(-c4cccc(S(=O)(=O)[O-])c4F)c4nc(c(-c5cccc(S(=O)(=O)[O-])c5F)c5ccc2[nH]5)C=C4)C=C3)cc1
REMARK SMILES IDX 11 1 12 2 13 3 10 5 8 6 9 7 7 8 2 11 1 12 3 13 4 14 5 15
REMARK SMILES IDX 6 16 14 18 15 19 16 20 17 21 18 22 19 24 20 25 21 26 82 27
REMARK SMILES IDX 22 28 81 29 23 30 24 31 25 32 75 33 26 34 80 35 74 36 76 37
REMARK SMILES IDX 27 38 79 39 73 40 72 41 28 43 60 44 40 45 59 46 41 47 44 48
REMARK SMILES IDX 58 49 77 50 42 51 43 52 57 54 78 55 45 56 29 57 30 58 38 59
REMARK SMILES IDX 31 60 33 61 39 62 32 63 34 64 35 65 36 66 37 67 61 68 62 69
REMARK SMILES IDX 70 70 63 71 65 72 71 73 64 74 66 75 67 76 68 77 69 78 46 79
REMARK SMILES IDX 47 80 55 81 48 82 50 83 56 84 49 85 51 86 52 87 53 88 54 89
REMARK H PARENT 13 4 7 9 7 10 6 17 17 23 76 42 44 53
REMARK Flexibility Score: inf
ROOT
ATOM      1  C   UNL A   1      45.524  22.651  24.601  1.00  0.00     0.225 C 
ATOM      2  O   UNL A   1      45.949  23.308  23.648  1.00  0.00    -0.275 OA
ATOM      3  N   UNL A   1      44.396  21.907  24.418  1.00  0.00    -0.356 N 
ATOM      4  H   UNL A   1      44.053  21.884  23.496  1.00  0.00     0.163 HD
ENDROOT
BRANCH   1   5
ATOM      5  C   UNL A   1      46.265  22.637  25.923  1.00  0.00     0.164 C 
BRANCH   5   6
ATOM      6  C   UNL A   1      45.811  23.742  26.902  1.00  0.00     0.188 C 
ATOM      7  C   UNL A   1      46.995  24.669  27.202  1.00  0.00     0.075 C 
BRANCH   6   8
ATOM      8  N   UNL A   1      45.238  23.119  28.095  1.00  0.00    -0.341 N 
ATOM      9  H   UNL A   1      44.694  22.318  27.775  1.00  0.00     0.346 HD
ATOM     10  H   UNL A   1      46.057  22.935  28.674  1.00  0.00     0.346 HD
BRANCH   8  11
ATOM     11  C   UNL A   1      44.373  23.884  28.983  1.00  0.00     0.179 C 
ATOM     12  C   UNL A   1      43.345  22.930  29.606  1.00  0.00     0.075 C 
BRANCH  11  13
ATOM     13  C   UNL A   1      45.145  24.644  30.082  1.00  0.00     0.067 C 
BRANCH  13  14
ATOM     14  C   UNL A   1      44.542  24.730  31.496  1.00  0.00     0.034 C 
BRANCH  14  15
ATOM     15  C   UNL A   1      44.235  26.106  32.077  1.00  0.00     0.156 C 
BRANCH  15  16
ATOM     16  O   UNL A   1      43.445  26.904  31.207  1.00  0.00    -0.396 OA
ATOM     17  H   UNL A   1      43.380  26.473  30.341  1.00  0.00     0.210 HD
ENDBRANCH  15  16
ENDBRANCH  14  15
ENDBRANCH  13  14
ENDBRANCH  11  13
ENDBRANCH   8  11
ENDBRANCH   6   8
ENDBRANCH   5   6
ENDBRANCH   1   5
BRANCH   3  18
ATOM     18  C   UNL A   1      43.625  21.143  25.383  1.00  0.00     0.117 C 
BRANCH  18  19
ATOM     19  C   UNL A   1      42.384  21.900  25.837  1.00  0.00     0.042 C 
BRANCH  19  20
ATOM     20  C   UNL A   1      41.427  21.095  26.703  1.00  0.00     0.118 C 
BRANCH  20  21
ATOM     21  N   UNL A   1      40.048  21.209  26.257  1.00  0.00    -0.352 N 
ATOM     22  C   UNL A   1      39.164  22.257  26.349  1.00  0.00     0.251 C 
ATOM     23  H   UNL A   1      39.689  20.404  25.819  1.00  0.00     0.163 HD
ATOM     24  O   UNL A   1      37.981  22.051  26.081  1.00  0.00    -0.269 OA
BRANCH  22  25
ATOM     25  C   UNL A   1      39.596  23.615  26.770  1.00  0.00     0.039 A 
ATOM     26  C   UNL A   1      40.028  23.796  28.088  1.00  0.00     0.014 A 
ATOM     27  C   UNL A   1      39.524  24.718  25.916  1.00  0.00     0.014 A 
ATOM     28  C   UNL A   1      40.420  25.063  28.534  1.00  0.00     0.010 A 
ATOM     29  C   UNL A   1      39.999  25.963  26.334  1.00  0.00     0.010 A 
ATOM     30  C   UNL A   1      40.434  26.156  27.653  1.00  0.00    -0.014 A 
BRANCH  30  31
ATOM     31  C   UNL A   1      40.892  27.500  28.099  1.00  0.00     0.031 A 
ATOM     32  C   UNL A   1      42.357  27.849  28.110  1.00  0.00     0.074 A 
ATOM     33  C   UNL A   1      39.993  28.386  28.574  1.00  0.00     0.049 A 
ATOM     34  N   UNL A   1      42.937  28.958  28.493  1.00  0.00    -0.248 NA
ATOM     35  C   UNL A   1      43.295  26.810  27.660  1.00  0.00     0.031 C 
ATOM     36  C   UNL A   1      38.556  28.141  28.704  1.00  0.00     0.029 A 
ATOM     37  N   UNL A   1      40.160  29.659  29.062  1.00  0.00    -0.354 N 
ATOM     38  C   UNL A   1      44.305  28.735  28.374  1.00  0.00     0.074 A 
ATOM     39  C   UNL A   1      44.468  27.373  27.912  1.00  0.00     0.031 C 
ATOM     40  C   UNL A   1      37.973  29.224  29.239  1.00  0.00     0.029 A 
ATOM     41  C   UNL A   1      38.995  30.230  29.516  1.00  0.00     0.049 A 
ATOM     42  H   UNL A   1      41.030  30.118  29.086  1.00  0.00     0.167 HD
ATOM     43  C   UNL A   1      45.332  29.589  28.603  1.00  0.00     0.034 A 
ATOM     44  C   UNL A   1      38.769  31.424  30.098  1.00  0.00     0.034 A 
ATOM     45  C   UNL A   1      45.166  30.956  29.018  1.00  0.00     0.049 A 
ATOM     46  C   UNL A   1      39.915  32.381  30.285  1.00  0.00     0.074 A 
ATOM     47  C   UNL A   1      46.134  31.935  29.161  1.00  0.00     0.029 A 
ATOM     48  N   UNL A   1      43.959  31.535  29.377  1.00  0.00    -0.354 N 
ATOM     49  N   UNL A   1      41.182  32.215  29.989  1.00  0.00    -0.248 NA
ATOM     50  C   UNL A   1      39.596  33.701  30.846  1.00  0.00     0.031 C 
ATOM     51  C   UNL A   1      45.515  33.096  29.639  1.00  0.00     0.029 A 
ATOM     52  C   UNL A   1      44.157  32.851  29.762  1.00  0.00     0.049 A 
ATOM     53  H   UNL A   1      43.087  31.077  29.362  1.00  0.00     0.167 HD
ATOM     54  C   UNL A   1      41.807  33.417  30.304  1.00  0.00     0.074 A 
ATOM     55  C   UNL A   1      40.773  34.309  30.789  1.00  0.00     0.031 C 
ATOM     56  C   UNL A   1      43.119  33.746  30.210  1.00  0.00     0.034 A 
BRANCH  43  57
ATOM     57  C   UNL A   1      46.731  29.077  28.368  1.00  0.00     0.023 A 
ATOM     58  C   UNL A   1      47.563  28.778  29.466  1.00  0.00     0.012 A 
ATOM     59  C   UNL A   1      47.209  28.853  27.061  1.00  0.00     0.148 A 
ATOM     60  C   UNL A   1      48.864  28.314  29.270  1.00  0.00     0.002 A 
ATOM     61  C   UNL A   1      48.490  28.343  26.875  1.00  0.00     0.091 A 
ATOM     62  F   UNL A   1      46.415  29.160  26.026  1.00  0.00    -0.205 F 
ATOM     63  C   UNL A   1      49.323  28.088  27.977  1.00  0.00     0.022 A 
BRANCH  61  64
ATOM     64  S   UNL A   1      49.139  27.939  25.249  1.00  0.00     0.127 S 
ATOM     65  O   UNL A   1      50.326  28.792  25.185  1.00  0.00    -0.237 OA
ATOM     66  O   UNL A   1      49.424  26.509  25.375  1.00  0.00    -0.237 OA
ATOM     67  O   UNL A   1      48.079  28.264  24.305  1.00  0.00    -0.744 OA
ENDBRANCH  61  64
ENDBRANCH  43  57
BRANCH  44  68
ATOM     68  C   UNL A   1      37.380  31.794  30.488  1.00  0.00     0.023 A 
ATOM     69  C   UNL A   1      36.938  31.546  31.802  1.00  0.00     0.012 A 
ATOM     70  C   UNL A   1      36.522  32.454  29.586  1.00  0.00     0.148 A 
ATOM     71  C   UNL A   1      35.659  31.932  32.205  1.00  0.00     0.002 A 
ATOM     72  C   UNL A   1      35.273  32.888  30.011  1.00  0.00     0.091 A 
ATOM     73  F   UNL A   1      36.963  32.673  28.339  1.00  0.00    -0.205 F 
ATOM     74  C   UNL A   1      34.833  32.613  31.315  1.00  0.00     0.022 A 
BRANCH  72  75
ATOM     75  S   UNL A   1      34.202  33.899  28.983  1.00  0.00     0.127 S 
ATOM     76  O   UNL A   1      35.132  34.916  28.491  1.00  0.00    -0.237 OA
ATOM     77  O   UNL A   1      33.757  32.935  27.976  1.00  0.00    -0.237 OA
ATOM     78  O   UNL A   1      33.148  34.382  29.861  1.00  0.00    -0.744 OA
ENDBRANCH  72  75
ENDBRANCH  44  68
BRANCH  56  79
ATOM     79  C   UNL A   1      43.524  35.138  30.621  1.00  0.00     0.023 A 
ATOM     80  C   UNL A   1      44.060  35.363  31.905  1.00  0.00     0.012 A 
ATOM     81  C   UNL A   1      43.438  36.210  29.711  1.00  0.00     0.148 A 
ATOM     82  C   UNL A   1      44.472  36.639  32.288  1.00  0.00     0.002 A 
ATOM     83  C   UNL A   1      43.898  37.468  30.082  1.00  0.00     0.091 A 
ATOM     84  F   UNL A   1      42.908  35.981  28.501  1.00  0.00    -0.205 F 
ATOM     85  C   UNL A   1      44.403  37.688  31.373  1.00  0.00     0.022 A 
BRANCH  83  86
ATOM     86  S   UNL A   1      43.937  38.855  28.939  1.00  0.00     0.127 S 
ATOM     87  O   UNL A   1      42.518  39.029  28.633  1.00  0.00    -0.237 OA
ATOM     88  O   UNL A   1      44.518  39.917  29.760  1.00  0.00    -0.237 OA
ATOM     89  O   UNL A   1      44.770  38.430  27.822  1.00  0.00    -0.744 OA
ENDBRANCH  83  86
ENDBRANCH  56  79
ENDBRANCH  30  31
ENDBRANCH  22  25
ENDBRANCH  20  21
ENDBRANCH  19  20
ENDBRANCH  18  19
ENDBRANCH   3  18
TORSDOF 20
ENDMDL
