MODEL 1
REMARK VINA RESULT:     -11.9      0.000      0.000
REMARK SMILES COCc1cc(SCC(=O)NCCCNC(=O)c2ccc(-c3c4nc(c(-c5cccc(S(=O)(=O)[O-])c5F)c5ccc([nH]5)c(-c5cccc(S(=O)(=O)[O-])c5F)c5nc(c(-c6cccc(S(=O)(=O)[O-])c6F)c6ccc3[nH]6)C=C5)C=C4)cc2)nc(-c2cccnc2)n1
REMARK SMILES IDX 12 1 11 2 9 3 10 4 8 6 7 7 6 8 4 9 5 10 89 11 82 12 81 13
REMARK SMILES IDX 3 14 2 15 1 16 83 17 84 18 88 19 85 20 87 21 86 22 13 23
REMARK SMILES IDX 14 24 15 25 16 26 17 28 18 29 19 30 80 31 20 32 79 33 21 34
REMARK SMILES IDX 22 35 23 36 73 37 24 38 78 39 72 40 74 41 25 42 77 43 71 44
REMARK SMILES IDX 70 45 26 47 58 48 38 49 57 50 39 51 42 52 56 53 75 54 40 55
REMARK SMILES IDX 41 56 55 58 76 59 43 60 27 61 28 62 36 63 29 64 31 65 37 66
REMARK SMILES IDX 30 67 32 68 33 69 34 70 35 71 59 72 60 73 68 74 61 75 63 76
REMARK SMILES IDX 69 77 62 78 64 79 65 80 66 81 67 82 44 83 45 84 53 85 46 86
REMARK SMILES IDX 48 87 54 88 47 89 49 90 50 91 51 92 52 93
REMARK H PARENT 11 5 15 27 74 46 42 57
REMARK Flexibility Score: inf
ROOT
ATOM      1  C   UNL A   1      31.694  27.982  23.203  1.00  0.00     0.117 C 
ENDROOT
BRANCH   1   2
ATOM      2  N   UNL A   1      32.180  27.277  22.032  1.00  0.00    -0.355 N 
ATOM      3  C   UNL A   1      32.962  26.168  21.945  1.00  0.00     0.230 C 
ATOM      4  O   UNL A   1      33.277  25.778  20.816  1.00  0.00    -0.274 OA
ATOM      5  H   UNL A   1      31.901  27.659  21.168  1.00  0.00     0.163 HD
BRANCH   3   6
ATOM      6  C   UNL A   1      33.365  25.379  23.174  1.00  0.00     0.176 C 
BRANCH   6   7
ATOM      7  S   UNL A   1      32.531  23.780  23.384  1.00  0.00    -0.096 SA
BRANCH   7   8
ATOM      8  C   UNL A   1      33.790  22.638  23.911  1.00  0.00     0.101 A 
ATOM      9  C   UNL A   1      35.930  21.960  24.606  1.00  0.00     0.071 A 
ATOM     10  C   UNL A   1      35.124  22.943  24.065  1.00  0.00     0.062 A 
ATOM     11  N   UNL A   1      35.451  20.743  24.926  1.00  0.00    -0.230 NA
ATOM     12  C   UNL A   1      34.168  20.491  24.630  1.00  0.00     0.162 A 
ATOM     13  N   UNL A   1      33.312  21.400  24.143  1.00  0.00    -0.222 NA
BRANCH   9  14
ATOM     14  C   UNL A   1      37.396  22.218  24.877  1.00  0.00     0.215 C 
BRANCH  14  15
ATOM     15  O   UNL A   1      37.719  23.610  24.974  1.00  0.00    -0.378 OA
ATOM     16  C   UNL A   1      37.862  24.052  26.322  1.00  0.00     0.195 C 
ENDBRANCH  14  15
ENDBRANCH   9  14
BRANCH  12  17
ATOM     17  C   UNL A   1      33.735  19.102  24.738  1.00  0.00     0.038 A 
ATOM     18  C   UNL A   1      34.477  18.041  24.201  1.00  0.00     0.015 A 
ATOM     19  C   UNL A   1      32.590  18.753  25.452  1.00  0.00     0.123 A 
ATOM     20  C   UNL A   1      34.059  16.724  24.388  1.00  0.00     0.021 A 
ATOM     21  N   UNL A   1      32.161  17.485  25.661  1.00  0.00    -0.264 NA
ATOM     22  C   UNL A   1      32.899  16.499  25.108  1.00  0.00     0.111 A 
ENDBRANCH  12  17
ENDBRANCH   7   8
ENDBRANCH   6   7
ENDBRANCH   3   6
ENDBRANCH   1   2
BRANCH   1  23
ATOM     23  C   UNL A   1      32.724  28.975  23.736  1.00  0.00     0.042 C 
BRANCH  23  24
ATOM     24  C   UNL A   1      32.762  29.091  25.259  1.00  0.00     0.118 C 
BRANCH  24  25
ATOM     25  N   UNL A   1      32.403  30.420  25.738  1.00  0.00    -0.352 N 
ATOM     26  C   UNL A   1      32.956  31.178  26.741  1.00  0.00     0.251 C 
ATOM     27  H   UNL A   1      31.645  30.839  25.270  1.00  0.00     0.163 HD
ATOM     28  O   UNL A   1      32.385  32.210  27.097  1.00  0.00    -0.269 OA
BRANCH  26  29
ATOM     29  C   UNL A   1      34.212  30.763  27.403  1.00  0.00     0.039 A 
ATOM     30  C   UNL A   1      35.170  31.736  27.702  1.00  0.00     0.014 A 
ATOM     31  C   UNL A   1      34.462  29.423  27.709  1.00  0.00     0.014 A 
ATOM     32  C   UNL A   1      36.346  31.374  28.365  1.00  0.00     0.010 A 
ATOM     33  C   UNL A   1      35.597  29.077  28.439  1.00  0.00     0.010 A 
ATOM     34  C   UNL A   1      36.553  30.046  28.773  1.00  0.00    -0.014 A 
BRANCH  34  35
ATOM     35  C   UNL A   1      37.752  29.660  29.565  1.00  0.00     0.031 A 
ATOM     36  C   UNL A   1      37.982  30.236  30.936  1.00  0.00     0.074 A 
ATOM     37  C   UNL A   1      38.679  28.850  29.013  1.00  0.00     0.049 A 
ATOM     38  N   UNL A   1      38.992  30.058  31.747  1.00  0.00    -0.248 NA
ATOM     39  C   UNL A   1      36.954  31.155  31.454  1.00  0.00     0.031 C 
ATOM     40  C   UNL A   1      38.611  28.282  27.665  1.00  0.00     0.029 A 
ATOM     41  N   UNL A   1      39.873  28.386  29.507  1.00  0.00    -0.354 N 
ATOM     42  C   UNL A   1      38.742  30.863  32.852  1.00  0.00     0.074 A 
ATOM     43  C   UNL A   1      37.501  31.559  32.592  1.00  0.00     0.031 C 
ATOM     44  C   UNL A   1      39.708  27.541  27.443  1.00  0.00     0.029 A 
ATOM     45  C   UNL A   1      40.575  27.610  28.614  1.00  0.00     0.049 A 
ATOM     46  H   UNL A   1      40.197  28.590  30.414  1.00  0.00     0.167 HD
ATOM     47  C   UNL A   1      39.462  30.993  33.993  1.00  0.00     0.034 A 
ATOM     48  C   UNL A   1      41.785  27.026  28.721  1.00  0.00     0.034 A 
ATOM     49  C   UNL A   1      40.681  30.276  34.261  1.00  0.00     0.049 A 
ATOM     50  C   UNL A   1      42.558  27.172  30.005  1.00  0.00     0.074 A 
ATOM     51  C   UNL A   1      41.442  30.277  35.418  1.00  0.00     0.029 A 
ATOM     52  N   UNL A   1      41.327  29.444  33.360  1.00  0.00    -0.354 N 
ATOM     53  N   UNL A   1      42.228  27.813  31.099  1.00  0.00    -0.248 NA
ATOM     54  C   UNL A   1      43.853  26.482  30.082  1.00  0.00     0.031 C 
ATOM     55  C   UNL A   1      42.564  29.470  35.203  1.00  0.00     0.029 A 
ATOM     56  C   UNL A   1      42.483  28.936  33.928  1.00  0.00     0.049 A 
ATOM     57  H   UNL A   1      41.009  29.244  32.450  1.00  0.00     0.167 HD
ATOM     58  C   UNL A   1      43.254  27.574  32.006  1.00  0.00     0.074 A 
ATOM     59  C   UNL A   1      44.206  26.711  31.339  1.00  0.00     0.031 C 
ATOM     60  C   UNL A   1      43.400  28.038  33.273  1.00  0.00     0.034 A 
BRANCH  47  61
ATOM     61  C   UNL A   1      38.925  31.916  35.059  1.00  0.00     0.023 A 
ATOM     62  C   UNL A   1      38.924  33.309  34.838  1.00  0.00     0.012 A 
ATOM     63  C   UNL A   1      38.378  31.406  36.252  1.00  0.00     0.148 A 
ATOM     64  C   UNL A   1      38.426  34.182  35.805  1.00  0.00     0.002 A 
ATOM     65  C   UNL A   1      37.840  32.281  37.191  1.00  0.00     0.091 A 
ATOM     66  F   UNL A   1      38.402  30.082  36.455  1.00  0.00    -0.205 F 
ATOM     67  C   UNL A   1      37.876  33.668  36.975  1.00  0.00     0.022 A 
BRANCH  65  68
ATOM     68  S   UNL A   1      37.033  31.716  38.693  1.00  0.00     0.127 S 
ATOM     69  O   UNL A   1      38.084  31.925  39.688  1.00  0.00    -0.237 OA
ATOM     70  O   UNL A   1      35.902  32.638  38.800  1.00  0.00    -0.237 OA
ATOM     71  O   UNL A   1      36.665  30.328  38.455  1.00  0.00    -0.744 OA
ENDBRANCH  65  68
ENDBRANCH  47  61
BRANCH  48  72
ATOM     72  C   UNL A   1      42.315  26.195  27.602  1.00  0.00     0.023 A 
ATOM     73  C   UNL A   1      43.171  26.785  26.651  1.00  0.00     0.012 A 
ATOM     74  C   UNL A   1      41.999  24.827  27.486  1.00  0.00     0.148 A 
ATOM     75  C   UNL A   1      43.674  26.038  25.586  1.00  0.00     0.002 A 
ATOM     76  C   UNL A   1      42.550  24.075  26.454  1.00  0.00     0.091 A 
ATOM     77  F   UNL A   1      41.179  24.285  28.397  1.00  0.00    -0.205 F 
ATOM     78  C   UNL A   1      43.372  24.682  25.492  1.00  0.00     0.022 A 
BRANCH  76  79
ATOM     79  S   UNL A   1      42.321  22.298  26.322  1.00  0.00     0.127 S 
ATOM     80  O   UNL A   1      42.889  21.828  27.584  1.00  0.00    -0.237 OA
ATOM     81  O   UNL A   1      40.865  22.189  26.225  1.00  0.00    -0.237 OA
ATOM     82  O   UNL A   1      43.036  21.893  25.121  1.00  0.00    -0.744 OA
ENDBRANCH  76  79
ENDBRANCH  48  72
BRANCH  60  83
ATOM     83  C   UNL A   1      44.614  27.591  34.046  1.00  0.00     0.023 A 
ATOM     84  C   UNL A   1      45.783  28.377  34.041  1.00  0.00     0.012 A 
ATOM     85  C   UNL A   1      44.570  26.424  34.835  1.00  0.00     0.148 A 
ATOM     86  C   UNL A   1      46.901  27.990  34.780  1.00  0.00     0.002 A 
ATOM     87  C   UNL A   1      45.668  26.073  35.611  1.00  0.00     0.091 A 
ATOM     88  F   UNL A   1      43.454  25.679  34.814  1.00  0.00    -0.205 F 
ATOM     89  C   UNL A   1      46.839  26.847  35.573  1.00  0.00     0.022 A 
BRANCH  87  90
ATOM     90  S   UNL A   1      45.647  24.674  36.738  1.00  0.00     0.127 S 
ATOM     91  O   UNL A   1      44.821  25.185  37.831  1.00  0.00    -0.237 OA
ATOM     92  O   UNL A   1      45.011  23.634  35.928  1.00  0.00    -0.237 OA
ATOM     93  O   UNL A   1      47.038  24.410  37.078  1.00  0.00    -0.744 OA
ENDBRANCH  87  90
ENDBRANCH  60  83
ENDBRANCH  34  35
ENDBRANCH  26  29
ENDBRANCH  24  25
ENDBRANCH  23  24
ENDBRANCH   1  23
TORSDOF 18
ENDMDL
MODEL 2
REMARK VINA RESULT:     -11.5      1.066      2.500
REMARK SMILES COCc1cc(SCC(=O)NCCCNC(=O)c2ccc(-c3c4nc(c(-c5cccc(S(=O)(=O)[O-])c5F)c5ccc([nH]5)c(-c5cccc(S(=O)(=O)[O-])c5F)c5nc(c(-c6cccc(S(=O)(=O)[O-])c6F)c6ccc3[nH]6)C=C5)C=C4)cc2)nc(-c2cccnc2)n1
REMARK SMILES IDX 12 1 11 2 9 3 10 4 8 6 7 7 6 8 4 9 5 10 89 11 82 12 81 13
REMARK SMILES IDX 3 14 2 15 1 16 83 17 84 18 88 19 85 20 87 21 86 22 13 23
REMARK SMILES IDX 14 24 15 25 16 26 17 28 18 29 19 30 80 31 20 32 79 33 21 34
REMARK SMILES IDX 22 35 23 36 73 37 24 38 78 39 72 40 74 41 25 42 77 43 71 44
REMARK SMILES IDX 70 45 26 47 58 48 38 49 57 50 39 51 42 52 56 53 75 54 40 55
REMARK SMILES IDX 41 56 55 58 76 59 43 60 27 61 28 62 36 63 29 64 31 65 37 66
REMARK SMILES IDX 30 67 32 68 33 69 34 70 35 71 59 72 60 73 68 74 61 75 63 76
REMARK SMILES IDX 69 77 62 78 64 79 65 80 66 81 67 82 44 83 45 84 53 85 46 86
REMARK SMILES IDX 48 87 54 88 47 89 49 90 50 91 51 92 52 93
REMARK H PARENT 11 5 15 27 74 46 42 57
REMARK Flexibility Score: inf
ROOT
ATOM      1  C   UNL A   1      32.000  27.812  23.260  1.00  0.00     0.117 C 
ENDROOT
BRANCH   1   2
ATOM      2  N   UNL A   1      32.395  27.203  22.003  1.00  0.00    -0.355 N 
ATOM      3  C   UNL A   1      33.006  26.012  21.767  1.00  0.00     0.230 C 
ATOM      4  O   UNL A   1      33.278  25.731  20.596  1.00  0.00    -0.274 OA
ATOM      5  H   UNL A   1      32.190  27.733  21.199  1.00  0.00     0.163 HD
BRANCH   3   6
ATOM      6  C   UNL A   1      33.267  25.017  22.880  1.00  0.00     0.176 C 
BRANCH   6   7
ATOM      7  S   UNL A   1      32.345  23.457  22.765  1.00  0.00    -0.096 SA
BRANCH   7   8
ATOM      8  C   UNL A   1      33.273  22.270  23.712  1.00  0.00     0.101 A 
ATOM      9  C   UNL A   1      33.728  20.191  24.710  1.00  0.00     0.071 A 
ATOM     10  C   UNL A   1      32.820  21.025  24.087  1.00  0.00     0.062 A 
ATOM     11  N   UNL A   1      34.986  20.587  24.983  1.00  0.00    -0.230 NA
ATOM     12  C   UNL A   1      35.307  21.856  24.694  1.00  0.00     0.162 A 
ATOM     13  N   UNL A   1      34.497  22.713  24.055  1.00  0.00    -0.222 NA
BRANCH   9  14
ATOM     14  C   UNL A   1      33.349  18.781  25.102  1.00  0.00     0.215 C 
BRANCH  14  15
ATOM     15  O   UNL A   1      33.631  17.813  24.085  1.00  0.00    -0.378 OA
ATOM     16  C   UNL A   1      34.777  17.017  24.379  1.00  0.00     0.195 C 
ENDBRANCH  14  15
ENDBRANCH   9  14
BRANCH  12  17
ATOM     17  C   UNL A   1      36.573  22.347  25.226  1.00  0.00     0.038 A 
ATOM     18  C   UNL A   1      36.737  23.663  25.679  1.00  0.00     0.015 A 
ATOM     19  C   UNL A   1      37.670  21.501  25.381  1.00  0.00     0.123 A 
ATOM     20  C   UNL A   1      37.946  24.068  26.243  1.00  0.00     0.021 A 
ATOM     21  N   UNL A   1      38.855  21.859  25.934  1.00  0.00    -0.264 NA
ATOM     22  C   UNL A   1      38.970  23.142  26.337  1.00  0.00     0.111 A 
ENDBRANCH  12  17
ENDBRANCH   7   8
ENDBRANCH   6   7
ENDBRANCH   3   6
ENDBRANCH   1   2
BRANCH   1  23
ATOM     23  C   UNL A   1      32.861  29.026  23.597  1.00  0.00     0.042 C 
BRANCH  23  24
ATOM     24  C   UNL A   1      33.252  29.134  25.071  1.00  0.00     0.118 C 
BRANCH  24  25
ATOM     25  N   UNL A   1      32.762  30.353  25.703  1.00  0.00    -0.352 N 
ATOM     26  C   UNL A   1      33.227  31.023  26.807  1.00  0.00     0.251 C 
ATOM     27  H   UNL A   1      31.976  30.757  25.271  1.00  0.00     0.163 HD
ATOM     28  O   UNL A   1      32.556  31.946  27.275  1.00  0.00    -0.269 OA
BRANCH  26  29
ATOM     29  C   UNL A   1      34.506  30.644  27.446  1.00  0.00     0.039 A 
ATOM     30  C   UNL A   1      35.487  31.624  27.625  1.00  0.00     0.014 A 
ATOM     31  C   UNL A   1      34.755  29.329  27.846  1.00  0.00     0.014 A 
ATOM     32  C   UNL A   1      36.687  31.299  28.263  1.00  0.00     0.010 A 
ATOM     33  C   UNL A   1      35.917  29.025  28.551  1.00  0.00     0.010 A 
ATOM     34  C   UNL A   1      36.898  30.004  28.765  1.00  0.00    -0.014 A 
BRANCH  34  35
ATOM     35  C   UNL A   1      38.126  29.664  29.533  1.00  0.00     0.031 A 
ATOM     36  C   UNL A   1      38.368  30.260  30.894  1.00  0.00     0.074 A 
ATOM     37  C   UNL A   1      39.066  28.880  28.967  1.00  0.00     0.049 A 
ATOM     38  N   UNL A   1      39.401  30.121  31.683  1.00  0.00    -0.248 NA
ATOM     39  C   UNL A   1      37.322  31.149  31.428  1.00  0.00     0.031 C 
ATOM     40  C   UNL A   1      38.986  28.298  27.626  1.00  0.00     0.029 A 
ATOM     41  N   UNL A   1      40.286  28.460  29.438  1.00  0.00    -0.354 N 
ATOM     42  C   UNL A   1      39.150  30.929  32.787  1.00  0.00     0.074 A 
ATOM     43  C   UNL A   1      37.881  31.581  32.549  1.00  0.00     0.031 C 
ATOM     44  C   UNL A   1      40.102  27.591  27.385  1.00  0.00     0.029 A 
ATOM     45  C   UNL A   1      40.992  27.698  28.536  1.00  0.00     0.049 A 
ATOM     46  H   UNL A   1      40.623  28.682  30.336  1.00  0.00     0.167 HD
ATOM     47  C   UNL A   1      39.891  31.092  33.910  1.00  0.00     0.034 A 
ATOM     48  C   UNL A   1      42.223  27.155  28.620  1.00  0.00     0.034 A 
ATOM     49  C   UNL A   1      41.138  30.418  34.157  1.00  0.00     0.049 A 
ATOM     50  C   UNL A   1      43.019  27.338  29.885  1.00  0.00     0.074 A 
ATOM     51  C   UNL A   1      41.924  30.453  35.295  1.00  0.00     0.029 A 
ATOM     52  N   UNL A   1      41.790  29.599  33.248  1.00  0.00    -0.354 N 
ATOM     53  N   UNL A   1      42.693  27.977  30.981  1.00  0.00    -0.248 NA
ATOM     54  C   UNL A   1      44.337  26.691  29.938  1.00  0.00     0.031 C 
ATOM     55  C   UNL A   1      43.067  29.682  35.062  1.00  0.00     0.029 A 
ATOM     56  C   UNL A   1      42.975  29.133  33.793  1.00  0.00     0.049 A 
ATOM     57  H   UNL A   1      41.458  29.380  32.347  1.00  0.00     0.167 HD
ATOM     58  C   UNL A   1      43.747  27.780  31.866  1.00  0.00     0.074 A 
ATOM     59  C   UNL A   1      44.711  26.943  31.185  1.00  0.00     0.031 C 
ATOM     60  C   UNL A   1      43.906  28.260  33.125  1.00  0.00     0.034 A 
BRANCH  47  61
ATOM     61  C   UNL A   1      39.348  32.006  34.980  1.00  0.00     0.023 A 
ATOM     62  C   UNL A   1      39.435  33.404  34.812  1.00  0.00     0.012 A 
ATOM     63  C   UNL A   1      38.709  31.488  36.123  1.00  0.00     0.148 A 
ATOM     64  C   UNL A   1      38.934  34.270  35.783  1.00  0.00     0.002 A 
ATOM     65  C   UNL A   1      38.170  32.358  37.064  1.00  0.00     0.091 A 
ATOM     66  F   UNL A   1      38.650  30.158  36.277  1.00  0.00    -0.205 F 
ATOM     67  C   UNL A   1      38.294  33.749  36.903  1.00  0.00     0.022 A 
BRANCH  65  68
ATOM     68  S   UNL A   1      37.253  31.789  38.501  1.00  0.00     0.127 S 
ATOM     69  O   UNL A   1      37.023  30.385  38.167  1.00  0.00    -0.237 OA
ATOM     70  O   UNL A   1      38.212  32.010  39.584  1.00  0.00    -0.237 OA
ATOM     71  O   UNL A   1      36.058  32.619  38.569  1.00  0.00    -0.744 OA
ENDBRANCH  65  68
ENDBRANCH  47  61
BRANCH  48  72
ATOM     72  C   UNL A   1      42.754  26.332  27.496  1.00  0.00     0.023 A 
ATOM     73  C   UNL A   1      43.496  26.957  26.475  1.00  0.00     0.012 A 
ATOM     74  C   UNL A   1      42.553  24.939  27.443  1.00  0.00     0.148 A 
ATOM     75  C   UNL A   1      43.997  26.217  25.403  1.00  0.00     0.002 A 
ATOM     76  C   UNL A   1      43.103  24.199  26.403  1.00  0.00     0.091 A 
ATOM     77  F   UNL A   1      41.840  24.363  28.421  1.00  0.00    -0.205 F 
ATOM     78  C   UNL A   1      43.810  24.838  25.372  1.00  0.00     0.022 A 
BRANCH  76  79
ATOM     79  S   UNL A   1      43.023  22.404  26.341  1.00  0.00     0.127 S 
ATOM     80  O   UNL A   1      42.399  22.177  25.040  1.00  0.00    -0.237 OA
ATOM     81  O   UNL A   1      44.438  22.038  26.417  1.00  0.00    -0.237 OA
ATOM     82  O   UNL A   1      42.233  22.002  27.496  1.00  0.00    -0.744 OA
ENDBRANCH  76  79
ENDBRANCH  48  72
BRANCH  60  83
ATOM     83  C   UNL A   1      45.151  27.859  33.874  1.00  0.00     0.023 A 
ATOM     84  C   UNL A   1      46.336  28.607  33.725  1.00  0.00     0.012 A 
ATOM     85  C   UNL A   1      45.124  26.781  34.781  1.00  0.00     0.148 A 
ATOM     86  C   UNL A   1      47.484  28.265  34.439  1.00  0.00     0.002 A 
ATOM     87  C   UNL A   1      46.256  26.480  35.529  1.00  0.00     0.091 A 
ATOM     88  F   UNL A   1      43.992  26.071  34.898  1.00  0.00    -0.205 F 
ATOM     89  C   UNL A   1      47.441  27.212  35.349  1.00  0.00     0.022 A 
BRANCH  87  90
ATOM     90  S   UNL A   1      46.266  25.205  36.795  1.00  0.00     0.127 S 
ATOM     91  O   UNL A   1      47.697  25.040  37.040  1.00  0.00    -0.237 OA
ATOM     92  O   UNL A   1      45.530  25.847  37.885  1.00  0.00    -0.237 OA
ATOM     93  O   UNL A   1      45.596  24.052  36.210  1.00  0.00    -0.744 OA
ENDBRANCH  87  90
ENDBRANCH  60  83
ENDBRANCH  34  35
ENDBRANCH  26  29
ENDBRANCH  24  25
ENDBRANCH  23  24
ENDBRANCH   1  23
TORSDOF 18
ENDMDL
MODEL 3
REMARK VINA RESULT:     -11.5      5.257     10.311
REMARK SMILES COCc1cc(SCC(=O)NCCCNC(=O)c2ccc(-c3c4nc(c(-c5cccc(S(=O)(=O)[O-])c5F)c5ccc([nH]5)c(-c5cccc(S(=O)(=O)[O-])c5F)c5nc(c(-c6cccc(S(=O)(=O)[O-])c6F)c6ccc3[nH]6)C=C5)C=C4)cc2)nc(-c2cccnc2)n1
REMARK SMILES IDX 12 1 11 2 9 3 10 4 8 6 7 7 6 8 4 9 5 10 89 11 82 12 81 13
REMARK SMILES IDX 3 14 2 15 1 16 83 17 84 18 88 19 85 20 87 21 86 22 13 23
REMARK SMILES IDX 14 24 15 25 16 26 17 28 18 29 19 30 80 31 20 32 79 33 21 34
REMARK SMILES IDX 22 35 23 36 73 37 24 38 78 39 72 40 74 41 25 42 77 43 71 44
REMARK SMILES IDX 70 45 26 47 58 48 38 49 57 50 39 51 42 52 56 53 75 54 40 55
REMARK SMILES IDX 41 56 55 58 76 59 43 60 27 61 28 62 36 63 29 64 31 65 37 66
REMARK SMILES IDX 30 67 32 68 33 69 34 70 35 71 59 72 60 73 68 74 61 75 63 76
REMARK SMILES IDX 69 77 62 78 64 79 65 80 66 81 67 82 44 83 45 84 53 85 46 86
REMARK SMILES IDX 48 87 54 88 47 89 49 90 50 91 51 92 52 93
REMARK H PARENT 11 5 15 27 74 46 42 57
REMARK Flexibility Score: inf
ROOT
ATOM      1  C   UNL A   1      34.533  22.707  25.105  1.00  0.00     0.117 C 
ENDROOT
BRANCH   1   2
ATOM      2  N   UNL A   1      33.240  23.263  25.455  1.00  0.00    -0.355 N 
ATOM      3  C   UNL A   1      32.290  23.826  24.662  1.00  0.00     0.230 C 
ATOM      4  O   UNL A   1      31.276  24.269  25.210  1.00  0.00    -0.274 OA
ATOM      5  H   UNL A   1      33.016  23.229  26.414  1.00  0.00     0.163 HD
BRANCH   3   6
ATOM      6  C   UNL A   1      32.417  23.835  23.152  1.00  0.00     0.176 C 
BRANCH   6   7
ATOM      7  S   UNL A   1      33.250  25.286  22.446  1.00  0.00    -0.096 SA
BRANCH   7   8
ATOM      8  C   UNL A   1      32.336  26.701  23.019  1.00  0.00     0.101 A 
ATOM      9  C   UNL A   1      30.541  28.216  23.106  1.00  0.00     0.071 A 
ATOM     10  C   UNL A   1      31.181  27.185  22.446  1.00  0.00     0.062 A 
ATOM     11  N   UNL A   1      31.042  28.759  24.232  1.00  0.00    -0.230 NA
ATOM     12  C   UNL A   1      32.233  28.309  24.654  1.00  0.00     0.162 A 
ATOM     13  N   UNL A   1      32.897  27.288  24.093  1.00  0.00    -0.222 NA
BRANCH   9  14
ATOM     14  C   UNL A   1      29.232  28.774  22.594  1.00  0.00     0.215 C 
BRANCH  14  15
ATOM     15  O   UNL A   1      29.361  30.073  22.005  1.00  0.00    -0.378 OA
ATOM     16  C   UNL A   1      28.175  30.498  21.337  1.00  0.00     0.195 C 
ENDBRANCH  14  15
ENDBRANCH   9  14
BRANCH  12  17
ATOM     17  C   UNL A   1      32.882  29.075  25.712  1.00  0.00     0.038 A 
ATOM     18  C   UNL A   1      34.118  28.703  26.257  1.00  0.00     0.015 A 
ATOM     19  C   UNL A   1      32.334  30.266  26.185  1.00  0.00     0.123 A 
ATOM     20  C   UNL A   1      34.733  29.503  27.219  1.00  0.00     0.021 A 
ATOM     21  N   UNL A   1      32.908  31.072  27.111  1.00  0.00    -0.264 NA
ATOM     22  C   UNL A   1      34.089  30.662  27.620  1.00  0.00     0.111 A 
ENDBRANCH  12  17
ENDBRANCH   7   8
ENDBRANCH   6   7
ENDBRANCH   3   6
ENDBRANCH   1   2
BRANCH   1  23
ATOM     23  C   UNL A   1      35.641  23.229  26.015  1.00  0.00     0.042 C 
BRANCH  23  24
ATOM     24  C   UNL A   1      36.992  23.415  25.325  1.00  0.00     0.118 C 
BRANCH  24  25
ATOM     25  N   UNL A   1      38.016  22.503  25.821  1.00  0.00    -0.352 N 
ATOM     26  C   UNL A   1      39.197  22.768  26.468  1.00  0.00     0.251 C 
ATOM     27  H   UNL A   1      37.832  21.549  25.666  1.00  0.00     0.163 HD
ATOM     28  O   UNL A   1      40.001  21.852  26.648  1.00  0.00    -0.269 OA
BRANCH  26  29
ATOM     29  C   UNL A   1      39.519  24.134  26.935  1.00  0.00     0.039 A 
ATOM     30  C   UNL A   1      39.240  24.476  28.262  1.00  0.00     0.014 A 
ATOM     31  C   UNL A   1      40.069  25.085  26.072  1.00  0.00     0.014 A 
ATOM     32  C   UNL A   1      39.573  25.748  28.737  1.00  0.00     0.010 A 
ATOM     33  C   UNL A   1      40.472  26.323  26.568  1.00  0.00     0.010 A 
ATOM     34  C   UNL A   1      40.226  26.670  27.904  1.00  0.00    -0.014 A 
BRANCH  34  35
ATOM     35  C   UNL A   1      40.677  27.992  28.418  1.00  0.00     0.031 A 
ATOM     36  C   UNL A   1      42.141  28.276  28.620  1.00  0.00     0.074 A 
ATOM     37  C   UNL A   1      39.759  28.910  28.782  1.00  0.00     0.049 A 
ATOM     38  N   UNL A   1      42.714  29.346  29.107  1.00  0.00    -0.248 NA
ATOM     39  C   UNL A   1      43.085  27.208  28.250  1.00  0.00     0.031 C 
ATOM     40  C   UNL A   1      38.308  28.731  28.705  1.00  0.00     0.029 A 
ATOM     41  N   UNL A   1      39.909  30.166  29.317  1.00  0.00    -0.354 N 
ATOM     42  C   UNL A   1      44.077  29.070  29.136  1.00  0.00     0.074 A 
ATOM     43  C   UNL A   1      44.241  27.718  28.648  1.00  0.00     0.031 C 
ATOM     44  C   UNL A   1      37.702  29.837  29.166  1.00  0.00     0.029 A 
ATOM     45  C   UNL A   1      38.717  30.789  29.606  1.00  0.00     0.049 A 
ATOM     46  H   UNL A   1      40.787  30.582  29.478  1.00  0.00     0.167 HD
ATOM     47  C   UNL A   1      45.102  29.876  29.505  1.00  0.00     0.034 A 
ATOM     48  C   UNL A   1      38.467  31.986  30.170  1.00  0.00     0.034 A 
ATOM     49  C   UNL A   1      44.937  31.231  29.960  1.00  0.00     0.049 A 
ATOM     50  C   UNL A   1      39.623  32.869  30.557  1.00  0.00     0.074 A 
ATOM     51  C   UNL A   1      45.916  32.155  30.281  1.00  0.00     0.029 A 
ATOM     52  N   UNL A   1      43.717  31.852  30.175  1.00  0.00    -0.354 N 
ATOM     53  N   UNL A   1      40.909  32.650  30.428  1.00  0.00    -0.248 NA
ATOM     54  C   UNL A   1      39.293  34.181  31.131  1.00  0.00     0.031 C 
ATOM     55  C   UNL A   1      45.287  33.324  30.720  1.00  0.00     0.029 A 
ATOM     56  C   UNL A   1      43.916  33.143  30.636  1.00  0.00     0.049 A 
ATOM     57  H   UNL A   1      42.837  31.436  30.021  1.00  0.00     0.167 HD
ATOM     58  C   UNL A   1      41.540  33.808  30.870  1.00  0.00     0.074 A 
ATOM     59  C   UNL A   1      40.493  34.733  31.249  1.00  0.00     0.031 C 
ATOM     60  C   UNL A   1      42.867  34.074  30.965  1.00  0.00     0.034 A 
BRANCH  47  61
ATOM     61  C   UNL A   1      46.502  29.325  29.390  1.00  0.00     0.023 A 
ATOM     62  C   UNL A   1      47.071  28.635  30.480  1.00  0.00     0.012 A 
ATOM     63  C   UNL A   1      47.233  29.444  28.192  1.00  0.00     0.148 A 
ATOM     64  C   UNL A   1      48.360  28.111  30.397  1.00  0.00     0.002 A 
ATOM     65  C   UNL A   1      48.499  28.876  28.100  1.00  0.00     0.091 A 
ATOM     66  F   UNL A   1      46.686  30.118  27.171  1.00  0.00    -0.205 F 
ATOM     67  C   UNL A   1      49.070  28.222  29.205  1.00  0.00     0.022 A 
BRANCH  65  68
ATOM     68  S   UNL A   1      49.463  28.893  26.584  1.00  0.00     0.127 S 
ATOM     69  O   UNL A   1      48.462  28.501  25.593  1.00  0.00    -0.237 OA
ATOM     70  O   UNL A   1      49.885  30.292  26.503  1.00  0.00    -0.237 OA
ATOM     71  O   UNL A   1      50.547  27.943  26.787  1.00  0.00    -0.744 OA
ENDBRANCH  65  68
ENDBRANCH  47  61
BRANCH  48  72
ATOM     72  C   UNL A   1      37.060  32.450  30.346  1.00  0.00     0.023 A 
ATOM     73  C   UNL A   1      36.400  32.199  31.565  1.00  0.00     0.012 A 
ATOM     74  C   UNL A   1      36.385  33.156  29.332  1.00  0.00     0.148 A 
ATOM     75  C   UNL A   1      35.081  32.610  31.758  1.00  0.00     0.002 A 
ATOM     76  C   UNL A   1      35.090  33.611  29.551  1.00  0.00     0.091 A 
ATOM     77  F   UNL A   1      37.028  33.381  28.178  1.00  0.00    -0.205 F 
ATOM     78  C   UNL A   1      34.429  33.324  30.755  1.00  0.00     0.022 A 
BRANCH  76  79
ATOM     79  S   UNL A   1      34.214  34.646  28.371  1.00  0.00     0.127 S 
ATOM     80  O   UNL A   1      34.756  34.175  27.099  1.00  0.00    -0.237 OA
ATOM     81  O   UNL A   1      32.821  34.273  28.622  1.00  0.00    -0.237 OA
ATOM     82  O   UNL A   1      34.543  36.019  28.726  1.00  0.00    -0.744 OA
ENDBRANCH  76  79
ENDBRANCH  48  72
BRANCH  60  83
ATOM     83  C   UNL A   1      43.272  35.439  31.459  1.00  0.00     0.023 A 
ATOM     84  C   UNL A   1      43.465  35.662  32.837  1.00  0.00     0.012 A 
ATOM     85  C   UNL A   1      43.532  36.482  30.548  1.00  0.00     0.148 A 
ATOM     86  C   UNL A   1      43.873  36.912  33.302  1.00  0.00     0.002 A 
ATOM     87  C   UNL A   1      43.990  37.709  31.014  1.00  0.00     0.091 A 
ATOM     88  F   UNL A   1      43.327  36.257  29.241  1.00  0.00    -0.205 F 
ATOM     89  C   UNL A   1      44.147  37.930  32.392  1.00  0.00     0.022 A 
BRANCH  87  90
ATOM     90  S   UNL A   1      44.462  39.046  29.911  1.00  0.00     0.127 S 
ATOM     91  O   UNL A   1      45.535  38.426  29.135  1.00  0.00    -0.237 OA
ATOM     92  O   UNL A   1      43.227  39.282  29.164  1.00  0.00    -0.237 OA
ATOM     93  O   UNL A   1      44.870  40.150  30.769  1.00  0.00    -0.744 OA
ENDBRANCH  87  90
ENDBRANCH  60  83
ENDBRANCH  34  35
ENDBRANCH  26  29
ENDBRANCH  24  25
ENDBRANCH  23  24
ENDBRANCH   1  23
TORSDOF 18
ENDMDL
