MODEL 1
REMARK VINA RESULT:     -13.0      0.000      0.000
REMARK SMILES C[C@H]1[C@H](C(=O)NCCCNC(=O)c2ccc(-c3c4nc(c(-c5cccc(S(=O)(=O)[O-])c5F)c5ccc([nH]5)c(-c5cccc(S(=O)(=O)[O-])c5F)c5nc(c(-c6cccc(S(=O)(=O)[O-])c6F)c6ccc3[nH]6)C=C5)C=C4)cc2)CC[N@@H+]1Cc1cnn(-c2ccccc2)c1
REMARK SMILES IDX 8 1 7 2 6 3 4 4 5 5 3 7 1 8 2 9 78 10 76 11 77 12 79 14
REMARK SMILES IDX 80 15 81 16 90 17 82 18 83 19 84 20 85 21 89 22 86 23 88 24
REMARK SMILES IDX 87 25 9 26 10 27 11 28 12 30 13 31 14 32 75 33 15 34 74 35
REMARK SMILES IDX 16 36 17 37 18 38 68 39 19 40 73 41 67 42 69 43 20 44 72 45
REMARK SMILES IDX 66 46 65 47 21 49 53 50 33 51 52 52 34 53 37 54 51 55 70 56
REMARK SMILES IDX 35 57 36 58 50 60 71 61 38 62 22 63 23 64 31 65 24 66 26 67
REMARK SMILES IDX 32 68 25 69 27 70 28 71 29 72 30 73 54 74 55 75 63 76 56 77
REMARK SMILES IDX 58 78 64 79 57 80 59 81 60 82 61 83 62 84 39 85 40 86 48 87
REMARK SMILES IDX 41 88 43 89 49 90 42 91 44 92 45 93 46 94 47 95
REMARK H PARENT 6 6 78 13 10 29 69 48 37 59
REMARK Flexibility Score: inf
ROOT
ATOM      1  C   UNL A   1      36.861  19.895  24.942  1.00  0.00     0.042 C 
ENDROOT
BRANCH   1   2
ATOM      2  C   UNL A   1      35.580  20.601  25.386  1.00  0.00     0.117 C 
BRANCH   2   3
ATOM      3  N   UNL A   1      35.777  21.678  26.324  1.00  0.00    -0.356 N 
ATOM      4  C   UNL A   1      35.337  22.958  26.253  1.00  0.00     0.229 C 
ATOM      5  O   UNL A   1      35.018  23.490  27.324  1.00  0.00    -0.275 OA
ATOM      6  H   UNL A   1      36.301  21.452  27.125  1.00  0.00     0.163 HD
BRANCH   4   7
ATOM      7  C   UNL A   1      35.253  23.768  24.968  1.00  0.00     0.142 C 
ATOM      8  C   UNL A   1      36.518  23.275  22.875  1.00  0.00     0.076 C 
ATOM      9  C   UNL A   1      35.171  23.072  23.599  1.00  0.00     0.193 C 
ATOM     10  N   UNL A   1      34.105  23.768  22.844  1.00  0.00    -0.328 N 
ATOM     11  C   UNL A   1      34.142  24.807  24.957  1.00  0.00     0.081 C 
ATOM     12  C   UNL A   1      33.935  25.070  23.471  1.00  0.00     0.263 C 
ATOM     13  H   UNL A   1      34.417  23.879  21.879  1.00  0.00     0.348 HD
BRANCH  10  14
ATOM     14  C   UNL A   1      32.883  23.021  22.480  1.00  0.00     0.302 C 
BRANCH  14  15
ATOM     15  C   UNL A   1      32.497  21.817  23.309  1.00  0.00     0.045 A 
ATOM     16  C   UNL A   1      31.952  21.725  24.611  1.00  0.00     0.145 A 
ATOM     17  C   UNL A   1      32.444  20.492  22.906  1.00  0.00     0.124 A 
ATOM     18  N   UNL A   1      31.913  20.480  25.091  1.00  0.00    -0.176 NA
ATOM     19  N   UNL A   1      32.243  19.713  24.033  1.00  0.00    -0.240 N 
BRANCH  19  20
ATOM     20  C   UNL A   1      32.703  18.389  24.220  1.00  0.00     0.065 A 
ATOM     21  C   UNL A   1      33.312  17.700  23.173  1.00  0.00     0.028 A 
ATOM     22  C   UNL A   1      32.648  17.828  25.504  1.00  0.00     0.028 A 
ATOM     23  C   UNL A   1      33.916  16.463  23.429  1.00  0.00     0.002 A 
ATOM     24  C   UNL A   1      33.296  16.618  25.760  1.00  0.00     0.002 A 
ATOM     25  C   UNL A   1      33.935  15.939  24.723  1.00  0.00     0.000 A 
ENDBRANCH  19  20
ENDBRANCH  14  15
ENDBRANCH  10  14
ENDBRANCH   4   7
ENDBRANCH   2   3
ENDBRANCH   1   2
BRANCH   1  26
ATOM     26  C   UNL A   1      38.065  20.836  25.035  1.00  0.00     0.118 C 
BRANCH  26  27
ATOM     27  N   UNL A   1      39.269  20.152  25.488  1.00  0.00    -0.352 N 
ATOM     28  C   UNL A   1      40.324  20.535  26.272  1.00  0.00     0.251 C 
ATOM     29  H   UNL A   1      39.340  19.226  25.161  1.00  0.00     0.163 HD
ATOM     30  O   UNL A   1      41.339  19.835  26.286  1.00  0.00    -0.269 OA
BRANCH  28  31
ATOM     31  C   UNL A   1      40.319  21.802  27.018  1.00  0.00     0.039 A 
ATOM     32  C   UNL A   1      41.176  21.909  28.121  1.00  0.00     0.014 A 
ATOM     33  C   UNL A   1      39.600  22.906  26.579  1.00  0.00     0.014 A 
ATOM     34  C   UNL A   1      41.477  23.162  28.631  1.00  0.00     0.010 A 
ATOM     35  C   UNL A   1      39.998  24.161  26.984  1.00  0.00     0.010 A 
ATOM     36  C   UNL A   1      40.984  24.291  27.967  1.00  0.00    -0.014 A 
BRANCH  36  37
ATOM     37  C   UNL A   1      41.610  25.610  28.152  1.00  0.00     0.031 A 
ATOM     38  C   UNL A   1      40.831  26.720  28.775  1.00  0.00     0.074 A 
ATOM     39  C   UNL A   1      42.815  25.808  27.578  1.00  0.00     0.049 A 
ATOM     40  N   UNL A   1      41.175  27.966  28.939  1.00  0.00    -0.248 NA
ATOM     41  C   UNL A   1      39.462  26.405  29.222  1.00  0.00     0.031 C 
ATOM     42  C   UNL A   1      43.563  24.804  26.805  1.00  0.00     0.029 A 
ATOM     43  N   UNL A   1      43.613  26.917  27.523  1.00  0.00    -0.354 N 
ATOM     44  C   UNL A   1      40.058  28.591  29.475  1.00  0.00     0.074 A 
ATOM     45  C   UNL A   1      39.007  27.603  29.553  1.00  0.00     0.031 C 
ATOM     46  C   UNL A   1      44.717  25.338  26.379  1.00  0.00     0.029 A 
ATOM     47  C   UNL A   1      44.782  26.721  26.823  1.00  0.00     0.049 A 
ATOM     48  H   UNL A   1      43.375  27.775  27.944  1.00  0.00     0.167 HD
ATOM     49  C   UNL A   1      39.944  29.869  29.901  1.00  0.00     0.034 A 
ATOM     50  C   UNL A   1      45.798  27.570  26.582  1.00  0.00     0.034 A 
ATOM     51  C   UNL A   1      41.029  30.807  29.840  1.00  0.00     0.049 A 
ATOM     52  C   UNL A   1      45.699  28.943  27.183  1.00  0.00     0.074 A 
ATOM     53  C   UNL A   1      41.082  32.104  30.310  1.00  0.00     0.029 A 
ATOM     54  N   UNL A   1      42.265  30.534  29.267  1.00  0.00    -0.354 N 
ATOM     55  N   UNL A   1      44.701  29.474  27.851  1.00  0.00    -0.248 NA
ATOM     56  C   UNL A   1      46.869  29.815  27.047  1.00  0.00     0.031 C 
ATOM     57  C   UNL A   1      42.353  32.615  30.019  1.00  0.00     0.029 A 
ATOM     58  C   UNL A   1      43.095  31.632  29.378  1.00  0.00     0.049 A 
ATOM     59  H   UNL A   1      42.513  29.680  28.842  1.00  0.00     0.167 HD
ATOM     60  C   UNL A   1      45.129  30.735  28.238  1.00  0.00     0.074 A 
ATOM     61  C   UNL A   1      46.490  30.872  27.753  1.00  0.00     0.031 C 
ATOM     62  C   UNL A   1      44.458  31.702  28.912  1.00  0.00     0.034 A 
BRANCH  49  63
ATOM     63  C   UNL A   1      38.633  30.269  30.523  1.00  0.00     0.023 A 
ATOM     64  C   UNL A   1      38.330  29.833  31.832  1.00  0.00     0.012 A 
ATOM     65  C   UNL A   1      37.694  31.049  29.824  1.00  0.00     0.148 A 
ATOM     66  C   UNL A   1      37.096  30.122  32.414  1.00  0.00     0.002 A 
ATOM     67  C   UNL A   1      36.482  31.371  30.429  1.00  0.00     0.091 A 
ATOM     68  F   UNL A   1      37.984  31.433  28.573  1.00  0.00    -0.205 F 
ATOM     69  C   UNL A   1      36.177  30.896  31.715  1.00  0.00     0.022 A 
BRANCH  67  70
ATOM     70  S   UNL A   1      35.250  32.412  29.640  1.00  0.00     0.127 S 
ATOM     71  O   UNL A   1      34.823  31.570  28.522  1.00  0.00    -0.237 OA
ATOM     72  O   UNL A   1      34.254  32.566  30.701  1.00  0.00    -0.237 OA
ATOM     73  O   UNL A   1      35.939  33.640  29.270  1.00  0.00    -0.744 OA
ENDBRANCH  67  70
ENDBRANCH  49  63
BRANCH  50  74
ATOM     74  C   UNL A   1      47.013  27.097  25.860  1.00  0.00     0.023 A 
ATOM     75  C   UNL A   1      47.113  27.309  24.472  1.00  0.00     0.012 A 
ATOM     76  C   UNL A   1      48.099  26.513  26.541  1.00  0.00     0.148 A 
ATOM     77  C   UNL A   1      48.256  26.922  23.769  1.00  0.00     0.002 A 
ATOM     78  C   UNL A   1      49.256  26.175  25.844  1.00  0.00     0.091 A 
ATOM     79  F   UNL A   1      47.991  26.317  27.862  1.00  0.00    -0.205 F 
ATOM     80  C   UNL A   1      49.331  26.365  24.455  1.00  0.00     0.022 A 
BRANCH  78  81
ATOM     81  S   UNL A   1      50.738  25.582  26.673  1.00  0.00     0.127 S 
ATOM     82  O   UNL A   1      51.623  25.307  25.544  1.00  0.00    -0.237 OA
ATOM     83  O   UNL A   1      51.118  26.737  27.486  1.00  0.00    -0.237 OA
ATOM     84  O   UNL A   1      50.310  24.423  27.446  1.00  0.00    -0.744 OA
ENDBRANCH  78  81
ENDBRANCH  50  74
BRANCH  62  85
ATOM     85  C   UNL A   1      45.197  32.984  29.164  1.00  0.00     0.023 A 
ATOM     86  C   UNL A   1      46.003  33.105  30.314  1.00  0.00     0.012 A 
ATOM     87  C   UNL A   1      45.154  34.033  28.228  1.00  0.00     0.148 A 
ATOM     88  C   UNL A   1      46.735  34.267  30.541  1.00  0.00     0.002 A 
ATOM     89  C   UNL A   1      45.924  35.168  28.437  1.00  0.00     0.091 A 
ATOM     90  F   UNL A   1      44.358  33.903  27.155  1.00  0.00    -0.205 F 
ATOM     91  C   UNL A   1      46.706  35.291  29.597  1.00  0.00     0.022 A 
BRANCH  89  92
ATOM     92  S   UNL A   1      46.021  36.486  27.221  1.00  0.00     0.127 S 
ATOM     93  O   UNL A   1      46.928  37.427  27.875  1.00  0.00    -0.237 OA
ATOM     94  O   UNL A   1      46.587  35.798  26.059  1.00  0.00    -0.237 OA
ATOM     95  O   UNL A   1      44.654  36.952  27.034  1.00  0.00    -0.744 OA
ENDBRANCH  89  92
ENDBRANCH  62  85
ENDBRANCH  36  37
ENDBRANCH  28  31
ENDBRANCH  26  27
ENDBRANCH   1  26
TORSDOF 16
ENDMDL
MODEL 2
REMARK VINA RESULT:     -12.6      5.083      7.846
REMARK SMILES C[C@H]1[C@H](C(=O)NCCCNC(=O)c2ccc(-c3c4nc(c(-c5cccc(S(=O)(=O)[O-])c5F)c5ccc([nH]5)c(-c5cccc(S(=O)(=O)[O-])c5F)c5nc(c(-c6cccc(S(=O)(=O)[O-])c6F)c6ccc3[nH]6)C=C5)C=C4)cc2)CC[N@@H+]1Cc1cnn(-c2ccccc2)c1
REMARK SMILES IDX 8 1 7 2 6 3 4 4 5 5 3 7 1 8 2 9 78 10 76 11 77 12 79 14
REMARK SMILES IDX 80 15 81 16 90 17 82 18 83 19 84 20 85 21 89 22 86 23 88 24
REMARK SMILES IDX 87 25 9 26 10 27 11 28 12 30 13 31 14 32 75 33 15 34 74 35
REMARK SMILES IDX 16 36 17 37 18 38 68 39 19 40 73 41 67 42 69 43 20 44 72 45
REMARK SMILES IDX 66 46 65 47 21 49 53 50 33 51 52 52 34 53 37 54 51 55 70 56
REMARK SMILES IDX 35 57 36 58 50 60 71 61 38 62 22 63 23 64 31 65 24 66 26 67
REMARK SMILES IDX 32 68 25 69 27 70 28 71 29 72 30 73 54 74 55 75 63 76 56 77
REMARK SMILES IDX 58 78 64 79 57 80 59 81 60 82 61 83 62 84 39 85 40 86 48 87
REMARK SMILES IDX 41 88 43 89 49 90 42 91 44 92 45 93 46 94 47 95
REMARK H PARENT 6 6 78 13 10 29 69 48 37 59
REMARK Flexibility Score: inf
ROOT
ATOM      1  C   UNL A   1      31.042  30.994  25.782  1.00  0.00     0.042 C 
ENDROOT
BRANCH   1   2
ATOM      2  C   UNL A   1      31.180  29.946  24.677  1.00  0.00     0.117 C 
BRANCH   2   3
ATOM      3  N   UNL A   1      32.519  29.449  24.479  1.00  0.00    -0.356 N 
ATOM      4  C   UNL A   1      32.919  28.207  24.114  1.00  0.00     0.229 C 
ATOM      5  O   UNL A   1      33.918  28.143  23.386  1.00  0.00    -0.275 OA
ATOM      6  H   UNL A   1      33.240  30.102  24.627  1.00  0.00     0.163 HD
BRANCH   4   7
ATOM      7  C   UNL A   1      32.247  26.919  24.568  1.00  0.00     0.142 C 
ATOM      8  C   UNL A   1      31.800  24.944  23.112  1.00  0.00     0.076 C 
ATOM      9  C   UNL A   1      32.790  25.548  24.130  1.00  0.00     0.193 C 
ATOM     10  N   UNL A   1      32.813  24.705  25.345  1.00  0.00    -0.328 N 
ATOM     11  C   UNL A   1      32.058  26.813  26.074  1.00  0.00     0.081 C 
ATOM     12  C   UNL A   1      31.891  25.315  26.292  1.00  0.00     0.263 C 
ATOM     13  H   UNL A   1      32.491  23.770  25.092  1.00  0.00     0.348 HD
BRANCH  10  14
ATOM     14  C   UNL A   1      34.115  24.236  25.865  1.00  0.00     0.302 C 
BRANCH  14  15
ATOM     15  C   UNL A   1      34.480  22.780  25.694  1.00  0.00     0.045 A 
ATOM     16  C   UNL A   1      35.740  22.138  25.656  1.00  0.00     0.145 A 
ATOM     17  C   UNL A   1      33.627  21.686  25.692  1.00  0.00     0.124 A 
ATOM     18  N   UNL A   1      35.678  20.852  25.304  1.00  0.00    -0.176 NA
ATOM     19  N   UNL A   1      34.360  20.578  25.303  1.00  0.00    -0.240 N 
BRANCH  19  20
ATOM     20  C   UNL A   1      33.859  19.456  24.603  1.00  0.00     0.065 A 
ATOM     21  C   UNL A   1      32.670  19.548  23.880  1.00  0.00     0.028 A 
ATOM     22  C   UNL A   1      34.637  18.291  24.546  1.00  0.00     0.028 A 
ATOM     23  C   UNL A   1      32.288  18.485  23.054  1.00  0.00     0.002 A 
ATOM     24  C   UNL A   1      34.273  17.256  23.682  1.00  0.00     0.002 A 
ATOM     25  C   UNL A   1      33.102  17.356  22.932  1.00  0.00     0.000 A 
ENDBRANCH  19  20
ENDBRANCH  14  15
ENDBRANCH  10  14
ENDBRANCH   4   7
ENDBRANCH   2   3
ENDBRANCH   1   2
BRANCH   1  26
ATOM     26  C   UNL A   1      32.222  30.923  26.754  1.00  0.00     0.118 C 
BRANCH  26  27
ATOM     27  N   UNL A   1      32.499  32.206  27.386  1.00  0.00    -0.352 N 
ATOM     28  C   UNL A   1      33.595  32.716  28.028  1.00  0.00     0.251 C 
ATOM     29  H   UNL A   1      31.742  32.834  27.342  1.00  0.00     0.163 HD
ATOM     30  O   UNL A   1      33.468  33.746  28.693  1.00  0.00    -0.269 OA
BRANCH  28  31
ATOM     31  C   UNL A   1      34.889  32.020  28.028  1.00  0.00     0.039 A 
ATOM     32  C   UNL A   1      36.049  32.806  28.060  1.00  0.00     0.014 A 
ATOM     33  C   UNL A   1      34.976  30.637  28.130  1.00  0.00     0.014 A 
ATOM     34  C   UNL A   1      37.256  32.226  28.419  1.00  0.00     0.010 A 
ATOM     35  C   UNL A   1      36.137  30.081  28.622  1.00  0.00     0.010 A 
ATOM     36  C   UNL A   1      37.260  30.888  28.826  1.00  0.00    -0.014 A 
BRANCH  36  37
ATOM     37  C   UNL A   1      38.364  30.348  29.636  1.00  0.00     0.031 A 
ATOM     38  C   UNL A   1      38.571  30.841  31.030  1.00  0.00     0.074 A 
ATOM     39  C   UNL A   1      39.258  29.554  29.012  1.00  0.00     0.049 A 
ATOM     40  N   UNL A   1      39.532  30.556  31.863  1.00  0.00    -0.248 NA
ATOM     41  C   UNL A   1      37.602  31.829  31.539  1.00  0.00     0.031 C 
ATOM     42  C   UNL A   1      39.205  29.166  27.595  1.00  0.00     0.029 A 
ATOM     43  N   UNL A   1      40.400  28.956  29.467  1.00  0.00    -0.354 N 
ATOM     44  C   UNL A   1      39.305  31.351  32.977  1.00  0.00     0.074 A 
ATOM     45  C   UNL A   1      38.152  32.173  32.693  1.00  0.00     0.031 C 
ATOM     46  C   UNL A   1      40.250  28.376  27.308  1.00  0.00     0.029 A 
ATOM     47  C   UNL A   1      41.059  28.221  28.507  1.00  0.00     0.049 A 
ATOM     48  H   UNL A   1      40.722  29.041  30.395  1.00  0.00     0.167 HD
ATOM     49  C   UNL A   1      39.982  31.355  34.147  1.00  0.00     0.034 A 
ATOM     50  C   UNL A   1      42.186  27.493  28.598  1.00  0.00     0.034 A 
ATOM     51  C   UNL A   1      41.101  30.492  34.400  1.00  0.00     0.049 A 
ATOM     52  C   UNL A   1      42.841  27.413  29.947  1.00  0.00     0.074 A 
ATOM     53  C   UNL A   1      41.826  30.329  35.564  1.00  0.00     0.029 A 
ATOM     54  N   UNL A   1      41.653  29.634  33.456  1.00  0.00    -0.354 N 
ATOM     55  N   UNL A   1      42.512  28.034  31.056  1.00  0.00    -0.248 NA
ATOM     56  C   UNL A   1      43.982  26.502  30.080  1.00  0.00     0.031 C 
ATOM     57  C   UNL A   1      42.819  29.372  35.321  1.00  0.00     0.029 A 
ATOM     58  C   UNL A   1      42.704  28.930  34.010  1.00  0.00     0.049 A 
ATOM     59  H   UNL A   1      41.340  29.542  32.527  1.00  0.00     0.167 HD
ATOM     60  C   UNL A   1      43.389  27.575  32.026  1.00  0.00     0.074 A 
ATOM     61  C   UNL A   1      44.243  26.598  31.377  1.00  0.00     0.031 C 
ATOM     62  C   UNL A   1      43.498  27.938  33.329  1.00  0.00     0.034 A 
BRANCH  49  63
ATOM     63  C   UNL A   1      39.471  32.267  35.231  1.00  0.00     0.023 A 
ATOM     64  C   UNL A   1      38.416  31.826  36.061  1.00  0.00     0.012 A 
ATOM     65  C   UNL A   1      40.003  33.555  35.422  1.00  0.00     0.148 A 
ATOM     66  C   UNL A   1      37.867  32.669  37.027  1.00  0.00     0.002 A 
ATOM     67  C   UNL A   1      39.480  34.374  36.418  1.00  0.00     0.091 A 
ATOM     68  F   UNL A   1      40.985  33.969  34.609  1.00  0.00    -0.205 F 
ATOM     69  C   UNL A   1      38.403  33.938  37.209  1.00  0.00     0.022 A 
BRANCH  67  70
ATOM     70  S   UNL A   1      40.135  36.007  36.777  1.00  0.00     0.127 S 
ATOM     71  O   UNL A   1      41.548  35.712  37.017  1.00  0.00    -0.237 OA
ATOM     72  O   UNL A   1      39.865  36.726  35.532  1.00  0.00    -0.237 OA
ATOM     73  O   UNL A   1      39.394  36.491  37.932  1.00  0.00    -0.744 OA
ENDBRANCH  67  70
ENDBRANCH  49  63
BRANCH  50  74
ATOM     74  C   UNL A   1      42.666  26.707  27.426  1.00  0.00     0.023 A 
ATOM     75  C   UNL A   1      43.570  27.300  26.525  1.00  0.00     0.012 A 
ATOM     76  C   UNL A   1      42.300  25.359  27.238  1.00  0.00     0.148 A 
ATOM     77  C   UNL A   1      44.078  26.580  25.442  1.00  0.00     0.002 A 
ATOM     78  C   UNL A   1      42.848  24.631  26.186  1.00  0.00     0.091 A 
ATOM     79  F   UNL A   1      41.439  24.808  28.104  1.00  0.00    -0.205 F 
ATOM     80  C   UNL A   1      43.726  25.243  25.278  1.00  0.00     0.022 A 
BRANCH  78  81
ATOM     81  S   UNL A   1      42.555  22.868  25.984  1.00  0.00     0.127 S 
ATOM     82  O   UNL A   1      43.133  22.617  24.666  1.00  0.00    -0.237 OA
ATOM     83  O   UNL A   1      43.307  22.301  27.103  1.00  0.00    -0.237 OA
ATOM     84  O   UNL A   1      41.111  22.701  26.091  1.00  0.00    -0.744 OA
ENDBRANCH  78  81
ENDBRANCH  50  74
BRANCH  62  85
ATOM     85  C   UNL A   1      44.576  27.264  34.128  1.00  0.00     0.023 A 
ATOM     86  C   UNL A   1      45.878  27.803  34.128  1.00  0.00     0.012 A 
ATOM     87  C   UNL A   1      44.281  26.150  34.934  1.00  0.00     0.148 A 
ATOM     88  C   UNL A   1      46.880  27.222  34.900  1.00  0.00     0.002 A 
ATOM     89  C   UNL A   1      45.272  25.606  35.738  1.00  0.00     0.091 A 
ATOM     90  F   UNL A   1      43.040  25.641  34.895  1.00  0.00    -0.205 F 
ATOM     91  C   UNL A   1      46.574  26.133  35.715  1.00  0.00     0.022 A 
BRANCH  89  92
ATOM     92  S   UNL A   1      44.933  24.271  36.889  1.00  0.00     0.127 S 
ATOM     93  O   UNL A   1      43.895  24.861  37.731  1.00  0.00    -0.237 OA
ATOM     94  O   UNL A   1      44.468  23.204  36.002  1.00  0.00    -0.237 OA
ATOM     95  O   UNL A   1      46.199  23.990  37.552  1.00  0.00    -0.744 OA
ENDBRANCH  89  92
ENDBRANCH  62  85
ENDBRANCH  36  37
ENDBRANCH  28  31
ENDBRANCH  26  27
ENDBRANCH   1  26
TORSDOF 16
ENDMDL
MODEL 3
REMARK VINA RESULT:     -12.6      4.958      7.506
REMARK SMILES C[C@H]1[C@H](C(=O)NCCCNC(=O)c2ccc(-c3c4nc(c(-c5cccc(S(=O)(=O)[O-])c5F)c5ccc([nH]5)c(-c5cccc(S(=O)(=O)[O-])c5F)c5nc(c(-c6cccc(S(=O)(=O)[O-])c6F)c6ccc3[nH]6)C=C5)C=C4)cc2)CC[N@@H+]1Cc1cnn(-c2ccccc2)c1
REMARK SMILES IDX 8 1 7 2 6 3 4 4 5 5 3 7 1 8 2 9 78 10 76 11 77 12 79 14
REMARK SMILES IDX 80 15 81 16 90 17 82 18 83 19 84 20 85 21 89 22 86 23 88 24
REMARK SMILES IDX 87 25 9 26 10 27 11 28 12 30 13 31 14 32 75 33 15 34 74 35
REMARK SMILES IDX 16 36 17 37 18 38 68 39 19 40 73 41 67 42 69 43 20 44 72 45
REMARK SMILES IDX 66 46 65 47 21 49 53 50 33 51 52 52 34 53 37 54 51 55 70 56
REMARK SMILES IDX 35 57 36 58 50 60 71 61 38 62 22 63 23 64 31 65 24 66 26 67
REMARK SMILES IDX 32 68 25 69 27 70 28 71 29 72 30 73 54 74 55 75 63 76 56 77
REMARK SMILES IDX 58 78 64 79 57 80 59 81 60 82 61 83 62 84 39 85 40 86 48 87
REMARK SMILES IDX 41 88 43 89 49 90 42 91 44 92 45 93 46 94 47 95
REMARK H PARENT 6 6 78 13 10 29 69 48 37 59
REMARK Flexibility Score: inf
ROOT
ATOM      1  C   UNL A   1      32.448  29.604  25.443  1.00  0.00     0.042 C 
ENDROOT
BRANCH   1   2
ATOM      2  C   UNL A   1      33.381  28.448  25.086  1.00  0.00     0.117 C 
BRANCH   2   3
ATOM      3  N   UNL A   1      33.250  27.283  25.925  1.00  0.00    -0.356 N 
ATOM      4  C   UNL A   1      32.986  26.003  25.566  1.00  0.00     0.229 C 
ATOM      5  O   UNL A   1      33.542  25.120  26.232  1.00  0.00    -0.275 OA
ATOM      6  H   UNL A   1      33.369  27.438  26.889  1.00  0.00     0.163 HD
BRANCH   4   7
ATOM      7  C   UNL A   1      32.039  25.602  24.444  1.00  0.00     0.142 C 
ATOM      8  C   UNL A   1      32.044  26.574  22.147  1.00  0.00     0.076 C 
ATOM      9  C   UNL A   1      32.555  25.401  23.009  1.00  0.00     0.193 C 
ATOM     10  N   UNL A   1      31.949  24.142  22.524  1.00  0.00    -0.328 N 
ATOM     11  C   UNL A   1      31.202  24.367  24.746  1.00  0.00     0.081 C 
ATOM     12  C   UNL A   1      30.785  23.891  23.361  1.00  0.00     0.263 C 
ATOM     13  H   UNL A   1      31.664  24.277  21.554  1.00  0.00     0.348 HD
BRANCH  10  14
ATOM     14  C   UNL A   1      32.831  22.995  22.221  1.00  0.00     0.302 C 
BRANCH  14  15
ATOM     15  C   UNL A   1      33.032  21.937  23.281  1.00  0.00     0.045 A 
ATOM     16  C   UNL A   1      33.823  21.939  24.455  1.00  0.00     0.145 A 
ATOM     17  C   UNL A   1      32.343  20.743  23.429  1.00  0.00     0.124 A 
ATOM     18  N   UNL A   1      33.894  20.750  25.057  1.00  0.00    -0.176 NA
ATOM     19  N   UNL A   1      32.989  19.998  24.401  1.00  0.00    -0.240 N 
BRANCH  19  20
ATOM     20  C   UNL A   1      33.045  18.586  24.464  1.00  0.00     0.065 A 
ATOM     21  C   UNL A   1      33.659  17.859  23.445  1.00  0.00     0.028 A 
ATOM     22  C   UNL A   1      32.586  17.941  25.621  1.00  0.00     0.028 A 
ATOM     23  C   UNL A   1      33.860  16.484  23.613  1.00  0.00     0.002 A 
ATOM     24  C   UNL A   1      32.835  16.579  25.800  1.00  0.00     0.002 A 
ATOM     25  C   UNL A   1      33.477  15.851  24.798  1.00  0.00     0.000 A 
ENDBRANCH  19  20
ENDBRANCH  14  15
ENDBRANCH  10  14
ENDBRANCH   4   7
ENDBRANCH   2   3
ENDBRANCH   1   2
BRANCH   1  26
ATOM     26  C   UNL A   1      32.400  29.822  26.957  1.00  0.00     0.118 C 
BRANCH  26  27
ATOM     27  N   UNL A   1      32.591  31.219  27.324  1.00  0.00    -0.352 N 
ATOM     28  C   UNL A   1      33.671  31.930  27.773  1.00  0.00     0.251 C 
ATOM     29  H   UNL A   1      31.775  31.762  27.230  1.00  0.00     0.163 HD
ATOM     30  O   UNL A   1      33.487  33.051  28.251  1.00  0.00    -0.269 OA
BRANCH  28  31
ATOM     31  C   UNL A   1      35.025  31.358  27.793  1.00  0.00     0.039 A 
ATOM     32  C   UNL A   1      36.100  32.242  27.953  1.00  0.00     0.014 A 
ATOM     33  C   UNL A   1      35.239  29.985  27.789  1.00  0.00     0.014 A 
ATOM     34  C   UNL A   1      37.338  31.746  28.334  1.00  0.00     0.010 A 
ATOM     35  C   UNL A   1      36.421  29.498  28.301  1.00  0.00     0.010 A 
ATOM     36  C   UNL A   1      37.450  30.384  28.633  1.00  0.00    -0.014 A 
BRANCH  36  37
ATOM     37  C   UNL A   1      38.559  29.882  29.460  1.00  0.00     0.031 A 
ATOM     38  C   UNL A   1      38.754  30.413  30.842  1.00  0.00     0.074 A 
ATOM     39  C   UNL A   1      39.467  29.085  28.860  1.00  0.00     0.049 A 
ATOM     40  N   UNL A   1      39.716  30.163  31.684  1.00  0.00    -0.248 NA
ATOM     41  C   UNL A   1      37.770  31.400  31.322  1.00  0.00     0.031 C 
ATOM     42  C   UNL A   1      39.424  28.659  27.452  1.00  0.00     0.029 A 
ATOM     43  N   UNL A   1      40.615  28.515  29.333  1.00  0.00    -0.354 N 
ATOM     44  C   UNL A   1      39.475  30.983  32.777  1.00  0.00     0.074 A 
ATOM     45  C   UNL A   1      38.311  31.782  32.468  1.00  0.00     0.031 C 
ATOM     46  C   UNL A   1      40.481  27.877  27.189  1.00  0.00     0.029 A 
ATOM     47  C   UNL A   1      41.287  27.765  28.394  1.00  0.00     0.049 A 
ATOM     48  H   UNL A   1      40.933  28.629  30.259  1.00  0.00     0.167 HD
ATOM     49  C   UNL A   1      40.147  31.028  33.948  1.00  0.00     0.034 A 
ATOM     50  C   UNL A   1      42.425  27.056  28.507  1.00  0.00     0.034 A 
ATOM     51  C   UNL A   1      41.277  30.187  34.227  1.00  0.00     0.049 A 
ATOM     52  C   UNL A   1      43.077  27.020  29.860  1.00  0.00     0.074 A 
ATOM     53  C   UNL A   1      42.001  30.065  35.397  1.00  0.00     0.029 A 
ATOM     54  N   UNL A   1      41.845  29.313  33.307  1.00  0.00    -0.354 N 
ATOM     55  N   UNL A   1      42.735  27.665  30.951  1.00  0.00    -0.248 NA
ATOM     56  C   UNL A   1      44.230  26.130  30.019  1.00  0.00     0.031 C 
ATOM     57  C   UNL A   1      43.008  29.116  35.181  1.00  0.00     0.029 A 
ATOM     58  C   UNL A   1      42.905  28.639  33.882  1.00  0.00     0.049 A 
ATOM     59  H   UNL A   1      41.537  29.193  32.379  1.00  0.00     0.167 HD
ATOM     60  C   UNL A   1      43.615  27.243  31.936  1.00  0.00     0.074 A 
ATOM     61  C   UNL A   1      44.485  26.262  31.314  1.00  0.00     0.031 C 
ATOM     62  C   UNL A   1      43.715  27.641  33.229  1.00  0.00     0.034 A 
BRANCH  49  63
ATOM     63  C   UNL A   1      39.620  31.959  35.007  1.00  0.00     0.023 A 
ATOM     64  C   UNL A   1      39.926  33.335  34.928  1.00  0.00     0.012 A 
ATOM     65  C   UNL A   1      38.847  31.488  36.084  1.00  0.00     0.148 A 
ATOM     66  C   UNL A   1      39.517  34.218  35.928  1.00  0.00     0.002 A 
ATOM     67  C   UNL A   1      38.404  32.381  37.054  1.00  0.00     0.091 A 
ATOM     68  F   UNL A   1      38.587  30.175  36.159  1.00  0.00    -0.205 F 
ATOM     69  C   UNL A   1      38.751  33.741  36.986  1.00  0.00     0.022 A 
BRANCH  67  70
ATOM     70  S   UNL A   1      37.362  31.884  38.430  1.00  0.00     0.127 S 
ATOM     71  O   UNL A   1      38.242  32.132  39.572  1.00  0.00    -0.237 OA
ATOM     72  O   UNL A   1      36.238  32.813  38.314  1.00  0.00    -0.237 OA
ATOM     73  O   UNL A   1      37.024  30.488  38.193  1.00  0.00    -0.744 OA
ENDBRANCH  67  70
ENDBRANCH  49  63
BRANCH  50  74
ATOM     74  C   UNL A   1      42.920  26.247  27.357  1.00  0.00     0.023 A 
ATOM     75  C   UNL A   1      43.893  26.795  26.500  1.00  0.00     0.012 A 
ATOM     76  C   UNL A   1      42.498  24.919  27.149  1.00  0.00     0.148 A 
ATOM     77  C   UNL A   1      44.415  26.050  25.441  1.00  0.00     0.002 A 
ATOM     78  C   UNL A   1      43.058  24.164  26.122  1.00  0.00     0.091 A 
ATOM     79  F   UNL A   1      41.570  24.410  27.973  1.00  0.00    -0.205 F 
ATOM     80  C   UNL A   1      44.005  24.732  25.257  1.00  0.00     0.022 A 
BRANCH  78  81
ATOM     81  S   UNL A   1      42.688  22.418  25.903  1.00  0.00     0.127 S 
ATOM     82  O   UNL A   1      43.403  22.113  24.667  1.00  0.00    -0.237 OA
ATOM     83  O   UNL A   1      43.267  21.827  27.110  1.00  0.00    -0.237 OA
ATOM     84  O   UNL A   1      41.235  22.335  25.839  1.00  0.00    -0.744 OA
ENDBRANCH  78  81
ENDBRANCH  50  74
BRANCH  62  85
ATOM     85  C   UNL A   1      44.800  27.004  34.048  1.00  0.00     0.023 A 
ATOM     86  C   UNL A   1      46.093  27.561  34.039  1.00  0.00     0.012 A 
ATOM     87  C   UNL A   1      44.517  25.906  34.881  1.00  0.00     0.148 A 
ATOM     88  C   UNL A   1      47.101  27.015  34.829  1.00  0.00     0.002 A 
ATOM     89  C   UNL A   1      45.514  25.396  35.701  1.00  0.00     0.091 A 
ATOM     90  F   UNL A   1      43.285  25.377  34.850  1.00  0.00    -0.205 F 
ATOM     91  C   UNL A   1      46.808  25.943  35.669  1.00  0.00     0.022 A 
BRANCH  89  92
ATOM     92  S   UNL A   1      45.190  24.086  36.885  1.00  0.00     0.127 S 
ATOM     93  O   UNL A   1      44.695  23.019  36.018  1.00  0.00    -0.237 OA
ATOM     94  O   UNL A   1      46.517  23.845  37.455  1.00  0.00    -0.237 OA
ATOM     95  O   UNL A   1      44.224  24.634  37.827  1.00  0.00    -0.744 OA
ENDBRANCH  89  92
ENDBRANCH  62  85
ENDBRANCH  36  37
ENDBRANCH  28  31
ENDBRANCH  26  27
ENDBRANCH   1  26
TORSDOF 16
ENDMDL
