MODEL 1
REMARK VINA RESULT:     -11.4      0.000      0.000
REMARK SMILES C/C(C(=O)NCCCNC(=O)c1ccc(-c2c3nc(c(-c4cccc(S(=O)(=O)[O-])c4F)c4ccc([nH]4)c(-c4cccc(S(=O)(=O)[O-])c4F)c4nc(c(-c5cccc(S(=O)(=O)[O-])c5F)c5ccc2[nH]5)C=C4)C=C3)cc1)=C(\C)C(=O)NCc1cscc1C
REMARK SMILES IDX 7 1 6 2 5 3 3 4 4 5 2 7 1 8 75 9 76 10 77 11 78 12 79 13
REMARK SMILES IDX 80 15 81 16 82 17 85 18 83 19 84 20 86 21 8 22 9 23 10 24
REMARK SMILES IDX 11 26 12 27 13 28 74 29 14 30 73 31 15 32 16 33 17 34 67 35
REMARK SMILES IDX 18 36 72 37 66 38 68 39 19 40 71 41 65 42 64 43 20 45 52 46
REMARK SMILES IDX 32 47 51 48 33 49 36 50 50 51 69 52 34 53 35 54 49 56 70 57
REMARK SMILES IDX 37 58 21 59 22 60 30 61 23 62 25 63 31 64 24 65 26 66 27 67
REMARK SMILES IDX 28 68 29 69 53 70 54 71 62 72 55 73 57 74 63 75 56 76 58 77
REMARK SMILES IDX 59 78 60 79 61 80 38 81 39 82 47 83 40 84 42 85 48 86 41 87
REMARK SMILES IDX 43 88 44 89 45 90 46 91
REMARK H PARENT 5 6 79 14 9 25 68 44 36 55
REMARK Flexibility Score: inf
ROOT
ATOM      1  C   UNL A   1      31.424  32.260  26.484  1.00  0.00     0.042 C 
ENDROOT
BRANCH   1   2
ATOM      2  C   UNL A   1      31.376  30.731  26.371  1.00  0.00     0.118 C 
BRANCH   2   3
ATOM      3  N   UNL A   1      32.509  30.234  25.602  1.00  0.00    -0.352 N 
ATOM      4  C   UNL A   1      32.677  29.159  24.780  1.00  0.00     0.247 C 
ATOM      5  O   UNL A   1      33.829  28.805  24.526  1.00  0.00    -0.270 OA
ATOM      6  H   UNL A   1      33.319  30.786  25.697  1.00  0.00     0.163 HD
BRANCH   4   7
ATOM      7  C   UNL A   1      31.507  28.391  24.241  1.00  0.00     0.022 C 
ATOM      8  C   UNL A   1      30.809  28.960  23.038  1.00  0.00     0.051 C 
ATOM      9  C   UNL A   1      31.002  27.316  24.907  1.00  0.00     0.022 C 
ATOM     10  C   UNL A   1      29.831  26.554  24.363  1.00  0.00     0.051 C 
BRANCH   9  11
ATOM     11  C   UNL A   1      31.682  26.774  26.127  1.00  0.00     0.247 C 
ATOM     12  O   UNL A   1      31.402  27.202  27.248  1.00  0.00    -0.270 OA
ATOM     13  N   UNL A   1      32.662  25.832  26.060  1.00  0.00    -0.348 N 
ATOM     14  H   UNL A   1      32.769  25.336  26.904  1.00  0.00     0.164 HD
BRANCH  13  15
ATOM     15  C   UNL A   1      33.586  25.390  25.029  1.00  0.00     0.153 C 
BRANCH  15  16
ATOM     16  C   UNL A   1      33.849  23.912  25.241  1.00  0.00    -0.015 A 
ATOM     17  C   UNL A   1      34.067  23.363  26.498  1.00  0.00     0.070 A 
ATOM     18  C   UNL A   1      33.901  22.872  24.227  1.00  0.00    -0.035 A 
ATOM     19  S   UNL A   1      34.390  21.693  26.473  1.00  0.00    -0.152 S 
ATOM     20  C   UNL A   1      34.209  21.641  24.783  1.00  0.00     0.068 A 
ATOM     21  C   UNL A   1      33.675  23.031  22.758  1.00  0.00     0.045 C 
ENDBRANCH  15  16
ENDBRANCH  13  15
ENDBRANCH   9  11
ENDBRANCH   4   7
ENDBRANCH   2   3
ENDBRANCH   1   2
BRANCH   1  22
ATOM     22  C   UNL A   1      32.686  32.792  27.163  1.00  0.00     0.118 C 
BRANCH  22  23
ATOM     23  N   UNL A   1      32.520  34.161  27.630  1.00  0.00    -0.352 N 
ATOM     24  C   UNL A   1      33.114  34.811  28.686  1.00  0.00     0.251 C 
ATOM     25  H   UNL A   1      31.886  34.705  27.111  1.00  0.00     0.163 HD
ATOM     26  O   UNL A   1      32.668  35.898  29.047  1.00  0.00    -0.269 OA
BRANCH  24  27
ATOM     27  C   UNL A   1      34.273  34.219  29.395  1.00  0.00     0.039 A 
ATOM     28  C   UNL A   1      34.040  33.447  30.538  1.00  0.00     0.014 A 
ATOM     29  C   UNL A   1      35.585  34.468  28.983  1.00  0.00     0.014 A 
ATOM     30  C   UNL A   1      35.116  32.888  31.239  1.00  0.00     0.010 A 
ATOM     31  C   UNL A   1      36.653  33.859  29.644  1.00  0.00     0.010 A 
ATOM     32  C   UNL A   1      36.431  33.070  30.783  1.00  0.00    -0.014 A 
BRANCH  32  33
ATOM     33  C   UNL A   1      37.586  32.446  31.483  1.00  0.00     0.031 A 
ATOM     34  C   UNL A   1      38.335  31.306  30.846  1.00  0.00     0.074 A 
ATOM     35  C   UNL A   1      37.909  32.851  32.728  1.00  0.00     0.049 A 
ATOM     36  N   UNL A   1      39.316  30.588  31.331  1.00  0.00    -0.248 NA
ATOM     37  C   UNL A   1      37.912  30.903  29.494  1.00  0.00     0.031 C 
ATOM     38  C   UNL A   1      37.219  33.901  33.481  1.00  0.00     0.029 A 
ATOM     39  N   UNL A   1      38.881  32.410  33.591  1.00  0.00    -0.354 N 
ATOM     40  C   UNL A   1      39.606  29.632  30.363  1.00  0.00     0.074 A 
ATOM     41  C   UNL A   1      38.674  29.839  29.276  1.00  0.00     0.031 C 
ATOM     42  C   UNL A   1      37.790  34.022  34.690  1.00  0.00     0.029 A 
ATOM     43  C   UNL A   1      38.865  33.043  34.812  1.00  0.00     0.049 A 
ATOM     44  H   UNL A   1      39.529  31.706  33.358  1.00  0.00     0.167 HD
ATOM     45  C   UNL A   1      40.577  28.687  30.363  1.00  0.00     0.034 A 
ATOM     46  C   UNL A   1      39.626  32.854  35.908  1.00  0.00     0.034 A 
ATOM     47  C   UNL A   1      41.531  28.513  31.425  1.00  0.00     0.049 A 
ATOM     48  C   UNL A   1      40.719  31.820  35.869  1.00  0.00     0.074 A 
ATOM     49  C   UNL A   1      42.595  27.630  31.492  1.00  0.00     0.029 A 
ATOM     50  N   UNL A   1      41.538  29.235  32.610  1.00  0.00    -0.354 N 
ATOM     51  N   UNL A   1      41.066  31.023  34.887  1.00  0.00    -0.248 NA
ATOM     52  C   UNL A   1      41.549  31.683  37.074  1.00  0.00     0.031 C 
ATOM     53  C   UNL A   1      43.239  27.812  32.720  1.00  0.00     0.029 A 
ATOM     54  C   UNL A   1      42.587  28.820  33.412  1.00  0.00     0.049 A 
ATOM     55  H   UNL A   1      40.892  29.939  32.844  1.00  0.00     0.167 HD
ATOM     56  C   UNL A   1      42.177  30.321  35.341  1.00  0.00     0.074 A 
ATOM     57  C   UNL A   1      42.457  30.801  36.679  1.00  0.00     0.031 C 
ATOM     58  C   UNL A   1      42.891  29.353  34.715  1.00  0.00     0.034 A 
BRANCH  45  59
ATOM     59  C   UNL A   1      40.702  27.811  29.142  1.00  0.00     0.023 A 
ATOM     60  C   UNL A   1      39.898  26.659  29.034  1.00  0.00     0.012 A 
ATOM     61  C   UNL A   1      41.563  28.154  28.080  1.00  0.00     0.148 A 
ATOM     62  C   UNL A   1      39.971  25.841  27.908  1.00  0.00     0.002 A 
ATOM     63  C   UNL A   1      41.599  27.357  26.940  1.00  0.00     0.091 A 
ATOM     64  F   UNL A   1      42.334  29.244  28.206  1.00  0.00    -0.205 F 
ATOM     65  C   UNL A   1      40.813  26.195  26.859  1.00  0.00     0.022 A 
BRANCH  63  66
ATOM     66  S   UNL A   1      42.592  27.767  25.500  1.00  0.00     0.127 S 
ATOM     67  O   UNL A   1      41.914  28.964  25.005  1.00  0.00    -0.237 OA
ATOM     68  O   UNL A   1      43.908  28.013  26.092  1.00  0.00    -0.237 OA
ATOM     69  O   UNL A   1      42.529  26.604  24.625  1.00  0.00    -0.744 OA
ENDBRANCH  63  66
ENDBRANCH  45  59
BRANCH  46  70
ATOM     70  C   UNL A   1      39.434  33.716  37.110  1.00  0.00     0.023 A 
ATOM     71  C   UNL A   1      39.895  35.047  37.080  1.00  0.00     0.012 A 
ATOM     72  C   UNL A   1      38.787  33.239  38.267  1.00  0.00     0.148 A 
ATOM     73  C   UNL A   1      39.746  35.877  38.192  1.00  0.00     0.002 A 
ATOM     74  C   UNL A   1      38.594  34.089  39.351  1.00  0.00     0.091 A 
ATOM     75  F   UNL A   1      38.369  31.966  38.284  1.00  0.00    -0.205 F 
ATOM     76  C   UNL A   1      39.087  35.402  39.323  1.00  0.00     0.022 A 
BRANCH  74  77
ATOM     77  S   UNL A   1      37.640  33.601  40.793  1.00  0.00     0.127 S 
ATOM     78  O   UNL A   1      38.496  32.578  41.388  1.00  0.00    -0.237 OA
ATOM     79  O   UNL A   1      37.561  34.852  41.547  1.00  0.00    -0.237 OA
ATOM     80  O   UNL A   1      36.359  33.137  40.273  1.00  0.00    -0.744 OA
ENDBRANCH  74  77
ENDBRANCH  46  70
BRANCH  58  81
ATOM     81  C   UNL A   1      44.073  28.773  35.445  1.00  0.00     0.023 A 
ATOM     82  C   UNL A   1      45.351  29.337  35.267  1.00  0.00     0.012 A 
ATOM     83  C   UNL A   1      43.903  27.717  36.364  1.00  0.00     0.148 A 
ATOM     84  C   UNL A   1      46.449  28.840  35.968  1.00  0.00     0.002 A 
ATOM     85  C   UNL A   1      44.994  27.258  37.093  1.00  0.00     0.091 A 
ATOM     86  F   UNL A   1      42.683  27.180  36.504  1.00  0.00    -0.205 F 
ATOM     87  C   UNL A   1      46.268  27.811  36.889  1.00  0.00     0.022 A 
BRANCH  85  88
ATOM     88  S   UNL A   1      44.836  26.001  38.367  1.00  0.00     0.127 S 
ATOM     89  O   UNL A   1      46.221  25.848  38.808  1.00  0.00    -0.237 OA
ATOM     90  O   UNL A   1      43.956  26.652  39.339  1.00  0.00    -0.237 OA
ATOM     91  O   UNL A   1      44.254  24.838  37.712  1.00  0.00    -0.744 OA
ENDBRANCH  85  88
ENDBRANCH  58  81
ENDBRANCH  32  33
ENDBRANCH  24  27
ENDBRANCH  22  23
ENDBRANCH   1  22
TORSDOF 16
ENDMDL
MODEL 2
REMARK VINA RESULT:     -11.3      3.930      8.998
REMARK SMILES C/C(C(=O)NCCCNC(=O)c1ccc(-c2c3nc(c(-c4cccc(S(=O)(=O)[O-])c4F)c4ccc([nH]4)c(-c4cccc(S(=O)(=O)[O-])c4F)c4nc(c(-c5cccc(S(=O)(=O)[O-])c5F)c5ccc2[nH]5)C=C4)C=C3)cc1)=C(\C)C(=O)NCc1cscc1C
REMARK SMILES IDX 7 1 6 2 5 3 3 4 4 5 2 7 1 8 75 9 76 10 77 11 78 12 79 13
REMARK SMILES IDX 80 15 81 16 82 17 85 18 83 19 84 20 86 21 8 22 9 23 10 24
REMARK SMILES IDX 11 26 12 27 13 28 74 29 14 30 73 31 15 32 16 33 17 34 67 35
REMARK SMILES IDX 18 36 72 37 66 38 68 39 19 40 71 41 65 42 64 43 20 45 52 46
REMARK SMILES IDX 32 47 51 48 33 49 36 50 50 51 69 52 34 53 35 54 49 56 70 57
REMARK SMILES IDX 37 58 21 59 22 60 30 61 23 62 25 63 31 64 24 65 26 66 27 67
REMARK SMILES IDX 28 68 29 69 53 70 54 71 62 72 55 73 57 74 63 75 56 76 58 77
REMARK SMILES IDX 59 78 60 79 61 80 38 81 39 82 47 83 40 84 42 85 48 86 41 87
REMARK SMILES IDX 43 88 44 89 45 90 46 91
REMARK H PARENT 5 6 79 14 9 25 68 44 36 55
REMARK Flexibility Score: inf
ROOT
ATOM      1  C   UNL A   1      32.816  27.783  26.766  1.00  0.00     0.042 C 
ENDROOT
BRANCH   1   2
ATOM      2  C   UNL A   1      32.647  26.406  26.113  1.00  0.00     0.118 C 
BRANCH   2   3
ATOM      3  N   UNL A   1      33.927  25.895  25.642  1.00  0.00    -0.352 N 
ATOM      4  C   UNL A   1      34.420  24.636  25.463  1.00  0.00     0.247 C 
ATOM      5  O   UNL A   1      35.640  24.506  25.363  1.00  0.00    -0.270 OA
ATOM      6  H   UNL A   1      34.568  26.605  25.405  1.00  0.00     0.163 HD
BRANCH   4   7
ATOM      7  C   UNL A   1      33.521  23.436  25.443  1.00  0.00     0.022 C 
ATOM      8  C   UNL A   1      33.151  22.834  26.769  1.00  0.00     0.051 C 
ATOM      9  C   UNL A   1      33.187  22.825  24.273  1.00  0.00     0.022 C 
ATOM     10  C   UNL A   1      32.289  21.625  24.259  1.00  0.00     0.051 C 
BRANCH   9  11
ATOM     11  C   UNL A   1      33.589  23.411  22.953  1.00  0.00     0.247 C 
ATOM     12  O   UNL A   1      34.708  23.196  22.483  1.00  0.00    -0.270 OA
ATOM     13  N   UNL A   1      32.774  24.235  22.241  1.00  0.00    -0.348 N 
ATOM     14  H   UNL A   1      33.006  24.263  21.284  1.00  0.00     0.164 HD
BRANCH  13  15
ATOM     15  C   UNL A   1      31.640  25.084  22.568  1.00  0.00     0.153 C 
BRANCH  15  16
ATOM     16  C   UNL A   1      32.127  26.520  22.596  1.00  0.00    -0.015 A 
ATOM     17  C   UNL A   1      33.438  26.873  22.302  1.00  0.00     0.070 A 
ATOM     18  C   UNL A   1      31.347  27.708  22.904  1.00  0.00    -0.035 A 
ATOM     19  S   UNL A   1      33.752  28.538  22.452  1.00  0.00    -0.152 S 
ATOM     20  C   UNL A   1      32.134  28.848  22.877  1.00  0.00     0.068 A 
ATOM     21  C   UNL A   1      29.890  27.772  23.229  1.00  0.00     0.045 C 
ENDBRANCH  15  16
ENDBRANCH  13  15
ENDBRANCH   9  11
ENDBRANCH   4   7
ENDBRANCH   2   3
ENDBRANCH   1   2
BRANCH   1  22
ATOM     22  C   UNL A   1      33.941  28.623  26.160  1.00  0.00     0.118 C 
BRANCH  22  23
ATOM     23  N   UNL A   1      33.840  30.025  26.536  1.00  0.00    -0.352 N 
ATOM     24  C   UNL A   1      34.589  30.755  27.428  1.00  0.00     0.251 C 
ATOM     25  H   UNL A   1      33.127  30.529  26.082  1.00  0.00     0.163 HD
ATOM     26  O   UNL A   1      34.197  31.870  27.767  1.00  0.00    -0.269 OA
BRANCH  24  27
ATOM     27  C   UNL A   1      35.851  30.217  27.990  1.00  0.00     0.039 A 
ATOM     28  C   UNL A   1      35.835  29.669  29.277  1.00  0.00     0.014 A 
ATOM     29  C   UNL A   1      37.056  30.303  27.288  1.00  0.00     0.014 A 
ATOM     30  C   UNL A   1      37.014  29.167  29.840  1.00  0.00     0.010 A 
ATOM     31  C   UNL A   1      38.218  29.745  27.824  1.00  0.00     0.010 A 
ATOM     32  C   UNL A   1      38.212  29.180  29.108  1.00  0.00    -0.014 A 
BRANCH  32  33
ATOM     33  C   UNL A   1      39.467  28.609  29.667  1.00  0.00     0.031 A 
ATOM     34  C   UNL A   1      40.114  29.232  30.875  1.00  0.00     0.074 A 
ATOM     35  C   UNL A   1      40.068  27.579  29.038  1.00  0.00     0.049 A 
ATOM     36  N   UNL A   1      41.244  28.923  31.459  1.00  0.00    -0.248 NA
ATOM     37  C   UNL A   1      39.412  30.368  31.497  1.00  0.00     0.031 C 
ATOM     38  C   UNL A   1      39.577  26.928  27.821  1.00  0.00     0.029 A 
ATOM     39  N   UNL A   1      41.237  26.916  29.318  1.00  0.00    -0.354 N 
ATOM     40  C   UNL A   1      41.405  29.841  32.491  1.00  0.00     0.074 A 
ATOM     41  C   UNL A   1      40.273  30.741  32.433  1.00  0.00     0.031 C 
ATOM     42  C   UNL A   1      40.436  25.962  27.460  1.00  0.00     0.029 A 
ATOM     43  C   UNL A   1      41.552  25.941  28.400  1.00  0.00     0.049 A 
ATOM     44  H   UNL A   1      41.798  27.119  30.101  1.00  0.00     0.167 HD
ATOM     45  C   UNL A   1      42.387  29.913  33.422  1.00  0.00     0.034 A 
ATOM     46  C   UNL A   1      42.622  25.124  28.320  1.00  0.00     0.034 A 
ATOM     47  C   UNL A   1      43.487  28.990  33.505  1.00  0.00     0.049 A 
ATOM     48  C   UNL A   1      43.682  25.203  29.386  1.00  0.00     0.074 A 
ATOM     49  C   UNL A   1      44.497  28.935  34.449  1.00  0.00     0.029 A 
ATOM     50  N   UNL A   1      43.724  27.958  32.608  1.00  0.00    -0.354 N 
ATOM     51  N   UNL A   1      43.740  25.987  30.436  1.00  0.00    -0.248 NA
ATOM     52  C   UNL A   1      44.805  24.261  29.278  1.00  0.00     0.031 C 
ATOM     53  C   UNL A   1      45.350  27.876  34.119  1.00  0.00     0.029 A 
ATOM     54  C   UNL A   1      44.861  27.260  32.978  1.00  0.00     0.049 A 
ATOM     55  H   UNL A   1      43.165  27.752  31.825  1.00  0.00     0.167 HD
ATOM     56  C   UNL A   1      44.881  25.606  31.132  1.00  0.00     0.074 A 
ATOM     57  C   UNL A   1      45.473  24.508  30.397  1.00  0.00     0.031 C 
ATOM     58  C   UNL A   1      45.402  26.129  32.270  1.00  0.00     0.034 A 
BRANCH  45  59
ATOM     59  C   UNL A   1      42.279  30.988  34.474  1.00  0.00     0.023 A 
ATOM     60  C   UNL A   1      41.558  30.726  35.656  1.00  0.00     0.012 A 
ATOM     61  C   UNL A   1      42.934  32.226  34.325  1.00  0.00     0.148 A 
ATOM     62  C   UNL A   1      41.459  31.689  36.659  1.00  0.00     0.002 A 
ATOM     63  C   UNL A   1      42.867  33.166  35.349  1.00  0.00     0.091 A 
ATOM     64  F   UNL A   1      43.602  32.466  33.187  1.00  0.00    -0.205 F 
ATOM     65  C   UNL A   1      42.121  32.903  36.510  1.00  0.00     0.022 A 
BRANCH  63  66
ATOM     66  S   UNL A   1      43.749  34.731  35.289  1.00  0.00     0.127 S 
ATOM     67  O   UNL A   1      43.277  35.382  36.511  1.00  0.00    -0.237 OA
ATOM     68  O   UNL A   1      45.147  34.300  35.330  1.00  0.00    -0.237 OA
ATOM     69  O   UNL A   1      43.348  35.370  34.044  1.00  0.00    -0.744 OA
ENDBRANCH  63  66
ENDBRANCH  45  59
BRANCH  46  70
ATOM     70  C   UNL A   1      42.706  24.105  27.234  1.00  0.00     0.023 A 
ATOM     71  C   UNL A   1      43.437  24.404  26.068  1.00  0.00     0.012 A 
ATOM     72  C   UNL A   1      42.090  22.844  27.355  1.00  0.00     0.148 A 
ATOM     73  C   UNL A   1      43.524  23.480  25.026  1.00  0.00     0.002 A 
ATOM     74  C   UNL A   1      42.226  21.908  26.335  1.00  0.00     0.091 A 
ATOM     75  F   UNL A   1      41.386  22.583  28.465  1.00  0.00    -0.205 F 
ATOM     76  C   UNL A   1      42.928  22.229  25.163  1.00  0.00     0.022 A 
BRANCH  74  77
ATOM     77  S   UNL A   1      41.605  20.229  26.486  1.00  0.00     0.127 S 
ATOM     78  O   UNL A   1      40.161  20.434  26.407  1.00  0.00    -0.237 OA
ATOM     79  O   UNL A   1      42.199  19.576  25.320  1.00  0.00    -0.237 OA
ATOM     80  O   UNL A   1      42.110  19.741  27.764  1.00  0.00    -0.744 OA
ENDBRANCH  74  77
ENDBRANCH  46  70
BRANCH  58  81
ATOM     81  C   UNL A   1      46.654  25.498  32.820  1.00  0.00     0.023 A 
ATOM     82  C   UNL A   1      47.915  26.000  32.439  1.00  0.00     0.012 A 
ATOM     83  C   UNL A   1      46.580  24.459  33.768  1.00  0.00     0.148 A 
ATOM     84  C   UNL A   1      49.083  25.457  32.972  1.00  0.00     0.002 A 
ATOM     85  C   UNL A   1      47.748  23.954  34.329  1.00  0.00     0.091 A 
ATOM     86  F   UNL A   1      45.372  23.981  34.102  1.00  0.00    -0.205 F 
ATOM     87  C   UNL A   1      48.999  24.444  33.924  1.00  0.00     0.022 A 
BRANCH  85  88
ATOM     88  S   UNL A   1      47.730  22.715  35.630  1.00  0.00     0.127 S 
ATOM     89  O   UNL A   1      46.903  23.362  36.646  1.00  0.00    -0.237 OA
ATOM     90  O   UNL A   1      47.098  21.575  34.965  1.00  0.00    -0.237 OA
ATOM     91  O   UNL A   1      49.123  22.501  35.999  1.00  0.00    -0.744 OA
ENDBRANCH  85  88
ENDBRANCH  58  81
ENDBRANCH  32  33
ENDBRANCH  24  27
ENDBRANCH  22  23
ENDBRANCH   1  22
TORSDOF 16
ENDMDL
MODEL 3
REMARK VINA RESULT:     -11.3      4.046      9.318
REMARK SMILES C/C(C(=O)NCCCNC(=O)c1ccc(-c2c3nc(c(-c4cccc(S(=O)(=O)[O-])c4F)c4ccc([nH]4)c(-c4cccc(S(=O)(=O)[O-])c4F)c4nc(c(-c5cccc(S(=O)(=O)[O-])c5F)c5ccc2[nH]5)C=C4)C=C3)cc1)=C(\C)C(=O)NCc1cscc1C
REMARK SMILES IDX 7 1 6 2 5 3 3 4 4 5 2 7 1 8 75 9 76 10 77 11 78 12 79 13
REMARK SMILES IDX 80 15 81 16 82 17 85 18 83 19 84 20 86 21 8 22 9 23 10 24
REMARK SMILES IDX 11 26 12 27 13 28 74 29 14 30 73 31 15 32 16 33 17 34 67 35
REMARK SMILES IDX 18 36 72 37 66 38 68 39 19 40 71 41 65 42 64 43 20 45 52 46
REMARK SMILES IDX 32 47 51 48 33 49 36 50 50 51 69 52 34 53 35 54 49 56 70 57
REMARK SMILES IDX 37 58 21 59 22 60 30 61 23 62 25 63 31 64 24 65 26 66 27 67
REMARK SMILES IDX 28 68 29 69 53 70 54 71 62 72 55 73 57 74 63 75 56 76 58 77
REMARK SMILES IDX 59 78 60 79 61 80 38 81 39 82 47 83 40 84 42 85 48 86 41 87
REMARK SMILES IDX 43 88 44 89 45 90 46 91
REMARK H PARENT 5 6 79 14 9 25 68 44 36 55
REMARK Flexibility Score: inf
ROOT
ATOM      1  C   UNL A   1      32.863  27.688  26.852  1.00  0.00     0.042 C 
ENDROOT
BRANCH   1   2
ATOM      2  C   UNL A   1      32.673  26.354  26.117  1.00  0.00     0.118 C 
BRANCH   2   3
ATOM      3  N   UNL A   1      33.952  25.832  25.654  1.00  0.00    -0.352 N 
ATOM      4  C   UNL A   1      34.430  24.569  25.468  1.00  0.00     0.247 C 
ATOM      5  O   UNL A   1      35.650  24.424  25.379  1.00  0.00    -0.270 OA
ATOM      6  H   UNL A   1      34.603  26.536  25.429  1.00  0.00     0.163 HD
BRANCH   4   7
ATOM      7  C   UNL A   1      33.517  23.380  25.429  1.00  0.00     0.022 C 
ATOM      8  C   UNL A   1      33.135  22.764  26.745  1.00  0.00     0.051 C 
ATOM      9  C   UNL A   1      33.180  22.790  24.249  1.00  0.00     0.022 C 
ATOM     10  C   UNL A   1      32.267  21.601  24.216  1.00  0.00     0.051 C 
BRANCH   9  11
ATOM     11  C   UNL A   1      33.593  23.389  22.939  1.00  0.00     0.247 C 
ATOM     12  O   UNL A   1      34.718  23.184  22.479  1.00  0.00    -0.270 OA
ATOM     13  N   UNL A   1      32.782  24.216  22.225  1.00  0.00    -0.348 N 
ATOM     14  H   UNL A   1      33.024  24.253  21.271  1.00  0.00     0.164 HD
BRANCH  13  15
ATOM     15  C   UNL A   1      31.640  25.056  22.547  1.00  0.00     0.153 C 
BRANCH  15  16
ATOM     16  C   UNL A   1      32.119  26.494  22.592  1.00  0.00    -0.015 A 
ATOM     17  C   UNL A   1      33.423  26.860  22.284  1.00  0.00     0.070 A 
ATOM     18  C   UNL A   1      31.338  27.672  22.934  1.00  0.00    -0.035 A 
ATOM     19  S   UNL A   1      33.731  28.524  22.459  1.00  0.00    -0.152 S 
ATOM     20  C   UNL A   1      32.118  28.817  22.914  1.00  0.00     0.068 A 
ATOM     21  C   UNL A   1      29.885  27.722  23.283  1.00  0.00     0.045 C 
ENDBRANCH  15  16
ENDBRANCH  13  15
ENDBRANCH   9  11
ENDBRANCH   4   7
ENDBRANCH   2   3
ENDBRANCH   1   2
BRANCH   1  22
ATOM     22  C   UNL A   1      33.939  28.585  26.240  1.00  0.00     0.118 C 
BRANCH  22  23
ATOM     23  N   UNL A   1      33.789  29.974  26.649  1.00  0.00    -0.352 N 
ATOM     24  C   UNL A   1      34.539  30.721  27.525  1.00  0.00     0.251 C 
ATOM     25  H   UNL A   1      33.036  30.452  26.233  1.00  0.00     0.163 HD
ATOM     26  O   UNL A   1      34.111  31.810  27.902  1.00  0.00    -0.269 OA
BRANCH  24  27
ATOM     27  C   UNL A   1      35.846  30.232  28.025  1.00  0.00     0.039 A 
ATOM     28  C   UNL A   1      35.911  29.672  29.305  1.00  0.00     0.014 A 
ATOM     29  C   UNL A   1      37.015  30.376  27.272  1.00  0.00     0.014 A 
ATOM     30  C   UNL A   1      37.134  29.215  29.811  1.00  0.00     0.010 A 
ATOM     31  C   UNL A   1      38.222  29.863  27.750  1.00  0.00     0.010 A 
ATOM     32  C   UNL A   1      38.296  29.286  29.027  1.00  0.00    -0.014 A 
BRANCH  32  33
ATOM     33  C   UNL A   1      39.598  28.763  29.524  1.00  0.00     0.031 A 
ATOM     34  C   UNL A   1      40.330  29.474  30.631  1.00  0.00     0.074 A 
ATOM     35  C   UNL A   1      40.160  27.695  28.923  1.00  0.00     0.049 A 
ATOM     36  N   UNL A   1      41.506  29.215  31.144  1.00  0.00    -0.248 NA
ATOM     37  C   UNL A   1      39.666  30.647  31.224  1.00  0.00     0.031 C 
ATOM     38  C   UNL A   1      39.582  26.957  27.797  1.00  0.00     0.029 A 
ATOM     39  N   UNL A   1      41.355  27.061  29.156  1.00  0.00    -0.354 N 
ATOM     40  C   UNL A   1      41.736  30.204  32.094  1.00  0.00     0.074 A 
ATOM     41  C   UNL A   1      40.593  31.091  32.062  1.00  0.00     0.031 C 
ATOM     42  C   UNL A   1      40.422  25.973  27.439  1.00  0.00     0.029 A 
ATOM     43  C   UNL A   1      41.609  26.025  28.287  1.00  0.00     0.049 A 
ATOM     44  H   UNL A   1      41.972  27.323  29.876  1.00  0.00     0.167 HD
ATOM     45  C   UNL A   1      42.787  30.348  32.937  1.00  0.00     0.034 A 
ATOM     46  C   UNL A   1      42.678  25.212  28.181  1.00  0.00     0.034 A 
ATOM     47  C   UNL A   1      43.901  29.439  32.997  1.00  0.00     0.049 A 
ATOM     48  C   UNL A   1      43.817  25.372  29.152  1.00  0.00     0.074 A 
ATOM     49  C   UNL A   1      44.982  29.458  33.861  1.00  0.00     0.029 A 
ATOM     50  N   UNL A   1      44.079  28.348  32.159  1.00  0.00    -0.354 N 
ATOM     51  N   UNL A   1      43.948  26.228  30.136  1.00  0.00    -0.248 NA
ATOM     52  C   UNL A   1      44.940  24.432  29.022  1.00  0.00     0.031 C 
ATOM     53  C   UNL A   1      45.818  28.383  33.539  1.00  0.00     0.029 A 
ATOM     54  C   UNL A   1      45.249  27.686  32.486  1.00  0.00     0.049 A 
ATOM     55  H   UNL A   1      43.462  28.084  31.439  1.00  0.00     0.167 HD
ATOM     56  C   UNL A   1      45.144  25.905  30.765  1.00  0.00     0.074 A 
ATOM     57  C   UNL A   1      45.690  24.761  30.064  1.00  0.00     0.031 C 
ATOM     58  C   UNL A   1      45.746  26.510  31.819  1.00  0.00     0.034 A 
BRANCH  45  59
ATOM     59  C   UNL A   1      42.749  31.494  33.916  1.00  0.00     0.023 A 
ATOM     60  C   UNL A   1      43.314  32.732  33.550  1.00  0.00     0.012 A 
ATOM     61  C   UNL A   1      42.106  31.370  35.164  1.00  0.00     0.148 A 
ATOM     62  C   UNL A   1      43.274  33.820  34.421  1.00  0.00     0.002 A 
ATOM     63  C   UNL A   1      42.032  32.472  36.011  1.00  0.00     0.091 A 
ATOM     64  F   UNL A   1      41.589  30.181  35.503  1.00  0.00    -0.205 F 
ATOM     65  C   UNL A   1      42.625  33.692  35.645  1.00  0.00     0.022 A 
BRANCH  63  66
ATOM     66  S   UNL A   1      41.151  32.435  37.576  1.00  0.00     0.127 S 
ATOM     67  O   UNL A   1      42.005  31.556  38.375  1.00  0.00    -0.237 OA
ATOM     68  O   UNL A   1      41.179  33.842  37.979  1.00  0.00    -0.237 OA
ATOM     69  O   UNL A   1      39.824  31.917  37.278  1.00  0.00    -0.744 OA
ENDBRANCH  63  66
ENDBRANCH  45  59
BRANCH  46  70
ATOM     70  C   UNL A   1      42.689  24.119  27.166  1.00  0.00     0.023 A 
ATOM     71  C   UNL A   1      43.372  24.318  25.950  1.00  0.00     0.012 A 
ATOM     72  C   UNL A   1      42.051  22.885  27.400  1.00  0.00     0.148 A 
ATOM     73  C   UNL A   1      43.390  23.323  24.972  1.00  0.00     0.002 A 
ATOM     74  C   UNL A   1      42.119  21.878  26.444  1.00  0.00     0.091 A 
ATOM     75  F   UNL A   1      41.393  22.719  28.556  1.00  0.00    -0.205 F 
ATOM     76  C   UNL A   1      42.773  22.100  25.222  1.00  0.00     0.022 A 
BRANCH  74  77
ATOM     77  S   UNL A   1      41.467  20.230  26.738  1.00  0.00     0.127 S 
ATOM     78  O   UNL A   1      40.042  20.497  26.913  1.00  0.00    -0.237 OA
ATOM     79  O   UNL A   1      41.817  19.535  25.499  1.00  0.00    -0.237 OA
ATOM     80  O   UNL A   1      42.172  19.738  27.916  1.00  0.00    -0.744 OA
ENDBRANCH  74  77
ENDBRANCH  46  70
BRANCH  58  81
ATOM     81  C   UNL A   1      47.045  25.928  32.311  1.00  0.00     0.023 A 
ATOM     82  C   UNL A   1      47.049  25.080  33.437  1.00  0.00     0.012 A 
ATOM     83  C   UNL A   1      48.248  26.161  31.615  1.00  0.00     0.148 A 
ATOM     84  C   UNL A   1      48.236  24.498  33.880  1.00  0.00     0.002 A 
ATOM     85  C   UNL A   1      49.418  25.540  32.036  1.00  0.00     0.091 A 
ATOM     86  F   UNL A   1      48.227  26.987  30.559  1.00  0.00    -0.205 F 
ATOM     87  C   UNL A   1      49.416  24.717  33.173  1.00  0.00     0.022 A 
BRANCH  85  88
ATOM     88  S   UNL A   1      50.963  25.691  31.132  1.00  0.00     0.127 S 
ATOM     89  O   UNL A   1      50.593  25.167  29.819  1.00  0.00    -0.237 OA
ATOM     90  O   UNL A   1      51.204  27.134  31.167  1.00  0.00    -0.237 OA
ATOM     91  O   UNL A   1      51.939  24.900  31.870  1.00  0.00    -0.744 OA
ENDBRANCH  85  88
ENDBRANCH  58  81
ENDBRANCH  32  33
ENDBRANCH  24  27
ENDBRANCH  22  23
ENDBRANCH   1  22
TORSDOF 16
ENDMDL
