MODEL 1
REMARK VINA RESULT:     -11.8      0.000      0.000
REMARK SMILES CO[C@@H]1C[C@H](C(=O)NCCCNC(=O)c2ccc(-c3c4nc(c(-c5cccc(S(=O)(=O)[O-])c5F)c5ccc([nH]5)c(-c5cccc(S(=O)(=O)[O-])c5F)c5nc(c(-c6cccc(S(=O)(=O)[O-])c6F)c6ccc3[nH]6)C=C5)C=C4)cc2)N(C(=O)c2ncc(Cl)c(Cl)c2Cl)C1
REMARK SMILES IDX 10 1 9 2 8 3 6 4 7 5 5 7 3 8 4 9 90 10 78 11 2 12 1 13 79 14
REMARK SMILES IDX 80 15 81 16 82 17 88 18 83 19 86 20 89 21 84 22 87 23 85 24
REMARK SMILES IDX 11 25 12 26 13 27 14 29 15 30 16 31 77 32 17 33 76 34 18 35
REMARK SMILES IDX 19 36 20 37 70 38 21 39 75 40 69 41 71 42 22 43 74 44 68 45
REMARK SMILES IDX 67 46 23 48 55 49 35 50 54 51 36 52 39 53 53 54 72 55 37 56
REMARK SMILES IDX 38 57 52 59 73 60 40 61 24 62 25 63 33 64 26 65 28 66 34 67
REMARK SMILES IDX 27 68 29 69 30 70 31 71 32 72 56 73 57 74 65 75 58 76 60 77
REMARK SMILES IDX 66 78 59 79 61 80 62 81 63 82 64 83 41 84 42 85 50 86 43 87
REMARK SMILES IDX 45 88 51 89 44 90 46 91 47 92 48 93 49 94
REMARK H PARENT 8 6 12 28 71 47 39 58
REMARK Flexibility Score: inf
ROOT
ATOM      1  C   UNL A   1      33.202  28.019  26.866  1.00  0.00     0.042 C 
ENDROOT
BRANCH   1   2
ATOM      2  C   UNL A   1      33.104  26.682  26.123  1.00  0.00     0.117 C 
BRANCH   2   3
ATOM      3  N   UNL A   1      31.942  25.898  26.516  1.00  0.00    -0.354 N 
ATOM      4  C   UNL A   1      31.021  25.162  25.849  1.00  0.00     0.242 C 
ATOM      5  O   UNL A   1      30.150  24.639  26.564  1.00  0.00    -0.273 OA
ATOM      6  H   UNL A   1      31.791  25.904  27.489  1.00  0.00     0.163 HD
BRANCH   4   7
ATOM      7  C   UNL A   1      30.876  25.004  24.316  1.00  0.00     0.177 C 
ATOM      8  C   UNL A   1      30.288  27.073  23.269  1.00  0.00     0.139 C 
ATOM      9  C   UNL A   1      29.680  25.755  23.738  1.00  0.00     0.069 C 
ATOM     10  C   UNL A   1      31.684  26.648  22.761  1.00  0.00     0.152 C 
ATOM     11  N   UNL A   1      31.949  25.352  23.392  1.00  0.00    -0.323 N 
BRANCH   8  12
ATOM     12  O   UNL A   1      30.424  28.010  24.331  1.00  0.00    -0.380 OA
ATOM     13  C   UNL A   1      31.150  29.188  23.990  1.00  0.00     0.195 C 
ENDBRANCH   8  12
BRANCH  11  14
ATOM     14  C   UNL A   1      32.837  24.457  22.802  1.00  0.00     0.274 C 
ATOM     15  O   UNL A   1      33.376  24.640  21.716  1.00  0.00    -0.267 OA
BRANCH  14  16
ATOM     16  C   UNL A   1      33.002  23.133  23.470  1.00  0.00     0.148 A 
ATOM     17  N   UNL A   1      32.141  22.159  23.071  1.00  0.00    -0.248 NA
ATOM     18  C   UNL A   1      34.099  22.917  24.309  1.00  0.00     0.092 A 
ATOM     19  C   UNL A   1      32.388  20.912  23.532  1.00  0.00     0.134 A 
ATOM     20  C   UNL A   1      34.343  21.601  24.726  1.00  0.00     0.082 A 
ATOM     21  Cl  UNL A   1      35.162  24.215  24.752  1.00  0.00    -0.080 Cl
ATOM     22  C   UNL A   1      33.470  20.579  24.336  1.00  0.00     0.079 A 
ATOM     23  Cl  UNL A   1      35.750  21.224  25.678  1.00  0.00    -0.081 Cl
ATOM     24  Cl  UNL A   1      33.679  18.928  24.791  1.00  0.00    -0.081 Cl
ENDBRANCH  14  16
ENDBRANCH  11  14
ENDBRANCH   4   7
ENDBRANCH   2   3
ENDBRANCH   1   2
BRANCH   1  25
ATOM     25  C   UNL A   1      34.046  29.088  26.177  1.00  0.00     0.118 C 
BRANCH  25  26
ATOM     26  N   UNL A   1      33.834  30.405  26.754  1.00  0.00    -0.352 N 
ATOM     27  C   UNL A   1      34.485  31.023  27.796  1.00  0.00     0.251 C 
ATOM     28  H   UNL A   1      33.117  30.934  26.336  1.00  0.00     0.163 HD
ATOM     29  O   UNL A   1      33.983  32.026  28.299  1.00  0.00    -0.269 OA
BRANCH  27  30
ATOM     30  C   UNL A   1      35.776  30.507  28.321  1.00  0.00     0.039 A 
ATOM     31  C   UNL A   1      36.945  30.747  27.589  1.00  0.00     0.014 A 
ATOM     32  C   UNL A   1      35.841  29.722  29.475  1.00  0.00     0.014 A 
ATOM     33  C   UNL A   1      38.170  30.224  28.024  1.00  0.00     0.010 A 
ATOM     34  C   UNL A   1      37.073  29.268  29.950  1.00  0.00     0.010 A 
ATOM     35  C   UNL A   1      38.250  29.490  29.218  1.00  0.00    -0.014 A 
BRANCH  35  36
ATOM     36  C   UNL A   1      39.538  28.913  29.694  1.00  0.00     0.031 A 
ATOM     37  C   UNL A   1      40.292  29.569  30.825  1.00  0.00     0.074 A 
ATOM     38  C   UNL A   1      40.075  27.847  29.067  1.00  0.00     0.049 A 
ATOM     39  N   UNL A   1      41.457  29.258  31.332  1.00  0.00    -0.248 NA
ATOM     40  C   UNL A   1      39.669  30.749  31.446  1.00  0.00     0.031 C 
ATOM     41  C   UNL A   1      39.491  27.161  27.914  1.00  0.00     0.029 A 
ATOM     42  N   UNL A   1      41.250  27.172  29.294  1.00  0.00    -0.354 N 
ATOM     43  C   UNL A   1      41.727  30.226  32.294  1.00  0.00     0.074 A 
ATOM     44  C   UNL A   1      40.618  31.154  32.277  1.00  0.00     0.031 C 
ATOM     45  C   UNL A   1      40.306  26.164  27.536  1.00  0.00     0.029 A 
ATOM     46  C   UNL A   1      41.484  26.153  28.399  1.00  0.00     0.049 A 
ATOM     47  H   UNL A   1      41.867  27.394  30.029  1.00  0.00     0.167 HD
ATOM     48  C   UNL A   1      42.783  30.321  33.138  1.00  0.00     0.034 A 
ATOM     49  C   UNL A   1      42.528  25.308  28.282  1.00  0.00     0.034 A 
ATOM     50  C   UNL A   1      43.854  29.363  33.201  1.00  0.00     0.049 A 
ATOM     51  C   UNL A   1      43.659  25.393  29.272  1.00  0.00     0.074 A 
ATOM     52  C   UNL A   1      44.914  29.315  34.089  1.00  0.00     0.029 A 
ATOM     53  N   UNL A   1      44.000  28.283  32.344  1.00  0.00    -0.354 N 
ATOM     54  N   UNL A   1      43.815  26.221  30.276  1.00  0.00    -0.248 NA
ATOM     55  C   UNL A   1      44.737  24.402  29.139  1.00  0.00     0.031 C 
ATOM     56  C   UNL A   1      45.713  28.215  33.757  1.00  0.00     0.029 A 
ATOM     57  C   UNL A   1      45.137  27.566  32.676  1.00  0.00     0.049 A 
ATOM     58  H   UNL A   1      43.387  28.060  31.606  1.00  0.00     0.167 HD
ATOM     59  C   UNL A   1      44.987  25.831  30.914  1.00  0.00     0.074 A 
ATOM     60  C   UNL A   1      45.491  24.680  30.195  1.00  0.00     0.031 C 
ATOM     61  C   UNL A   1      45.598  26.387  31.991  1.00  0.00     0.034 A 
BRANCH  48  62
ATOM     62  C   UNL A   1      42.804  31.475  34.108  1.00  0.00     0.023 A 
ATOM     63  C   UNL A   1      43.456  32.673  33.750  1.00  0.00     0.012 A 
ATOM     64  C   UNL A   1      42.140  31.398  35.348  1.00  0.00     0.148 A 
ATOM     65  C   UNL A   1      43.482  33.759  34.623  1.00  0.00     0.002 A 
ATOM     66  C   UNL A   1      42.130  32.501  36.195  1.00  0.00     0.091 A 
ATOM     67  F   UNL A   1      41.541  30.246  35.684  1.00  0.00    -0.205 F 
ATOM     68  C   UNL A   1      42.811  33.677  35.840  1.00  0.00     0.022 A 
BRANCH  66  69
ATOM     69  S   UNL A   1      41.227  32.521  37.749  1.00  0.00     0.127 S 
ATOM     70  O   UNL A   1      42.049  31.643  38.580  1.00  0.00    -0.237 OA
ATOM     71  O   UNL A   1      41.280  33.935  38.119  1.00  0.00    -0.237 OA
ATOM     72  O   UNL A   1      39.893  32.026  37.440  1.00  0.00    -0.744 OA
ENDBRANCH  66  69
ENDBRANCH  48  62
BRANCH  49  73
ATOM     73  C   UNL A   1      42.512  24.256  27.226  1.00  0.00     0.023 A 
ATOM     74  C   UNL A   1      43.384  24.371  26.125  1.00  0.00     0.012 A 
ATOM     75  C   UNL A   1      41.678  23.125  27.325  1.00  0.00     0.148 A 
ATOM     76  C   UNL A   1      43.405  23.394  25.129  1.00  0.00     0.002 A 
ATOM     77  C   UNL A   1      41.743  22.129  26.358  1.00  0.00     0.091 A 
ATOM     78  F   UNL A   1      40.846  23.041  28.373  1.00  0.00    -0.205 F 
ATOM     79  C   UNL A   1      42.595  22.269  25.251  1.00  0.00     0.022 A 
BRANCH  77  80
ATOM     80  S   UNL A   1      40.835  20.587  26.500  1.00  0.00     0.127 S 
ATOM     81  O   UNL A   1      41.585  19.712  25.604  1.00  0.00    -0.237 OA
ATOM     82  O   UNL A   1      40.976  20.280  27.924  1.00  0.00    -0.237 OA
ATOM     83  O   UNL A   1      39.469  20.895  26.089  1.00  0.00    -0.744 OA
ENDBRANCH  77  80
ENDBRANCH  49  73
BRANCH  61  84
ATOM     84  C   UNL A   1      46.864  25.742  32.489  1.00  0.00     0.023 A 
ATOM     85  C   UNL A   1      48.111  26.164  31.986  1.00  0.00     0.012 A 
ATOM     86  C   UNL A   1      46.824  24.781  33.520  1.00  0.00     0.148 A 
ATOM     87  C   UNL A   1      49.296  25.619  32.480  1.00  0.00     0.002 A 
ATOM     88  C   UNL A   1      48.011  24.277  34.039  1.00  0.00     0.091 A 
ATOM     89  F   UNL A   1      45.628  24.379  33.973  1.00  0.00    -0.205 F 
ATOM     90  C   UNL A   1      49.246  24.686  33.513  1.00  0.00     0.022 A 
BRANCH  88  91
ATOM     91  S   UNL A   1      48.045  23.145  35.434  1.00  0.00     0.127 S 
ATOM     92  O   UNL A   1      49.481  22.947  35.623  1.00  0.00    -0.237 OA
ATOM     93  O   UNL A   1      47.395  23.928  36.486  1.00  0.00    -0.237 OA
ATOM     94  O   UNL A   1      47.300  21.967  35.012  1.00  0.00    -0.744 OA
ENDBRANCH  88  91
ENDBRANCH  61  84
ENDBRANCH  35  36
ENDBRANCH  27  30
ENDBRANCH  25  26
ENDBRANCH   1  25
TORSDOF 16
ENDMDL
MODEL 2
REMARK VINA RESULT:     -11.7      1.615      2.163
REMARK SMILES CO[C@@H]1C[C@H](C(=O)NCCCNC(=O)c2ccc(-c3c4nc(c(-c5cccc(S(=O)(=O)[O-])c5F)c5ccc([nH]5)c(-c5cccc(S(=O)(=O)[O-])c5F)c5nc(c(-c6cccc(S(=O)(=O)[O-])c6F)c6ccc3[nH]6)C=C5)C=C4)cc2)N(C(=O)c2ncc(Cl)c(Cl)c2Cl)C1
REMARK SMILES IDX 10 1 9 2 8 3 6 4 7 5 5 7 3 8 4 9 90 10 78 11 2 12 1 13 79 14
REMARK SMILES IDX 80 15 81 16 82 17 88 18 83 19 86 20 89 21 84 22 87 23 85 24
REMARK SMILES IDX 11 25 12 26 13 27 14 29 15 30 16 31 77 32 17 33 76 34 18 35
REMARK SMILES IDX 19 36 20 37 70 38 21 39 75 40 69 41 71 42 22 43 74 44 68 45
REMARK SMILES IDX 67 46 23 48 55 49 35 50 54 51 36 52 39 53 53 54 72 55 37 56
REMARK SMILES IDX 38 57 52 59 73 60 40 61 24 62 25 63 33 64 26 65 28 66 34 67
REMARK SMILES IDX 27 68 29 69 30 70 31 71 32 72 56 73 57 74 65 75 58 76 60 77
REMARK SMILES IDX 66 78 59 79 61 80 62 81 63 82 64 83 41 84 42 85 50 86 43 87
REMARK SMILES IDX 45 88 51 89 44 90 46 91 47 92 48 93 49 94
REMARK H PARENT 8 6 12 28 71 47 39 58
REMARK Flexibility Score: inf
ROOT
ATOM      1  C   UNL A   1      33.393  27.831  26.745  1.00  0.00     0.042 C 
ENDROOT
BRANCH   1   2
ATOM      2  C   UNL A   1      32.929  26.617  25.932  1.00  0.00     0.117 C 
BRANCH   2   3
ATOM      3  N   UNL A   1      31.488  26.590  25.724  1.00  0.00    -0.354 N 
ATOM      4  C   UNL A   1      30.602  25.648  25.322  1.00  0.00     0.242 C 
ATOM      5  O   UNL A   1      29.422  26.031  25.260  1.00  0.00    -0.273 OA
ATOM      6  H   UNL A   1      31.059  27.454  25.923  1.00  0.00     0.163 HD
BRANCH   4   7
ATOM      7  C   UNL A   1      30.914  24.213  24.831  1.00  0.00     0.177 C 
ATOM      8  C   UNL A   1      32.170  24.232  22.796  1.00  0.00     0.139 C 
ATOM      9  C   UNL A   1      30.752  24.038  23.324  1.00  0.00     0.069 C 
ATOM     10  C   UNL A   1      33.041  23.595  23.902  1.00  0.00     0.152 C 
ATOM     11  N   UNL A   1      32.191  23.561  25.095  1.00  0.00    -0.323 N 
BRANCH   8  12
ATOM     12  O   UNL A   1      32.504  25.607  22.648  1.00  0.00    -0.380 OA
ATOM     13  C   UNL A   1      32.791  26.005  21.310  1.00  0.00     0.195 C 
ENDBRANCH   8  12
BRANCH  11  14
ATOM     14  C   UNL A   1      32.437  22.631  26.101  1.00  0.00     0.274 C 
ATOM     15  O   UNL A   1      32.377  22.885  27.300  1.00  0.00    -0.267 OA
BRANCH  14  16
ATOM     16  C   UNL A   1      32.962  21.302  25.676  1.00  0.00     0.148 A 
ATOM     17  N   UNL A   1      32.040  20.435  25.178  1.00  0.00    -0.248 NA
ATOM     18  C   UNL A   1      34.343  21.084  25.645  1.00  0.00     0.092 A 
ATOM     19  C   UNL A   1      32.520  19.297  24.626  1.00  0.00     0.134 A 
ATOM     20  C   UNL A   1      34.797  19.913  25.022  1.00  0.00     0.082 A 
ATOM     21  Cl  UNL A   1      35.452  22.255  26.284  1.00  0.00    -0.080 Cl
ATOM     22  C   UNL A   1      33.871  18.999  24.507  1.00  0.00     0.079 A 
ATOM     23  Cl  UNL A   1      36.502  19.616  24.839  1.00  0.00    -0.081 Cl
ATOM     24  Cl  UNL A   1      34.323  17.532  23.721  1.00  0.00    -0.081 Cl
ENDBRANCH  14  16
ENDBRANCH  11  14
ENDBRANCH   4   7
ENDBRANCH   2   3
ENDBRANCH   1   2
BRANCH   1  25
ATOM     25  C   UNL A   1      33.994  28.972  25.928  1.00  0.00     0.118 C 
BRANCH  25  26
ATOM     26  N   UNL A   1      33.836  30.256  26.587  1.00  0.00    -0.352 N 
ATOM     27  C   UNL A   1      34.536  30.795  27.642  1.00  0.00     0.251 C 
ATOM     28  H   UNL A   1      33.120  30.826  26.226  1.00  0.00     0.163 HD
ATOM     29  O   UNL A   1      34.077  31.778  28.220  1.00  0.00    -0.269 OA
BRANCH  27  30
ATOM     30  C   UNL A   1      35.829  30.218  28.092  1.00  0.00     0.039 A 
ATOM     31  C   UNL A   1      35.886  29.581  29.337  1.00  0.00     0.014 A 
ATOM     32  C   UNL A   1      37.002  30.369  27.347  1.00  0.00     0.014 A 
ATOM     33  C   UNL A   1      37.102  29.078  29.818  1.00  0.00     0.010 A 
ATOM     34  C   UNL A   1      38.197  29.799  27.792  1.00  0.00     0.010 A 
ATOM     35  C   UNL A   1      38.269  29.170  29.045  1.00  0.00    -0.014 A 
BRANCH  35  36
ATOM     36  C   UNL A   1      39.576  28.655  29.540  1.00  0.00     0.031 A 
ATOM     37  C   UNL A   1      40.293  29.362  30.665  1.00  0.00     0.074 A 
ATOM     38  C   UNL A   1      40.160  27.601  28.938  1.00  0.00     0.049 A 
ATOM     39  N   UNL A   1      41.466  29.107  31.187  1.00  0.00    -0.248 NA
ATOM     40  C   UNL A   1      39.618  30.526  31.260  1.00  0.00     0.031 C 
ATOM     41  C   UNL A   1      39.614  26.871  27.793  1.00  0.00     0.029 A 
ATOM     42  N   UNL A   1      41.360  26.978  29.185  1.00  0.00    -0.354 N 
ATOM     43  C   UNL A   1      41.689  30.103  32.132  1.00  0.00     0.074 A 
ATOM     44  C   UNL A   1      40.543  30.984  32.091  1.00  0.00     0.031 C 
ATOM     45  C   UNL A   1      40.472  25.901  27.439  1.00  0.00     0.029 A 
ATOM     46  C   UNL A   1      41.642  25.954  28.311  1.00  0.00     0.049 A 
ATOM     47  H   UNL A   1      41.962  27.238  29.920  1.00  0.00     0.167 HD
ATOM     48  C   UNL A   1      42.733  30.255  32.983  1.00  0.00     0.034 A 
ATOM     49  C   UNL A   1      42.720  25.149  28.217  1.00  0.00     0.034 A 
ATOM     50  C   UNL A   1      43.841  29.342  33.071  1.00  0.00     0.049 A 
ATOM     51  C   UNL A   1      43.839  25.298  29.213  1.00  0.00     0.074 A 
ATOM     52  C   UNL A   1      44.895  29.354  33.967  1.00  0.00     0.029 A 
ATOM     53  N   UNL A   1      44.038  28.254  32.235  1.00  0.00    -0.354 N 
ATOM     54  N   UNL A   1      43.953  26.150  30.203  1.00  0.00    -0.248 NA
ATOM     55  C   UNL A   1      44.958  24.350  29.106  1.00  0.00     0.031 C 
ATOM     56  C   UNL A   1      45.741  28.281  33.661  1.00  0.00     0.029 A 
ATOM     57  C   UNL A   1      45.200  27.590  32.588  1.00  0.00     0.049 A 
ATOM     58  H   UNL A   1      43.441  27.994  31.497  1.00  0.00     0.167 HD
ATOM     59  C   UNL A   1      45.135  25.819  30.857  1.00  0.00     0.074 A 
ATOM     60  C   UNL A   1      45.691  24.677  30.163  1.00  0.00     0.031 C 
ATOM     61  C   UNL A   1      45.714  26.418  31.928  1.00  0.00     0.034 A 
BRANCH  48  62
ATOM     62  C   UNL A   1      42.699  31.426  33.932  1.00  0.00     0.023 A 
ATOM     63  C   UNL A   1      43.331  32.634  33.568  1.00  0.00     0.012 A 
ATOM     64  C   UNL A   1      42.005  31.354  35.155  1.00  0.00     0.148 A 
ATOM     65  C   UNL A   1      43.307  33.735  34.422  1.00  0.00     0.002 A 
ATOM     66  C   UNL A   1      41.945  32.471  35.981  1.00  0.00     0.091 A 
ATOM     67  F   UNL A   1      41.426  30.193  35.496  1.00  0.00    -0.205 F 
ATOM     68  C   UNL A   1      42.606  33.658  35.622  1.00  0.00     0.022 A 
BRANCH  66  69
ATOM     69  S   UNL A   1      41.001  32.495  37.510  1.00  0.00     0.127 S 
ATOM     70  O   UNL A   1      40.876  33.930  37.757  1.00  0.00    -0.237 OA
ATOM     71  O   UNL A   1      39.756  31.835  37.115  1.00  0.00    -0.237 OA
ATOM     72  O   UNL A   1      41.796  31.757  38.481  1.00  0.00    -0.744 OA
ENDBRANCH  66  69
ENDBRANCH  48  62
BRANCH  49  73
ATOM     73  C   UNL A   1      42.756  24.079  27.180  1.00  0.00     0.023 A 
ATOM     74  C   UNL A   1      43.501  24.285  26.002  1.00  0.00     0.012 A 
ATOM     75  C   UNL A   1      42.099  22.848  27.370  1.00  0.00     0.148 A 
ATOM     76  C   UNL A   1      43.568  23.295  25.020  1.00  0.00     0.002 A 
ATOM     77  C   UNL A   1      42.213  21.846  26.414  1.00  0.00     0.091 A 
ATOM     78  F   UNL A   1      41.384  22.677  28.491  1.00  0.00    -0.205 F 
ATOM     79  C   UNL A   1      42.935  22.073  25.231  1.00  0.00     0.022 A 
BRANCH  77  80
ATOM     80  S   UNL A   1      41.544  20.198  26.658  1.00  0.00     0.127 S 
ATOM     81  O   UNL A   1      42.002  19.506  25.457  1.00  0.00    -0.237 OA
ATOM     82  O   UNL A   1      42.201  19.784  27.898  1.00  0.00    -0.237 OA
ATOM     83  O   UNL A   1      40.101  20.374  26.777  1.00  0.00    -0.744 OA
ENDBRANCH  77  80
ENDBRANCH  49  73
BRANCH  61  84
ATOM     84  C   UNL A   1      47.002  25.835  32.447  1.00  0.00     0.023 A 
ATOM     85  C   UNL A   1      46.982  24.980  33.566  1.00  0.00     0.012 A 
ATOM     86  C   UNL A   1      48.219  26.064  31.774  1.00  0.00     0.148 A 
ATOM     87  C   UNL A   1      48.157  24.384  34.025  1.00  0.00     0.002 A 
ATOM     88  C   UNL A   1      49.377  25.430  32.208  1.00  0.00     0.091 A 
ATOM     89  F   UNL A   1      48.220  26.896  30.722  1.00  0.00    -0.205 F 
ATOM     90  C   UNL A   1      49.350  24.599  33.338  1.00  0.00     0.022 A 
BRANCH  88  91
ATOM     91  S   UNL A   1      50.937  25.573  31.329  1.00  0.00     0.127 S 
ATOM     92  O   UNL A   1      51.252  26.990  31.508  1.00  0.00    -0.237 OA
ATOM     93  O   UNL A   1      51.801  24.658  32.076  1.00  0.00    -0.237 OA
ATOM     94  O   UNL A   1      50.665  25.160  29.959  1.00  0.00    -0.744 OA
ENDBRANCH  88  91
ENDBRANCH  61  84
ENDBRANCH  35  36
ENDBRANCH  27  30
ENDBRANCH  25  26
ENDBRANCH   1  25
TORSDOF 16
ENDMDL
MODEL 3
REMARK VINA RESULT:     -11.6      1.714      2.141
REMARK SMILES CO[C@@H]1C[C@H](C(=O)NCCCNC(=O)c2ccc(-c3c4nc(c(-c5cccc(S(=O)(=O)[O-])c5F)c5ccc([nH]5)c(-c5cccc(S(=O)(=O)[O-])c5F)c5nc(c(-c6cccc(S(=O)(=O)[O-])c6F)c6ccc3[nH]6)C=C5)C=C4)cc2)N(C(=O)c2ncc(Cl)c(Cl)c2Cl)C1
REMARK SMILES IDX 10 1 9 2 8 3 6 4 7 5 5 7 3 8 4 9 90 10 78 11 2 12 1 13 79 14
REMARK SMILES IDX 80 15 81 16 82 17 88 18 83 19 86 20 89 21 84 22 87 23 85 24
REMARK SMILES IDX 11 25 12 26 13 27 14 29 15 30 16 31 77 32 17 33 76 34 18 35
REMARK SMILES IDX 19 36 20 37 70 38 21 39 75 40 69 41 71 42 22 43 74 44 68 45
REMARK SMILES IDX 67 46 23 48 55 49 35 50 54 51 36 52 39 53 53 54 72 55 37 56
REMARK SMILES IDX 38 57 52 59 73 60 40 61 24 62 25 63 33 64 26 65 28 66 34 67
REMARK SMILES IDX 27 68 29 69 30 70 31 71 32 72 56 73 57 74 65 75 58 76 60 77
REMARK SMILES IDX 66 78 59 79 61 80 62 81 63 82 64 83 41 84 42 85 50 86 43 87
REMARK SMILES IDX 45 88 51 89 44 90 46 91 47 92 48 93 49 94
REMARK H PARENT 8 6 12 28 71 47 39 58
REMARK Flexibility Score: inf
ROOT
ATOM      1  C   UNL A   1      32.062  27.699  27.076  1.00  0.00     0.042 C 
ENDROOT
BRANCH   1   2
ATOM      2  C   UNL A   1      31.843  26.374  26.337  1.00  0.00     0.117 C 
BRANCH   2   3
ATOM      3  N   UNL A   1      30.560  26.311  25.651  1.00  0.00    -0.354 N 
ATOM      4  C   UNL A   1      30.169  26.385  24.356  1.00  0.00     0.242 C 
ATOM      5  O   UNL A   1      28.943  26.297  24.173  1.00  0.00    -0.273 OA
ATOM      6  H   UNL A   1      29.804  26.186  26.269  1.00  0.00     0.163 HD
BRANCH   4   7
ATOM      7  C   UNL A   1      31.056  26.677  23.122  1.00  0.00     0.177 C 
ATOM      8  C   UNL A   1      31.779  28.956  23.077  1.00  0.00     0.139 C 
ATOM      9  C   UNL A   1      30.750  28.016  22.458  1.00  0.00     0.069 C 
ATOM     10  C   UNL A   1      33.022  28.052  23.235  1.00  0.00     0.152 C 
ATOM     11  N   UNL A   1      32.512  26.679  23.193  1.00  0.00    -0.323 N 
BRANCH   8  12
ATOM     12  O   UNL A   1      31.367  29.440  24.350  1.00  0.00    -0.380 OA
ATOM     13  C   UNL A   1      30.342  30.429  24.303  1.00  0.00     0.195 C 
ENDBRANCH   8  12
BRANCH  11  14
ATOM     14  C   UNL A   1      33.347  25.636  22.803  1.00  0.00     0.274 C 
ATOM     15  O   UNL A   1      33.727  25.454  21.651  1.00  0.00    -0.267 OA
BRANCH  14  16
ATOM     16  C   UNL A   1      33.654  24.599  23.831  1.00  0.00     0.148 A 
ATOM     17  N   UNL A   1      34.703  24.873  24.652  1.00  0.00    -0.248 NA
ATOM     18  C   UNL A   1      32.777  23.524  24.007  1.00  0.00     0.092 A 
ATOM     19  C   UNL A   1      34.884  24.034  25.697  1.00  0.00     0.134 A 
ATOM     20  C   UNL A   1      32.976  22.708  25.129  1.00  0.00     0.082 A 
ATOM     21  Cl  UNL A   1      31.449  23.260  22.923  1.00  0.00    -0.080 Cl
ATOM     22  C   UNL A   1      34.051  22.962  25.989  1.00  0.00     0.079 A 
ATOM     23  Cl  UNL A   1      31.865  21.417  25.488  1.00  0.00    -0.081 Cl
ATOM     24  Cl  UNL A   1      34.383  22.022  27.396  1.00  0.00    -0.081 Cl
ENDBRANCH  14  16
ENDBRANCH  11  14
ENDBRANCH   4   7
ENDBRANCH   2   3
ENDBRANCH   1   2
BRANCH   1  25
ATOM     25  C   UNL A   1      33.448  28.315  26.914  1.00  0.00     0.118 C 
BRANCH  25  26
ATOM     26  N   UNL A   1      33.410  29.766  26.979  1.00  0.00    -0.352 N 
ATOM     27  C   UNL A   1      34.254  30.639  27.624  1.00  0.00     0.251 C 
ATOM     28  H   UNL A   1      32.669  30.187  26.487  1.00  0.00     0.163 HD
ATOM     29  O   UNL A   1      33.899  31.807  27.775  1.00  0.00    -0.269 OA
BRANCH  27  30
ATOM     30  C   UNL A   1      35.579  30.204  28.138  1.00  0.00     0.039 A 
ATOM     31  C   UNL A   1      36.674  30.209  27.266  1.00  0.00     0.014 A 
ATOM     32  C   UNL A   1      35.740  29.712  29.436  1.00  0.00     0.014 A 
ATOM     33  C   UNL A   1      37.924  29.748  27.701  1.00  0.00     0.010 A 
ATOM     34  C   UNL A   1      37.003  29.327  29.891  1.00  0.00     0.010 A 
ATOM     35  C   UNL A   1      38.105  29.314  29.023  1.00  0.00    -0.014 A 
BRANCH  35  36
ATOM     36  C   UNL A   1      39.421  28.808  29.504  1.00  0.00     0.031 A 
ATOM     37  C   UNL A   1      40.139  29.510  30.630  1.00  0.00     0.074 A 
ATOM     38  C   UNL A   1      40.012  27.765  28.886  1.00  0.00     0.049 A 
ATOM     39  N   UNL A   1      41.319  29.262  31.140  1.00  0.00    -0.248 NA
ATOM     40  C   UNL A   1      39.457  30.661  31.242  1.00  0.00     0.031 C 
ATOM     41  C   UNL A   1      39.464  27.041  27.738  1.00  0.00     0.029 A 
ATOM     42  N   UNL A   1      41.219  27.153  29.119  1.00  0.00    -0.354 N 
ATOM     43  C   UNL A   1      41.539  30.251  32.094  1.00  0.00     0.074 A 
ATOM     44  C   UNL A   1      40.384  31.121  32.070  1.00  0.00     0.031 C 
ATOM     45  C   UNL A   1      40.330  26.084  27.368  1.00  0.00     0.029 A 
ATOM     46  C   UNL A   1      41.505  26.140  28.232  1.00  0.00     0.049 A 
ATOM     47  H   UNL A   1      41.824  27.412  29.851  1.00  0.00     0.167 HD
ATOM     48  C   UNL A   1      42.587  30.406  32.938  1.00  0.00     0.034 A 
ATOM     49  C   UNL A   1      42.591  25.348  28.121  1.00  0.00     0.034 A 
ATOM     50  C   UNL A   1      43.706  29.504  33.009  1.00  0.00     0.049 A 
ATOM     51  C   UNL A   1      43.716  25.498  29.111  1.00  0.00     0.074 A 
ATOM     52  C   UNL A   1      44.767  29.518  33.897  1.00  0.00     0.029 A 
ATOM     53  N   UNL A   1      43.908  28.427  32.160  1.00  0.00    -0.354 N 
ATOM     54  N   UNL A   1      43.829  26.342  30.108  1.00  0.00    -0.248 NA
ATOM     55  C   UNL A   1      44.844  24.563  28.986  1.00  0.00     0.031 C 
ATOM     56  C   UNL A   1      45.621  28.457  33.574  1.00  0.00     0.029 A 
ATOM     57  C   UNL A   1      45.079  27.771  32.498  1.00  0.00     0.049 A 
ATOM     58  H   UNL A   1      43.307  28.167  31.424  1.00  0.00     0.167 HD
ATOM     59  C   UNL A   1      45.019  26.017  30.750  1.00  0.00     0.074 A 
ATOM     60  C   UNL A   1      45.582  24.887  30.040  1.00  0.00     0.031 C 
ATOM     61  C   UNL A   1      45.601  26.611  31.822  1.00  0.00     0.034 A 
BRANCH  48  62
ATOM     62  C   UNL A   1      42.549  31.567  33.899  1.00  0.00     0.023 A 
ATOM     63  C   UNL A   1      43.068  32.817  33.501  1.00  0.00     0.012 A 
ATOM     64  C   UNL A   1      41.958  31.442  35.171  1.00  0.00     0.148 A 
ATOM     65  C   UNL A   1      43.036  33.910  34.365  1.00  0.00     0.002 A 
ATOM     66  C   UNL A   1      41.888  32.548  36.011  1.00  0.00     0.091 A 
ATOM     67  F   UNL A   1      41.486  30.243  35.543  1.00  0.00    -0.205 F 
ATOM     68  C   UNL A   1      42.438  33.779  35.615  1.00  0.00     0.022 A 
BRANCH  66  69
ATOM     69  S   UNL A   1      41.065  32.501  37.608  1.00  0.00     0.127 S 
ATOM     70  O   UNL A   1      39.761  31.944  37.252  1.00  0.00    -0.237 OA
ATOM     71  O   UNL A   1      41.925  31.597  38.372  1.00  0.00    -0.237 OA
ATOM     72  O   UNL A   1      41.051  33.875  38.090  1.00  0.00    -0.744 OA
ENDBRANCH  66  69
ENDBRANCH  48  62
BRANCH  49  73
ATOM     73  C   UNL A   1      42.630  24.288  27.074  1.00  0.00     0.023 A 
ATOM     74  C   UNL A   1      43.350  24.520  25.885  1.00  0.00     0.012 A 
ATOM     75  C   UNL A   1      42.001  23.043  27.263  1.00  0.00     0.148 A 
ATOM     76  C   UNL A   1      43.419  23.542  24.893  1.00  0.00     0.002 A 
ATOM     77  C   UNL A   1      42.120  22.052  26.295  1.00  0.00     0.091 A 
ATOM     78  F   UNL A   1      41.311  22.846  28.396  1.00  0.00    -0.205 F 
ATOM     79  C   UNL A   1      42.815  22.305  25.102  1.00  0.00     0.022 A 
BRANCH  77  80
ATOM     80  S   UNL A   1      41.488  20.388  26.536  1.00  0.00     0.127 S 
ATOM     81  O   UNL A   1      41.978  20.070  27.873  1.00  0.00    -0.237 OA
ATOM     82  O   UNL A   1      40.043  20.595  26.440  1.00  0.00    -0.237 OA
ATOM     83  O   UNL A   1      42.051  19.594  25.449  1.00  0.00    -0.744 OA
ENDBRANCH  77  80
ENDBRANCH  49  73
BRANCH  61  84
ATOM     84  C   UNL A   1      46.898  26.036  32.326  1.00  0.00     0.023 A 
ATOM     85  C   UNL A   1      46.898  25.186  33.449  1.00  0.00     0.012 A 
ATOM     86  C   UNL A   1      48.104  26.269  31.635  1.00  0.00     0.148 A 
ATOM     87  C   UNL A   1      48.082  24.597  33.893  1.00  0.00     0.002 A 
ATOM     88  C   UNL A   1      49.272  25.642  32.055  1.00  0.00     0.091 A 
ATOM     89  F   UNL A   1      48.087  27.096  30.580  1.00  0.00    -0.205 F 
ATOM     90  C   UNL A   1      49.264  24.816  33.189  1.00  0.00     0.022 A 
BRANCH  88  91
ATOM     91  S   UNL A   1      50.819  25.789  31.154  1.00  0.00     0.127 S 
ATOM     92  O   UNL A   1      50.440  25.303  29.828  1.00  0.00    -0.237 OA
ATOM     93  O   UNL A   1      51.083  27.227  31.223  1.00  0.00    -0.237 OA
ATOM     94  O   UNL A   1      51.781  24.965  31.873  1.00  0.00    -0.744 OA
ENDBRANCH  88  91
ENDBRANCH  61  84
ENDBRANCH  35  36
ENDBRANCH  27  30
ENDBRANCH  25  26
ENDBRANCH   1  25
TORSDOF 16
ENDMDL
