MODEL 1
REMARK VINA RESULT:     -12.2      0.000      0.000
REMARK SMILES CC(C)[C@@H](CNC(=O)[C@@H]1CC[C@@H]2CCCC[C@@H]2[NH2+]1)C(=O)NCCCNC(=O)c1ccc(-c2c3nc(c(-c4cccc(S(=O)(=O)[O-])c4F)c4ccc([nH]4)c(-c4cccc(S(=O)(=O)[O-])c4F)c4nc(c(-c5cccc(S(=O)(=O)[O-])c5F)c5ccc2[nH]5)C=C4)C=C3)cc1
REMARK SMILES IDX 23 1 22 2 21 3 19 4 20 5 4 7 2 8 1 9 3 10 5 11 6 12 7 13
REMARK SMILES IDX 8 15 9 16 10 17 18 18 11 19 17 20 12 23 16 24 13 25 15 26
REMARK SMILES IDX 14 27 24 28 25 29 26 30 27 32 28 33 29 34 90 35 30 36 89 37
REMARK SMILES IDX 31 38 32 39 33 40 83 41 34 42 88 43 82 44 84 45 35 46 87 47
REMARK SMILES IDX 81 48 80 49 36 51 68 52 48 53 67 54 49 55 52 56 66 57 85 58
REMARK SMILES IDX 50 59 51 60 65 62 86 63 53 64 37 65 38 66 46 67 39 68 41 69
REMARK SMILES IDX 47 70 40 71 42 72 43 73 44 74 45 75 69 76 70 77 78 78 71 79
REMARK SMILES IDX 73 80 79 81 72 82 74 83 75 84 76 85 77 86 54 87 55 88 63 89
REMARK SMILES IDX 56 90 58 91 64 92 57 93 59 94 60 95 61 96 62 97
REMARK H PARENT 21 6 6 14 18 21 18 22 25 31 84 50 52 61
REMARK Flexibility Score: inf
ROOT
ATOM      1  C   UNL A   1      31.636  29.355  27.146  1.00  0.00     0.042 C 
ENDROOT
BRANCH   1   2
ATOM      2  C   UNL A   1      32.106  27.923  27.186  1.00  0.00     0.117 C 
BRANCH   2   3
ATOM      3  N   UNL A   1      31.010  26.973  27.135  1.00  0.00    -0.356 N 
ATOM      4  C   UNL A   1      30.559  26.201  26.117  1.00  0.00     0.225 C 
ATOM      5  O   UNL A   1      29.686  25.364  26.369  1.00  0.00    -0.275 OA
ATOM      6  H   UNL A   1      30.513  26.871  27.979  1.00  0.00     0.163 HD
BRANCH   4   7
ATOM      7  C   UNL A   1      31.138  26.297  24.716  1.00  0.00     0.100 C 
BRANCH   7   8
ATOM      8  C   UNL A   1      30.959  27.675  24.025  1.00  0.00    -0.003 C 
ATOM      9  C   UNL A   1      32.095  28.013  23.057  1.00  0.00     0.008 C 
ATOM     10  C   UNL A   1      29.622  27.703  23.262  1.00  0.00     0.008 C 
ENDBRANCH   7   8
BRANCH   7  11
ATOM     11  C   UNL A   1      32.499  25.581  24.696  1.00  0.00     0.129 C 
BRANCH  11  12
ATOM     12  N   UNL A   1      32.768  24.590  25.717  1.00  0.00    -0.350 N 
ATOM     13  C   UNL A   1      33.091  23.264  25.652  1.00  0.00     0.278 C 
ATOM     14  H   UNL A   1      32.705  24.939  26.636  1.00  0.00     0.163 HD
ATOM     15  O   UNL A   1      33.125  22.677  26.740  1.00  0.00    -0.268 OA
BRANCH  13  16
ATOM     16  C   UNL A   1      33.374  22.512  24.324  1.00  0.00     0.272 C 
ATOM     17  C   UNL A   1      33.736  21.036  24.602  1.00  0.00     0.076 C 
ATOM     18  N   UNL A   1      34.423  23.103  23.465  1.00  0.00    -0.333 N 
ATOM     19  C   UNL A   1      35.148  20.890  25.183  1.00  0.00     0.016 C 
ATOM     20  C   UNL A   1      35.803  23.011  23.953  1.00  0.00     0.186 C 
ATOM     21  H   UNL A   1      34.203  24.091  23.343  1.00  0.00     0.347 HD
ATOM     22  H   UNL A   1      34.406  22.553  22.605  1.00  0.00     0.347 HD
ATOM     23  C   UNL A   1      36.180  21.557  24.262  1.00  0.00     0.048 C 
ATOM     24  C   UNL A   1      36.123  23.986  25.097  1.00  0.00     0.065 C 
ATOM     25  C   UNL A   1      37.612  21.493  24.809  1.00  0.00     0.010 C 
ATOM     26  C   UNL A   1      37.475  23.815  25.769  1.00  0.00     0.006 C 
ATOM     27  C   UNL A   1      37.816  22.361  26.046  1.00  0.00     0.001 C 
ENDBRANCH  13  16
ENDBRANCH  11  12
ENDBRANCH   7  11
ENDBRANCH   4   7
ENDBRANCH   2   3
ENDBRANCH   1   2
BRANCH   1  28
ATOM     28  C   UNL A   1      32.570  30.226  26.335  1.00  0.00     0.118 C 
BRANCH  28  29
ATOM     29  N   UNL A   1      32.482  31.641  26.695  1.00  0.00    -0.352 N 
ATOM     30  C   UNL A   1      33.348  32.413  27.435  1.00  0.00     0.251 C 
ATOM     31  H   UNL A   1      31.686  32.112  26.357  1.00  0.00     0.163 HD
ATOM     32  O   UNL A   1      33.041  33.555  27.768  1.00  0.00    -0.269 OA
BRANCH  30  33
ATOM     33  C   UNL A   1      34.635  31.831  27.852  1.00  0.00     0.039 A 
ATOM     34  C   UNL A   1      35.753  32.651  28.001  1.00  0.00     0.014 A 
ATOM     35  C   UNL A   1      34.696  30.483  28.199  1.00  0.00     0.014 A 
ATOM     36  C   UNL A   1      36.903  32.134  28.599  1.00  0.00     0.010 A 
ATOM     37  C   UNL A   1      35.768  30.025  28.942  1.00  0.00     0.010 A 
ATOM     38  C   UNL A   1      36.899  30.832  29.128  1.00  0.00    -0.014 A 
BRANCH  38  39
ATOM     39  C   UNL A   1      38.060  30.264  29.858  1.00  0.00     0.031 A 
ATOM     40  C   UNL A   1      38.303  30.672  31.290  1.00  0.00     0.074 A 
ATOM     41  C   UNL A   1      38.959  29.497  29.207  1.00  0.00     0.049 A 
ATOM     42  N   UNL A   1      39.326  30.409  32.060  1.00  0.00    -0.248 NA
ATOM     43  C   UNL A   1      37.296  31.546  31.922  1.00  0.00     0.031 C 
ATOM     44  C   UNL A   1      38.904  29.133  27.788  1.00  0.00     0.029 A 
ATOM     45  N   UNL A   1      40.120  28.913  29.649  1.00  0.00    -0.354 N 
ATOM     46  C   UNL A   1      39.120  31.141  33.224  1.00  0.00     0.074 A 
ATOM     47  C   UNL A   1      37.904  31.899  33.043  1.00  0.00     0.031 C 
ATOM     48  C   UNL A   1      39.971  28.377  27.483  1.00  0.00     0.029 A 
ATOM     49  C   UNL A   1      40.803  28.228  28.671  1.00  0.00     0.049 A 
ATOM     50  H   UNL A   1      40.434  28.977  30.580  1.00  0.00     0.167 HD
ATOM     51  C   UNL A   1      39.851  31.149  34.361  1.00  0.00     0.034 A 
ATOM     52  C   UNL A   1      41.971  27.555  28.727  1.00  0.00     0.034 A 
ATOM     53  C   UNL A   1      40.989  30.301  34.576  1.00  0.00     0.049 A 
ATOM     54  C   UNL A   1      42.691  27.470  30.047  1.00  0.00     0.074 A 
ATOM     55  C   UNL A   1      41.707  30.109  35.741  1.00  0.00     0.029 A 
ATOM     56  N   UNL A   1      41.563  29.497  33.606  1.00  0.00    -0.354 N 
ATOM     57  N   UNL A   1      42.374  28.017  31.196  1.00  0.00    -0.248 NA
ATOM     58  C   UNL A   1      43.905  26.643  30.091  1.00  0.00     0.031 C 
ATOM     59  C   UNL A   1      42.728  29.192  35.471  1.00  0.00     0.029 A 
ATOM     60  C   UNL A   1      42.633  28.805  34.143  1.00  0.00     0.049 A 
ATOM     61  H   UNL A   1      41.256  29.428  32.673  1.00  0.00     0.167 HD
ATOM     62  C   UNL A   1      43.328  27.575  32.105  1.00  0.00     0.074 A 
ATOM     63  C   UNL A   1      44.220  26.694  31.378  1.00  0.00     0.031 C 
ATOM     64  C   UNL A   1      43.467  27.886  33.417  1.00  0.00     0.034 A 
BRANCH  51  65
ATOM     65  C   UNL A   1      39.397  32.038  35.487  1.00  0.00     0.023 A 
ATOM     66  C   UNL A   1      38.544  31.523  36.486  1.00  0.00     0.012 A 
ATOM     67  C   UNL A   1      39.858  33.364  35.590  1.00  0.00     0.148 A 
ATOM     68  C   UNL A   1      38.130  32.322  37.549  1.00  0.00     0.002 A 
ATOM     69  C   UNL A   1      39.480  34.140  36.680  1.00  0.00     0.091 A 
ATOM     70  F   UNL A   1      40.648  33.845  34.619  1.00  0.00    -0.205 F 
ATOM     71  C   UNL A   1      38.607  33.625  37.653  1.00  0.00     0.022 A 
BRANCH  69  72
ATOM     72  S   UNL A   1      40.106  35.802  36.951  1.00  0.00     0.127 S 
ATOM     73  O   UNL A   1      39.447  36.164  38.205  1.00  0.00    -0.237 OA
ATOM     74  O   UNL A   1      41.546  35.571  37.064  1.00  0.00    -0.237 OA
ATOM     75  O   UNL A   1      39.705  36.579  35.788  1.00  0.00    -0.744 OA
ENDBRANCH  69  72
ENDBRANCH  51  65
BRANCH  52  76
ATOM     76  C   UNL A   1      42.487  26.846  27.522  1.00  0.00     0.023 A 
ATOM     77  C   UNL A   1      43.250  27.558  26.576  1.00  0.00     0.012 A 
ATOM     78  C   UNL A   1      42.252  25.472  27.319  1.00  0.00     0.148 A 
ATOM     79  C   UNL A   1      43.737  26.926  25.430  1.00  0.00     0.002 A 
ATOM     80  C   UNL A   1      42.788  24.835  26.203  1.00  0.00     0.091 A 
ATOM     81  F   UNL A   1      41.515  24.811  28.222  1.00  0.00    -0.205 F 
ATOM     82  C   UNL A   1      43.514  25.563  25.249  1.00  0.00     0.022 A 
BRANCH  80  83
ATOM     83  S   UNL A   1      42.664  23.059  25.966  1.00  0.00     0.127 S 
ATOM     84  O   UNL A   1      43.523  22.552  27.033  1.00  0.00    -0.237 OA
ATOM     85  O   UNL A   1      41.232  22.822  26.164  1.00  0.00    -0.237 OA
ATOM     86  O   UNL A   1      43.124  22.817  24.605  1.00  0.00    -0.744 OA
ENDBRANCH  80  83
ENDBRANCH  52  76
BRANCH  64  87
ATOM     87  C   UNL A   1      44.602  27.246  34.170  1.00  0.00     0.023 A 
ATOM     88  C   UNL A   1      45.858  27.883  34.210  1.00  0.00     0.012 A 
ATOM     89  C   UNL A   1      44.395  26.069  34.913  1.00  0.00     0.148 A 
ATOM     90  C   UNL A   1      46.900  27.342  34.959  1.00  0.00     0.002 A 
ATOM     91  C   UNL A   1      45.424  25.561  35.697  1.00  0.00     0.091 A 
ATOM     92  F   UNL A   1      43.197  25.470  34.846  1.00  0.00    -0.205 F 
ATOM     93  C   UNL A   1      46.680  26.190  35.712  1.00  0.00     0.022 A 
BRANCH  91  94
ATOM     94  S   UNL A   1      45.197  24.144  36.776  1.00  0.00     0.127 S 
ATOM     95  O   UNL A   1      46.560  23.905  37.244  1.00  0.00    -0.237 OA
ATOM     96  O   UNL A   1      44.285  24.670  37.793  1.00  0.00    -0.237 OA
ATOM     97  O   UNL A   1      44.625  23.095  35.942  1.00  0.00    -0.744 OA
ENDBRANCH  91  94
ENDBRANCH  64  87
ENDBRANCH  38  39
ENDBRANCH  30  33
ENDBRANCH  28  29
ENDBRANCH   1  28
TORSDOF 17
ENDMDL
MODEL 2
REMARK VINA RESULT:     -12.0      2.305      3.158
REMARK SMILES CC(C)[C@@H](CNC(=O)[C@@H]1CC[C@@H]2CCCC[C@@H]2[NH2+]1)C(=O)NCCCNC(=O)c1ccc(-c2c3nc(c(-c4cccc(S(=O)(=O)[O-])c4F)c4ccc([nH]4)c(-c4cccc(S(=O)(=O)[O-])c4F)c4nc(c(-c5cccc(S(=O)(=O)[O-])c5F)c5ccc2[nH]5)C=C4)C=C3)cc1
REMARK SMILES IDX 23 1 22 2 21 3 19 4 20 5 4 7 2 8 1 9 3 10 5 11 6 12 7 13
REMARK SMILES IDX 8 15 9 16 10 17 18 18 11 19 17 20 12 23 16 24 13 25 15 26
REMARK SMILES IDX 14 27 24 28 25 29 26 30 27 32 28 33 29 34 90 35 30 36 89 37
REMARK SMILES IDX 31 38 32 39 33 40 83 41 34 42 88 43 82 44 84 45 35 46 87 47
REMARK SMILES IDX 81 48 80 49 36 51 68 52 48 53 67 54 49 55 52 56 66 57 85 58
REMARK SMILES IDX 50 59 51 60 65 62 86 63 53 64 37 65 38 66 46 67 39 68 41 69
REMARK SMILES IDX 47 70 40 71 42 72 43 73 44 74 45 75 69 76 70 77 78 78 71 79
REMARK SMILES IDX 73 80 79 81 72 82 74 83 75 84 76 85 77 86 54 87 55 88 63 89
REMARK SMILES IDX 56 90 58 91 64 92 57 93 59 94 60 95 61 96 62 97
REMARK H PARENT 21 6 6 14 18 21 18 22 25 31 84 50 52 61
REMARK Flexibility Score: inf
ROOT
ATOM      1  C   UNL A   1      32.544  29.670  25.512  1.00  0.00     0.042 C 
ENDROOT
BRANCH   1   2
ATOM      2  C   UNL A   1      33.006  29.015  24.235  1.00  0.00     0.117 C 
BRANCH   2   3
ATOM      3  N   UNL A   1      31.985  29.019  23.202  1.00  0.00    -0.356 N 
ATOM      4  C   UNL A   1      31.174  28.028  22.762  1.00  0.00     0.225 C 
ATOM      5  O   UNL A   1      30.284  28.323  21.958  1.00  0.00    -0.275 OA
ATOM      6  H   UNL A   1      31.862  29.884  22.749  1.00  0.00     0.163 HD
BRANCH   4   7
ATOM      7  C   UNL A   1      31.291  26.603  23.275  1.00  0.00     0.100 C 
BRANCH   7   8
ATOM      8  C   UNL A   1      30.171  26.164  24.255  1.00  0.00    -0.003 C 
ATOM      9  C   UNL A   1      30.440  26.583  25.702  1.00  0.00     0.008 C 
ATOM     10  C   UNL A   1      28.824  26.754  23.801  1.00  0.00     0.008 C 
ENDBRANCH   7   8
BRANCH   7  11
ATOM     11  C   UNL A   1      31.712  25.694  22.108  1.00  0.00     0.129 C 
BRANCH  11  12
ATOM     12  N   UNL A   1      31.893  24.281  22.369  1.00  0.00    -0.350 N 
ATOM     13  C   UNL A   1      32.970  23.550  22.783  1.00  0.00     0.278 C 
ATOM     14  H   UNL A   1      31.082  23.742  22.218  1.00  0.00     0.163 HD
ATOM     15  O   UNL A   1      32.807  22.324  22.779  1.00  0.00    -0.268 OA
BRANCH  13  16
ATOM     16  C   UNL A   1      34.323  24.179  23.210  1.00  0.00     0.272 C 
ATOM     17  C   UNL A   1      35.395  23.083  23.404  1.00  0.00     0.076 C 
ATOM     18  N   UNL A   1      34.283  25.022  24.425  1.00  0.00    -0.333 N 
ATOM     19  C   UNL A   1      35.169  22.280  24.691  1.00  0.00     0.016 C 
ATOM     20  C   UNL A   1      34.064  24.330  25.699  1.00  0.00     0.186 C 
ATOM     21  H   UNL A   1      33.530  25.699  24.307  1.00  0.00     0.347 HD
ATOM     22  H   UNL A   1      35.215  25.431  24.498  1.00  0.00     0.347 HD
ATOM     23  C   UNL A   1      35.100  23.218  25.905  1.00  0.00     0.048 C 
ATOM     24  C   UNL A   1      32.613  23.867  25.913  1.00  0.00     0.065 C 
ATOM     25  C   UNL A   1      34.823  22.484  27.223  1.00  0.00     0.010 C 
ATOM     26  C   UNL A   1      32.360  22.987  27.125  1.00  0.00     0.006 C 
ATOM     27  C   UNL A   1      33.414  21.908  27.301  1.00  0.00     0.001 C 
ENDBRANCH  13  16
ENDBRANCH  11  12
ENDBRANCH   7  11
ENDBRANCH   4   7
ENDBRANCH   2   3
ENDBRANCH   1   2
BRANCH   1  28
ATOM     28  C   UNL A   1      33.638  29.689  26.556  1.00  0.00     0.118 C 
BRANCH  28  29
ATOM     29  N   UNL A   1      33.666  30.932  27.327  1.00  0.00    -0.352 N 
ATOM     30  C   UNL A   1      34.569  31.355  28.274  1.00  0.00     0.251 C 
ATOM     31  H   UNL A   1      32.930  31.558  27.140  1.00  0.00     0.163 HD
ATOM     32  O   UNL A   1      34.355  32.369  28.935  1.00  0.00    -0.269 OA
BRANCH  30  33
ATOM     33  C   UNL A   1      35.781  30.552  28.507  1.00  0.00     0.039 A 
ATOM     34  C   UNL A   1      36.920  30.770  27.733  1.00  0.00     0.014 A 
ATOM     35  C   UNL A   1      35.811  29.655  29.574  1.00  0.00     0.014 A 
ATOM     36  C   UNL A   1      38.121  30.160  28.101  1.00  0.00     0.010 A 
ATOM     37  C   UNL A   1      37.032  29.194  30.033  1.00  0.00     0.010 A 
ATOM     38  C   UNL A   1      38.198  29.414  29.289  1.00  0.00    -0.014 A 
BRANCH  38  39
ATOM     39  C   UNL A   1      39.470  28.823  29.778  1.00  0.00     0.031 A 
ATOM     40  C   UNL A   1      40.200  29.483  30.921  1.00  0.00     0.074 A 
ATOM     41  C   UNL A   1      40.032  27.788  29.120  1.00  0.00     0.049 A 
ATOM     42  N   UNL A   1      41.384  29.219  31.407  1.00  0.00    -0.248 NA
ATOM     43  C   UNL A   1      39.541  30.637  31.564  1.00  0.00     0.031 C 
ATOM     44  C   UNL A   1      39.488  27.140  27.923  1.00  0.00     0.029 A 
ATOM     45  N   UNL A   1      41.209  27.119  29.347  1.00  0.00    -0.354 N 
ATOM     46  C   UNL A   1      41.636  30.212  32.347  1.00  0.00     0.074 A 
ATOM     47  C   UNL A   1      40.509  31.113  32.331  1.00  0.00     0.031 C 
ATOM     48  C   UNL A   1      40.320  26.160  27.532  1.00  0.00     0.029 A 
ATOM     49  C   UNL A   1      41.471  26.129  28.429  1.00  0.00     0.049 A 
ATOM     50  H   UNL A   1      41.810  27.328  30.098  1.00  0.00     0.167 HD
ATOM     51  C   UNL A   1      42.690  30.338  33.183  1.00  0.00     0.034 A 
ATOM     52  C   UNL A   1      42.521  25.291  28.321  1.00  0.00     0.034 A 
ATOM     53  C   UNL A   1      43.747  29.371  33.277  1.00  0.00     0.049 A 
ATOM     54  C   UNL A   1      43.615  25.369  29.354  1.00  0.00     0.074 A 
ATOM     55  C   UNL A   1      44.778  29.313  34.195  1.00  0.00     0.029 A 
ATOM     56  N   UNL A   1      43.896  28.287  32.429  1.00  0.00    -0.354 N 
ATOM     57  N   UNL A   1      43.739  26.199  30.361  1.00  0.00    -0.248 NA
ATOM     58  C   UNL A   1      44.690  24.371  29.263  1.00  0.00     0.031 C 
ATOM     59  C   UNL A   1      45.562  28.195  33.893  1.00  0.00     0.029 A 
ATOM     60  C   UNL A   1      45.007  27.552  32.798  1.00  0.00     0.049 A 
ATOM     61  H   UNL A   1      43.301  28.072  31.675  1.00  0.00     0.167 HD
ATOM     62  C   UNL A   1      44.886  25.806  31.041  1.00  0.00     0.074 A 
ATOM     63  C   UNL A   1      45.405  24.646  30.345  1.00  0.00     0.031 C 
ATOM     64  C   UNL A   1      45.469  26.365  32.129  1.00  0.00     0.034 A 
BRANCH  51  65
ATOM     65  C   UNL A   1      42.713  31.516  34.119  1.00  0.00     0.023 A 
ATOM     66  C   UNL A   1      43.297  32.731  33.703  1.00  0.00     0.012 A 
ATOM     67  C   UNL A   1      42.106  31.441  35.387  1.00  0.00     0.148 A 
ATOM     68  C   UNL A   1      43.308  33.841  34.546  1.00  0.00     0.002 A 
ATOM     69  C   UNL A   1      42.078  32.567  36.203  1.00  0.00     0.091 A 
ATOM     70  F   UNL A   1      41.578  30.272  35.777  1.00  0.00    -0.205 F 
ATOM     71  C   UNL A   1      42.689  33.762  35.789  1.00  0.00     0.022 A 
BRANCH  69  72
ATOM     72  S   UNL A   1      41.232  32.595  37.787  1.00  0.00     0.127 S 
ATOM     73  O   UNL A   1      39.912  32.080  37.426  1.00  0.00    -0.237 OA
ATOM     74  O   UNL A   1      42.046  31.677  38.585  1.00  0.00    -0.237 OA
ATOM     75  O   UNL A   1      41.261  33.979  38.236  1.00  0.00    -0.744 OA
ENDBRANCH  69  72
ENDBRANCH  51  65
BRANCH  52  76
ATOM     76  C   UNL A   1      42.550  24.257  27.248  1.00  0.00     0.023 A 
ATOM     77  C   UNL A   1      43.208  24.539  26.035  1.00  0.00     0.012 A 
ATOM     78  C   UNL A   1      41.957  22.992  27.427  1.00  0.00     0.148 A 
ATOM     79  C   UNL A   1      43.242  23.597  25.005  1.00  0.00     0.002 A 
ATOM     80  C   UNL A   1      42.043  22.037  26.418  1.00  0.00     0.091 A 
ATOM     81  F   UNL A   1      41.326  22.742  28.582  1.00  0.00    -0.205 F 
ATOM     82  C   UNL A   1      42.668  22.344  25.200  1.00  0.00     0.022 A 
BRANCH  80  83
ATOM     83  S   UNL A   1      41.451  20.355  26.641  1.00  0.00     0.127 S 
ATOM     84  O   UNL A   1      40.008  20.556  26.743  1.00  0.00    -0.237 OA
ATOM     85  O   UNL A   1      41.897  19.707  25.406  1.00  0.00    -0.237 OA
ATOM     86  O   UNL A   1      42.116  19.868  27.842  1.00  0.00    -0.744 OA
ENDBRANCH  80  83
ENDBRANCH  52  76
BRANCH  64  87
ATOM     87  C   UNL A   1      46.716  25.715  32.665  1.00  0.00     0.023 A 
ATOM     88  C   UNL A   1      47.977  26.162  32.226  1.00  0.00     0.012 A 
ATOM     89  C   UNL A   1      46.636  24.734  33.671  1.00  0.00     0.148 A 
ATOM     90  C   UNL A   1      49.143  25.621  32.762  1.00  0.00     0.002 A 
ATOM     91  C   UNL A   1      47.803  24.233  34.236  1.00  0.00     0.091 A 
ATOM     92  F   UNL A   1      45.425  24.311  34.061  1.00  0.00    -0.205 F 
ATOM     93  C   UNL A   1      49.057  24.667  33.775  1.00  0.00     0.022 A 
BRANCH  91  94
ATOM     94  S   UNL A   1      47.782  23.081  35.613  1.00  0.00     0.127 S 
ATOM     95  O   UNL A   1      46.860  22.056  35.129  1.00  0.00    -0.237 OA
ATOM     96  O   UNL A   1      49.182  22.657  35.685  1.00  0.00    -0.237 OA
ATOM     97  O   UNL A   1      47.325  23.845  36.766  1.00  0.00    -0.744 OA
ENDBRANCH  91  94
ENDBRANCH  64  87
ENDBRANCH  38  39
ENDBRANCH  30  33
ENDBRANCH  28  29
ENDBRANCH   1  28
TORSDOF 17
ENDMDL
MODEL 3
REMARK VINA RESULT:     -12.0      5.173      7.976
REMARK SMILES CC(C)[C@@H](CNC(=O)[C@@H]1CC[C@@H]2CCCC[C@@H]2[NH2+]1)C(=O)NCCCNC(=O)c1ccc(-c2c3nc(c(-c4cccc(S(=O)(=O)[O-])c4F)c4ccc([nH]4)c(-c4cccc(S(=O)(=O)[O-])c4F)c4nc(c(-c5cccc(S(=O)(=O)[O-])c5F)c5ccc2[nH]5)C=C4)C=C3)cc1
REMARK SMILES IDX 23 1 22 2 21 3 19 4 20 5 4 7 2 8 1 9 3 10 5 11 6 12 7 13
REMARK SMILES IDX 8 15 9 16 10 17 18 18 11 19 17 20 12 23 16 24 13 25 15 26
REMARK SMILES IDX 14 27 24 28 25 29 26 30 27 32 28 33 29 34 90 35 30 36 89 37
REMARK SMILES IDX 31 38 32 39 33 40 83 41 34 42 88 43 82 44 84 45 35 46 87 47
REMARK SMILES IDX 81 48 80 49 36 51 68 52 48 53 67 54 49 55 52 56 66 57 85 58
REMARK SMILES IDX 50 59 51 60 65 62 86 63 53 64 37 65 38 66 46 67 39 68 41 69
REMARK SMILES IDX 47 70 40 71 42 72 43 73 44 74 45 75 69 76 70 77 78 78 71 79
REMARK SMILES IDX 73 80 79 81 72 82 74 83 75 84 76 85 77 86 54 87 55 88 63 89
REMARK SMILES IDX 56 90 58 91 64 92 57 93 59 94 60 95 61 96 62 97
REMARK H PARENT 21 6 6 14 18 21 18 22 25 31 84 50 52 61
REMARK Flexibility Score: inf
ROOT
ATOM      1  C   UNL A   1      35.782  21.904  24.378  1.00  0.00     0.042 C 
ENDROOT
BRANCH   1   2
ATOM      2  C   UNL A   1      35.205  20.851  25.291  1.00  0.00     0.117 C 
BRANCH   2   3
ATOM      3  N   UNL A   1      33.811  21.095  25.615  1.00  0.00    -0.356 N 
ATOM      4  C   UNL A   1      32.681  20.786  24.934  1.00  0.00     0.225 C 
ATOM      5  O   UNL A   1      31.597  20.981  25.493  1.00  0.00    -0.275 OA
ATOM      6  H   UNL A   1      33.662  21.561  26.469  1.00  0.00     0.163 HD
BRANCH   4   7
ATOM      7  C   UNL A   1      32.720  20.157  23.552  1.00  0.00     0.100 C 
BRANCH   7   8
ATOM      8  C   UNL A   1      32.471  18.625  23.520  1.00  0.00    -0.003 C 
ATOM      9  C   UNL A   1      32.167  18.095  22.117  1.00  0.00     0.008 C 
ATOM     10  C   UNL A   1      33.699  17.888  24.082  1.00  0.00     0.008 C 
ENDBRANCH   7   8
BRANCH   7  11
ATOM     11  C   UNL A   1      31.996  21.089  22.567  1.00  0.00     0.129 C 
BRANCH  11  12
ATOM     12  N   UNL A   1      32.500  22.436  22.398  1.00  0.00    -0.350 N 
ATOM     13  C   UNL A   1      31.984  23.660  22.714  1.00  0.00     0.278 C 
ATOM     14  H   UNL A   1      33.387  22.477  21.971  1.00  0.00     0.163 HD
ATOM     15  O   UNL A   1      32.636  24.628  22.305  1.00  0.00    -0.268 OA
BRANCH  13  16
ATOM     16  C   UNL A   1      30.663  23.858  23.506  1.00  0.00     0.272 C 
ATOM     17  C   UNL A   1      30.055  25.247  23.211  1.00  0.00     0.076 C 
ATOM     18  N   UNL A   1      30.763  23.687  24.972  1.00  0.00    -0.333 N 
ATOM     19  C   UNL A   1      30.835  26.374  23.901  1.00  0.00     0.016 C 
ATOM     20  C   UNL A   1      31.501  24.719  25.706  1.00  0.00     0.186 C 
ATOM     21  H   UNL A   1      31.223  22.794  25.149  1.00  0.00     0.347 HD
ATOM     22  H   UNL A   1      29.804  23.747  25.315  1.00  0.00     0.347 HD
ATOM     23  C   UNL A   1      30.934  26.114  25.411  1.00  0.00     0.048 C 
ATOM     24  C   UNL A   1      33.027  24.628  25.542  1.00  0.00     0.065 C 
ATOM     25  C   UNL A   1      31.748  27.178  26.158  1.00  0.00     0.010 C 
ATOM     26  C   UNL A   1      33.836  25.774  26.126  1.00  0.00     0.006 C 
ATOM     27  C   UNL A   1      33.235  27.136  25.822  1.00  0.00     0.001 C 
ENDBRANCH  13  16
ENDBRANCH  11  12
ENDBRANCH   7  11
ENDBRANCH   4   7
ENDBRANCH   2   3
ENDBRANCH   1   2
BRANCH   1  28
ATOM     28  C   UNL A   1      37.219  22.218  24.729  1.00  0.00     0.118 C 
BRANCH  28  29
ATOM     29  N   UNL A   1      37.965  21.042  25.179  1.00  0.00    -0.352 N 
ATOM     30  C   UNL A   1      39.091  20.967  25.966  1.00  0.00     0.251 C 
ATOM     31  H   UNL A   1      37.607  20.177  24.875  1.00  0.00     0.163 HD
ATOM     32  O   UNL A   1      39.675  19.898  26.123  1.00  0.00    -0.269 OA
BRANCH  30  33
ATOM     33  C   UNL A   1      39.604  22.200  26.588  1.00  0.00     0.039 A 
ATOM     34  C   UNL A   1      40.635  22.129  27.525  1.00  0.00     0.014 A 
ATOM     35  C   UNL A   1      39.129  23.435  26.151  1.00  0.00     0.014 A 
ATOM     36  C   UNL A   1      41.257  23.306  27.944  1.00  0.00     0.010 A 
ATOM     37  C   UNL A   1      39.856  24.576  26.434  1.00  0.00     0.010 A 
ATOM     38  C   UNL A   1      40.910  24.535  27.356  1.00  0.00    -0.014 A 
BRANCH  38  39
ATOM     39  C   UNL A   1      41.604  25.804  27.693  1.00  0.00     0.031 A 
ATOM     40  C   UNL A   1      40.863  26.868  28.464  1.00  0.00     0.074 A 
ATOM     41  C   UNL A   1      42.835  26.053  27.201  1.00  0.00     0.049 A 
ATOM     42  N   UNL A   1      41.228  28.093  28.738  1.00  0.00    -0.248 NA
ATOM     43  C   UNL A   1      39.504  26.538  28.934  1.00  0.00     0.031 C 
ATOM     44  C   UNL A   1      43.608  25.155  26.338  1.00  0.00     0.029 A 
ATOM     45  N   UNL A   1      43.641  27.157  27.330  1.00  0.00    -0.354 N 
ATOM     46  C   UNL A   1      40.125  28.691  29.336  1.00  0.00     0.074 A 
ATOM     47  C   UNL A   1      39.060  27.716  29.342  1.00  0.00     0.031 C 
ATOM     48  C   UNL A   1      44.779  25.737  26.029  1.00  0.00     0.029 A 
ATOM     49  C   UNL A   1      44.829  27.059  26.643  1.00  0.00     0.049 A 
ATOM     50  H   UNL A   1      43.393  27.945  27.864  1.00  0.00     0.167 HD
ATOM     51  C   UNL A   1      40.018  29.925  29.876  1.00  0.00     0.034 A 
ATOM     52  C   UNL A   1      45.845  27.938  26.522  1.00  0.00     0.034 A 
ATOM     53  C   UNL A   1      41.117  30.843  29.975  1.00  0.00     0.049 A 
ATOM     54  C   UNL A   1      45.751  29.253  27.250  1.00  0.00     0.074 A 
ATOM     55  C   UNL A   1      41.168  32.053  30.642  1.00  0.00     0.029 A 
ATOM     56  N   UNL A   1      42.362  30.643  29.401  1.00  0.00    -0.354 N 
ATOM     57  N   UNL A   1      44.767  29.723  27.978  1.00  0.00    -0.248 NA
ATOM     58  C   UNL A   1      46.921  30.139  27.178  1.00  0.00     0.031 C 
ATOM     59  C   UNL A   1      42.445  32.593  30.459  1.00  0.00     0.029 A 
ATOM     60  C   UNL A   1      43.190  31.710  29.694  1.00  0.00     0.049 A 
ATOM     61  H   UNL A   1      42.617  29.859  28.864  1.00  0.00     0.167 HD
ATOM     62  C   UNL A   1      45.210  30.943  28.476  1.00  0.00     0.074 A 
ATOM     63  C   UNL A   1      46.562  31.127  27.987  1.00  0.00     0.031 C 
ATOM     64  C   UNL A   1      44.552  31.841  29.249  1.00  0.00     0.034 A 
BRANCH  51  65
ATOM     65  C   UNL A   1      38.696  30.324  30.474  1.00  0.00     0.023 A 
ATOM     66  C   UNL A   1      38.414  30.010  31.821  1.00  0.00     0.012 A 
ATOM     67  C   UNL A   1      37.757  31.058  29.725  1.00  0.00     0.148 A 
ATOM     68  C   UNL A   1      37.205  30.390  32.401  1.00  0.00     0.002 A 
ATOM     69  C   UNL A   1      36.575  31.475  30.325  1.00  0.00     0.091 A 
ATOM     70  F   UNL A   1      38.032  31.325  28.440  1.00  0.00    -0.205 F 
ATOM     71  C   UNL A   1      36.292  31.131  31.658  1.00  0.00     0.022 A 
BRANCH  69  72
ATOM     72  S   UNL A   1      35.371  32.507  29.481  1.00  0.00     0.127 S 
ATOM     73  O   UNL A   1      34.895  31.606  28.432  1.00  0.00    -0.237 OA
ATOM     74  O   UNL A   1      34.399  32.773  30.541  1.00  0.00    -0.237 OA
ATOM     75  O   UNL A   1      36.099  33.678  29.016  1.00  0.00    -0.744 OA
ENDBRANCH  69  72
ENDBRANCH  51  65
BRANCH  52  76
ATOM     76  C   UNL A   1      47.065  27.573  25.748  1.00  0.00     0.023 A 
ATOM     77  C   UNL A   1      48.122  26.906  26.400  1.00  0.00     0.012 A 
ATOM     78  C   UNL A   1      47.178  27.853  24.373  1.00  0.00     0.148 A 
ATOM     79  C   UNL A   1      49.284  26.561  25.707  1.00  0.00     0.002 A 
ATOM     80  C   UNL A   1      48.316  27.457  23.676  1.00  0.00     0.091 A 
ATOM     81  F   UNL A   1      46.170  28.498  23.769  1.00  0.00    -0.205 F 
ATOM     82  C   UNL A   1      49.376  26.828  24.344  1.00  0.00     0.022 A 
BRANCH  80  83
ATOM     83  S   UNL A   1      48.456  27.640  21.894  1.00  0.00     0.127 S 
ATOM     84  O   UNL A   1      48.664  26.259  21.466  1.00  0.00    -0.237 OA
ATOM     85  O   UNL A   1      47.152  28.206  21.540  1.00  0.00    -0.237 OA
ATOM     86  O   UNL A   1      49.575  28.549  21.685  1.00  0.00    -0.744 OA
ENDBRANCH  80  83
ENDBRANCH  52  76
BRANCH  64  87
ATOM     87  C   UNL A   1      45.289  33.090  29.650  1.00  0.00     0.023 A 
ATOM     88  C   UNL A   1      46.096  33.083  30.804  1.00  0.00     0.012 A 
ATOM     89  C   UNL A   1      45.255  34.235  28.831  1.00  0.00     0.148 A 
ATOM     90  C   UNL A   1      46.840  34.208  31.152  1.00  0.00     0.002 A 
ATOM     91  C   UNL A   1      46.037  35.336  29.157  1.00  0.00     0.091 A 
ATOM     92  F   UNL A   1      44.465  34.226  27.747  1.00  0.00    -0.205 F 
ATOM     93  C   UNL A   1      46.821  35.329  30.323  1.00  0.00     0.022 A 
BRANCH  91  94
ATOM     94  S   UNL A   1      46.151  36.778  28.094  1.00  0.00     0.127 S 
ATOM     95  O   UNL A   1      46.651  36.193  26.852  1.00  0.00    -0.237 OA
ATOM     96  O   UNL A   1      44.761  37.234  28.037  1.00  0.00    -0.237 OA
ATOM     97  O   UNL A   1      47.059  37.699  28.765  1.00  0.00    -0.744 OA
ENDBRANCH  91  94
ENDBRANCH  64  87
ENDBRANCH  38  39
ENDBRANCH  30  33
ENDBRANCH  28  29
ENDBRANCH   1  28
TORSDOF 17
ENDMDL
