MODEL 1
REMARK VINA RESULT:     -11.5      0.000      0.000
REMARK SMILES COc1ccc(OCC(=O)N/N=C(/C)C(=O)NCCCNC(=O)c2ccc(-c3c4nc(c(-c5cccc(S(=O)(=O)[O-])c5F)c5ccc([nH]5)c(-c5cccc(S(=O)(=O)[O-])c5F)c5nc(c(-c6cccc(S(=O)(=O)[O-])c6F)c6ccc3[nH]6)C=C5)C=C4)cc2)cc1
REMARK SMILES IDX 18 1 17 2 15 3 16 4 13 6 12 7 14 8 11 9 9 10 10 11 8 13 7 14
REMARK SMILES IDX 6 15 3 16 4 17 88 18 5 19 87 20 2 21 1 22 19 23 20 24 21 25
REMARK SMILES IDX 22 26 23 28 24 29 25 30 86 31 26 32 85 33 27 34 28 35 29 36
REMARK SMILES IDX 79 37 30 38 84 39 78 40 80 41 31 42 83 43 77 44 76 45 32 47
REMARK SMILES IDX 64 48 44 49 63 50 45 51 48 52 62 53 81 54 46 55 47 56 61 58
REMARK SMILES IDX 82 59 49 60 33 61 34 62 42 63 35 64 37 65 43 66 36 67 38 68
REMARK SMILES IDX 39 69 40 70 41 71 65 72 66 73 74 74 67 75 69 76 75 77 68 78
REMARK SMILES IDX 70 79 71 80 72 81 73 82 50 83 51 84 59 85 52 86 54 87 60 88
REMARK SMILES IDX 53 89 55 90 56 91 57 92 58 93
REMARK H PARENT 17 5 11 12 21 27 80 46 48 57
REMARK Flexibility Score: inf
ROOT
ATOM      1  C   UNL A   1      33.609  28.351  25.260  1.00  0.00     0.118 C 
ENDROOT
BRANCH   1   2
ATOM      2  N   UNL A   1      32.911  27.483  26.196  1.00  0.00    -0.351 N 
ATOM      3  C   UNL A   1      32.131  26.370  26.014  1.00  0.00     0.267 C 
ATOM      4  O   UNL A   1      31.337  26.038  26.887  1.00  0.00    -0.268 OA
ATOM      5  H   UNL A   1      33.019  27.744  27.139  1.00  0.00     0.163 HD
BRANCH   3   6
ATOM      6  C   UNL A   1      32.357  25.441  24.839  1.00  0.00     0.122 C 
ATOM      7  N   UNL A   1      31.416  24.939  24.088  1.00  0.00    -0.172 NA
ATOM      8  C   UNL A   1      33.777  25.143  24.438  1.00  0.00     0.075 C 
BRANCH   7   9
ATOM      9  N   UNL A   1      30.099  25.267  24.204  1.00  0.00    -0.244 N 
ATOM     10  C   UNL A   1      29.371  26.374  23.859  1.00  0.00     0.277 C 
ATOM     11  O   UNL A   1      28.196  26.433  24.250  1.00  0.00    -0.269 OA
ATOM     12  H   UNL A   1      29.558  24.561  24.623  1.00  0.00     0.193 HD
BRANCH  10  13
ATOM     13  C   UNL A   1      29.939  27.523  23.030  1.00  0.00     0.331 C 
BRANCH  13  14
ATOM     14  O   UNL A   1      30.219  28.738  23.696  1.00  0.00    -0.484 OA
BRANCH  14  15
ATOM     15  C   UNL A   1      29.594  29.861  23.234  1.00  0.00     0.120 A 
ATOM     16  C   UNL A   1      28.343  32.063  22.013  1.00  0.00     0.119 A 
ATOM     17  C   UNL A   1      28.732  30.959  21.254  1.00  0.00     0.050 A 
ATOM     18  C   UNL A   1      28.563  32.052  23.389  1.00  0.00     0.050 A 
ATOM     19  C   UNL A   1      29.353  29.866  21.860  1.00  0.00     0.050 A 
ATOM     20  C   UNL A   1      29.188  30.956  23.997  1.00  0.00     0.050 A 
BRANCH  16  21
ATOM     21  O   UNL A   1      27.758  33.075  21.304  1.00  0.00    -0.497 OA
ATOM     22  C   UNL A   1      27.652  32.884  19.899  1.00  0.00     0.278 C 
ENDBRANCH  16  21
ENDBRANCH  14  15
ENDBRANCH  13  14
ENDBRANCH  10  13
ENDBRANCH   7   9
ENDBRANCH   3   6
ENDBRANCH   1   2
BRANCH   1  23
ATOM     23  C   UNL A   1      32.890  29.699  25.194  1.00  0.00     0.042 C 
BRANCH  23  24
ATOM     24  C   UNL A   1      32.249  30.108  26.517  1.00  0.00     0.118 C 
BRANCH  24  25
ATOM     25  N   UNL A   1      32.201  31.553  26.683  1.00  0.00    -0.352 N 
ATOM     26  C   UNL A   1      33.060  32.358  27.396  1.00  0.00     0.251 C 
ATOM     27  H   UNL A   1      31.459  32.014  26.228  1.00  0.00     0.163 HD
ATOM     28  O   UNL A   1      32.786  33.537  27.585  1.00  0.00    -0.269 OA
BRANCH  26  29
ATOM     29  C   UNL A   1      34.301  31.779  27.953  1.00  0.00     0.039 A 
ATOM     30  C   UNL A   1      35.419  32.600  28.115  1.00  0.00     0.014 A 
ATOM     31  C   UNL A   1      34.350  30.436  28.340  1.00  0.00     0.014 A 
ATOM     32  C   UNL A   1      36.568  32.091  28.726  1.00  0.00     0.010 A 
ATOM     33  C   UNL A   1      35.473  29.947  29.001  1.00  0.00     0.010 A 
ATOM     34  C   UNL A   1      36.593  30.770  29.203  1.00  0.00    -0.014 A 
BRANCH  34  35
ATOM     35  C   UNL A   1      37.766  30.236  29.939  1.00  0.00     0.031 A 
ATOM     36  C   UNL A   1      38.062  30.701  31.337  1.00  0.00     0.074 A 
ATOM     37  C   UNL A   1      38.625  29.410  29.308  1.00  0.00     0.049 A 
ATOM     38  N   UNL A   1      39.072  30.397  32.108  1.00  0.00    -0.248 NA
ATOM     39  C   UNL A   1      37.114  31.655  31.938  1.00  0.00     0.031 C 
ATOM     40  C   UNL A   1      38.497  28.960  27.921  1.00  0.00     0.029 A 
ATOM     41  N   UNL A   1      39.790  28.831  29.740  1.00  0.00    -0.354 N 
ATOM     42  C   UNL A   1      38.908  31.148  33.264  1.00  0.00     0.074 A 
ATOM     43  C   UNL A   1      37.711  31.941  33.086  1.00  0.00     0.031 C 
ATOM     44  C   UNL A   1      39.545  28.177  27.617  1.00  0.00     0.029 A 
ATOM     45  C   UNL A   1      40.426  28.083  28.777  1.00  0.00     0.049 A 
ATOM     46  H   UNL A   1      40.139  28.940  30.654  1.00  0.00     0.167 HD
ATOM     47  C   UNL A   1      39.664  31.154  34.388  1.00  0.00     0.034 A 
ATOM     48  C   UNL A   1      41.585  27.398  28.822  1.00  0.00     0.034 A 
ATOM     49  C   UNL A   1      40.811  30.312  34.593  1.00  0.00     0.049 A 
ATOM     50  C   UNL A   1      42.367  27.362  30.106  1.00  0.00     0.074 A 
ATOM     51  C   UNL A   1      41.568  30.154  35.741  1.00  0.00     0.029 A 
ATOM     52  N   UNL A   1      41.367  29.485  33.630  1.00  0.00    -0.354 N 
ATOM     53  N   UNL A   1      42.093  27.936  31.252  1.00  0.00    -0.248 NA
ATOM     54  C   UNL A   1      43.598  26.558  30.116  1.00  0.00     0.031 C 
ATOM     55  C   UNL A   1      42.583  29.229  35.471  1.00  0.00     0.029 A 
ATOM     56  C   UNL A   1      42.460  28.816  34.153  1.00  0.00     0.049 A 
ATOM     57  H   UNL A   1      41.033  29.387  32.710  1.00  0.00     0.167 HD
ATOM     58  C   UNL A   1      43.102  27.545  32.125  1.00  0.00     0.074 A 
ATOM     59  C   UNL A   1      43.982  26.666  31.381  1.00  0.00     0.031 C 
ATOM     60  C   UNL A   1      43.294  27.901  33.419  1.00  0.00     0.034 A 
BRANCH  47  61
ATOM     61  C   UNL A   1      39.222  32.042  35.517  1.00  0.00     0.023 A 
ATOM     62  C   UNL A   1      38.304  31.541  36.462  1.00  0.00     0.012 A 
ATOM     63  C   UNL A   1      39.740  33.341  35.676  1.00  0.00     0.148 A 
ATOM     64  C   UNL A   1      37.887  32.330  37.533  1.00  0.00     0.002 A 
ATOM     65  C   UNL A   1      39.344  34.110  36.765  1.00  0.00     0.091 A 
ATOM     66  F   UNL A   1      40.588  33.813  34.750  1.00  0.00    -0.205 F 
ATOM     67  C   UNL A   1      38.413  33.609  37.690  1.00  0.00     0.022 A 
BRANCH  65  68
ATOM     68  S   UNL A   1      40.022  35.745  37.071  1.00  0.00     0.127 S 
ATOM     69  O   UNL A   1      39.653  36.454  35.848  1.00  0.00    -0.237 OA
ATOM     70  O   UNL A   1      39.293  36.173  38.266  1.00  0.00    -0.237 OA
ATOM     71  O   UNL A   1      41.449  35.540  37.282  1.00  0.00    -0.744 OA
ENDBRANCH  65  68
ENDBRANCH  47  61
BRANCH  48  72
ATOM     72  C   UNL A   1      42.022  26.616  27.633  1.00  0.00     0.023 A 
ATOM     73  C   UNL A   1      42.731  27.272  26.608  1.00  0.00     0.012 A 
ATOM     74  C   UNL A   1      41.797  25.230  27.535  1.00  0.00     0.148 A 
ATOM     75  C   UNL A   1      43.195  26.564  25.499  1.00  0.00     0.002 A 
ATOM     76  C   UNL A   1      42.305  24.521  26.451  1.00  0.00     0.091 A 
ATOM     77  F   UNL A   1      41.102  24.626  28.510  1.00  0.00    -0.205 F 
ATOM     78  C   UNL A   1      42.994  25.187  25.426  1.00  0.00     0.022 A 
BRANCH  76  79
ATOM     79  S   UNL A   1      42.206  22.730  26.361  1.00  0.00     0.127 S 
ATOM     80  O   UNL A   1      42.655  22.471  24.997  1.00  0.00    -0.237 OA
ATOM     81  O   UNL A   1      43.142  22.313  27.407  1.00  0.00    -0.237 OA
ATOM     82  O   UNL A   1      40.814  22.410  26.652  1.00  0.00    -0.744 OA
ENDBRANCH  76  79
ENDBRANCH  48  72
BRANCH  60  83
ATOM     83  C   UNL A   1      44.500  27.342  34.122  1.00  0.00     0.023 A 
ATOM     84  C   UNL A   1      45.719  28.045  34.060  1.00  0.00     0.012 A 
ATOM     85  C   UNL A   1      44.411  26.177  34.907  1.00  0.00     0.148 A 
ATOM     86  C   UNL A   1      46.838  27.587  34.753  1.00  0.00     0.002 A 
ATOM     87  C   UNL A   1      45.523  25.745  35.626  1.00  0.00     0.091 A 
ATOM     88  F   UNL A   1      43.250  25.507  34.936  1.00  0.00    -0.205 F 
ATOM     89  C   UNL A   1      46.737  26.445  35.544  1.00  0.00     0.022 A 
BRANCH  87  90
ATOM     90  S   UNL A   1      45.441  24.330  36.729  1.00  0.00     0.127 S 
ATOM     91  O   UNL A   1      46.801  24.284  37.261  1.00  0.00    -0.237 OA
ATOM     92  O   UNL A   1      44.423  24.739  37.699  1.00  0.00    -0.237 OA
ATOM     93  O   UNL A   1      45.049  23.204  35.892  1.00  0.00    -0.744 OA
ENDBRANCH  87  90
ENDBRANCH  60  83
ENDBRANCH  34  35
ENDBRANCH  26  29
ENDBRANCH  24  25
ENDBRANCH  23  24
ENDBRANCH   1  23
TORSDOF 18
ENDMDL
MODEL 2
REMARK VINA RESULT:     -11.4      1.358      3.401
REMARK SMILES COc1ccc(OCC(=O)N/N=C(/C)C(=O)NCCCNC(=O)c2ccc(-c3c4nc(c(-c5cccc(S(=O)(=O)[O-])c5F)c5ccc([nH]5)c(-c5cccc(S(=O)(=O)[O-])c5F)c5nc(c(-c6cccc(S(=O)(=O)[O-])c6F)c6ccc3[nH]6)C=C5)C=C4)cc2)cc1
REMARK SMILES IDX 18 1 17 2 15 3 16 4 13 6 12 7 14 8 11 9 9 10 10 11 8 13 7 14
REMARK SMILES IDX 6 15 3 16 4 17 88 18 5 19 87 20 2 21 1 22 19 23 20 24 21 25
REMARK SMILES IDX 22 26 23 28 24 29 25 30 86 31 26 32 85 33 27 34 28 35 29 36
REMARK SMILES IDX 79 37 30 38 84 39 78 40 80 41 31 42 83 43 77 44 76 45 32 47
REMARK SMILES IDX 64 48 44 49 63 50 45 51 48 52 62 53 81 54 46 55 47 56 61 58
REMARK SMILES IDX 82 59 49 60 33 61 34 62 42 63 35 64 37 65 43 66 36 67 38 68
REMARK SMILES IDX 39 69 40 70 41 71 65 72 66 73 74 74 67 75 69 76 75 77 68 78
REMARK SMILES IDX 70 79 71 80 72 81 73 82 50 83 51 84 59 85 52 86 54 87 60 88
REMARK SMILES IDX 53 89 55 90 56 91 57 92 58 93
REMARK H PARENT 17 5 11 12 21 27 80 46 48 57
REMARK Flexibility Score: inf
ROOT
ATOM      1  C   UNL A   1      30.643  30.065  24.927  1.00  0.00     0.118 C 
ENDROOT
BRANCH   1   2
ATOM      2  N   UNL A   1      30.063  30.237  23.604  1.00  0.00    -0.351 N 
ATOM      3  C   UNL A   1      29.994  29.409  22.514  1.00  0.00     0.267 C 
ATOM      4  O   UNL A   1      29.817  29.889  21.400  1.00  0.00    -0.268 OA
ATOM      5  H   UNL A   1      29.640  31.116  23.465  1.00  0.00     0.163 HD
BRANCH   3   6
ATOM      6  C   UNL A   1      29.950  27.904  22.678  1.00  0.00     0.122 C 
ATOM      7  N   UNL A   1      30.888  27.081  22.300  1.00  0.00    -0.172 NA
ATOM      8  C   UNL A   1      28.782  27.309  23.418  1.00  0.00     0.075 C 
BRANCH   7   9
ATOM      9  N   UNL A   1      32.086  27.481  21.792  1.00  0.00    -0.244 N 
ATOM     10  C   UNL A   1      33.386  27.225  22.134  1.00  0.00     0.277 C 
ATOM     11  O   UNL A   1      34.270  27.880  21.563  1.00  0.00    -0.269 OA
ATOM     12  H   UNL A   1      31.999  28.079  21.015  1.00  0.00     0.193 HD
BRANCH  10  13
ATOM     13  C   UNL A   1      33.787  26.185  23.177  1.00  0.00     0.331 C 
BRANCH  13  14
ATOM     14  O   UNL A   1      33.610  26.519  24.540  1.00  0.00    -0.484 OA
BRANCH  14  15
ATOM     15  C   UNL A   1      32.782  25.721  25.275  1.00  0.00     0.120 A 
ATOM     16  C   UNL A   1      31.305  23.895  26.821  1.00  0.00     0.119 A 
ATOM     17  C   UNL A   1      32.673  23.708  26.619  1.00  0.00     0.050 A 
ATOM     18  C   UNL A   1      30.683  25.011  26.263  1.00  0.00     0.050 A 
ATOM     19  C   UNL A   1      33.406  24.615  25.852  1.00  0.00     0.050 A 
ATOM     20  C   UNL A   1      31.418  25.919  25.491  1.00  0.00     0.050 A 
BRANCH  16  21
ATOM     21  O   UNL A   1      30.695  22.933  27.578  1.00  0.00    -0.497 OA
ATOM     22  C   UNL A   1      29.297  22.766  27.381  1.00  0.00     0.278 C 
ENDBRANCH  16  21
ENDBRANCH  14  15
ENDBRANCH  13  14
ENDBRANCH  10  13
ENDBRANCH   7   9
ENDBRANCH   3   6
ENDBRANCH   1   2
BRANCH   1  23
ATOM     23  C   UNL A   1      32.076  29.551  24.784  1.00  0.00     0.042 C 
BRANCH  23  24
ATOM     24  C   UNL A   1      32.985  29.965  25.938  1.00  0.00     0.118 C 
BRANCH  24  25
ATOM     25  N   UNL A   1      32.733  31.329  26.377  1.00  0.00    -0.352 N 
ATOM     26  C   UNL A   1      33.409  32.055  27.330  1.00  0.00     0.251 C 
ATOM     27  H   UNL A   1      31.983  31.791  25.937  1.00  0.00     0.163 HD
ATOM     28  O   UNL A   1      32.968  33.132  27.713  1.00  0.00    -0.269 OA
BRANCH  26  29
ATOM     29  C   UNL A   1      34.659  31.511  27.905  1.00  0.00     0.039 A 
ATOM     30  C   UNL A   1      35.765  32.353  28.041  1.00  0.00     0.014 A 
ATOM     31  C   UNL A   1      34.726  30.182  28.332  1.00  0.00     0.014 A 
ATOM     32  C   UNL A   1      36.921  31.880  28.667  1.00  0.00     0.010 A 
ATOM     33  C   UNL A   1      35.856  29.729  29.008  1.00  0.00     0.010 A 
ATOM     34  C   UNL A   1      36.964  30.574  29.184  1.00  0.00    -0.014 A 
BRANCH  34  35
ATOM     35  C   UNL A   1      38.144  30.079  29.937  1.00  0.00     0.031 A 
ATOM     36  C   UNL A   1      38.428  30.584  31.323  1.00  0.00     0.074 A 
ATOM     37  C   UNL A   1      39.019  29.254  29.329  1.00  0.00     0.049 A 
ATOM     38  N   UNL A   1      39.441  30.318  32.105  1.00  0.00    -0.248 NA
ATOM     39  C   UNL A   1      37.462  31.536  31.898  1.00  0.00     0.031 C 
ATOM     40  C   UNL A   1      38.904  28.766  27.953  1.00  0.00     0.029 A 
ATOM     41  N   UNL A   1      40.194  28.706  29.778  1.00  0.00    -0.354 N 
ATOM     42  C   UNL A   1      39.260  31.095  33.241  1.00  0.00     0.074 A 
ATOM     43  C   UNL A   1      38.050  31.862  33.040  1.00  0.00     0.031 C 
ATOM     44  C   UNL A   1      39.967  27.995  27.671  1.00  0.00     0.029 A 
ATOM     45  C   UNL A   1      40.845  27.946  28.835  1.00  0.00     0.049 A 
ATOM     46  H   UNL A   1      40.538  28.844  30.690  1.00  0.00     0.167 HD
ATOM     47  C   UNL A   1      40.013  31.142  34.366  1.00  0.00     0.034 A 
ATOM     48  C   UNL A   1      42.017  27.283  28.901  1.00  0.00     0.034 A 
ATOM     49  C   UNL A   1      41.174  30.326  34.595  1.00  0.00     0.049 A 
ATOM     50  C   UNL A   1      42.796  27.294  30.187  1.00  0.00     0.074 A 
ATOM     51  C   UNL A   1      41.931  30.211  35.748  1.00  0.00     0.029 A 
ATOM     52  N   UNL A   1      41.747  29.485  33.654  1.00  0.00    -0.354 N 
ATOM     53  N   UNL A   1      42.508  27.891  31.318  1.00  0.00    -0.248 NA
ATOM     54  C   UNL A   1      44.041  26.512  30.220  1.00  0.00     0.031 C 
ATOM     55  C   UNL A   1      42.962  29.297  35.504  1.00  0.00     0.029 A 
ATOM     56  C   UNL A   1      42.850  28.850  34.197  1.00  0.00     0.049 A 
ATOM     57  H   UNL A   1      41.418  29.359  32.736  1.00  0.00     0.167 HD
ATOM     58  C   UNL A   1      43.521  27.540  32.203  1.00  0.00     0.074 A 
ATOM     59  C   UNL A   1      44.419  26.659  31.483  1.00  0.00     0.031 C 
ATOM     60  C   UNL A   1      43.703  27.931  33.488  1.00  0.00     0.034 A 
BRANCH  47  61
ATOM     61  C   UNL A   1      39.552  32.050  35.472  1.00  0.00     0.023 A 
ATOM     62  C   UNL A   1      38.663  31.548  36.443  1.00  0.00     0.012 A 
ATOM     63  C   UNL A   1      40.025  33.372  35.582  1.00  0.00     0.148 A 
ATOM     64  C   UNL A   1      38.230  32.356  37.494  1.00  0.00     0.002 A 
ATOM     65  C   UNL A   1      39.613  34.161  36.651  1.00  0.00     0.091 A 
ATOM     66  F   UNL A   1      40.844  33.843  34.631  1.00  0.00    -0.205 F 
ATOM     67  C   UNL A   1      38.711  33.657  37.602  1.00  0.00     0.022 A 
BRANCH  65  68
ATOM     68  S   UNL A   1      40.236  35.828  36.896  1.00  0.00     0.127 S 
ATOM     69  O   UNL A   1      39.720  36.514  35.714  1.00  0.00    -0.237 OA
ATOM     70  O   UNL A   1      39.601  36.222  38.154  1.00  0.00    -0.237 OA
ATOM     71  O   UNL A   1      41.684  35.694  36.973  1.00  0.00    -0.744 OA
ENDBRANCH  65  68
ENDBRANCH  47  61
BRANCH  48  72
ATOM     72  C   UNL A   1      42.471  26.480  27.732  1.00  0.00     0.023 A 
ATOM     73  C   UNL A   1      43.382  27.051  26.824  1.00  0.00     0.012 A 
ATOM     74  C   UNL A   1      42.059  25.146  27.546  1.00  0.00     0.148 A 
ATOM     75  C   UNL A   1      43.864  26.315  25.741  1.00  0.00     0.002 A 
ATOM     76  C   UNL A   1      42.581  24.402  26.494  1.00  0.00     0.091 A 
ATOM     77  F   UNL A   1      41.175  24.626  28.409  1.00  0.00    -0.205 F 
ATOM     78  C   UNL A   1      43.475  24.986  25.583  1.00  0.00     0.022 A 
BRANCH  76  79
ATOM     79  S   UNL A   1      42.234  22.649  26.311  1.00  0.00     0.127 S 
ATOM     80  O   UNL A   1      40.778  22.639  26.209  1.00  0.00    -0.237 OA
ATOM     81  O   UNL A   1      42.940  22.318  25.072  1.00  0.00    -0.237 OA
ATOM     82  O   UNL A   1      42.800  22.022  27.499  1.00  0.00    -0.744 OA
ENDBRANCH  76  79
ENDBRANCH  48  72
BRANCH  60  83
ATOM     83  C   UNL A   1      44.917  27.411  34.208  1.00  0.00     0.023 A 
ATOM     84  C   UNL A   1      46.116  28.148  34.152  1.00  0.00     0.012 A 
ATOM     85  C   UNL A   1      44.852  26.251  35.001  1.00  0.00     0.148 A 
ATOM     86  C   UNL A   1      47.240  27.727  34.860  1.00  0.00     0.002 A 
ATOM     87  C   UNL A   1      45.968  25.856  35.735  1.00  0.00     0.091 A 
ATOM     88  F   UNL A   1      43.710  25.549  35.023  1.00  0.00    -0.205 F 
ATOM     89  C   UNL A   1      47.163  26.588  35.660  1.00  0.00     0.022 A 
BRANCH  87  90
ATOM     90  S   UNL A   1      45.914  24.447  36.849  1.00  0.00     0.127 S 
ATOM     91  O   UNL A   1      44.844  24.830  37.766  1.00  0.00    -0.237 OA
ATOM     92  O   UNL A   1      45.578  23.342  35.949  1.00  0.00    -0.237 OA
ATOM     93  O   UNL A   1      47.247  24.359  37.429  1.00  0.00    -0.744 OA
ENDBRANCH  87  90
ENDBRANCH  60  83
ENDBRANCH  34  35
ENDBRANCH  26  29
ENDBRANCH  24  25
ENDBRANCH  23  24
ENDBRANCH   1  23
TORSDOF 18
ENDMDL
MODEL 3
REMARK VINA RESULT:     -11.3      2.895      8.938
REMARK SMILES COc1ccc(OCC(=O)N/N=C(/C)C(=O)NCCCNC(=O)c2ccc(-c3c4nc(c(-c5cccc(S(=O)(=O)[O-])c5F)c5ccc([nH]5)c(-c5cccc(S(=O)(=O)[O-])c5F)c5nc(c(-c6cccc(S(=O)(=O)[O-])c6F)c6ccc3[nH]6)C=C5)C=C4)cc2)cc1
REMARK SMILES IDX 18 1 17 2 15 3 16 4 13 6 12 7 14 8 11 9 9 10 10 11 8 13 7 14
REMARK SMILES IDX 6 15 3 16 4 17 88 18 5 19 87 20 2 21 1 22 19 23 20 24 21 25
REMARK SMILES IDX 22 26 23 28 24 29 25 30 86 31 26 32 85 33 27 34 28 35 29 36
REMARK SMILES IDX 79 37 30 38 84 39 78 40 80 41 31 42 83 43 77 44 76 45 32 47
REMARK SMILES IDX 64 48 44 49 63 50 45 51 48 52 62 53 81 54 46 55 47 56 61 58
REMARK SMILES IDX 82 59 49 60 33 61 34 62 42 63 35 64 37 65 43 66 36 67 38 68
REMARK SMILES IDX 39 69 40 70 41 71 65 72 66 73 74 74 67 75 69 76 75 77 68 78
REMARK SMILES IDX 70 79 71 80 72 81 73 82 50 83 51 84 59 85 52 86 54 87 60 88
REMARK SMILES IDX 53 89 55 90 56 91 57 92 58 93
REMARK H PARENT 17 5 11 12 21 27 80 46 48 57
REMARK Flexibility Score: inf
ROOT
ATOM      1  C   UNL A   1      32.135  30.495  26.378  1.00  0.00     0.118 C 
ENDROOT
BRANCH   1   2
ATOM      2  N   UNL A   1      31.342  30.120  25.217  1.00  0.00    -0.351 N 
ATOM      3  C   UNL A   1      31.266  28.962  24.488  1.00  0.00     0.267 C 
ATOM      4  O   UNL A   1      30.838  28.996  23.340  1.00  0.00    -0.268 OA
ATOM      5  H   UNL A   1      30.746  30.835  24.893  1.00  0.00     0.163 HD
BRANCH   3   6
ATOM      6  C   UNL A   1      31.528  27.616  25.131  1.00  0.00     0.122 C 
ATOM      7  N   UNL A   1      32.072  26.592  24.533  1.00  0.00    -0.172 NA
ATOM      8  C   UNL A   1      31.231  27.465  26.599  1.00  0.00     0.075 C 
BRANCH   7   9
ATOM      9  N   UNL A   1      32.569  26.633  23.266  1.00  0.00    -0.244 N 
ATOM     10  C   UNL A   1      33.080  25.682  22.424  1.00  0.00     0.277 C 
ATOM     11  O   UNL A   1      33.609  26.070  21.372  1.00  0.00    -0.269 OA
ATOM     12  H   UNL A   1      32.559  27.535  22.873  1.00  0.00     0.193 HD
BRANCH  10  13
ATOM     13  C   UNL A   1      33.030  24.186  22.725  1.00  0.00     0.331 C 
BRANCH  13  14
ATOM     14  O   UNL A   1      33.262  23.775  24.058  1.00  0.00    -0.484 OA
BRANCH  14  15
ATOM     15  C   UNL A   1      33.514  22.450  24.267  1.00  0.00     0.120 A 
ATOM     16  C   UNL A   1      33.751  19.671  24.625  1.00  0.00     0.119 A 
ATOM     17  C   UNL A   1      32.572  20.222  24.124  1.00  0.00     0.050 A 
ATOM     18  C   UNL A   1      34.819  20.515  24.928  1.00  0.00     0.050 A 
ATOM     19  C   UNL A   1      32.454  21.602  23.945  1.00  0.00     0.050 A 
ATOM     20  C   UNL A   1      34.700  21.899  24.751  1.00  0.00     0.050 A 
BRANCH  16  21
ATOM     21  O   UNL A   1      33.740  18.311  24.768  1.00  0.00    -0.497 OA
ATOM     22  C   UNL A   1      32.690  17.768  25.559  1.00  0.00     0.278 C 
ENDBRANCH  16  21
ENDBRANCH  14  15
ENDBRANCH  13  14
ENDBRANCH  10  13
ENDBRANCH   7   9
ENDBRANCH   3   6
ENDBRANCH   1   2
BRANCH   1  23
ATOM     23  C   UNL A   1      31.773  31.921  26.794  1.00  0.00     0.042 C 
BRANCH  23  24
ATOM     24  C   UNL A   1      32.952  32.702  27.366  1.00  0.00     0.118 C 
BRANCH  24  25
ATOM     25  N   UNL A   1      32.603  34.080  27.676  1.00  0.00    -0.352 N 
ATOM     26  C   UNL A   1      33.117  34.887  28.664  1.00  0.00     0.251 C 
ATOM     27  H   UNL A   1      31.910  34.487  27.106  1.00  0.00     0.163 HD
ATOM     28  O   UNL A   1      32.596  35.968  28.911  1.00  0.00    -0.269 OA
BRANCH  26  29
ATOM     29  C   UNL A   1      34.288  34.426  29.442  1.00  0.00     0.039 A 
ATOM     30  C   UNL A   1      34.082  33.826  30.686  1.00  0.00     0.014 A 
ATOM     31  C   UNL A   1      35.582  34.561  28.928  1.00  0.00     0.014 A 
ATOM     32  C   UNL A   1      35.169  33.302  31.389  1.00  0.00     0.010 A 
ATOM     33  C   UNL A   1      36.656  33.986  29.602  1.00  0.00     0.010 A 
ATOM     34  C   UNL A   1      36.460  33.348  30.838  1.00  0.00    -0.014 A 
BRANCH  34  35
ATOM     35  C   UNL A   1      37.616  32.715  31.521  1.00  0.00     0.031 A 
ATOM     36  C   UNL A   1      38.323  31.548  30.892  1.00  0.00     0.074 A 
ATOM     37  C   UNL A   1      37.961  33.124  32.758  1.00  0.00     0.049 A 
ATOM     38  N   UNL A   1      39.305  30.827  31.367  1.00  0.00    -0.248 NA
ATOM     39  C   UNL A   1      37.848  31.113  29.567  1.00  0.00     0.031 C 
ATOM     40  C   UNL A   1      37.292  34.185  33.513  1.00  0.00     0.029 A 
ATOM     41  N   UNL A   1      38.938  32.675  33.610  1.00  0.00    -0.354 N 
ATOM     42  C   UNL A   1      39.539  29.834  30.426  1.00  0.00     0.074 A 
ATOM     43  C   UNL A   1      38.581  30.029  29.359  1.00  0.00     0.031 C 
ATOM     44  C   UNL A   1      37.877  34.301  34.717  1.00  0.00     0.029 A 
ATOM     45  C   UNL A   1      38.948  33.317  34.826  1.00  0.00     0.049 A 
ATOM     46  H   UNL A   1      39.573  31.961  33.372  1.00  0.00     0.167 HD
ATOM     47  C   UNL A   1      40.486  28.866  30.430  1.00  0.00     0.034 A 
ATOM     48  C   UNL A   1      39.732  33.133  35.907  1.00  0.00     0.034 A 
ATOM     49  C   UNL A   1      41.484  28.718  31.454  1.00  0.00     0.049 A 
ATOM     50  C   UNL A   1      40.824  32.101  35.856  1.00  0.00     0.074 A 
ATOM     51  C   UNL A   1      42.561  27.849  31.487  1.00  0.00     0.029 A 
ATOM     52  N   UNL A   1      41.530  29.456  32.626  1.00  0.00    -0.354 N 
ATOM     53  N   UNL A   1      41.146  31.293  34.875  1.00  0.00    -0.248 NA
ATOM     54  C   UNL A   1      41.682  31.978  37.043  1.00  0.00     0.031 C 
ATOM     55  C   UNL A   1      43.259  28.064  32.680  1.00  0.00     0.029 A 
ATOM     56  C   UNL A   1      42.613  29.062  33.392  1.00  0.00     0.049 A 
ATOM     57  H   UNL A   1      40.887  30.158  32.876  1.00  0.00     0.167 HD
ATOM     58  C   UNL A   1      42.257  30.582  35.317  1.00  0.00     0.074 A 
ATOM     59  C   UNL A   1      42.566  31.072  36.645  1.00  0.00     0.031 C 
ATOM     60  C   UNL A   1      42.943  29.597  34.688  1.00  0.00     0.034 A 
BRANCH  47  61
ATOM     61  C   UNL A   1      40.540  27.942  29.245  1.00  0.00     0.023 A 
ATOM     62  C   UNL A   1      39.653  26.849  29.189  1.00  0.00     0.012 A 
ATOM     63  C   UNL A   1      41.423  28.174  28.174  1.00  0.00     0.148 A 
ATOM     64  C   UNL A   1      39.660  25.985  28.095  1.00  0.00     0.002 A 
ATOM     65  C   UNL A   1      41.403  27.325  27.072  1.00  0.00     0.091 A 
ATOM     66  F   UNL A   1      42.283  29.200  28.259  1.00  0.00    -0.205 F 
ATOM     67  C   UNL A   1      40.528  26.227  27.034  1.00  0.00     0.022 A 
BRANCH  65  68
ATOM     68  S   UNL A   1      42.447  27.606  25.637  1.00  0.00     0.127 S 
ATOM     69  O   UNL A   1      43.778  27.634  26.239  1.00  0.00    -0.237 OA
ATOM     70  O   UNL A   1      42.176  26.428  24.812  1.00  0.00    -0.237 OA
ATOM     71  O   UNL A   1      41.983  28.860  25.059  1.00  0.00    -0.744 OA
ENDBRANCH  65  68
ENDBRANCH  47  61
BRANCH  48  72
ATOM     72  C   UNL A   1      39.562  34.017  37.093  1.00  0.00     0.023 A 
ATOM     73  C   UNL A   1      39.921  35.375  36.990  1.00  0.00     0.012 A 
ATOM     74  C   UNL A   1      38.998  33.544  38.293  1.00  0.00     0.148 A 
ATOM     75  C   UNL A   1      39.735  36.243  38.066  1.00  0.00     0.002 A 
ATOM     76  C   UNL A   1      38.769  34.426  39.345  1.00  0.00     0.091 A 
ATOM     77  F   UNL A   1      38.681  32.244  38.380  1.00  0.00    -0.205 F 
ATOM     78  C   UNL A   1      39.147  35.773  39.238  1.00  0.00     0.022 A 
BRANCH  76  79
ATOM     79  S   UNL A   1      37.890  33.922  40.828  1.00  0.00     0.127 S 
ATOM     80  O   UNL A   1      36.722  33.248  40.272  1.00  0.00    -0.237 OA
ATOM     81  O   UNL A   1      38.859  33.039  41.480  1.00  0.00    -0.237 OA
ATOM     82  O   UNL A   1      37.634  35.158  41.557  1.00  0.00    -0.744 OA
ENDBRANCH  76  79
ENDBRANCH  48  72
BRANCH  60  83
ATOM     83  C   UNL A   1      44.101  28.979  35.421  1.00  0.00     0.023 A 
ATOM     84  C   UNL A   1      45.379  29.560  35.304  1.00  0.00     0.012 A 
ATOM     85  C   UNL A   1      43.915  27.883  36.285  1.00  0.00     0.148 A 
ATOM     86  C   UNL A   1      46.459  29.049  36.020  1.00  0.00     0.002 A 
ATOM     87  C   UNL A   1      44.990  27.400  37.026  1.00  0.00     0.091 A 
ATOM     88  F   UNL A   1      42.698  27.327  36.367  1.00  0.00    -0.205 F 
ATOM     89  C   UNL A   1      46.263  27.978  36.889  1.00  0.00     0.022 A 
BRANCH  87  90
ATOM     90  S   UNL A   1      44.792  26.077  38.225  1.00  0.00     0.127 S 
ATOM     91  O   UNL A   1      44.295  24.987  37.390  1.00  0.00    -0.237 OA
ATOM     92  O   UNL A   1      46.157  25.890  38.721  1.00  0.00    -0.237 OA
ATOM     93  O   UNL A   1      43.861  26.591  39.221  1.00  0.00    -0.744 OA
ENDBRANCH  87  90
ENDBRANCH  60  83
ENDBRANCH  34  35
ENDBRANCH  26  29
ENDBRANCH  24  25
ENDBRANCH  23  24
ENDBRANCH   1  23
TORSDOF 18
ENDMDL
