MODEL 1
REMARK VINA RESULT:     -12.5      0.000      0.000
REMARK SMILES NC(=O)c1ccc(Oc2cccc(C(=O)NCCCNC(=O)c3ccc(-c4c5nc(c(-c6cccc(S(=O)(=O)[O-])c6F)c6ccc([nH]6)c(-c6cccc(S(=O)(=O)[O-])c6F)c6nc(c(-c7cccc(S(=O)(=O)[O-])c7F)c7ccc4[nH]7)C=C6)C=C5)cc3)c2)nc1
REMARK SMILES IDX 18 1 17 2 16 3 14 4 15 5 13 7 9 8 10 9 86 10 11 11 12 12
REMARK SMILES IDX 8 13 7 14 4 15 5 16 88 17 6 18 87 19 2 20 1 21 3 24 19 25
REMARK SMILES IDX 20 26 21 27 22 29 23 30 24 31 85 32 25 33 84 34 26 35 27 36
REMARK SMILES IDX 28 37 78 38 29 39 83 40 77 41 79 42 30 43 82 44 76 45 75 46
REMARK SMILES IDX 31 48 63 49 43 50 62 51 44 52 47 53 61 54 80 55 45 56 46 57
REMARK SMILES IDX 60 59 81 60 48 61 32 62 33 63 41 64 34 65 36 66 42 67 35 68
REMARK SMILES IDX 37 69 38 70 39 71 40 72 64 73 65 74 73 75 66 76 68 77 74 78
REMARK SMILES IDX 67 79 69 80 70 81 71 82 72 83 49 84 50 85 58 86 51 87 53 88
REMARK SMILES IDX 59 89 52 90 54 91 55 92 56 93 57 94
REMARK H PARENT 16 6 1 22 1 23 20 28 79 47 47 58
REMARK Flexibility Score: inf
ROOT
ATOM      1  C   UNL A   1      38.260  19.195  25.082  1.00  0.00     0.042 C 
ENDROOT
BRANCH   1   2
ATOM      2  C   UNL A   1      36.990  20.021  24.888  1.00  0.00     0.118 C 
BRANCH   2   3
ATOM      3  N   UNL A   1      37.244  21.433  25.108  1.00  0.00    -0.352 N 
ATOM      4  C   UNL A   1      36.554  22.573  24.788  1.00  0.00     0.251 C 
ATOM      5  O   UNL A   1      37.038  23.644  25.159  1.00  0.00    -0.269 OA
ATOM      6  H   UNL A   1      38.086  21.609  25.587  1.00  0.00     0.163 HD
BRANCH   4   7
ATOM      7  C   UNL A   1      35.228  22.579  24.104  1.00  0.00     0.043 A 
ATOM      8  C   UNL A   1      32.982  21.775  23.703  1.00  0.00     0.130 A 
ATOM      9  C   UNL A   1      32.699  22.879  22.904  1.00  0.00     0.047 A 
ATOM     10  C   UNL A   1      34.266  21.577  24.218  1.00  0.00     0.061 A 
ATOM     11  C   UNL A   1      33.687  23.835  22.685  1.00  0.00     0.005 A 
ATOM     12  C   UNL A   1      34.932  23.698  23.303  1.00  0.00     0.014 A 
BRANCH   8  13
ATOM     13  O   UNL A   1      31.964  20.883  23.946  1.00  0.00    -0.439 OA
BRANCH  13  14
ATOM     14  C   UNL A   1      32.292  19.551  24.129  1.00  0.00     0.219 A 
ATOM     15  C   UNL A   1      33.009  16.951  24.722  1.00  0.00     0.058 A 
ATOM     16  C   UNL A   1      32.917  17.346  23.388  1.00  0.00     0.021 A 
ATOM     17  C   UNL A   1      32.715  17.895  25.695  1.00  0.00     0.129 A 
ATOM     18  C   UNL A   1      32.574  18.666  23.088  1.00  0.00     0.070 A 
ATOM     19  N   UNL A   1      32.374  19.181  25.425  1.00  0.00    -0.221 NA
BRANCH  15  20
ATOM     20  C   UNL A   1      33.406  15.589  25.143  1.00  0.00     0.250 C 
ATOM     21  N   UNL A   1      32.407  14.673  25.337  1.00  0.00    -0.366 N 
ATOM     22  H   UNL A   1      32.626  13.756  25.617  1.00  0.00     0.159 HD
ATOM     23  H   UNL A   1      31.467  14.932  25.195  1.00  0.00     0.159 HD
ATOM     24  O   UNL A   1      34.576  15.274  25.278  1.00  0.00    -0.269 OA
ENDBRANCH  15  20
ENDBRANCH  13  14
ENDBRANCH   8  13
ENDBRANCH   4   7
ENDBRANCH   2   3
ENDBRANCH   1   2
BRANCH   1  25
ATOM     25  C   UNL A   1      39.312  19.916  25.921  1.00  0.00     0.118 C 
BRANCH  25  26
ATOM     26  N   UNL A   1      40.515  19.108  26.087  1.00  0.00    -0.352 N 
ATOM     27  C   UNL A   1      41.825  19.493  26.222  1.00  0.00     0.251 C 
ATOM     28  H   UNL A   1      40.363  18.135  26.106  1.00  0.00     0.163 HD
ATOM     29  O   UNL A   1      42.712  18.652  26.095  1.00  0.00    -0.269 OA
BRANCH  27  30
ATOM     30  C   UNL A   1      42.169  20.898  26.525  1.00  0.00     0.039 A 
ATOM     31  C   UNL A   1      42.326  21.285  27.859  1.00  0.00     0.014 A 
ATOM     32  C   UNL A   1      42.287  21.844  25.504  1.00  0.00     0.014 A 
ATOM     33  C   UNL A   1      42.647  22.609  28.164  1.00  0.00     0.010 A 
ATOM     34  C   UNL A   1      42.684  23.144  25.803  1.00  0.00     0.010 A 
ATOM     35  C   UNL A   1      42.854  23.544  27.136  1.00  0.00    -0.014 A 
BRANCH  35  36
ATOM     36  C   UNL A   1      43.253  24.944  27.433  1.00  0.00     0.031 A 
ATOM     37  C   UNL A   1      42.266  25.902  28.046  1.00  0.00     0.074 A 
ATOM     38  C   UNL A   1      44.475  25.376  27.066  1.00  0.00     0.049 A 
ATOM     39  N   UNL A   1      42.408  27.174  28.310  1.00  0.00    -0.248 NA
ATOM     40  C   UNL A   1      40.935  25.367  28.377  1.00  0.00     0.031 C 
ATOM     41  C   UNL A   1      45.490  24.565  26.388  1.00  0.00     0.029 A 
ATOM     42  N   UNL A   1      45.061  26.611  27.180  1.00  0.00    -0.354 N 
ATOM     43  C   UNL A   1      41.179  27.600  28.802  1.00  0.00     0.074 A 
ATOM     44  C   UNL A   1      40.292  26.458  28.765  1.00  0.00     0.031 C 
ATOM     45  C   UNL A   1      46.571  25.322  26.148  1.00  0.00     0.029 A 
ATOM     46  C   UNL A   1      46.317  26.679  26.623  1.00  0.00     0.049 A 
ATOM     47  H   UNL A   1      44.625  27.376  27.620  1.00  0.00     0.167 HD
ATOM     48  C   UNL A   1      40.828  28.821  29.270  1.00  0.00     0.034 A 
ATOM     49  C   UNL A   1      47.163  27.719  26.498  1.00  0.00     0.034 A 
ATOM     50  C   UNL A   1      41.727  29.942  29.342  1.00  0.00     0.049 A 
ATOM     51  C   UNL A   1      46.767  29.054  27.065  1.00  0.00     0.074 A 
ATOM     52  C   UNL A   1      41.499  31.197  29.878  1.00  0.00     0.029 A 
ATOM     53  N   UNL A   1      43.025  29.947  28.854  1.00  0.00    -0.354 N 
ATOM     54  N   UNL A   1      45.656  29.396  27.670  1.00  0.00    -0.248 NA
ATOM     55  C   UNL A   1      47.756  30.137  26.968  1.00  0.00     0.031 C 
ATOM     56  C   UNL A   1      42.651  31.968  29.692  1.00  0.00     0.029 A 
ATOM     57  C   UNL A   1      43.608  31.183  29.069  1.00  0.00     0.049 A 
ATOM     58  H   UNL A   1      43.467  29.182  28.419  1.00  0.00     0.167 HD
ATOM     59  C   UNL A   1      45.823  30.721  28.056  1.00  0.00     0.074 A 
ATOM     60  C   UNL A   1      47.154  31.112  27.636  1.00  0.00     0.031 C 
ATOM     61  C   UNL A   1      44.951  31.543  28.689  1.00  0.00     0.034 A 
BRANCH  48  62
ATOM     62  C   UNL A   1      39.424  28.996  29.791  1.00  0.00     0.023 A 
ATOM     63  C   UNL A   1      39.116  28.598  31.109  1.00  0.00     0.012 A 
ATOM     64  C   UNL A   1      38.424  29.598  29.003  1.00  0.00     0.148 A 
ATOM     65  C   UNL A   1      37.829  28.758  31.620  1.00  0.00     0.002 A 
ATOM     66  C   UNL A   1      37.155  29.798  29.535  1.00  0.00     0.091 A 
ATOM     67  F   UNL A   1      38.727  29.953  27.746  1.00  0.00    -0.205 F 
ATOM     68  C   UNL A   1      36.853  29.367  30.837  1.00  0.00     0.022 A 
BRANCH  66  69
ATOM     69  S   UNL A   1      35.849  30.645  28.639  1.00  0.00     0.127 S 
ATOM     70  O   UNL A   1      35.079  29.522  28.107  1.00  0.00    -0.237 OA
ATOM     71  O   UNL A   1      35.179  31.392  29.704  1.00  0.00    -0.237 OA
ATOM     72  O   UNL A   1      36.515  31.473  27.644  1.00  0.00    -0.744 OA
ENDBRANCH  66  69
ENDBRANCH  48  62
BRANCH  49  73
ATOM     73  C   UNL A   1      48.495  27.519  25.857  1.00  0.00     0.023 A 
ATOM     74  C   UNL A   1      49.603  27.174  26.655  1.00  0.00     0.012 A 
ATOM     75  C   UNL A   1      48.660  27.635  24.464  1.00  0.00     0.148 A 
ATOM     76  C   UNL A   1      50.860  26.980  26.080  1.00  0.00     0.002 A 
ATOM     77  C   UNL A   1      49.902  27.387  23.892  1.00  0.00     0.091 A 
ATOM     78  F   UNL A   1      47.595  27.973  23.723  1.00  0.00    -0.205 F 
ATOM     79  C   UNL A   1      51.007  27.076  24.699  1.00  0.00     0.022 A 
BRANCH  77  80
ATOM     80  S   UNL A   1      50.156  27.359  22.114  1.00  0.00     0.127 S 
ATOM     81  O   UNL A   1      49.914  28.754  21.756  1.00  0.00    -0.237 OA
ATOM     82  O   UNL A   1      51.552  26.932  22.014  1.00  0.00    -0.237 OA
ATOM     83  O   UNL A   1      49.194  26.397  21.594  1.00  0.00    -0.744 OA
ENDBRANCH  77  80
ENDBRANCH  49  73
BRANCH  61  84
ATOM     84  C   UNL A   1      45.413  32.941  29.005  1.00  0.00     0.023 A 
ATOM     85  C   UNL A   1      46.108  33.199  30.205  1.00  0.00     0.012 A 
ATOM     86  C   UNL A   1      45.224  33.985  28.079  1.00  0.00     0.148 A 
ATOM     87  C   UNL A   1      46.575  34.480  30.491  1.00  0.00     0.002 A 
ATOM     88  C   UNL A   1      45.738  35.248  28.348  1.00  0.00     0.091 A 
ATOM     89  F   UNL A   1      44.545  33.725  26.952  1.00  0.00    -0.205 F 
ATOM     90  C   UNL A   1      46.401  35.500  29.559  1.00  0.00     0.022 A 
BRANCH  88  91
ATOM     91  S   UNL A   1      45.649  36.596  27.164  1.00  0.00     0.127 S 
ATOM     92  O   UNL A   1      46.348  37.664  27.877  1.00  0.00    -0.237 OA
ATOM     93  O   UNL A   1      46.377  36.050  26.018  1.00  0.00    -0.237 OA
ATOM     94  O   UNL A   1      44.232  36.829  26.925  1.00  0.00    -0.744 OA
ENDBRANCH  88  91
ENDBRANCH  61  84
ENDBRANCH  35  36
ENDBRANCH  27  30
ENDBRANCH  25  26
ENDBRANCH   1  25
TORSDOF 16
ENDMDL
MODEL 2
REMARK VINA RESULT:     -12.3      5.715      8.991
REMARK SMILES NC(=O)c1ccc(Oc2cccc(C(=O)NCCCNC(=O)c3ccc(-c4c5nc(c(-c6cccc(S(=O)(=O)[O-])c6F)c6ccc([nH]6)c(-c6cccc(S(=O)(=O)[O-])c6F)c6nc(c(-c7cccc(S(=O)(=O)[O-])c7F)c7ccc4[nH]7)C=C6)C=C5)cc3)c2)nc1
REMARK SMILES IDX 18 1 17 2 16 3 14 4 15 5 13 7 9 8 10 9 86 10 11 11 12 12
REMARK SMILES IDX 8 13 7 14 4 15 5 16 88 17 6 18 87 19 2 20 1 21 3 24 19 25
REMARK SMILES IDX 20 26 21 27 22 29 23 30 24 31 85 32 25 33 84 34 26 35 27 36
REMARK SMILES IDX 28 37 78 38 29 39 83 40 77 41 79 42 30 43 82 44 76 45 75 46
REMARK SMILES IDX 31 48 63 49 43 50 62 51 44 52 47 53 61 54 80 55 45 56 46 57
REMARK SMILES IDX 60 59 81 60 48 61 32 62 33 63 41 64 34 65 36 66 42 67 35 68
REMARK SMILES IDX 37 69 38 70 39 71 40 72 64 73 65 74 73 75 66 76 68 77 74 78
REMARK SMILES IDX 67 79 69 80 70 81 71 82 72 83 49 84 50 85 58 86 51 87 53 88
REMARK SMILES IDX 59 89 52 90 54 91 55 92 56 93 57 94
REMARK H PARENT 16 6 1 22 1 23 20 28 79 47 47 58
REMARK Flexibility Score: inf
ROOT
ATOM      1  C   UNL A   1      32.979  28.482  25.190  1.00  0.00     0.042 C 
ENDROOT
BRANCH   1   2
ATOM      2  C   UNL A   1      31.791  29.442  25.214  1.00  0.00     0.118 C 
BRANCH   2   3
ATOM      3  N   UNL A   1      31.292  29.692  23.874  1.00  0.00    -0.352 N 
ATOM      4  C   UNL A   1      30.895  28.871  22.851  1.00  0.00     0.251 C 
ATOM      5  O   UNL A   1      30.480  29.414  21.826  1.00  0.00    -0.269 OA
ATOM      6  H   UNL A   1      31.223  30.650  23.655  1.00  0.00     0.163 HD
BRANCH   4   7
ATOM      7  C   UNL A   1      30.858  27.383  22.944  1.00  0.00     0.043 A 
ATOM      8  C   UNL A   1      31.790  25.163  22.705  1.00  0.00     0.130 A 
ATOM      9  C   UNL A   1      30.728  24.610  23.415  1.00  0.00     0.047 A 
ATOM     10  C   UNL A   1      31.805  26.524  22.388  1.00  0.00     0.061 A 
ATOM     11  C   UNL A   1      29.713  25.440  23.882  1.00  0.00     0.005 A 
ATOM     12  C   UNL A   1      29.793  26.818  23.671  1.00  0.00     0.014 A 
BRANCH   8  13
ATOM     13  O   UNL A   1      32.805  24.323  22.311  1.00  0.00    -0.439 OA
BRANCH  13  14
ATOM     14  C   UNL A   1      33.893  24.172  23.153  1.00  0.00     0.219 A 
ATOM     15  C   UNL A   1      36.124  23.677  24.702  1.00  0.00     0.058 A 
ATOM     16  C   UNL A   1      35.111  24.492  25.207  1.00  0.00     0.021 A 
ATOM     17  C   UNL A   1      35.962  23.165  23.423  1.00  0.00     0.129 A 
ATOM     18  C   UNL A   1      33.973  24.727  24.431  1.00  0.00     0.070 A 
ATOM     19  N   UNL A   1      34.868  23.385  22.651  1.00  0.00    -0.221 NA
BRANCH  15  20
ATOM     20  C   UNL A   1      37.348  23.334  25.461  1.00  0.00     0.250 C 
ATOM     21  N   UNL A   1      38.032  22.211  25.079  1.00  0.00    -0.366 N 
ATOM     22  H   UNL A   1      38.850  21.947  25.556  1.00  0.00     0.159 HD
ATOM     23  H   UNL A   1      37.705  21.668  24.325  1.00  0.00     0.159 HD
ATOM     24  O   UNL A   1      37.760  24.038  26.367  1.00  0.00    -0.269 OA
ENDBRANCH  15  20
ENDBRANCH  13  14
ENDBRANCH   8  13
ENDBRANCH   4   7
ENDBRANCH   2   3
ENDBRANCH   1   2
BRANCH   1  25
ATOM     25  C   UNL A   1      34.099  28.903  26.138  1.00  0.00     0.118 C 
BRANCH  25  26
ATOM     26  N   UNL A   1      33.863  30.231  26.695  1.00  0.00    -0.352 N 
ATOM     27  C   UNL A   1      34.498  30.883  27.721  1.00  0.00     0.251 C 
ATOM     28  H   UNL A   1      33.136  30.738  26.266  1.00  0.00     0.163 HD
ATOM     29  O   UNL A   1      33.983  31.891  28.200  1.00  0.00    -0.269 OA
BRANCH  27  30
ATOM     30  C   UNL A   1      35.790  30.389  28.242  1.00  0.00     0.039 A 
ATOM     31  C   UNL A   1      35.807  29.673  29.443  1.00  0.00     0.014 A 
ATOM     32  C   UNL A   1      36.986  30.671  27.578  1.00  0.00     0.014 A 
ATOM     33  C   UNL A   1      37.019  29.202  29.952  1.00  0.00     0.010 A 
ATOM     34  C   UNL A   1      38.182  30.134  28.045  1.00  0.00     0.010 A 
ATOM     35  C   UNL A   1      38.214  29.406  29.243  1.00  0.00    -0.014 A 
BRANCH  35  36
ATOM     36  C   UNL A   1      39.507  28.865  29.734  1.00  0.00     0.031 A 
ATOM     37  C   UNL A   1      40.256  29.567  30.835  1.00  0.00     0.074 A 
ATOM     38  C   UNL A   1      40.049  27.791  29.126  1.00  0.00     0.049 A 
ATOM     39  N   UNL A   1      41.427  29.286  31.345  1.00  0.00    -0.248 NA
ATOM     40  C   UNL A   1      39.620  30.760  31.419  1.00  0.00     0.031 C 
ATOM     41  C   UNL A   1      39.459  27.074  27.993  1.00  0.00     0.029 A 
ATOM     42  N   UNL A   1      41.233  27.136  29.353  1.00  0.00    -0.354 N 
ATOM     43  C   UNL A   1      41.685  30.284  32.279  1.00  0.00     0.074 A 
ATOM     44  C   UNL A   1      40.564  31.198  32.239  1.00  0.00     0.031 C 
ATOM     45  C   UNL A   1      40.281  26.080  27.624  1.00  0.00     0.029 A 
ATOM     46  C   UNL A   1      41.471  26.107  28.470  1.00  0.00     0.049 A 
ATOM     47  H   UNL A   1      41.853  27.378  30.077  1.00  0.00     0.167 HD
ATOM     48  C   UNL A   1      42.742  30.412  33.115  1.00  0.00     0.034 A 
ATOM     49  C   UNL A   1      42.532  25.287  28.348  1.00  0.00     0.034 A 
ATOM     50  C   UNL A   1      43.833  29.478  33.177  1.00  0.00     0.049 A 
ATOM     51  C   UNL A   1      43.674  25.422  29.318  1.00  0.00     0.074 A 
ATOM     52  C   UNL A   1      44.910  29.467  34.047  1.00  0.00     0.029 A 
ATOM     53  N   UNL A   1      43.994  28.391  32.331  1.00  0.00    -0.354 N 
ATOM     54  N   UNL A   1      43.825  26.278  30.298  1.00  0.00    -0.248 NA
ATOM     55  C   UNL A   1      44.773  24.456  29.188  1.00  0.00     0.031 C 
ATOM     56  C   UNL A   1      45.734  28.389  33.709  1.00  0.00     0.029 A 
ATOM     57  C   UNL A   1      45.154  27.708  32.651  1.00  0.00     0.049 A 
ATOM     58  H   UNL A   1      43.373  28.142  31.608  1.00  0.00     0.167 HD
ATOM     59  C   UNL A   1      45.017  25.933  30.926  1.00  0.00     0.074 A 
ATOM     60  C   UNL A   1      45.535  24.775  30.225  1.00  0.00     0.031 C 
ATOM     61  C   UNL A   1      45.633  26.528  31.976  1.00  0.00     0.034 A 
BRANCH  48  62
ATOM     62  C   UNL A   1      42.744  31.581  34.069  1.00  0.00     0.023 A 
ATOM     63  C   UNL A   1      43.293  32.813  33.658  1.00  0.00     0.012 A 
ATOM     64  C   UNL A   1      42.161  31.478  35.346  1.00  0.00     0.148 A 
ATOM     65  C   UNL A   1      43.298  33.912  34.516  1.00  0.00     0.002 A 
ATOM     66  C   UNL A   1      42.127  32.592  36.179  1.00  0.00     0.091 A 
ATOM     67  F   UNL A   1      41.661  30.295  35.729  1.00  0.00    -0.205 F 
ATOM     68  C   UNL A   1      42.707  33.804  35.771  1.00  0.00     0.022 A 
BRANCH  66  69
ATOM     69  S   UNL A   1      41.316  32.581  37.782  1.00  0.00     0.127 S 
ATOM     70  O   UNL A   1      41.379  33.993  38.153  1.00  0.00    -0.237 OA
ATOM     71  O   UNL A   1      39.976  32.099  37.446  1.00  0.00    -0.237 OA
ATOM     72  O   UNL A   1      42.094  31.679  38.620  1.00  0.00    -0.744 OA
ENDBRANCH  66  69
ENDBRANCH  48  62
BRANCH  49  73
ATOM     73  C   UNL A   1      42.532  24.225  27.301  1.00  0.00     0.023 A 
ATOM     74  C   UNL A   1      43.179  24.463  26.073  1.00  0.00     0.012 A 
ATOM     75  C   UNL A   1      41.926  22.975  27.529  1.00  0.00     0.148 A 
ATOM     76  C   UNL A   1      43.195  23.486  25.077  1.00  0.00     0.002 A 
ATOM     77  C   UNL A   1      41.994  21.986  26.554  1.00  0.00     0.091 A 
ATOM     78  F   UNL A   1      41.309  22.771  28.700  1.00  0.00    -0.205 F 
ATOM     79  C   UNL A   1      42.612  22.245  25.321  1.00  0.00     0.022 A 
BRANCH  77  80
ATOM     80  S   UNL A   1      41.386  20.319  26.829  1.00  0.00     0.127 S 
ATOM     81  O   UNL A   1      40.305  20.229  25.850  1.00  0.00    -0.237 OA
ATOM     82  O   UNL A   1      42.566  19.512  26.518  1.00  0.00    -0.237 OA
ATOM     83  O   UNL A   1      40.979  20.274  28.227  1.00  0.00    -0.744 OA
ENDBRANCH  77  80
ENDBRANCH  49  73
BRANCH  61  84
ATOM     84  C   UNL A   1      46.921  25.920  32.466  1.00  0.00     0.023 A 
ATOM     85  C   UNL A   1      48.151  26.347  31.925  1.00  0.00     0.012 A 
ATOM     86  C   UNL A   1      46.916  24.978  33.513  1.00  0.00     0.148 A 
ATOM     87  C   UNL A   1      49.352  25.820  32.397  1.00  0.00     0.002 A 
ATOM     88  C   UNL A   1      48.120  24.496  34.013  1.00  0.00     0.091 A 
ATOM     89  F   UNL A   1      45.735  24.570  34.001  1.00  0.00    -0.205 F 
ATOM     90  C   UNL A   1      49.338  24.905  33.447  1.00  0.00     0.022 A 
BRANCH  88  91
ATOM     91  S   UNL A   1      48.202  23.393  35.428  1.00  0.00     0.127 S 
ATOM     92  O   UNL A   1      47.056  22.517  35.190  1.00  0.00    -0.237 OA
ATOM     93  O   UNL A   1      49.506  22.753  35.247  1.00  0.00    -0.237 OA
ATOM     94  O   UNL A   1      48.105  24.242  36.606  1.00  0.00    -0.744 OA
ENDBRANCH  88  91
ENDBRANCH  61  84
ENDBRANCH  35  36
ENDBRANCH  27  30
ENDBRANCH  25  26
ENDBRANCH   1  25
TORSDOF 16
ENDMDL
MODEL 3
REMARK VINA RESULT:     -12.2      1.188      7.600
REMARK SMILES NC(=O)c1ccc(Oc2cccc(C(=O)NCCCNC(=O)c3ccc(-c4c5nc(c(-c6cccc(S(=O)(=O)[O-])c6F)c6ccc([nH]6)c(-c6cccc(S(=O)(=O)[O-])c6F)c6nc(c(-c7cccc(S(=O)(=O)[O-])c7F)c7ccc4[nH]7)C=C6)C=C5)cc3)c2)nc1
REMARK SMILES IDX 18 1 17 2 16 3 14 4 15 5 13 7 9 8 10 9 86 10 11 11 12 12
REMARK SMILES IDX 8 13 7 14 4 15 5 16 88 17 6 18 87 19 2 20 1 21 3 24 19 25
REMARK SMILES IDX 20 26 21 27 22 29 23 30 24 31 85 32 25 33 84 34 26 35 27 36
REMARK SMILES IDX 28 37 78 38 29 39 83 40 77 41 79 42 30 43 82 44 76 45 75 46
REMARK SMILES IDX 31 48 63 49 43 50 62 51 44 52 47 53 61 54 80 55 45 56 46 57
REMARK SMILES IDX 60 59 81 60 48 61 32 62 33 63 41 64 34 65 36 66 42 67 35 68
REMARK SMILES IDX 37 69 38 70 39 71 40 72 64 73 65 74 73 75 66 76 68 77 74 78
REMARK SMILES IDX 67 79 69 80 70 81 71 82 72 83 49 84 50 85 58 86 51 87 53 88
REMARK SMILES IDX 59 89 52 90 54 91 55 92 56 93 57 94
REMARK H PARENT 16 6 1 22 1 23 20 28 79 47 47 58
REMARK Flexibility Score: inf
ROOT
ATOM      1  C   UNL A   1      38.369  19.689  25.057  1.00  0.00     0.042 C 
ENDROOT
BRANCH   1   2
ATOM      2  C   UNL A   1      37.004  20.373  25.014  1.00  0.00     0.118 C 
BRANCH   2   3
ATOM      3  N   UNL A   1      37.125  21.801  25.249  1.00  0.00    -0.352 N 
ATOM      4  C   UNL A   1      36.214  22.821  25.321  1.00  0.00     0.251 C 
ATOM      5  O   UNL A   1      36.650  23.945  25.576  1.00  0.00    -0.269 OA
ATOM      6  H   UNL A   1      38.054  22.097  25.386  1.00  0.00     0.163 HD
BRANCH   4   7
ATOM      7  C   UNL A   1      34.740  22.631  25.197  1.00  0.00     0.043 A 
ATOM      8  C   UNL A   1      32.749  21.501  24.414  1.00  0.00     0.130 A 
ATOM      9  C   UNL A   1      31.950  22.260  25.265  1.00  0.00     0.047 A 
ATOM     10  C   UNL A   1      34.120  21.753  24.310  1.00  0.00     0.061 A 
ATOM     11  C   UNL A   1      32.540  23.223  26.077  1.00  0.00     0.005 A 
ATOM     12  C   UNL A   1      33.927  23.387  26.062  1.00  0.00     0.014 A 
BRANCH   8  13
ATOM     13  O   UNL A   1      32.140  20.517  23.670  1.00  0.00    -0.439 OA
BRANCH  13  14
ATOM     14  C   UNL A   1      32.448  19.199  23.953  1.00  0.00     0.219 A 
ATOM     15  C   UNL A   1      33.080  16.631  24.750  1.00  0.00     0.058 A 
ATOM     16  C   UNL A   1      33.236  16.987  23.411  1.00  0.00     0.021 A 
ATOM     17  C   UNL A   1      32.592  17.595  25.620  1.00  0.00     0.129 A 
ATOM     18  C   UNL A   1      32.935  18.292  23.011  1.00  0.00     0.070 A 
ATOM     19  N   UNL A   1      32.289  18.866  25.252  1.00  0.00    -0.221 NA
BRANCH  15  20
ATOM     20  C   UNL A   1      33.411  15.290  25.281  1.00  0.00     0.250 C 
ATOM     21  N   UNL A   1      32.376  14.526  25.752  1.00  0.00    -0.366 N 
ATOM     22  H   UNL A   1      32.552  13.629  26.113  1.00  0.00     0.159 HD
ATOM     23  H   UNL A   1      31.456  14.875  25.728  1.00  0.00     0.159 HD
ATOM     24  O   UNL A   1      34.550  14.858  25.268  1.00  0.00    -0.269 OA
ENDBRANCH  15  20
ENDBRANCH  13  14
ENDBRANCH   8  13
ENDBRANCH   4   7
ENDBRANCH   2   3
ENDBRANCH   1   2
BRANCH   1  25
ATOM     25  C   UNL A   1      39.315  20.320  26.077  1.00  0.00     0.118 C 
BRANCH  25  26
ATOM     26  N   UNL A   1      40.584  19.604  26.148  1.00  0.00    -0.352 N 
ATOM     27  C   UNL A   1      41.864  20.087  26.250  1.00  0.00     0.251 C 
ATOM     28  H   UNL A   1      40.511  18.623  26.120  1.00  0.00     0.163 HD
ATOM     29  O   UNL A   1      42.809  19.329  26.041  1.00  0.00    -0.269 OA
BRANCH  27  30
ATOM     30  C   UNL A   1      42.109  21.498  26.615  1.00  0.00     0.039 A 
ATOM     31  C   UNL A   1      42.247  21.835  27.965  1.00  0.00     0.014 A 
ATOM     32  C   UNL A   1      42.155  22.495  25.637  1.00  0.00     0.014 A 
ATOM     33  C   UNL A   1      42.475  23.164  28.328  1.00  0.00     0.010 A 
ATOM     34  C   UNL A   1      42.460  23.805  25.994  1.00  0.00     0.010 A 
ATOM     35  C   UNL A   1      42.609  24.156  27.344  1.00  0.00    -0.014 A 
BRANCH  35  36
ATOM     36  C   UNL A   1      42.909  25.566  27.702  1.00  0.00     0.031 A 
ATOM     37  C   UNL A   1      44.325  26.077  27.662  1.00  0.00     0.074 A 
ATOM     38  C   UNL A   1      41.917  26.360  28.151  1.00  0.00     0.049 A 
ATOM     39  N   UNL A   1      44.788  27.250  28.006  1.00  0.00    -0.248 NA
ATOM     40  C   UNL A   1      45.360  25.135  27.205  1.00  0.00     0.031 C 
ATOM     41  C   UNL A   1      40.519  25.955  28.314  1.00  0.00     0.029 A 
ATOM     42  N   UNL A   1      41.937  27.662  28.583  1.00  0.00    -0.354 N 
ATOM     43  C   UNL A   1      46.167  27.177  27.843  1.00  0.00     0.074 A 
ATOM     44  C   UNL A   1      46.469  25.832  27.405  1.00  0.00     0.031 C 
ATOM     45  C   UNL A   1      39.816  26.985  28.810  1.00  0.00     0.029 A 
ATOM     46  C   UNL A   1      40.716  28.113  29.030  1.00  0.00     0.049 A 
ATOM     47  H   UNL A   1      42.747  28.221  28.573  1.00  0.00     0.167 HD
ATOM     48  C   UNL A   1      47.095  28.148  28.014  1.00  0.00     0.034 A 
ATOM     49  C   UNL A   1      40.365  29.296  29.569  1.00  0.00     0.034 A 
ATOM     50  C   UNL A   1      46.783  29.495  28.412  1.00  0.00     0.049 A 
ATOM     51  C   UNL A   1      41.406  30.373  29.706  1.00  0.00     0.074 A 
ATOM     52  C   UNL A   1      47.637  30.578  28.529  1.00  0.00     0.029 A 
ATOM     53  N   UNL A   1      45.520  29.943  28.765  1.00  0.00    -0.354 N 
ATOM     54  N   UNL A   1      42.678  30.334  29.398  1.00  0.00    -0.248 NA
ATOM     55  C   UNL A   1      40.954  31.670  30.230  1.00  0.00     0.031 C 
ATOM     56  C   UNL A   1      46.893  31.674  28.979  1.00  0.00     0.029 A 
ATOM     57  C   UNL A   1      45.570  31.282  29.109  1.00  0.00     0.049 A 
ATOM     58  H   UNL A   1      44.706  29.389  28.771  1.00  0.00     0.167 HD
ATOM     59  C   UNL A   1      43.174  31.607  29.655  1.00  0.00     0.074 A 
ATOM     60  C   UNL A   1      42.056  32.400  30.126  1.00  0.00     0.031 C 
ATOM     61  C   UNL A   1      44.441  32.072  29.528  1.00  0.00     0.034 A 
BRANCH  48  62
ATOM     62  C   UNL A   1      48.534  27.803  27.720  1.00  0.00     0.023 A 
ATOM     63  C   UNL A   1      49.356  27.309  28.753  1.00  0.00     0.012 A 
ATOM     64  C   UNL A   1      49.058  27.917  26.418  1.00  0.00     0.148 A 
ATOM     65  C   UNL A   1      50.686  26.973  28.507  1.00  0.00     0.002 A 
ATOM     66  C   UNL A   1      50.371  27.534  26.168  1.00  0.00     0.091 A 
ATOM     67  F   UNL A   1      48.269  28.406  25.450  1.00  0.00    -0.205 F 
ATOM     68  C   UNL A   1      51.190  27.076  27.213  1.00  0.00     0.022 A 
BRANCH  66  69
ATOM     69  S   UNL A   1      51.092  27.551  24.523  1.00  0.00     0.127 S 
ATOM     70  O   UNL A   1      52.413  26.976  24.774  1.00  0.00    -0.237 OA
ATOM     71  O   UNL A   1      50.181  26.681  23.779  1.00  0.00    -0.237 OA
ATOM     72  O   UNL A   1      51.087  28.943  24.096  1.00  0.00    -0.744 OA
ENDBRANCH  66  69
ENDBRANCH  48  62
BRANCH  49  73
ATOM     73  C   UNL A   1      38.947  29.541  29.961  1.00  0.00     0.023 A 
ATOM     74  C   UNL A   1      38.517  29.196  31.256  1.00  0.00     0.012 A 
ATOM     75  C   UNL A   1      38.036  30.142  29.070  1.00  0.00     0.148 A 
ATOM     76  C   UNL A   1      37.196  29.416  31.649  1.00  0.00     0.002 A 
ATOM     77  C   UNL A   1      36.737  30.408  29.486  1.00  0.00     0.091 A 
ATOM     78  F   UNL A   1      38.463  30.453  27.839  1.00  0.00    -0.205 F 
ATOM     79  C   UNL A   1      36.309  30.031  30.769  1.00  0.00     0.022 A 
BRANCH  77  80
ATOM     80  S   UNL A   1      35.566  31.311  28.467  1.00  0.00     0.127 S 
ATOM     81  O   UNL A   1      36.389  32.409  27.968  1.00  0.00    -0.237 OA
ATOM     82  O   UNL A   1      35.201  30.309  27.465  1.00  0.00    -0.237 OA
ATOM     83  O   UNL A   1      34.479  31.691  29.360  1.00  0.00    -0.744 OA
ENDBRANCH  77  80
ENDBRANCH  49  73
BRANCH  61  84
ATOM     84  C   UNL A   1      44.689  33.519  29.865  1.00  0.00     0.023 A 
ATOM     85  C   UNL A   1      45.210  33.870  31.127  1.00  0.00     0.012 A 
ATOM     86  C   UNL A   1      44.474  34.525  28.902  1.00  0.00     0.148 A 
ATOM     87  C   UNL A   1      45.481  35.201  31.436  1.00  0.00     0.002 A 
ATOM     88  C   UNL A   1      44.795  35.845  29.201  1.00  0.00     0.091 A 
ATOM     89  F   UNL A   1      43.960  34.175  27.714  1.00  0.00    -0.205 F 
ATOM     90  C   UNL A   1      45.285  36.186  30.471  1.00  0.00     0.022 A 
BRANCH  88  91
ATOM     91  S   UNL A   1      44.670  37.163  27.988  1.00  0.00     0.127 S 
ATOM     92  O   UNL A   1      44.816  38.353  28.825  1.00  0.00    -0.237 OA
ATOM     93  O   UNL A   1      45.811  36.890  27.113  1.00  0.00    -0.237 OA
ATOM     94  O   UNL A   1      43.370  37.003  27.352  1.00  0.00    -0.744 OA
ENDBRANCH  88  91
ENDBRANCH  61  84
ENDBRANCH  35  36
ENDBRANCH  27  30
ENDBRANCH  25  26
ENDBRANCH   1  25
TORSDOF 16
ENDMDL
