MODEL 1
REMARK VINA RESULT:      -7.2      0.000      0.000
REMARK SMILES CC(C)C[C@H](NC(=O)[C@@H](NC(=O)[C@H](C)NC(=O)CNC(=O)OCc1ccccc1)C(C)C)C(=O)NCCCNC(=O)c1ccc(-c2c3nc(c(-c4cccc(S(=O)(=O)[O-])c4F)c4ccc([nH]4)c(-c4cccc(S(=O)(=O)[O-])c4F)c4nc(c(-c5cccc(S(=O)(=O)[O-])c5F)c5ccc2[nH]5)C=C4)C=C3)cc1
REMARK SMILES IDX 6 1 7 2 8 3 5 5 4 6 2 7 1 8 3 9 33 10 34 11 35 12 36 14
REMARK SMILES IDX 37 15 38 16 39 17 40 18 41 20 42 21 43 22 104 23 44 24
REMARK SMILES IDX 103 25 45 26 46 27 47 28 97 29 48 30 102 31 96 32 98 33
REMARK SMILES IDX 49 34 101 35 95 36 94 37 50 39 82 40 62 41 81 42 63 43 66 44
REMARK SMILES IDX 80 45 99 46 64 47 65 48 79 50 100 51 67 52 51 53 52 54 60 55
REMARK SMILES IDX 53 56 55 57 61 58 54 59 56 60 57 61 58 62 59 63 83 64 84 65
REMARK SMILES IDX 92 66 85 67 87 68 93 69 86 70 88 71 89 72 90 73 91 74 68 75
REMARK SMILES IDX 69 76 77 77 70 78 72 79 78 80 71 81 73 82 74 83 75 84 76 85
REMARK SMILES IDX 9 86 10 87 11 88 12 90 13 91 14 92 15 93 16 94 17 96 18 97
REMARK SMILES IDX 19 98 20 99 21 101 22 102 23 103 24 104 25 105 29 106 26 107
REMARK SMILES IDX 28 108 27 109 30 110 31 111 32 112
REMARK H PARENT 6 4 35 13 39 19 98 38 66 49 10 89 15 95 19 100
REMARK Flexibility Score: inf
ROOT
ATOM      1  N   UNL A   1      48.355  41.530  27.933  1.00  0.00    -0.343 N 
ATOM      2  C   UNL A   1      48.184  42.703  27.277  1.00  0.00     0.243 C 
ATOM      3  O   UNL A   1      48.997  43.593  27.557  1.00  0.00    -0.273 OA
ATOM      4  H   UNL A   1      49.127  41.523  28.544  1.00  0.00     0.164 HD
ENDROOT
BRANCH   1   5
ATOM      5  C   UNL A   1      47.612  40.280  27.903  1.00  0.00     0.171 C 
BRANCH   5   6
ATOM      6  C   UNL A   1      48.523  39.088  28.242  1.00  0.00     0.038 C 
BRANCH   6   7
ATOM      7  C   UNL A   1      50.014  39.442  28.413  1.00  0.00    -0.015 C 
ATOM      8  C   UNL A   1      50.457  39.292  29.866  1.00  0.00     0.007 C 
ATOM      9  C   UNL A   1      50.879  38.535  27.535  1.00  0.00     0.007 C 
ENDBRANCH   6   7
ENDBRANCH   5   6
BRANCH   5  10
ATOM     10  C   UNL A   1      46.340  40.446  28.755  1.00  0.00     0.242 C 
ATOM     11  O   UNL A   1      45.267  40.770  28.238  1.00  0.00    -0.273 OA
ATOM     12  N   UNL A   1      46.356  40.317  30.107  1.00  0.00    -0.354 N 
ATOM     13  H   UNL A   1      45.720  39.680  30.508  1.00  0.00     0.163 HD
BRANCH  12  14
ATOM     14  C   UNL A   1      47.230  41.039  31.015  1.00  0.00     0.117 C 
BRANCH  14  15
ATOM     15  C   UNL A   1      46.432  41.918  31.977  1.00  0.00     0.042 C 
BRANCH  15  16
ATOM     16  C   UNL A   1      45.055  42.331  31.462  1.00  0.00     0.118 C 
BRANCH  16  17
ATOM     17  N   UNL A   1      44.032  42.258  32.496  1.00  0.00    -0.352 N 
ATOM     18  C   UNL A   1      43.195  41.228  32.843  1.00  0.00     0.251 C 
ATOM     19  H   UNL A   1      43.924  43.077  33.031  1.00  0.00     0.163 HD
ATOM     20  O   UNL A   1      42.236  41.460  33.575  1.00  0.00    -0.269 OA
BRANCH  18  21
ATOM     21  C   UNL A   1      43.435  39.857  32.343  1.00  0.00     0.039 A 
ATOM     22  C   UNL A   1      43.244  39.591  30.983  1.00  0.00     0.014 A 
ATOM     23  C   UNL A   1      43.787  38.821  33.211  1.00  0.00     0.014 A 
ATOM     24  C   UNL A   1      43.436  38.297  30.497  1.00  0.00     0.010 A 
ATOM     25  C   UNL A   1      44.072  37.556  32.709  1.00  0.00     0.010 A 
ATOM     26  C   UNL A   1      43.866  37.270  31.354  1.00  0.00    -0.014 A 
BRANCH  26  27
ATOM     27  C   UNL A   1      44.047  35.882  30.858  1.00  0.00     0.031 A 
ATOM     28  C   UNL A   1      45.358  35.465  30.243  1.00  0.00     0.074 A 
ATOM     29  C   UNL A   1      43.016  35.016  30.904  1.00  0.00     0.049 A 
ATOM     30  N   UNL A   1      45.706  34.306  29.748  1.00  0.00    -0.248 NA
ATOM     31  C   UNL A   1      46.408  36.495  30.140  1.00  0.00     0.031 C 
ATOM     32  C   UNL A   1      41.670  35.325  31.389  1.00  0.00     0.029 A 
ATOM     33  N   UNL A   1      42.936  33.700  30.521  1.00  0.00    -0.354 N 
ATOM     34  C   UNL A   1      46.990  34.477  29.243  1.00  0.00     0.074 A 
ATOM     35  C   UNL A   1      47.345  35.862  29.450  1.00  0.00     0.031 C 
ATOM     36  C   UNL A   1      40.902  34.227  31.288  1.00  0.00     0.029 A 
ATOM     37  C   UNL A   1      41.696  33.142  30.719  1.00  0.00     0.049 A 
ATOM     38  H   UNL A   1      43.697  33.202  30.142  1.00  0.00     0.167 HD
ATOM     39  C   UNL A   1      47.818  33.557  28.693  1.00  0.00     0.034 A 
ATOM     40  C   UNL A   1      41.252  31.893  30.478  1.00  0.00     0.034 A 
ATOM     41  C   UNL A   1      47.485  32.167  28.547  1.00  0.00     0.049 A 
ATOM     42  C   UNL A   1      42.219  30.867  29.950  1.00  0.00     0.074 A 
ATOM     43  C   UNL A   1      48.278  31.133  28.084  1.00  0.00     0.029 A 
ATOM     44  N   UNL A   1      46.255  31.613  28.869  1.00  0.00    -0.354 N 
ATOM     45  N   UNL A   1      43.483  31.010  29.632  1.00  0.00    -0.248 NA
ATOM     46  C   UNL A   1      41.713  29.496  29.796  1.00  0.00     0.031 C 
ATOM     47  C   UNL A   1      47.525  29.955  28.119  1.00  0.00     0.029 A 
ATOM     48  C   UNL A   1      46.269  30.252  28.622  1.00  0.00     0.049 A 
ATOM     49  H   UNL A   1      45.484  32.114  29.221  1.00  0.00     0.167 HD
ATOM     50  C   UNL A   1      43.935  29.742  29.285  1.00  0.00     0.074 A 
ATOM     51  C   UNL A   1      42.813  28.841  29.450  1.00  0.00     0.031 C 
ATOM     52  C   UNL A   1      45.163  29.360  28.855  1.00  0.00     0.034 A 
BRANCH  39  53
ATOM     53  C   UNL A   1      49.190  34.013  28.272  1.00  0.00     0.023 A 
ATOM     54  C   UNL A   1      50.220  34.094  29.237  1.00  0.00     0.012 A 
ATOM     55  C   UNL A   1      49.480  34.319  26.929  1.00  0.00     0.148 A 
ATOM     56  C   UNL A   1      51.501  34.508  28.877  1.00  0.00     0.002 A 
ATOM     57  C   UNL A   1      50.774  34.686  26.571  1.00  0.00     0.091 A 
ATOM     58  F   UNL A   1      48.488  34.260  26.031  1.00  0.00    -0.205 F 
ATOM     59  C   UNL A   1      51.781  34.794  27.542  1.00  0.00     0.022 A 
BRANCH  57  60
ATOM     60  S   UNL A   1      51.254  34.995  24.867  1.00  0.00     0.127 S 
ATOM     61  O   UNL A   1      52.651  35.401  25.023  1.00  0.00    -0.237 OA
ATOM     62  O   UNL A   1      51.067  33.681  24.251  1.00  0.00    -0.237 OA
ATOM     63  O   UNL A   1      50.352  36.028  24.377  1.00  0.00    -0.744 OA
ENDBRANCH  57  60
ENDBRANCH  39  53
BRANCH  40  64
ATOM     64  C   UNL A   1      39.854  31.518  30.835  1.00  0.00     0.023 A 
ATOM     65  C   UNL A   1      39.626  30.696  31.956  1.00  0.00     0.012 A 
ATOM     66  C   UNL A   1      38.753  31.992  30.097  1.00  0.00     0.148 A 
ATOM     67  C   UNL A   1      38.330  30.323  32.314  1.00  0.00     0.002 A 
ATOM     68  C   UNL A   1      37.462  31.662  30.491  1.00  0.00     0.091 A 
ATOM     69  F   UNL A   1      38.990  32.766  29.028  1.00  0.00    -0.205 F 
ATOM     70  C   UNL A   1      37.249  30.813  31.589  1.00  0.00     0.022 A 
BRANCH  68  71
ATOM     71  S   UNL A   1      36.007  32.354  29.697  1.00  0.00     0.127 S 
ATOM     72  O   UNL A   1      36.364  33.766  29.596  1.00  0.00    -0.237 OA
ATOM     73  O   UNL A   1      35.982  31.631  28.424  1.00  0.00    -0.237 OA
ATOM     74  O   UNL A   1      34.894  32.041  30.583  1.00  0.00    -0.744 OA
ENDBRANCH  68  71
ENDBRANCH  40  64
BRANCH  52  75
ATOM     75  C   UNL A   1      45.380  27.896  28.580  1.00  0.00     0.023 A 
ATOM     76  C   UNL A   1      45.732  27.027  29.634  1.00  0.00     0.012 A 
ATOM     77  C   UNL A   1      45.170  27.370  27.291  1.00  0.00     0.148 A 
ATOM     78  C   UNL A   1      45.907  25.664  29.398  1.00  0.00     0.002 A 
ATOM     79  C   UNL A   1      45.299  26.004  27.074  1.00  0.00     0.091 A 
ATOM     80  F   UNL A   1      44.857  28.214  26.297  1.00  0.00    -0.205 F 
ATOM     81  C   UNL A   1      45.680  25.151  28.123  1.00  0.00     0.022 A 
BRANCH  79  82
ATOM     82  S   UNL A   1      44.928  25.253  25.485  1.00  0.00     0.127 S 
ATOM     83  O   UNL A   1      44.802  23.842  25.843  1.00  0.00    -0.237 OA
ATOM     84  O   UNL A   1      43.670  25.902  25.115  1.00  0.00    -0.237 OA
ATOM     85  O   UNL A   1      46.051  25.588  24.619  1.00  0.00    -0.744 OA
ENDBRANCH  79  82
ENDBRANCH  52  75
ENDBRANCH  26  27
ENDBRANCH  18  21
ENDBRANCH  16  17
ENDBRANCH  15  16
ENDBRANCH  14  15
ENDBRANCH  12  14
ENDBRANCH   5  10
ENDBRANCH   1   5
BRANCH   2  86
ATOM     86  C   UNL A   1      47.014  43.014  26.293  1.00  0.00     0.174 C 
BRANCH  86  87
ATOM     87  N   UNL A   1      46.589  41.888  25.431  1.00  0.00    -0.342 N 
ATOM     88  C   UNL A   1      46.461  41.606  24.111  1.00  0.00     0.242 C 
ATOM     89  H   UNL A   1      46.317  41.116  25.978  1.00  0.00     0.164 HD
ATOM     90  O   UNL A   1      46.561  40.391  23.867  1.00  0.00    -0.273 OA
BRANCH  88  91
ATOM     91  C   UNL A   1      45.921  42.548  22.984  1.00  0.00     0.168 C 
ATOM     92  C   UNL A   1      47.112  43.283  22.352  1.00  0.00     0.041 C 
BRANCH  91  93
ATOM     93  N   UNL A   1      44.879  43.530  23.220  1.00  0.00    -0.343 N 
ATOM     94  C   UNL A   1      43.563  43.344  23.547  1.00  0.00     0.240 C 
ATOM     95  H   UNL A   1      45.161  44.469  23.132  1.00  0.00     0.164 HD
ATOM     96  O   UNL A   1      42.821  44.328  23.512  1.00  0.00    -0.273 OA
BRANCH  94  97
ATOM     97  C   UNL A   1      43.021  41.941  23.809  1.00  0.00     0.219 C 
BRANCH  97  98
ATOM     98  N   UNL A   1      41.888  42.051  24.707  1.00  0.00    -0.312 N 
ATOM     99  C   UNL A   1      41.529  41.125  25.629  1.00  0.00     0.407 C 
ATOM    100  H   UNL A   1      41.336  42.864  24.642  1.00  0.00     0.167 HD
ATOM    101  O   UNL A   1      40.404  41.131  26.128  1.00  0.00    -0.225 OA
BRANCH  99 102
ATOM    102  O   UNL A   1      42.501  40.218  25.884  1.00  0.00    -0.445 OA
BRANCH 102 103
ATOM    103  C   UNL A   1      42.436  39.572  27.160  1.00  0.00     0.270 C 
BRANCH 103 104
ATOM    104  C   UNL A   1      42.852  38.128  27.084  1.00  0.00    -0.011 A 
ATOM    105  C   UNL A   1      44.193  37.776  26.887  1.00  0.00     0.007 A 
ATOM    106  C   UNL A   1      41.898  37.117  27.262  1.00  0.00     0.007 A 
ATOM    107  C   UNL A   1      44.570  36.432  26.868  1.00  0.00     0.000 A 
ATOM    108  C   UNL A   1      42.278  35.777  27.251  1.00  0.00     0.000 A 
ATOM    109  C   UNL A   1      43.614  35.435  27.054  1.00  0.00     0.000 A 
ENDBRANCH 103 104
ENDBRANCH 102 103
ENDBRANCH  99 102
ENDBRANCH  97  98
ENDBRANCH  94  97
ENDBRANCH  91  93
ENDBRANCH  88  91
ENDBRANCH  86  87
BRANCH  86 110
ATOM    110  C   UNL A   1      45.917  43.929  26.866  1.00  0.00     0.015 C 
ATOM    111  C   UNL A   1      46.019  44.196  28.373  1.00  0.00     0.010 C 
ATOM    112  C   UNL A   1      45.918  45.296  26.159  1.00  0.00     0.010 C 
ENDBRANCH  86 110
ENDBRANCH   2  86
TORSDOF 26
ENDMDL
MODEL 2
REMARK VINA RESULT:      -7.1      9.151     14.119
REMARK SMILES CC(C)C[C@H](NC(=O)[C@@H](NC(=O)[C@H](C)NC(=O)CNC(=O)OCc1ccccc1)C(C)C)C(=O)NCCCNC(=O)c1ccc(-c2c3nc(c(-c4cccc(S(=O)(=O)[O-])c4F)c4ccc([nH]4)c(-c4cccc(S(=O)(=O)[O-])c4F)c4nc(c(-c5cccc(S(=O)(=O)[O-])c5F)c5ccc2[nH]5)C=C4)C=C3)cc1
REMARK SMILES IDX 6 1 7 2 8 3 5 5 4 6 2 7 1 8 3 9 33 10 34 11 35 12 36 14
REMARK SMILES IDX 37 15 38 16 39 17 40 18 41 20 42 21 43 22 104 23 44 24
REMARK SMILES IDX 103 25 45 26 46 27 47 28 97 29 48 30 102 31 96 32 98 33
REMARK SMILES IDX 49 34 101 35 95 36 94 37 50 39 82 40 62 41 81 42 63 43 66 44
REMARK SMILES IDX 80 45 99 46 64 47 65 48 79 50 100 51 67 52 51 53 52 54 60 55
REMARK SMILES IDX 53 56 55 57 61 58 54 59 56 60 57 61 58 62 59 63 83 64 84 65
REMARK SMILES IDX 92 66 85 67 87 68 93 69 86 70 88 71 89 72 90 73 91 74 68 75
REMARK SMILES IDX 69 76 77 77 70 78 72 79 78 80 71 81 73 82 74 83 75 84 76 85
REMARK SMILES IDX 9 86 10 87 11 88 12 90 13 91 14 92 15 93 16 94 17 96 18 97
REMARK SMILES IDX 19 98 20 99 21 101 22 102 23 103 24 104 25 105 29 106 26 107
REMARK SMILES IDX 28 108 27 109 30 110 31 111 32 112
REMARK H PARENT 6 4 35 13 39 19 98 38 66 49 10 89 15 95 19 100
REMARK Flexibility Score: inf
ROOT
ATOM      1  N   UNL A   1      35.611  29.568  27.906  1.00  0.00    -0.343 N 
ATOM      2  C   UNL A   1      34.668  29.014  27.106  1.00  0.00     0.243 C 
ATOM      3  O   UNL A   1      34.701  27.780  27.021  1.00  0.00    -0.273 OA
ATOM      4  H   UNL A   1      36.201  28.911  28.342  1.00  0.00     0.164 HD
ENDROOT
BRANCH   1   5
ATOM      5  C   UNL A   1      35.915  30.950  28.241  1.00  0.00     0.171 C 
BRANCH   5   6
ATOM      6  C   UNL A   1      34.701  31.642  28.884  1.00  0.00     0.038 C 
BRANCH   6   7
ATOM      7  C   UNL A   1      34.752  33.182  28.871  1.00  0.00    -0.015 C 
ATOM      8  C   UNL A   1      33.700  33.764  27.930  1.00  0.00     0.007 C 
ATOM      9  C   UNL A   1      34.516  33.735  30.279  1.00  0.00     0.007 C 
ENDBRANCH   6   7
ENDBRANCH   5   6
BRANCH   5  10
ATOM     10  C   UNL A   1      37.234  30.984  29.034  1.00  0.00     0.242 C 
ATOM     11  O   UNL A   1      38.274  31.408  28.520  1.00  0.00    -0.273 OA
ATOM     12  N   UNL A   1      37.331  30.486  30.295  1.00  0.00    -0.354 N 
ATOM     13  H   UNL A   1      37.688  31.085  30.990  1.00  0.00     0.163 HD
BRANCH  12  14
ATOM     14  C   UNL A   1      36.952  29.146  30.706  1.00  0.00     0.117 C 
BRANCH  14  15
ATOM     15  C   UNL A   1      38.067  28.470  31.501  1.00  0.00     0.042 C 
BRANCH  15  16
ATOM     16  C   UNL A   1      38.879  27.448  30.709  1.00  0.00     0.118 C 
BRANCH  16  17
ATOM     17  N   UNL A   1      39.033  27.826  29.312  1.00  0.00    -0.352 N 
ATOM     18  C   UNL A   1      40.169  28.044  28.572  1.00  0.00     0.251 C 
ATOM     19  H   UNL A   1      38.190  27.944  28.818  1.00  0.00     0.163 HD
ATOM     20  O   UNL A   1      40.072  28.601  27.481  1.00  0.00    -0.269 OA
BRANCH  18  21
ATOM     21  C   UNL A   1      41.493  27.623  29.078  1.00  0.00     0.039 A 
ATOM     22  C   UNL A   1      42.187  28.472  29.945  1.00  0.00     0.014 A 
ATOM     23  C   UNL A   1      42.080  26.427  28.658  1.00  0.00     0.014 A 
ATOM     24  C   UNL A   1      43.451  28.106  30.409  1.00  0.00     0.010 A 
ATOM     25  C   UNL A   1      43.296  26.018  29.198  1.00  0.00     0.010 A 
ATOM     26  C   UNL A   1      44.011  26.869  30.050  1.00  0.00    -0.014 A 
BRANCH  26  27
ATOM     27  C   UNL A   1      45.367  26.477  30.512  1.00  0.00     0.031 A 
ATOM     28  C   UNL A   1      46.575  26.806  29.673  1.00  0.00     0.074 A 
ATOM     29  C   UNL A   1      45.508  25.774  31.653  1.00  0.00     0.049 A 
ATOM     30  N   UNL A   1      47.836  26.542  29.902  1.00  0.00    -0.248 NA
ATOM     31  C   UNL A   1      46.334  27.492  28.391  1.00  0.00     0.031 C 
ATOM     32  C   UNL A   1      44.410  25.314  32.506  1.00  0.00     0.029 A 
ATOM     33  N   UNL A   1      46.634  25.309  32.283  1.00  0.00    -0.354 N 
ATOM     34  C   UNL A   1      48.528  26.992  28.783  1.00  0.00     0.074 A 
ATOM     35  C   UNL A   1      47.545  27.505  27.855  1.00  0.00     0.031 C 
ATOM     36  C   UNL A   1      44.918  24.646  33.554  1.00  0.00     0.029 A 
ATOM     37  C   UNL A   1      46.373  24.616  33.441  1.00  0.00     0.049 A 
ATOM     38  H   UNL A   1      47.545  25.459  31.939  1.00  0.00     0.167 HD
ATOM     39  C   UNL A   1      49.864  27.015  28.560  1.00  0.00     0.034 A 
ATOM     40  C   UNL A   1      47.214  24.034  34.319  1.00  0.00     0.034 A 
ATOM     41  C   UNL A   1      50.840  26.562  29.512  1.00  0.00     0.049 A 
ATOM     42  C   UNL A   1      48.698  24.152  34.094  1.00  0.00     0.074 A 
ATOM     43  C   UNL A   1      52.220  26.619  29.427  1.00  0.00     0.029 A 
ATOM     44  N   UNL A   1      50.539  25.972  30.730  1.00  0.00    -0.354 N 
ATOM     45  N   UNL A   1      49.339  24.730  33.107  1.00  0.00    -0.248 NA
ATOM     46  C   UNL A   1      49.573  23.585  35.128  1.00  0.00     0.031 C 
ATOM     47  C   UNL A   1      52.753  26.056  30.591  1.00  0.00     0.029 A 
ATOM     48  C   UNL A   1      51.705  25.666  31.410  1.00  0.00     0.049 A 
ATOM     49  H   UNL A   1      49.630  25.795  31.063  1.00  0.00     0.167 HD
ATOM     50  C   UNL A   1      50.690  24.636  33.423  1.00  0.00     0.074 A 
ATOM     51  C   UNL A   1      50.771  23.963  34.702  1.00  0.00     0.031 C 
ATOM     52  C   UNL A   1      51.766  25.056  32.712  1.00  0.00     0.034 A 
BRANCH  39  53
ATOM     53  C   UNL A   1      50.347  27.611  27.265  1.00  0.00     0.023 A 
ATOM     54  C   UNL A   1      50.383  26.807  26.103  1.00  0.00     0.012 A 
ATOM     55  C   UNL A   1      50.722  28.965  27.177  1.00  0.00     0.148 A 
ATOM     56  C   UNL A   1      50.821  27.333  24.888  1.00  0.00     0.002 A 
ATOM     57  C   UNL A   1      51.112  29.493  25.950  1.00  0.00     0.091 A 
ATOM     58  F   UNL A   1      50.704  29.707  28.292  1.00  0.00    -0.205 F 
ATOM     59  C   UNL A   1      51.175  28.678  24.810  1.00  0.00     0.022 A 
BRANCH  57  60
ATOM     60  S   UNL A   1      51.510  31.231  25.728  1.00  0.00     0.127 S 
ATOM     61  O   UNL A   1      52.653  31.389  26.627  1.00  0.00    -0.237 OA
ATOM     62  O   UNL A   1      51.842  31.292  24.304  1.00  0.00    -0.237 OA
ATOM     63  O   UNL A   1      50.312  31.968  26.102  1.00  0.00    -0.744 OA
ENDBRANCH  57  60
ENDBRANCH  39  53
BRANCH  40  64
ATOM     64  C   UNL A   1      46.673  23.379  35.545  1.00  0.00     0.023 A 
ATOM     65  C   UNL A   1      46.458  21.986  35.543  1.00  0.00     0.012 A 
ATOM     66  C   UNL A   1      46.404  24.114  36.714  1.00  0.00     0.148 A 
ATOM     67  C   UNL A   1      45.949  21.344  36.672  1.00  0.00     0.002 A 
ATOM     68  C   UNL A   1      45.949  23.459  37.853  1.00  0.00     0.091 A 
ATOM     69  F   UNL A   1      46.607  25.439  36.694  1.00  0.00    -0.205 F 
ATOM     70  C   UNL A   1      45.704  22.077  37.828  1.00  0.00     0.022 A 
BRANCH  68  71
ATOM     71  S   UNL A   1      45.732  24.301  39.425  1.00  0.00     0.127 S 
ATOM     72  O   UNL A   1      44.748  25.324  39.084  1.00  0.00    -0.237 OA
ATOM     73  O   UNL A   1      45.232  23.224  40.280  1.00  0.00    -0.237 OA
ATOM     74  O   UNL A   1      47.056  24.788  39.791  1.00  0.00    -0.744 OA
ENDBRANCH  68  71
ENDBRANCH  40  64
BRANCH  52  75
ATOM     75  C   UNL A   1      53.127  24.849  33.322  1.00  0.00     0.023 A 
ATOM     76  C   UNL A   1      53.853  23.675  33.037  1.00  0.00     0.012 A 
ATOM     77  C   UNL A   1      53.712  25.849  34.122  1.00  0.00     0.148 A 
ATOM     78  C   UNL A   1      55.127  23.484  33.571  1.00  0.00     0.002 A 
ATOM     79  C   UNL A   1      55.001  25.672  34.611  1.00  0.00     0.091 A 
ATOM     80  F   UNL A   1      52.998  26.949  34.400  1.00  0.00    -0.205 F 
ATOM     81  C   UNL A   1      55.705  24.486  34.348  1.00  0.00     0.022 A 
BRANCH  79  82
ATOM     82  S   UNL A   1      55.852  26.957  35.535  1.00  0.00     0.127 S 
ATOM     83  O   UNL A   1      55.037  27.045  36.744  1.00  0.00    -0.237 OA
ATOM     84  O   UNL A   1      57.179  26.374  35.736  1.00  0.00    -0.237 OA
ATOM     85  O   UNL A   1      55.839  28.134  34.676  1.00  0.00    -0.744 OA
ENDBRANCH  79  82
ENDBRANCH  52  75
ENDBRANCH  26  27
ENDBRANCH  18  21
ENDBRANCH  16  17
ENDBRANCH  15  16
ENDBRANCH  14  15
ENDBRANCH  12  14
ENDBRANCH   5  10
ENDBRANCH   1   5
BRANCH   2  86
ATOM     86  C   UNL A   1      33.639  29.816  26.252  1.00  0.00     0.174 C 
BRANCH  86  87
ATOM     87  N   UNL A   1      33.542  29.417  24.829  1.00  0.00    -0.342 N 
ATOM     88  C   UNL A   1      32.848  28.540  24.061  1.00  0.00     0.242 C 
ATOM     89  H   UNL A   1      34.165  29.943  24.278  1.00  0.00     0.164 HD
ATOM     90  O   UNL A   1      32.734  28.920  22.882  1.00  0.00    -0.273 OA
BRANCH  88  91
ATOM     91  C   UNL A   1      32.482  27.058  24.402  1.00  0.00     0.168 C 
ATOM     92  C   UNL A   1      33.771  26.223  24.387  1.00  0.00     0.041 C 
BRANCH  91  93
ATOM     93  N   UNL A   1      31.472  26.315  23.672  1.00  0.00    -0.343 N 
ATOM     94  C   UNL A   1      30.757  25.211  24.049  1.00  0.00     0.240 C 
ATOM     95  H   UNL A   1      31.272  26.657  22.771  1.00  0.00     0.164 HD
ATOM     96  O   UNL A   1      30.088  24.640  23.185  1.00  0.00    -0.273 OA
BRANCH  94  97
ATOM     97  C   UNL A   1      30.902  24.640  25.458  1.00  0.00     0.219 C 
BRANCH  97  98
ATOM     98  N   UNL A   1      30.671  23.210  25.395  1.00  0.00    -0.312 N 
ATOM     99  C   UNL A   1      31.564  22.256  25.753  1.00  0.00     0.407 C 
ATOM    100  H   UNL A   1      29.793  22.907  25.065  1.00  0.00     0.167 HD
ATOM    101  O   UNL A   1      31.428  21.089  25.387  1.00  0.00    -0.225 OA
BRANCH  99 102
ATOM    102  O   UNL A   1      32.592  22.737  26.492  1.00  0.00    -0.445 OA
BRANCH 102 103
ATOM    103  C   UNL A   1      33.791  21.954  26.480  1.00  0.00     0.270 C 
BRANCH 103 104
ATOM    104  C   UNL A   1      34.821  22.513  25.536  1.00  0.00    -0.011 A 
ATOM    105  C   UNL A   1      35.932  23.215  26.019  1.00  0.00     0.007 A 
ATOM    106  C   UNL A   1      34.698  22.290  24.159  1.00  0.00     0.007 A 
ATOM    107  C   UNL A   1      36.904  23.684  25.134  1.00  0.00     0.000 A 
ATOM    108  C   UNL A   1      35.673  22.752  23.277  1.00  0.00     0.000 A 
ATOM    109  C   UNL A   1      36.775  23.449  23.765  1.00  0.00     0.000 A 
ENDBRANCH 103 104
ENDBRANCH 102 103
ENDBRANCH  99 102
ENDBRANCH  97  98
ENDBRANCH  94  97
ENDBRANCH  91  93
ENDBRANCH  88  91
ENDBRANCH  86  87
BRANCH  86 110
ATOM    110  C   UNL A   1      32.333  30.173  26.984  1.00  0.00     0.015 C 
ATOM    111  C   UNL A   1      31.330  30.987  26.157  1.00  0.00     0.010 C 
ATOM    112  C   UNL A   1      31.607  28.903  27.463  1.00  0.00     0.010 C 
ENDBRANCH  86 110
ENDBRANCH   2  86
TORSDOF 26
ENDMDL
MODEL 3
REMARK VINA RESULT:      -7.1      2.786      8.108
REMARK SMILES CC(C)C[C@H](NC(=O)[C@@H](NC(=O)[C@H](C)NC(=O)CNC(=O)OCc1ccccc1)C(C)C)C(=O)NCCCNC(=O)c1ccc(-c2c3nc(c(-c4cccc(S(=O)(=O)[O-])c4F)c4ccc([nH]4)c(-c4cccc(S(=O)(=O)[O-])c4F)c4nc(c(-c5cccc(S(=O)(=O)[O-])c5F)c5ccc2[nH]5)C=C4)C=C3)cc1
REMARK SMILES IDX 6 1 7 2 8 3 5 5 4 6 2 7 1 8 3 9 33 10 34 11 35 12 36 14
REMARK SMILES IDX 37 15 38 16 39 17 40 18 41 20 42 21 43 22 104 23 44 24
REMARK SMILES IDX 103 25 45 26 46 27 47 28 97 29 48 30 102 31 96 32 98 33
REMARK SMILES IDX 49 34 101 35 95 36 94 37 50 39 82 40 62 41 81 42 63 43 66 44
REMARK SMILES IDX 80 45 99 46 64 47 65 48 79 50 100 51 67 52 51 53 52 54 60 55
REMARK SMILES IDX 53 56 55 57 61 58 54 59 56 60 57 61 58 62 59 63 83 64 84 65
REMARK SMILES IDX 92 66 85 67 87 68 93 69 86 70 88 71 89 72 90 73 91 74 68 75
REMARK SMILES IDX 69 76 77 77 70 78 72 79 78 80 71 81 73 82 74 83 75 84 76 85
REMARK SMILES IDX 9 86 10 87 11 88 12 90 13 91 14 92 15 93 16 94 17 96 18 97
REMARK SMILES IDX 19 98 20 99 21 101 22 102 23 103 24 104 25 105 29 106 26 107
REMARK SMILES IDX 28 108 27 109 30 110 31 111 32 112
REMARK H PARENT 6 4 35 13 39 19 98 38 66 49 10 89 15 95 19 100
REMARK Flexibility Score: inf
ROOT
ATOM      1  N   UNL A   1      45.988  40.908  27.176  1.00  0.00    -0.343 N 
ATOM      2  C   UNL A   1      45.371  40.271  26.152  1.00  0.00     0.243 C 
ATOM      3  O   UNL A   1      45.905  40.403  25.044  1.00  0.00    -0.273 OA
ATOM      4  H   UNL A   1      46.808  41.387  26.914  1.00  0.00     0.164 HD
ENDROOT
BRANCH   1   5
ATOM      5  C   UNL A   1      45.667  41.017  28.591  1.00  0.00     0.171 C 
BRANCH   5   6
ATOM      6  C   UNL A   1      46.095  39.751  29.353  1.00  0.00     0.038 C 
BRANCH   6   7
ATOM      7  C   UNL A   1      47.354  39.057  28.798  1.00  0.00    -0.015 C 
ATOM      8  C   UNL A   1      48.627  39.679  29.367  1.00  0.00     0.007 C 
ATOM      9  C   UNL A   1      47.335  37.566  29.143  1.00  0.00     0.007 C 
ENDBRANCH   6   7
ENDBRANCH   5   6
BRANCH   5  10
ATOM     10  C   UNL A   1      46.211  42.360  29.115  1.00  0.00     0.242 C 
ATOM     11  O   UNL A   1      47.283  42.814  28.704  1.00  0.00    -0.273 OA
ATOM     12  N   UNL A   1      45.582  43.060  30.094  1.00  0.00    -0.354 N 
ATOM     13  H   UNL A   1      45.361  44.001  29.905  1.00  0.00     0.163 HD
BRANCH  12  14
ATOM     14  C   UNL A   1      45.206  42.541  31.397  1.00  0.00     0.117 C 
BRANCH  14  15
ATOM     15  C   UNL A   1      46.391  41.875  32.095  1.00  0.00     0.042 C 
BRANCH  15  16
ATOM     16  C   UNL A   1      46.021  40.675  32.963  1.00  0.00     0.118 C 
BRANCH  16  17
ATOM     17  N   UNL A   1      44.741  40.851  33.635  1.00  0.00    -0.352 N 
ATOM     18  C   UNL A   1      43.606  40.080  33.594  1.00  0.00     0.251 C 
ATOM     19  H   UNL A   1      44.680  41.647  34.209  1.00  0.00     0.163 HD
ATOM     20  O   UNL A   1      42.556  40.543  34.035  1.00  0.00    -0.269 OA
BRANCH  18  21
ATOM     21  C   UNL A   1      43.638  38.715  33.026  1.00  0.00     0.039 A 
ATOM     22  C   UNL A   1      43.771  38.562  31.643  1.00  0.00     0.014 A 
ATOM     23  C   UNL A   1      43.477  37.590  33.838  1.00  0.00     0.014 A 
ATOM     24  C   UNL A   1      43.773  37.283  31.084  1.00  0.00     0.010 A 
ATOM     25  C   UNL A   1      43.578  36.315  33.292  1.00  0.00     0.010 A 
ATOM     26  C   UNL A   1      43.690  36.147  31.906  1.00  0.00    -0.014 A 
BRANCH  26  27
ATOM     27  C   UNL A   1      43.662  34.780  31.325  1.00  0.00     0.031 A 
ATOM     28  C   UNL A   1      42.348  34.062  31.148  1.00  0.00     0.074 A 
ATOM     29  C   UNL A   1      44.817  34.162  31.015  1.00  0.00     0.049 A 
ATOM     30  N   UNL A   1      42.120  32.867  30.668  1.00  0.00    -0.248 NA
ATOM     31  C   UNL A   1      41.134  34.765  31.599  1.00  0.00     0.031 C 
ATOM     32  C   UNL A   1      46.157  34.713  31.226  1.00  0.00     0.029 A 
ATOM     33  N   UNL A   1      45.051  32.924  30.469  1.00  0.00    -0.354 N 
ATOM     34  C   UNL A   1      40.750  32.662  30.795  1.00  0.00     0.074 A 
ATOM     35  C   UNL A   1      40.204  33.835  31.439  1.00  0.00     0.031 C 
ATOM     36  C   UNL A   1      47.071  33.824  30.801  1.00  0.00     0.029 A 
ATOM     37  C   UNL A   1      46.384  32.636  30.303  1.00  0.00     0.049 A 
ATOM     38  H   UNL A   1      44.330  32.302  30.218  1.00  0.00     0.167 HD
ATOM     39  C   UNL A   1      40.005  31.610  30.380  1.00  0.00     0.034 A 
ATOM     40  C   UNL A   1      46.985  31.542  29.796  1.00  0.00     0.034 A 
ATOM     41  C   UNL A   1      40.543  30.474  29.685  1.00  0.00     0.049 A 
ATOM     42  C   UNL A   1      46.129  30.425  29.258  1.00  0.00     0.074 A 
ATOM     43  C   UNL A   1      39.869  29.395  29.142  1.00  0.00     0.029 A 
ATOM     44  N   UNL A   1      41.891  30.272  29.429  1.00  0.00    -0.354 N 
ATOM     45  N   UNL A   1      44.822  30.324  29.239  1.00  0.00    -0.248 NA
ATOM     46  C   UNL A   1      46.828  29.298  28.627  1.00  0.00     0.031 C 
ATOM     47  C   UNL A   1      40.810  28.536  28.565  1.00  0.00     0.029 A 
ATOM     48  C   UNL A   1      42.069  29.091  28.731  1.00  0.00     0.049 A 
ATOM     49  H   UNL A   1      42.615  30.879  29.704  1.00  0.00     0.167 HD
ATOM     50  C   UNL A   1      44.541  29.146  28.555  1.00  0.00     0.074 A 
ATOM     51  C   UNL A   1      45.815  28.581  28.161  1.00  0.00     0.031 C 
ATOM     52  C   UNL A   1      43.340  28.577  28.289  1.00  0.00     0.034 A 
BRANCH  39  53
ATOM     53  C   UNL A   1      38.517  31.674  30.606  1.00  0.00     0.023 A 
ATOM     54  C   UNL A   1      37.973  31.138  31.795  1.00  0.00     0.012 A 
ATOM     55  C   UNL A   1      37.662  32.297  29.678  1.00  0.00     0.148 A 
ATOM     56  C   UNL A   1      36.601  31.187  32.036  1.00  0.00     0.002 A 
ATOM     57  C   UNL A   1      36.299  32.384  29.949  1.00  0.00     0.091 A 
ATOM     58  F   UNL A   1      38.190  32.781  28.546  1.00  0.00    -0.205 F 
ATOM     59  C   UNL A   1      35.766  31.819  31.117  1.00  0.00     0.022 A 
BRANCH  57  60
ATOM     60  S   UNL A   1      35.153  33.248  28.868  1.00  0.00     0.127 S 
ATOM     61  O   UNL A   1      35.701  34.604  28.881  1.00  0.00    -0.237 OA
ATOM     62  O   UNL A   1      35.323  32.534  27.603  1.00  0.00    -0.237 OA
ATOM     63  O   UNL A   1      33.838  33.098  29.475  1.00  0.00    -0.744 OA
ENDBRANCH  57  60
ENDBRANCH  39  53
BRANCH  40  64
ATOM     64  C   UNL A   1      48.470  31.496  29.675  1.00  0.00     0.023 A 
ATOM     65  C   UNL A   1      49.081  31.993  28.506  1.00  0.00     0.012 A 
ATOM     66  C   UNL A   1      49.278  30.999  30.714  1.00  0.00     0.148 A 
ATOM     67  C   UNL A   1      50.468  31.961  28.360  1.00  0.00     0.002 A 
ATOM     68  C   UNL A   1      50.663  31.020  30.584  1.00  0.00     0.091 A 
ATOM     69  F   UNL A   1      48.678  30.523  31.814  1.00  0.00    -0.205 F 
ATOM     70  C   UNL A   1      51.259  31.484  29.401  1.00  0.00     0.022 A 
BRANCH  68  71
ATOM     71  S   UNL A   1      51.762  30.549  31.925  1.00  0.00     0.127 S 
ATOM     72  O   UNL A   1      51.324  31.439  32.997  1.00  0.00    -0.237 OA
ATOM     73  O   UNL A   1      51.421  29.139  32.116  1.00  0.00    -0.237 OA
ATOM     74  O   UNL A   1      53.109  30.776  31.421  1.00  0.00    -0.744 OA
ENDBRANCH  68  71
ENDBRANCH  40  64
BRANCH  52  75
ATOM     75  C   UNL A   1      43.335  27.301  27.491  1.00  0.00     0.023 A 
ATOM     76  C   UNL A   1      43.244  27.351  26.086  1.00  0.00     0.012 A 
ATOM     77  C   UNL A   1      43.488  26.055  28.131  1.00  0.00     0.148 A 
ATOM     78  C   UNL A   1      43.267  26.177  25.333  1.00  0.00     0.002 A 
ATOM     79  C   UNL A   1      43.559  24.895  27.371  1.00  0.00     0.091 A 
ATOM     80  F   UNL A   1      43.552  26.025  29.470  1.00  0.00    -0.205 F 
ATOM     81  C   UNL A   1      43.437  24.952  25.973  1.00  0.00     0.022 A 
BRANCH  79  82
ATOM     82  S   UNL A   1      43.875  23.289  28.113  1.00  0.00     0.127 S 
ATOM     83  O   UNL A   1      42.565  22.952  28.665  1.00  0.00    -0.237 OA
ATOM     84  O   UNL A   1      44.277  22.482  26.960  1.00  0.00    -0.237 OA
ATOM     85  O   UNL A   1      44.936  23.508  29.089  1.00  0.00    -0.744 OA
ENDBRANCH  79  82
ENDBRANCH  52  75
ENDBRANCH  26  27
ENDBRANCH  18  21
ENDBRANCH  16  17
ENDBRANCH  15  16
ENDBRANCH  14  15
ENDBRANCH  12  14
ENDBRANCH   5  10
ENDBRANCH   1   5
BRANCH   2  86
ATOM     86  C   UNL A   1      44.029  39.485  26.269  1.00  0.00     0.174 C 
BRANCH  86  87
ATOM     87  N   UNL A   1      44.021  38.377  27.250  1.00  0.00    -0.342 N 
ATOM     88  C   UNL A   1      43.739  37.051  27.289  1.00  0.00     0.242 C 
ATOM     89  H   UNL A   1      44.304  38.697  28.138  1.00  0.00     0.164 HD
ATOM     90  O   UNL A   1      44.363  36.453  28.184  1.00  0.00    -0.273 OA
BRANCH  88  91
ATOM     91  C   UNL A   1      42.556  36.308  26.585  1.00  0.00     0.168 C 
ATOM     92  C   UNL A   1      41.654  35.696  27.667  1.00  0.00     0.041 C 
BRANCH  91  93
ATOM     93  N   UNL A   1      42.764  35.296  25.567  1.00  0.00    -0.343 N 
ATOM     94  C   UNL A   1      43.432  34.104  25.645  1.00  0.00     0.240 C 
ATOM     95  H   UNL A   1      42.366  35.497  24.690  1.00  0.00     0.164 HD
ATOM     96  O   UNL A   1      43.640  33.495  24.594  1.00  0.00    -0.273 OA
BRANCH  94  97
ATOM     97  C   UNL A   1      44.013  33.629  26.975  1.00  0.00     0.219 C 
BRANCH  97  98
ATOM     98  N   UNL A   1      44.905  32.516  26.710  1.00  0.00    -0.312 N 
ATOM     99  C   UNL A   1      46.228  32.621  26.441  1.00  0.00     0.407 C 
ATOM    100  H   UNL A   1      44.516  31.611  26.727  1.00  0.00     0.167 HD
ATOM    101  O   UNL A   1      46.847  31.691  25.926  1.00  0.00    -0.225 OA
BRANCH  99 102
ATOM    102  O   UNL A   1      46.744  33.833  26.758  1.00  0.00    -0.445 OA
BRANCH 102 103
ATOM    103  C   UNL A   1      47.261  34.598  25.665  1.00  0.00     0.270 C 
BRANCH 103 104
ATOM    104  C   UNL A   1      48.310  35.582  26.110  1.00  0.00    -0.011 A 
ATOM    105  C   UNL A   1      49.310  35.206  27.015  1.00  0.00     0.007 A 
ATOM    106  C   UNL A   1      48.320  36.879  25.579  1.00  0.00     0.007 A 
ATOM    107  C   UNL A   1      50.304  36.115  27.380  1.00  0.00     0.000 A 
ATOM    108  C   UNL A   1      49.317  37.783  25.939  1.00  0.00     0.000 A 
ATOM    109  C   UNL A   1      50.309  37.401  26.839  1.00  0.00     0.000 A 
ENDBRANCH 103 104
ENDBRANCH 102 103
ENDBRANCH  99 102
ENDBRANCH  97  98
ENDBRANCH  94  97
ENDBRANCH  91  93
ENDBRANCH  88  91
ENDBRANCH  86  87
BRANCH  86 110
ATOM    110  C   UNL A   1      42.763  40.354  26.162  1.00  0.00     0.015 C 
ATOM    111  C   UNL A   1      41.976  40.514  27.469  1.00  0.00     0.010 C 
ATOM    112  C   UNL A   1      43.107  41.768  25.660  1.00  0.00     0.010 C 
ENDBRANCH  86 110
ENDBRANCH   2  86
TORSDOF 26
ENDMDL
