MODEL 1
REMARK VINA RESULT:     -12.7      0.000      0.000
REMARK SMILES Cc1nc2scc(C)n2c1CNc1ccc(C(=O)NCCCNC(=O)c2ccc(-c3c4nc(c(-c5cccc(S(=O)(=O)[O-])c5F)c5ccc([nH]5)c(-c5cccc(S(=O)(=O)[O-])c5F)c5nc(c(-c6cccc(S(=O)(=O)[O-])c6F)c6ccc3[nH]6)C=C5)C=C4)cc2)cc1
REMARK SMILES IDX 21 1 20 2 19 3 17 4 18 5 16 7 13 8 14 9 90 10 15 11 89 12
REMARK SMILES IDX 12 13 11 15 10 16 1 17 2 18 3 19 4 20 9 21 5 22 7 23 6 24
REMARK SMILES IDX 8 25 22 26 23 27 24 28 25 30 26 31 27 32 88 33 28 34 87 35
REMARK SMILES IDX 29 36 30 37 31 38 81 39 32 40 86 41 80 42 82 43 33 44 85 45
REMARK SMILES IDX 79 46 78 47 34 49 66 50 46 51 65 52 47 53 50 54 64 55 83 56
REMARK SMILES IDX 48 57 49 58 63 60 84 61 51 62 35 63 36 64 44 65 37 66 39 67
REMARK SMILES IDX 45 68 38 69 40 70 41 71 42 72 43 73 67 74 68 75 76 76 69 77
REMARK SMILES IDX 71 78 77 79 70 80 72 81 73 82 74 83 75 84 52 85 53 86 61 87
REMARK SMILES IDX 54 88 56 89 62 90 55 91 57 92 58 93 59 94 60 95
REMARK H PARENT 19 6 12 14 23 29 82 48 50 59
REMARK Flexibility Score: inf
ROOT
ATOM      1  C   UNL A   1      37.889  19.561  25.030  1.00  0.00     0.042 C 
ENDROOT
BRANCH   1   2
ATOM      2  C   UNL A   1      36.838  20.652  24.780  1.00  0.00     0.118 C 
BRANCH   2   3
ATOM      3  N   UNL A   1      36.109  21.021  25.983  1.00  0.00    -0.352 N 
ATOM      4  C   UNL A   1      34.995  21.802  26.182  1.00  0.00     0.251 C 
ATOM      5  O   UNL A   1      34.449  21.739  27.281  1.00  0.00    -0.269 OA
ATOM      6  H   UNL A   1      36.483  20.640  26.810  1.00  0.00     0.163 HD
BRANCH   4   7
ATOM      7  C   UNL A   1      34.373  22.641  25.120  1.00  0.00     0.039 A 
ATOM      8  C   UNL A   1      33.079  24.446  23.376  1.00  0.00     0.034 A 
ATOM      9  C   UNL A   1      34.192  24.849  24.115  1.00  0.00     0.026 A 
ATOM     10  C   UNL A   1      32.709  23.104  23.420  1.00  0.00     0.026 A 
ATOM     11  C   UNL A   1      34.822  23.963  24.995  1.00  0.00     0.016 A 
ATOM     12  C   UNL A   1      33.372  22.208  24.255  1.00  0.00     0.016 A 
BRANCH   8  13
ATOM     13  N   UNL A   1      32.283  25.395  22.759  1.00  0.00    -0.379 N 
ATOM     14  H   UNL A   1      32.572  25.821  21.920  1.00  0.00     0.160 HD
BRANCH  13  15
ATOM     15  C   UNL A   1      31.016  25.751  23.369  1.00  0.00     0.169 C 
BRANCH  15  16
ATOM     16  C   UNL A   1      31.176  26.308  24.730  1.00  0.00     0.066 A 
ATOM     17  C   UNL A   1      30.519  24.317  26.250  1.00  0.00     0.069 C 
ATOM     18  C   UNL A   1      30.946  25.709  25.968  1.00  0.00     0.062 A 
ATOM     19  N   UNL A   1      31.164  26.590  27.006  1.00  0.00    -0.224 NA
ATOM     20  C   UNL A   1      31.523  27.685  26.398  1.00  0.00     0.194 A 
ATOM     21  N   UNL A   1      31.597  27.585  25.034  1.00  0.00    -0.290 N 
ATOM     22  S   UNL A   1      31.981  29.259  26.962  1.00  0.00    -0.105 S 
ATOM     23  C   UNL A   1      32.052  28.739  24.399  1.00  0.00     0.032 A 
ATOM     24  C   UNL A   1      32.297  29.720  25.292  1.00  0.00     0.090 A 
ATOM     25  C   UNL A   1      32.295  28.893  22.941  1.00  0.00     0.066 C 
ENDBRANCH  15  16
ENDBRANCH  13  15
ENDBRANCH   8  13
ENDBRANCH   4   7
ENDBRANCH   2   3
ENDBRANCH   1   2
BRANCH   1  26
ATOM     26  C   UNL A   1      39.199  20.127  25.534  1.00  0.00     0.118 C 
BRANCH  26  27
ATOM     27  N   UNL A   1      40.200  19.085  25.821  1.00  0.00    -0.352 N 
ATOM     28  C   UNL A   1      41.548  19.233  26.134  1.00  0.00     0.251 C 
ATOM     29  H   UNL A   1      39.870  18.157  25.786  1.00  0.00     0.163 HD
ATOM     30  O   UNL A   1      42.328  18.307  26.022  1.00  0.00    -0.269 OA
BRANCH  28  31
ATOM     31  C   UNL A   1      41.993  20.551  26.623  1.00  0.00     0.039 A 
ATOM     32  C   UNL A   1      42.708  21.467  25.847  1.00  0.00     0.014 A 
ATOM     33  C   UNL A   1      41.582  20.877  27.902  1.00  0.00     0.014 A 
ATOM     34  C   UNL A   1      42.938  22.738  26.374  1.00  0.00     0.010 A 
ATOM     35  C   UNL A   1      41.492  22.188  28.239  1.00  0.00     0.010 A 
ATOM     36  C   UNL A   1      42.314  23.082  27.580  1.00  0.00    -0.014 A 
BRANCH  36  37
ATOM     37  C   UNL A   1      42.450  24.373  28.231  1.00  0.00     0.031 A 
ATOM     38  C   UNL A   1      41.300  25.286  28.043  1.00  0.00     0.074 A 
ATOM     39  C   UNL A   1      43.399  24.568  29.179  1.00  0.00     0.049 A 
ATOM     40  N   UNL A   1      41.272  26.390  27.375  1.00  0.00    -0.248 NA
ATOM     41  C   UNL A   1      39.982  24.845  28.525  1.00  0.00     0.031 C 
ATOM     42  C   UNL A   1      44.367  23.595  29.723  1.00  0.00     0.029 A 
ATOM     43  N   UNL A   1      43.577  25.635  29.994  1.00  0.00    -0.354 N 
ATOM     44  C   UNL A   1      39.996  26.908  27.576  1.00  0.00     0.074 A 
ATOM     45  C   UNL A   1      39.194  25.818  28.064  1.00  0.00     0.031 C 
ATOM     46  C   UNL A   1      44.810  24.020  30.925  1.00  0.00     0.029 A 
ATOM     47  C   UNL A   1      44.325  25.367  31.137  1.00  0.00     0.049 A 
ATOM     48  H   UNL A   1      43.208  26.527  29.795  1.00  0.00     0.167 HD
ATOM     49  C   UNL A   1      39.773  28.251  27.599  1.00  0.00     0.034 A 
ATOM     50  C   UNL A   1      44.486  26.186  32.204  1.00  0.00     0.034 A 
ATOM     51  C   UNL A   1      40.919  28.980  27.110  1.00  0.00     0.049 A 
ATOM     52  C   UNL A   1      44.154  27.553  31.741  1.00  0.00     0.074 A 
ATOM     53  C   UNL A   1      41.639  28.999  25.932  1.00  0.00     0.029 A 
ATOM     54  N   UNL A   1      41.734  29.554  28.058  1.00  0.00    -0.354 N 
ATOM     55  N   UNL A   1      44.838  28.187  30.827  1.00  0.00    -0.248 NA
ATOM     56  C   UNL A   1      42.796  28.025  31.947  1.00  0.00     0.031 C 
ATOM     57  C   UNL A   1      43.001  29.125  26.339  1.00  0.00     0.029 A 
ATOM     58  C   UNL A   1      43.029  29.247  27.732  1.00  0.00     0.049 A 
ATOM     59  H   UNL A   1      41.441  30.091  28.829  1.00  0.00     0.167 HD
ATOM     60  C   UNL A   1      43.873  28.807  30.041  1.00  0.00     0.074 A 
ATOM     61  C   UNL A   1      42.650  28.765  30.843  1.00  0.00     0.031 C 
ATOM     62  C   UNL A   1      44.077  29.021  28.706  1.00  0.00     0.034 A 
BRANCH  49  63
ATOM     63  C   UNL A   1      38.696  28.945  28.401  1.00  0.00     0.023 A 
ATOM     64  C   UNL A   1      37.869  29.858  27.711  1.00  0.00     0.012 A 
ATOM     65  C   UNL A   1      38.618  28.956  29.814  1.00  0.00     0.148 A 
ATOM     66  C   UNL A   1      37.052  30.771  28.389  1.00  0.00     0.002 A 
ATOM     67  C   UNL A   1      37.744  29.807  30.481  1.00  0.00     0.091 A 
ATOM     68  F   UNL A   1      39.485  28.248  30.542  1.00  0.00    -0.205 F 
ATOM     69  C   UNL A   1      36.983  30.740  29.775  1.00  0.00     0.022 A 
BRANCH  67  70
ATOM     70  S   UNL A   1      37.580  29.769  32.269  1.00  0.00     0.127 S 
ATOM     71  O   UNL A   1      38.872  30.299  32.692  1.00  0.00    -0.237 OA
ATOM     72  O   UNL A   1      36.441  30.662  32.487  1.00  0.00    -0.237 OA
ATOM     73  O   UNL A   1      37.312  28.375  32.603  1.00  0.00    -0.744 OA
ENDBRANCH  67  70
ENDBRANCH  49  63
BRANCH  50  74
ATOM     74  C   UNL A   1      44.622  25.839  33.637  1.00  0.00     0.023 A 
ATOM     75  C   UNL A   1      45.899  25.611  34.186  1.00  0.00     0.012 A 
ATOM     76  C   UNL A   1      43.533  26.003  34.523  1.00  0.00     0.148 A 
ATOM     77  C   UNL A   1      46.090  25.578  35.574  1.00  0.00     0.002 A 
ATOM     78  C   UNL A   1      43.729  25.968  35.901  1.00  0.00     0.091 A 
ATOM     79  F   UNL A   1      42.327  26.284  34.013  1.00  0.00    -0.205 F 
ATOM     80  C   UNL A   1      45.009  25.766  36.431  1.00  0.00     0.022 A 
BRANCH  78  81
ATOM     81  S   UNL A   1      42.390  26.235  37.072  1.00  0.00     0.127 S 
ATOM     82  O   UNL A   1      43.082  26.103  38.354  1.00  0.00    -0.237 OA
ATOM     83  O   UNL A   1      41.968  27.594  36.741  1.00  0.00    -0.237 OA
ATOM     84  O   UNL A   1      41.415  25.188  36.800  1.00  0.00    -0.744 OA
ENDBRANCH  78  81
ENDBRANCH  50  74
BRANCH  62  85
ATOM     85  C   UNL A   1      45.456  28.749  28.144  1.00  0.00     0.023 A 
ATOM     86  C   UNL A   1      46.536  29.638  28.338  1.00  0.00     0.012 A 
ATOM     87  C   UNL A   1      45.717  27.488  27.586  1.00  0.00     0.148 A 
ATOM     88  C   UNL A   1      47.839  29.287  27.971  1.00  0.00     0.002 A 
ATOM     89  C   UNL A   1      47.019  27.125  27.259  1.00  0.00     0.091 A 
ATOM     90  F   UNL A   1      44.687  26.646  27.419  1.00  0.00    -0.205 F 
ATOM     91  C   UNL A   1      48.082  28.023  27.441  1.00  0.00     0.022 A 
BRANCH  89  92
ATOM     92  S   UNL A   1      47.425  25.471  26.692  1.00  0.00     0.127 S 
ATOM     93  O   UNL A   1      47.007  24.649  27.825  1.00  0.00    -0.237 OA
ATOM     94  O   UNL A   1      46.591  25.336  25.498  1.00  0.00    -0.237 OA
ATOM     95  O   UNL A   1      48.857  25.478  26.421  1.00  0.00    -0.744 OA
ENDBRANCH  89  92
ENDBRANCH  62  85
ENDBRANCH  36  37
ENDBRANCH  28  31
ENDBRANCH  26  27
ENDBRANCH   1  26
TORSDOF 16
ENDMDL
MODEL 2
REMARK VINA RESULT:     -12.7      4.572      9.879
REMARK SMILES Cc1nc2scc(C)n2c1CNc1ccc(C(=O)NCCCNC(=O)c2ccc(-c3c4nc(c(-c5cccc(S(=O)(=O)[O-])c5F)c5ccc([nH]5)c(-c5cccc(S(=O)(=O)[O-])c5F)c5nc(c(-c6cccc(S(=O)(=O)[O-])c6F)c6ccc3[nH]6)C=C5)C=C4)cc2)cc1
REMARK SMILES IDX 21 1 20 2 19 3 17 4 18 5 16 7 13 8 14 9 90 10 15 11 89 12
REMARK SMILES IDX 12 13 11 15 10 16 1 17 2 18 3 19 4 20 9 21 5 22 7 23 6 24
REMARK SMILES IDX 8 25 22 26 23 27 24 28 25 30 26 31 27 32 88 33 28 34 87 35
REMARK SMILES IDX 29 36 30 37 31 38 81 39 32 40 86 41 80 42 82 43 33 44 85 45
REMARK SMILES IDX 79 46 78 47 34 49 66 50 46 51 65 52 47 53 50 54 64 55 83 56
REMARK SMILES IDX 48 57 49 58 63 60 84 61 51 62 35 63 36 64 44 65 37 66 39 67
REMARK SMILES IDX 45 68 38 69 40 70 41 71 42 72 43 73 67 74 68 75 76 76 69 77
REMARK SMILES IDX 71 78 77 79 70 80 72 81 73 82 74 83 75 84 52 85 53 86 61 87
REMARK SMILES IDX 54 88 56 89 62 90 55 91 57 92 58 93 59 94 60 95
REMARK H PARENT 19 6 12 14 23 29 82 48 50 59
REMARK Flexibility Score: inf
ROOT
ATOM      1  C   UNL A   1      31.235  32.167  26.494  1.00  0.00     0.042 C 
ENDROOT
BRANCH   1   2
ATOM      2  C   UNL A   1      31.507  30.787  25.877  1.00  0.00     0.118 C 
BRANCH   2   3
ATOM      3  N   UNL A   1      30.692  30.522  24.704  1.00  0.00    -0.352 N 
ATOM      4  C   UNL A   1      30.610  29.435  23.865  1.00  0.00     0.251 C 
ATOM      5  O   UNL A   1      29.651  29.384  23.098  1.00  0.00    -0.269 OA
ATOM      6  H   UNL A   1      30.084  31.258  24.465  1.00  0.00     0.163 HD
BRANCH   4   7
ATOM      7  C   UNL A   1      31.560  28.289  23.902  1.00  0.00     0.039 A 
ATOM      8  C   UNL A   1      33.323  26.125  24.329  1.00  0.00     0.034 A 
ATOM      9  C   UNL A   1      31.966  26.003  24.630  1.00  0.00     0.026 A 
ATOM     10  C   UNL A   1      33.756  27.286  23.693  1.00  0.00     0.026 A 
ATOM     11  C   UNL A   1      31.094  27.081  24.438  1.00  0.00     0.016 A 
ATOM     12  C   UNL A   1      32.876  28.338  23.451  1.00  0.00     0.016 A 
BRANCH   8  13
ATOM     13  N   UNL A   1      34.220  25.185  24.805  1.00  0.00    -0.379 N 
ATOM     14  H   UNL A   1      34.453  25.155  25.761  1.00  0.00     0.160 HD
BRANCH  13  15
ATOM     15  C   UNL A   1      34.811  24.245  23.872  1.00  0.00     0.169 C 
BRANCH  15  16
ATOM     16  C   UNL A   1      34.969  22.892  24.451  1.00  0.00     0.066 A 
ATOM     17  C   UNL A   1      37.204  23.076  25.746  1.00  0.00     0.069 C 
ATOM     18  C   UNL A   1      36.000  22.376  25.236  1.00  0.00     0.062 A 
ATOM     19  N   UNL A   1      35.796  21.044  25.527  1.00  0.00    -0.224 NA
ATOM     20  C   UNL A   1      34.667  20.778  24.935  1.00  0.00     0.194 A 
ATOM     21  N   UNL A   1      34.086  21.844  24.303  1.00  0.00    -0.290 N 
ATOM     22  S   UNL A   1      33.702  19.342  24.813  1.00  0.00    -0.105 S 
ATOM     23  C   UNL A   1      32.843  21.567  23.736  1.00  0.00     0.032 A 
ATOM     24  C   UNL A   1      32.503  20.274  23.922  1.00  0.00     0.090 A 
ATOM     25  C   UNL A   1      31.959  22.545  23.052  1.00  0.00     0.066 C 
ENDBRANCH  15  16
ENDBRANCH  13  15
ENDBRANCH   8  13
ENDBRANCH   4   7
ENDBRANCH   2   3
ENDBRANCH   1   2
BRANCH   1  26
ATOM     26  C   UNL A   1      32.427  32.703  27.258  1.00  0.00     0.118 C 
BRANCH  26  27
ATOM     27  N   UNL A   1      32.277  34.121  27.628  1.00  0.00    -0.352 N 
ATOM     28  C   UNL A   1      32.934  34.835  28.626  1.00  0.00     0.251 C 
ATOM     29  H   UNL A   1      31.624  34.633  27.098  1.00  0.00     0.163 HD
ATOM     30  O   UNL A   1      32.493  35.887  29.044  1.00  0.00    -0.269 OA
BRANCH  28  31
ATOM     31  C   UNL A   1      34.194  34.275  29.147  1.00  0.00     0.039 A 
ATOM     32  C   UNL A   1      34.305  33.619  30.376  1.00  0.00     0.014 A 
ATOM     33  C   UNL A   1      35.279  34.364  28.294  1.00  0.00     0.014 A 
ATOM     34  C   UNL A   1      35.517  33.002  30.686  1.00  0.00     0.010 A 
ATOM     35  C   UNL A   1      36.293  33.475  28.440  1.00  0.00     0.010 A 
ATOM     36  C   UNL A   1      36.505  32.939  29.696  1.00  0.00    -0.014 A 
BRANCH  36  37
ATOM     37  C   UNL A   1      37.803  32.312  29.876  1.00  0.00     0.031 A 
ATOM     38  C   UNL A   1      37.907  30.938  29.334  1.00  0.00     0.074 A 
ATOM     39  C   UNL A   1      38.884  33.056  30.213  1.00  0.00     0.049 A 
ATOM     40  N   UNL A   1      38.045  29.839  29.998  1.00  0.00    -0.248 NA
ATOM     41  C   UNL A   1      37.678  30.743  27.895  1.00  0.00     0.031 C 
ATOM     42  C   UNL A   1      38.970  34.517  30.408  1.00  0.00     0.029 A 
ATOM     43  N   UNL A   1      40.185  32.683  30.272  1.00  0.00    -0.354 N 
ATOM     44  C   UNL A   1      38.180  28.844  29.034  1.00  0.00     0.074 A 
ATOM     45  C   UNL A   1      37.702  29.412  27.801  1.00  0.00     0.031 C 
ATOM     46  C   UNL A   1      40.253  34.917  30.282  1.00  0.00     0.029 A 
ATOM     47  C   UNL A   1      41.090  33.739  30.205  1.00  0.00     0.049 A 
ATOM     48  H   UNL A   1      40.468  31.743  30.357  1.00  0.00     0.167 HD
ATOM     49  C   UNL A   1      38.938  27.736  29.262  1.00  0.00     0.034 A 
ATOM     50  C   UNL A   1      42.431  33.640  30.045  1.00  0.00     0.034 A 
ATOM     51  C   UNL A   1      39.289  27.621  30.657  1.00  0.00     0.049 A 
ATOM     52  C   UNL A   1      42.804  32.263  30.442  1.00  0.00     0.074 A 
ATOM     53  C   UNL A   1      38.585  27.530  31.841  1.00  0.00     0.029 A 
ATOM     54  N   UNL A   1      40.561  28.011  31.006  1.00  0.00    -0.354 N 
ATOM     55  N   UNL A   1      42.656  31.801  31.654  1.00  0.00    -0.248 NA
ATOM     56  C   UNL A   1      42.894  31.259  29.395  1.00  0.00     0.031 C 
ATOM     57  C   UNL A   1      39.319  28.334  32.764  1.00  0.00     0.029 A 
ATOM     58  C   UNL A   1      40.461  28.810  32.114  1.00  0.00     0.049 A 
ATOM     59  H   UNL A   1      41.394  27.760  30.545  1.00  0.00     0.167 HD
ATOM     60  C   UNL A   1      42.178  30.507  31.475  1.00  0.00     0.074 A 
ATOM     61  C   UNL A   1      42.454  30.195  30.073  1.00  0.00     0.031 C 
ATOM     62  C   UNL A   1      41.338  29.930  32.387  1.00  0.00     0.034 A 
BRANCH  49  63
ATOM     63  C   UNL A   1      39.687  26.956  28.205  1.00  0.00     0.023 A 
ATOM     64  C   UNL A   1      39.484  25.559  28.175  1.00  0.00     0.012 A 
ATOM     65  C   UNL A   1      40.757  27.463  27.432  1.00  0.00     0.148 A 
ATOM     66  C   UNL A   1      40.333  24.706  27.459  1.00  0.00     0.002 A 
ATOM     67  C   UNL A   1      41.547  26.621  26.656  1.00  0.00     0.091 A 
ATOM     68  F   UNL A   1      41.119  28.743  27.539  1.00  0.00    -0.205 F 
ATOM     69  C   UNL A   1      41.361  25.238  26.691  1.00  0.00     0.022 A 
BRANCH  67  70
ATOM     70  S   UNL A   1      42.854  27.266  25.606  1.00  0.00     0.127 S 
ATOM     71  O   UNL A   1      43.317  26.054  24.939  1.00  0.00    -0.237 OA
ATOM     72  O   UNL A   1      42.122  28.203  24.754  1.00  0.00    -0.237 OA
ATOM     73  O   UNL A   1      43.799  27.905  26.516  1.00  0.00    -0.744 OA
ENDBRANCH  67  70
ENDBRANCH  49  63
BRANCH  50  74
ATOM     74  C   UNL A   1      43.354  34.539  29.315  1.00  0.00     0.023 A 
ATOM     75  C   UNL A   1      43.501  34.411  27.920  1.00  0.00     0.012 A 
ATOM     76  C   UNL A   1      43.875  35.696  29.938  1.00  0.00     0.148 A 
ATOM     77  C   UNL A   1      44.119  35.417  27.166  1.00  0.00     0.002 A 
ATOM     78  C   UNL A   1      44.491  36.691  29.184  1.00  0.00     0.091 A 
ATOM     79  F   UNL A   1      43.684  35.857  31.253  1.00  0.00    -0.205 F 
ATOM     80  C   UNL A   1      44.606  36.560  27.795  1.00  0.00     0.022 A 
BRANCH  78  81
ATOM     81  S   UNL A   1      45.113  38.210  29.918  1.00  0.00     0.127 S 
ATOM     82  O   UNL A   1      46.164  37.707  30.803  1.00  0.00    -0.237 OA
ATOM     83  O   UNL A   1      45.594  38.936  28.746  1.00  0.00    -0.237 OA
ATOM     84  O   UNL A   1      43.977  38.807  30.607  1.00  0.00    -0.744 OA
ENDBRANCH  78  81
ENDBRANCH  50  74
BRANCH  62  85
ATOM     85  C   UNL A   1      41.099  30.656  33.693  1.00  0.00     0.023 A 
ATOM     86  C   UNL A   1      42.089  30.741  34.698  1.00  0.00     0.012 A 
ATOM     87  C   UNL A   1      39.938  31.432  33.830  1.00  0.00     0.148 A 
ATOM     88  C   UNL A   1      41.919  31.564  35.816  1.00  0.00     0.002 A 
ATOM     89  C   UNL A   1      39.788  32.280  34.921  1.00  0.00     0.091 A 
ATOM     90  F   UNL A   1      39.010  31.354  32.863  1.00  0.00    -0.205 F 
ATOM     91  C   UNL A   1      40.771  32.343  35.921  1.00  0.00     0.022 A 
BRANCH  89  92
ATOM     92  S   UNL A   1      38.397  33.406  35.059  1.00  0.00     0.127 S 
ATOM     93  O   UNL A   1      38.719  34.140  36.280  1.00  0.00    -0.237 OA
ATOM     94  O   UNL A   1      38.505  34.189  33.827  1.00  0.00    -0.237 OA
ATOM     95  O   UNL A   1      37.206  32.568  35.129  1.00  0.00    -0.744 OA
ENDBRANCH  89  92
ENDBRANCH  62  85
ENDBRANCH  36  37
ENDBRANCH  28  31
ENDBRANCH  26  27
ENDBRANCH   1  26
TORSDOF 16
ENDMDL
MODEL 3
REMARK VINA RESULT:     -12.7      4.172      9.630
REMARK SMILES Cc1nc2scc(C)n2c1CNc1ccc(C(=O)NCCCNC(=O)c2ccc(-c3c4nc(c(-c5cccc(S(=O)(=O)[O-])c5F)c5ccc([nH]5)c(-c5cccc(S(=O)(=O)[O-])c5F)c5nc(c(-c6cccc(S(=O)(=O)[O-])c6F)c6ccc3[nH]6)C=C5)C=C4)cc2)cc1
REMARK SMILES IDX 21 1 20 2 19 3 17 4 18 5 16 7 13 8 14 9 90 10 15 11 89 12
REMARK SMILES IDX 12 13 11 15 10 16 1 17 2 18 3 19 4 20 9 21 5 22 7 23 6 24
REMARK SMILES IDX 8 25 22 26 23 27 24 28 25 30 26 31 27 32 88 33 28 34 87 35
REMARK SMILES IDX 29 36 30 37 31 38 81 39 32 40 86 41 80 42 82 43 33 44 85 45
REMARK SMILES IDX 79 46 78 47 34 49 66 50 46 51 65 52 47 53 50 54 64 55 83 56
REMARK SMILES IDX 48 57 49 58 63 60 84 61 51 62 35 63 36 64 44 65 37 66 39 67
REMARK SMILES IDX 45 68 38 69 40 70 41 71 42 72 43 73 67 74 68 75 76 76 69 77
REMARK SMILES IDX 71 78 77 79 70 80 72 81 73 82 74 83 75 84 52 85 53 86 61 87
REMARK SMILES IDX 54 88 56 89 62 90 55 91 57 92 58 93 59 94 60 95
REMARK H PARENT 19 6 12 14 23 29 82 48 50 59
REMARK Flexibility Score: inf
ROOT
ATOM      1  C   UNL A   1      31.231  31.933  26.496  1.00  0.00     0.042 C 
ENDROOT
BRANCH   1   2
ATOM      2  C   UNL A   1      31.629  30.634  25.782  1.00  0.00     0.118 C 
BRANCH   2   3
ATOM      3  N   UNL A   1      32.746  29.957  26.421  1.00  0.00    -0.352 N 
ATOM      4  C   UNL A   1      33.442  28.818  26.094  1.00  0.00     0.251 C 
ATOM      5  O   UNL A   1      34.504  28.615  26.679  1.00  0.00    -0.269 OA
ATOM      6  H   UNL A   1      33.064  30.398  27.242  1.00  0.00     0.163 HD
BRANCH   4   7
ATOM      7  C   UNL A   1      33.027  27.875  25.018  1.00  0.00     0.039 A 
ATOM      8  C   UNL A   1      32.350  25.823  23.200  1.00  0.00     0.034 A 
ATOM      9  C   UNL A   1      31.666  25.953  24.409  1.00  0.00     0.026 A 
ATOM     10  C   UNL A   1      33.277  26.805  22.858  1.00  0.00     0.026 A 
ATOM     11  C   UNL A   1      32.013  26.956  25.320  1.00  0.00     0.016 A 
ATOM     12  C   UNL A   1      33.583  27.837  23.743  1.00  0.00     0.016 A 
BRANCH   8  13
ATOM     13  N   UNL A   1      32.220  24.663  22.457  1.00  0.00    -0.379 N 
ATOM     14  H   UNL A   1      31.392  24.478  21.959  1.00  0.00     0.160 HD
BRANCH  13  15
ATOM     15  C   UNL A   1      33.325  23.723  22.426  1.00  0.00     0.169 C 
BRANCH  15  16
ATOM     16  C   UNL A   1      33.164  22.622  23.402  1.00  0.00     0.066 A 
ATOM     17  C   UNL A   1      31.851  20.844  22.054  1.00  0.00     0.069 C 
ATOM     18  C   UNL A   1      32.517  21.396  23.259  1.00  0.00     0.062 A 
ATOM     19  N   UNL A   1      32.544  20.669  24.430  1.00  0.00    -0.224 NA
ATOM     20  C   UNL A   1      33.199  21.443  25.247  1.00  0.00     0.194 A 
ATOM     21  N   UNL A   1      33.643  22.615  24.694  1.00  0.00    -0.290 N 
ATOM     22  S   UNL A   1      33.678  21.282  26.905  1.00  0.00    -0.105 S 
ATOM     23  C   UNL A   1      34.405  23.403  25.555  1.00  0.00     0.032 A 
ATOM     24  C   UNL A   1      34.511  22.828  26.772  1.00  0.00     0.090 A 
ATOM     25  C   UNL A   1      35.068  24.685  25.206  1.00  0.00     0.066 C 
ENDBRANCH  15  16
ENDBRANCH  13  15
ENDBRANCH   8  13
ENDBRANCH   4   7
ENDBRANCH   2   3
ENDBRANCH   1   2
BRANCH   1  26
ATOM     26  C   UNL A   1      32.342  32.474  27.371  1.00  0.00     0.118 C 
BRANCH  26  27
ATOM     27  N   UNL A   1      32.265  33.934  27.555  1.00  0.00    -0.352 N 
ATOM     28  C   UNL A   1      32.986  34.741  28.429  1.00  0.00     0.251 C 
ATOM     29  H   UNL A   1      31.616  34.402  26.981  1.00  0.00     0.163 HD
ATOM     30  O   UNL A   1      32.605  35.858  28.718  1.00  0.00    -0.269 OA
BRANCH  28  31
ATOM     31  C   UNL A   1      34.240  34.196  28.982  1.00  0.00     0.039 A 
ATOM     32  C   UNL A   1      34.342  33.605  30.244  1.00  0.00     0.014 A 
ATOM     33  C   UNL A   1      35.327  34.229  28.128  1.00  0.00     0.014 A 
ATOM     34  C   UNL A   1      35.547  32.993  30.589  1.00  0.00     0.010 A 
ATOM     35  C   UNL A   1      36.331  33.339  28.323  1.00  0.00     0.010 A 
ATOM     36  C   UNL A   1      36.536  32.868  29.605  1.00  0.00    -0.014 A 
BRANCH  36  37
ATOM     37  C   UNL A   1      37.827  32.238  29.821  1.00  0.00     0.031 A 
ATOM     38  C   UNL A   1      37.939  30.859  29.293  1.00  0.00     0.074 A 
ATOM     39  C   UNL A   1      38.903  32.981  30.178  1.00  0.00     0.049 A 
ATOM     40  N   UNL A   1      38.058  29.765  29.967  1.00  0.00    -0.248 NA
ATOM     41  C   UNL A   1      37.744  30.654  27.850  1.00  0.00     0.031 C 
ATOM     42  C   UNL A   1      38.988  34.443  30.364  1.00  0.00     0.029 A 
ATOM     43  N   UNL A   1      40.201  32.604  30.271  1.00  0.00    -0.354 N 
ATOM     44  C   UNL A   1      38.212  28.762  29.015  1.00  0.00     0.074 A 
ATOM     45  C   UNL A   1      37.765  29.323  27.767  1.00  0.00     0.031 C 
ATOM     46  C   UNL A   1      40.276  34.838  30.266  1.00  0.00     0.029 A 
ATOM     47  C   UNL A   1      41.110  33.657  30.218  1.00  0.00     0.049 A 
ATOM     48  H   UNL A   1      40.478  31.664  30.370  1.00  0.00     0.167 HD
ATOM     49  C   UNL A   1      38.960  27.653  29.269  1.00  0.00     0.034 A 
ATOM     50  C   UNL A   1      42.454  33.552  30.091  1.00  0.00     0.034 A 
ATOM     51  C   UNL A   1      39.278  27.548  30.673  1.00  0.00     0.049 A 
ATOM     52  C   UNL A   1      42.813  32.176  30.507  1.00  0.00     0.074 A 
ATOM     53  C   UNL A   1      38.545  27.469  31.841  1.00  0.00     0.029 A 
ATOM     54  N   UNL A   1      40.543  27.936  31.050  1.00  0.00    -0.354 N 
ATOM     55  N   UNL A   1      42.635  31.724  31.718  1.00  0.00    -0.248 NA
ATOM     56  C   UNL A   1      42.925  31.165  29.470  1.00  0.00     0.031 C 
ATOM     57  C   UNL A   1      39.260  28.277  32.775  1.00  0.00     0.029 A 
ATOM     58  C   UNL A   1      40.418  28.745  32.149  1.00  0.00     0.049 A 
ATOM     59  H   UNL A   1      41.385  27.679  30.610  1.00  0.00     0.167 HD
ATOM     60  C   UNL A   1      42.157  30.431  31.538  1.00  0.00     0.074 A 
ATOM     61  C   UNL A   1      42.464  30.107  30.145  1.00  0.00     0.031 C 
ATOM     62  C   UNL A   1      41.293  29.864  32.434  1.00  0.00     0.034 A 
BRANCH  49  63
ATOM     63  C   UNL A   1      39.732  26.863  28.237  1.00  0.00     0.023 A 
ATOM     64  C   UNL A   1      39.581  25.459  28.259  1.00  0.00     0.012 A 
ATOM     65  C   UNL A   1      40.778  27.380  27.437  1.00  0.00     0.148 A 
ATOM     66  C   UNL A   1      40.457  24.612  27.570  1.00  0.00     0.002 A 
ATOM     67  C   UNL A   1      41.594  26.539  26.687  1.00  0.00     0.091 A 
ATOM     68  F   UNL A   1      41.093  28.675  27.495  1.00  0.00    -0.205 F 
ATOM     69  C   UNL A   1      41.459  25.153  26.775  1.00  0.00     0.022 A 
BRANCH  67  70
ATOM     70  S   UNL A   1      42.871  27.193  25.605  1.00  0.00     0.127 S 
ATOM     71  O   UNL A   1      42.119  28.171  24.825  1.00  0.00    -0.237 OA
ATOM     72  O   UNL A   1      43.818  27.760  26.566  1.00  0.00    -0.237 OA
ATOM     73  O   UNL A   1      43.385  26.040  24.875  1.00  0.00    -0.744 OA
ENDBRANCH  67  70
ENDBRANCH  49  63
BRANCH  50  74
ATOM     74  C   UNL A   1      43.397  34.442  29.376  1.00  0.00     0.023 A 
ATOM     75  C   UNL A   1      44.116  35.422  30.088  1.00  0.00     0.012 A 
ATOM     76  C   UNL A   1      43.799  34.149  28.052  1.00  0.00     0.148 A 
ATOM     77  C   UNL A   1      45.218  36.068  29.512  1.00  0.00     0.002 A 
ATOM     78  C   UNL A   1      44.893  34.796  27.484  1.00  0.00     0.091 A 
ATOM     79  F   UNL A   1      43.163  33.175  27.389  1.00  0.00    -0.205 F 
ATOM     80  C   UNL A   1      45.612  35.749  28.215  1.00  0.00     0.022 A 
BRANCH  78  81
ATOM     81  S   UNL A   1      45.485  34.415  25.829  1.00  0.00     0.127 S 
ATOM     82  O   UNL A   1      45.939  33.033  25.984  1.00  0.00    -0.237 OA
ATOM     83  O   UNL A   1      44.272  34.575  25.032  1.00  0.00    -0.237 OA
ATOM     84  O   UNL A   1      46.548  35.375  25.561  1.00  0.00    -0.744 OA
ENDBRANCH  78  81
ENDBRANCH  50  74
BRANCH  62  85
ATOM     85  C   UNL A   1      41.026  30.600  33.729  1.00  0.00     0.023 A 
ATOM     86  C   UNL A   1      41.988  30.682  34.760  1.00  0.00     0.012 A 
ATOM     87  C   UNL A   1      39.869  31.388  33.828  1.00  0.00     0.148 A 
ATOM     88  C   UNL A   1      41.795  31.513  35.868  1.00  0.00     0.002 A 
ATOM     89  C   UNL A   1      39.697  32.245  34.910  1.00  0.00     0.091 A 
ATOM     90  F   UNL A   1      38.968  31.314  32.837  1.00  0.00    -0.205 F 
ATOM     91  C   UNL A   1      40.653  32.305  35.936  1.00  0.00     0.022 A 
BRANCH  89  92
ATOM     92  S   UNL A   1      38.315  33.386  35.002  1.00  0.00     0.127 S 
ATOM     93  O   UNL A   1      38.602  34.115  36.234  1.00  0.00    -0.237 OA
ATOM     94  O   UNL A   1      38.473  34.170  33.776  1.00  0.00    -0.237 OA
ATOM     95  O   UNL A   1      37.113  32.561  35.030  1.00  0.00    -0.744 OA
ENDBRANCH  89  92
ENDBRANCH  62  85
ENDBRANCH  36  37
ENDBRANCH  28  31
ENDBRANCH  26  27
ENDBRANCH   1  26
TORSDOF 16
ENDMDL
