MODEL 1
REMARK VINA RESULT:     -12.5      0.000      0.000
REMARK SMILES N#CCOc1ccc2[nH]cc([C@H](C(=O)NCCCNC(=O)c3ccc(-c4c5nc(c(-c6cccc(S(=O)(=O)[O-])c6F)c6ccc([nH]6)c(-c6cccc(S(=O)(=O)[O-])c6F)c6nc(c(-c7cccc(S(=O)(=O)[O-])c7F)c7ccc4[nH]7)C=C6)C=C5)cc3)[NH+]3CC[NH+]([C@@H]4CCS(=O)(=O)C4)CC3)c2c1
REMARK SMILES IDX 16 1 15 2 13 3 14 4 12 6 11 7 5 8 6 9 99 10 7 11 98 12 8 13
REMARK SMILES IDX 9 14 10 15 4 17 3 18 2 19 1 20 85 21 86 22 97 23 87 25 96 26
REMARK SMILES IDX 88 27 89 29 90 30 95 31 91 32 92 33 93 34 94 35 17 36 18 37
REMARK SMILES IDX 19 38 20 39 21 41 22 42 23 43 84 44 24 45 83 46 25 47 26 48
REMARK SMILES IDX 27 49 77 50 28 51 82 52 76 53 78 54 29 55 81 56 75 57 74 58
REMARK SMILES IDX 30 60 62 61 42 62 61 63 43 64 46 65 60 66 79 67 44 68 45 69
REMARK SMILES IDX 59 71 80 72 47 73 31 74 32 75 40 76 33 77 35 78 41 79 34 80
REMARK SMILES IDX 36 81 37 82 38 83 39 84 63 85 64 86 72 87 65 88 67 89 73 90
REMARK SMILES IDX 66 91 68 92 69 93 70 94 71 95 48 96 49 97 57 98 50 99 52 100
REMARK SMILES IDX 58 101 51 102 53 103 54 104 55 105 56 106
REMARK H PARENT 15 5 9 16 85 24 88 28 19 40 78 59 46 70
REMARK Flexibility Score: inf
ROOT
ATOM      1  C   UNL A   1      34.013  22.489  27.316  1.00  0.00     0.118 C 
ENDROOT
BRANCH   1   2
ATOM      2  N   UNL A   1      32.686  22.006  27.016  1.00  0.00    -0.351 N 
ATOM      3  C   UNL A   1      31.936  22.151  25.895  1.00  0.00     0.283 C 
ATOM      4  O   UNL A   1      30.809  21.654  25.961  1.00  0.00    -0.268 OA
ATOM      5  H   UNL A   1      32.259  21.490  27.739  1.00  0.00     0.163 HD
BRANCH   3   6
ATOM      6  C   UNL A   1      32.564  22.764  24.625  1.00  0.00     0.308 C 
BRANCH   6   7
ATOM      7  C   UNL A   1      32.340  21.874  23.421  1.00  0.00     0.045 A 
ATOM      8  C   UNL A   1      33.211  18.199  23.971  1.00  0.00     0.121 A 
ATOM      9  C   UNL A   1      32.571  17.756  22.811  1.00  0.00     0.048 A 
ATOM     10  C   UNL A   1      33.163  19.539  24.253  1.00  0.00     0.057 A 
ATOM     11  C   UNL A   1      32.085  18.645  21.833  1.00  0.00     0.030 A 
ATOM     12  C   UNL A   1      32.604  20.468  23.356  1.00  0.00     0.013 A 
ATOM     13  C   UNL A   1      32.124  20.006  22.135  1.00  0.00     0.046 A 
ATOM     14  N   UNL A   1      31.709  21.104  21.420  1.00  0.00    -0.361 N 
ATOM     15  C   UNL A   1      31.817  22.233  22.189  1.00  0.00     0.094 A 
ATOM     16  H   UNL A   1      31.383  21.083  20.491  1.00  0.00     0.166 HD
BRANCH   8  17
ATOM     17  O   UNL A   1      33.818  17.441  24.958  1.00  0.00    -0.479 OA
BRANCH  17  18
ATOM     18  C   UNL A   1      32.889  16.837  25.912  1.00  0.00     0.349 C 
BRANCH  18  19
ATOM     19  C   UNL A   1      33.079  15.351  25.652  1.00  0.00     0.104 C 
ATOM     20  N   UNL A   1      33.236  14.119  25.436  1.00  0.00    -0.195 NA
ENDBRANCH  18  19
ENDBRANCH  17  18
ENDBRANCH   8  17
ENDBRANCH   6   7
BRANCH   6  21
ATOM     21  N   UNL A   1      32.113  24.147  24.350  1.00  0.00    -0.312 N 
ATOM     22  C   UNL A   1      30.825  24.570  24.923  1.00  0.00     0.325 C 
ATOM     23  C   UNL A   1      33.192  25.118  24.573  1.00  0.00     0.325 C 
ATOM     24  H   UNL A   1      31.887  24.125  23.355  1.00  0.00     0.349 HD
ATOM     25  C   UNL A   1      30.823  25.459  26.191  1.00  0.00     0.324 C 
ATOM     26  C   UNL A   1      33.188  25.869  25.918  1.00  0.00     0.324 C 
ATOM     27  N   UNL A   1      31.902  26.449  26.295  1.00  0.00    -0.322 N 
ATOM     28  H   UNL A   1      32.021  26.674  27.282  1.00  0.00     0.348 HD
BRANCH  27  29
ATOM     29  C   UNL A   1      31.581  27.812  25.880  1.00  0.00     0.200 C 
ATOM     30  C   UNL A   1      32.315  28.433  24.680  1.00  0.00     0.082 C 
ATOM     31  C   UNL A   1      31.644  28.835  27.024  1.00  0.00     0.201 C 
ATOM     32  C   UNL A   1      33.506  29.251  25.149  1.00  0.00     0.143 C 
ATOM     33  S   UNL A   1      33.158  29.752  26.816  1.00  0.00     0.156 S 
ATOM     34  O   UNL A   1      34.188  29.211  27.674  1.00  0.00    -0.229 OA
ATOM     35  O   UNL A   1      32.839  31.167  26.809  1.00  0.00    -0.229 OA
ENDBRANCH  27  29
ENDBRANCH   6  21
ENDBRANCH   3   6
ENDBRANCH   1   2
BRANCH   1  36
ATOM     36  C   UNL A   1      35.032  21.470  26.838  1.00  0.00     0.042 C 
BRANCH  36  37
ATOM     37  C   UNL A   1      36.238  22.111  26.158  1.00  0.00     0.118 C 
BRANCH  37  38
ATOM     38  N   UNL A   1      37.321  21.158  25.917  1.00  0.00    -0.352 N 
ATOM     39  C   UNL A   1      38.675  21.363  25.979  1.00  0.00     0.251 C 
ATOM     40  H   UNL A   1      37.038  20.246  25.678  1.00  0.00     0.163 HD
ATOM     41  O   UNL A   1      39.453  20.511  25.563  1.00  0.00    -0.269 OA
BRANCH  39  42
ATOM     42  C   UNL A   1      39.165  22.636  26.532  1.00  0.00     0.039 A 
ATOM     43  C   UNL A   1      40.231  22.621  27.431  1.00  0.00     0.014 A 
ATOM     44  C   UNL A   1      38.617  23.841  26.086  1.00  0.00     0.014 A 
ATOM     45  C   UNL A   1      40.795  23.831  27.832  1.00  0.00     0.010 A 
ATOM     46  C   UNL A   1      39.243  25.036  26.409  1.00  0.00     0.010 A 
ATOM     47  C   UNL A   1      40.333  25.044  27.292  1.00  0.00    -0.014 A 
BRANCH  47  48
ATOM     48  C   UNL A   1      40.984  26.332  27.629  1.00  0.00     0.031 A 
ATOM     49  C   UNL A   1      42.402  26.593  27.202  1.00  0.00     0.074 A 
ATOM     50  C   UNL A   1      40.326  27.230  28.391  1.00  0.00     0.049 A 
ATOM     51  N   UNL A   1      43.154  27.636  27.439  1.00  0.00    -0.248 NA
ATOM     52  C   UNL A   1      43.076  25.533  26.433  1.00  0.00     0.031 C 
ATOM     53  C   UNL A   1      38.979  27.052  28.937  1.00  0.00     0.029 A 
ATOM     54  N   UNL A   1      40.712  28.460  28.858  1.00  0.00    -0.354 N 
ATOM     55  C   UNL A   1      44.392  27.345  26.881  1.00  0.00     0.074 A 
ATOM     56  C   UNL A   1      44.306  26.012  26.331  1.00  0.00     0.031 C 
ATOM     57  C   UNL A   1      38.646  28.138  29.652  1.00  0.00     0.029 A 
ATOM     58  C   UNL A   1      39.768  29.072  29.649  1.00  0.00     0.049 A 
ATOM     59  H   UNL A   1      41.584  28.868  28.647  1.00  0.00     0.167 HD
ATOM     60  C   UNL A   1      45.493  28.129  26.806  1.00  0.00     0.034 A 
ATOM     61  C   UNL A   1      39.805  30.247  30.306  1.00  0.00     0.034 A 
ATOM     62  C   UNL A   1      45.561  29.466  27.328  1.00  0.00     0.049 A 
ATOM     63  C   UNL A   1      41.032  31.109  30.185  1.00  0.00     0.074 A 
ATOM     64  C   UNL A   1      46.598  30.375  27.227  1.00  0.00     0.029 A 
ATOM     65  N   UNL A   1      44.558  30.081  28.062  1.00  0.00    -0.354 N 
ATOM     66  N   UNL A   1      42.135  30.884  29.515  1.00  0.00    -0.248 NA
ATOM     67  C   UNL A   1      41.006  32.402  30.883  1.00  0.00     0.031 C 
ATOM     68  C   UNL A   1      46.237  31.528  27.933  1.00  0.00     0.029 A 
ATOM     69  C   UNL A   1      44.959  31.353  28.436  1.00  0.00     0.049 A 
ATOM     70  H   UNL A   1      43.690  29.673  28.285  1.00  0.00     0.167 HD
ATOM     71  C   UNL A   1      42.920  32.020  29.679  1.00  0.00     0.074 A 
ATOM     72  C   UNL A   1      42.153  32.940  30.494  1.00  0.00     0.031 C 
ATOM     73  C   UNL A   1      44.166  32.275  29.209  1.00  0.00     0.034 A 
BRANCH  60  74
ATOM     74  C   UNL A   1      46.701  27.573  26.099  1.00  0.00     0.023 A 
ATOM     75  C   UNL A   1      46.878  27.815  24.721  1.00  0.00     0.012 A 
ATOM     76  C   UNL A   1      47.688  26.858  26.806  1.00  0.00     0.148 A 
ATOM     77  C   UNL A   1      47.997  27.323  24.050  1.00  0.00     0.002 A 
ATOM     78  C   UNL A   1      48.824  26.415  26.141  1.00  0.00     0.091 A 
ATOM     79  F   UNL A   1      47.492  26.619  28.111  1.00  0.00    -0.205 F 
ATOM     80  C   UNL A   1      48.974  26.634  24.762  1.00  0.00     0.022 A 
BRANCH  78  81
ATOM     81  S   UNL A   1      50.181  25.591  26.983  1.00  0.00     0.127 S 
ATOM     82  O   UNL A   1      50.521  26.565  28.018  1.00  0.00    -0.237 OA
ATOM     83  O   UNL A   1      49.536  24.374  27.479  1.00  0.00    -0.237 OA
ATOM     84  O   UNL A   1      51.206  25.369  25.973  1.00  0.00    -0.744 OA
ENDBRANCH  78  81
ENDBRANCH  60  74
BRANCH  61  85
ATOM     85  C   UNL A   1      38.624  30.702  31.092  1.00  0.00     0.023 A 
ATOM     86  C   UNL A   1      38.590  30.485  32.483  1.00  0.00     0.012 A 
ATOM     87  C   UNL A   1      37.546  31.365  30.475  1.00  0.00     0.148 A 
ATOM     88  C   UNL A   1      37.487  30.885  33.240  1.00  0.00     0.002 A 
ATOM     89  C   UNL A   1      36.477  31.813  31.242  1.00  0.00     0.091 A 
ATOM     90  F   UNL A   1      37.593  31.556  29.149  1.00  0.00    -0.205 F 
ATOM     91  C   UNL A   1      36.436  31.557  32.622  1.00  0.00     0.022 A 
BRANCH  89  92
ATOM     92  S   UNL A   1      35.145  32.803  30.556  1.00  0.00     0.127 S 
ATOM     93  O   UNL A   1      34.231  32.903  31.691  1.00  0.00    -0.237 OA
ATOM     94  O   UNL A   1      35.840  34.044  30.212  1.00  0.00    -0.237 OA
ATOM     95  O   UNL A   1      34.649  32.055  29.408  1.00  0.00    -0.744 OA
ENDBRANCH  89  92
ENDBRANCH  61  85
BRANCH  73  96
ATOM     96  C   UNL A   1      44.771  33.617  29.525  1.00  0.00     0.023 A 
ATOM     97  C   UNL A   1      45.550  33.786  30.686  1.00  0.00     0.012 A 
ATOM     98  C   UNL A   1      44.625  34.695  28.628  1.00  0.00     0.148 A 
ATOM     99  C   UNL A   1      46.143  35.015  30.970  1.00  0.00     0.002 A 
ATOM    100  C   UNL A   1      45.264  35.900  28.890  1.00  0.00     0.091 A 
ATOM    101  F   UNL A   1      43.867  34.520  27.536  1.00  0.00    -0.205 F 
ATOM    102  C   UNL A   1      46.010  36.067  30.067  1.00  0.00     0.022 A 
BRANCH 100 103
ATOM    103  S   UNL A   1      45.232  37.277  27.737  1.00  0.00     0.127 S 
ATOM    104  O   UNL A   1      43.805  37.380  27.435  1.00  0.00    -0.237 OA
ATOM    105  O   UNL A   1      45.765  38.372  28.550  1.00  0.00    -0.237 OA
ATOM    106  O   UNL A   1      46.080  36.887  26.618  1.00  0.00    -0.744 OA
ENDBRANCH 100 103
ENDBRANCH  73  96
ENDBRANCH  47  48
ENDBRANCH  39  42
ENDBRANCH  37  38
ENDBRANCH  36  37
ENDBRANCH   1  36
TORSDOF 19
ENDMDL
MODEL 2
REMARK VINA RESULT:     -12.3      1.639      7.327
REMARK SMILES N#CCOc1ccc2[nH]cc([C@H](C(=O)NCCCNC(=O)c3ccc(-c4c5nc(c(-c6cccc(S(=O)(=O)[O-])c6F)c6ccc([nH]6)c(-c6cccc(S(=O)(=O)[O-])c6F)c6nc(c(-c7cccc(S(=O)(=O)[O-])c7F)c7ccc4[nH]7)C=C6)C=C5)cc3)[NH+]3CC[NH+]([C@@H]4CCS(=O)(=O)C4)CC3)c2c1
REMARK SMILES IDX 16 1 15 2 13 3 14 4 12 6 11 7 5 8 6 9 99 10 7 11 98 12 8 13
REMARK SMILES IDX 9 14 10 15 4 17 3 18 2 19 1 20 85 21 86 22 97 23 87 25 96 26
REMARK SMILES IDX 88 27 89 29 90 30 95 31 91 32 92 33 93 34 94 35 17 36 18 37
REMARK SMILES IDX 19 38 20 39 21 41 22 42 23 43 84 44 24 45 83 46 25 47 26 48
REMARK SMILES IDX 27 49 77 50 28 51 82 52 76 53 78 54 29 55 81 56 75 57 74 58
REMARK SMILES IDX 30 60 62 61 42 62 61 63 43 64 46 65 60 66 79 67 44 68 45 69
REMARK SMILES IDX 59 71 80 72 47 73 31 74 32 75 40 76 33 77 35 78 41 79 34 80
REMARK SMILES IDX 36 81 37 82 38 83 39 84 63 85 64 86 72 87 65 88 67 89 73 90
REMARK SMILES IDX 66 91 68 92 69 93 70 94 71 95 48 96 49 97 57 98 50 99 52 100
REMARK SMILES IDX 58 101 51 102 53 103 54 104 55 105 56 106
REMARK H PARENT 15 5 9 16 85 24 88 28 19 40 78 59 46 70
REMARK Flexibility Score: inf
ROOT
ATOM      1  C   UNL A   1      33.798  22.327  27.545  1.00  0.00     0.118 C 
ENDROOT
BRANCH   1   2
ATOM      2  N   UNL A   1      32.440  22.047  27.142  1.00  0.00    -0.351 N 
ATOM      3  C   UNL A   1      31.819  22.266  25.956  1.00  0.00     0.283 C 
ATOM      4  O   UNL A   1      30.625  21.955  25.935  1.00  0.00    -0.268 OA
ATOM      5  H   UNL A   1      31.878  21.632  27.836  1.00  0.00     0.163 HD
BRANCH   3   6
ATOM      6  C   UNL A   1      32.640  22.726  24.732  1.00  0.00     0.308 C 
BRANCH   6   7
ATOM      7  C   UNL A   1      32.390  21.829  23.539  1.00  0.00     0.045 A 
ATOM      8  C   UNL A   1      33.165  18.138  24.128  1.00  0.00     0.121 A 
ATOM      9  C   UNL A   1      32.512  17.699  22.974  1.00  0.00     0.048 A 
ATOM     10  C   UNL A   1      33.153  19.482  24.395  1.00  0.00     0.057 A 
ATOM     11  C   UNL A   1      32.047  18.590  21.987  1.00  0.00     0.030 A 
ATOM     12  C   UNL A   1      32.617  20.416  23.489  1.00  0.00     0.013 A 
ATOM     13  C   UNL A   1      32.122  19.953  22.274  1.00  0.00     0.046 A 
ATOM     14  N   UNL A   1      31.734  21.053  21.548  1.00  0.00    -0.361 N 
ATOM     15  C   UNL A   1      31.873  22.187  22.304  1.00  0.00     0.094 A 
ATOM     16  H   UNL A   1      31.405  21.030  20.620  1.00  0.00     0.166 HD
BRANCH   8  17
ATOM     17  O   UNL A   1      33.756  17.376  25.122  1.00  0.00    -0.479 OA
BRANCH  17  18
ATOM     18  C   UNL A   1      32.808  16.718  26.020  1.00  0.00     0.349 C 
BRANCH  18  19
ATOM     19  C   UNL A   1      33.027  15.248  25.701  1.00  0.00     0.104 C 
ATOM     20  N   UNL A   1      33.209  14.029  25.436  1.00  0.00    -0.195 NA
ENDBRANCH  18  19
ENDBRANCH  17  18
ENDBRANCH   8  17
ENDBRANCH   6   7
BRANCH   6  21
ATOM     21  N   UNL A   1      32.427  24.147  24.378  1.00  0.00    -0.312 N 
ATOM     22  C   UNL A   1      31.354  24.871  25.076  1.00  0.00     0.325 C 
ATOM     23  C   UNL A   1      33.696  24.888  24.343  1.00  0.00     0.325 C 
ATOM     24  H   UNL A   1      32.047  24.097  23.432  1.00  0.00     0.349 HD
ATOM     25  C   UNL A   1      31.725  25.835  26.229  1.00  0.00     0.324 C 
ATOM     26  C   UNL A   1      34.051  25.723  25.588  1.00  0.00     0.324 C 
ATOM     27  N   UNL A   1      32.978  26.584  26.076  1.00  0.00    -0.322 N 
ATOM     28  H   UNL A   1      33.292  26.854  27.008  1.00  0.00     0.348 HD
BRANCH  27  29
ATOM     29  C   UNL A   1      32.866  27.949  25.568  1.00  0.00     0.200 C 
ATOM     30  C   UNL A   1      31.488  28.630  25.520  1.00  0.00     0.082 C 
ATOM     31  C   UNL A   1      33.513  28.147  24.189  1.00  0.00     0.201 C 
ATOM     32  C   UNL A   1      30.857  28.461  24.149  1.00  0.00     0.143 C 
ATOM     33  S   UNL A   1      32.188  28.218  23.000  1.00  0.00     0.156 S 
ATOM     34  O   UNL A   1      32.013  26.927  22.374  1.00  0.00    -0.229 OA
ATOM     35  O   UNL A   1      32.340  29.429  22.216  1.00  0.00    -0.229 OA
ENDBRANCH  27  29
ENDBRANCH   6  21
ENDBRANCH   3   6
ENDBRANCH   1   2
BRANCH   1  36
ATOM     36  C   UNL A   1      34.740  21.402  26.796  1.00  0.00     0.042 C 
BRANCH  36  37
ATOM     37  C   UNL A   1      36.054  22.076  26.414  1.00  0.00     0.118 C 
BRANCH  37  38
ATOM     38  N   UNL A   1      37.057  21.124  25.938  1.00  0.00    -0.352 N 
ATOM     39  C   UNL A   1      38.414  21.285  25.836  1.00  0.00     0.251 C 
ATOM     40  H   UNL A   1      36.709  20.249  25.651  1.00  0.00     0.163 HD
ATOM     41  O   UNL A   1      39.097  20.460  25.238  1.00  0.00    -0.269 OA
BRANCH  39  42
ATOM     42  C   UNL A   1      39.024  22.482  26.440  1.00  0.00     0.039 A 
ATOM     43  C   UNL A   1      40.113  22.332  27.297  1.00  0.00     0.014 A 
ATOM     44  C   UNL A   1      38.560  23.750  26.080  1.00  0.00     0.014 A 
ATOM     45  C   UNL A   1      40.786  23.468  27.742  1.00  0.00     0.010 A 
ATOM     46  C   UNL A   1      39.291  24.871  26.445  1.00  0.00     0.010 A 
ATOM     47  C   UNL A   1      40.406  24.743  27.286  1.00  0.00    -0.014 A 
BRANCH  47  48
ATOM     48  C   UNL A   1      41.169  25.955  27.669  1.00  0.00     0.031 A 
ATOM     49  C   UNL A   1      40.497  27.053  28.445  1.00  0.00     0.074 A 
ATOM     50  C   UNL A   1      42.441  26.102  27.243  1.00  0.00     0.049 A 
ATOM     51  N   UNL A   1      40.983  28.204  28.832  1.00  0.00    -0.248 NA
ATOM     52  C   UNL A   1      39.085  26.848  28.811  1.00  0.00     0.031 C 
ATOM     53  C   UNL A   1      43.171  25.143  26.411  1.00  0.00     0.029 A 
ATOM     54  N   UNL A   1      43.334  27.125  27.432  1.00  0.00    -0.354 N 
ATOM     55  C   UNL A   1      39.933  28.868  29.453  1.00  0.00     0.074 A 
ATOM     56  C   UNL A   1      38.773  28.014  29.355  1.00  0.00     0.031 C 
ATOM     57  C   UNL A   1      44.404  25.616  26.173  1.00  0.00     0.029 A 
ATOM     58  C   UNL A   1      44.541  26.927  26.801  1.00  0.00     0.049 A 
ATOM     59  H   UNL A   1      43.132  27.925  27.968  1.00  0.00     0.167 HD
ATOM     60  C   UNL A   1      39.942  30.070  30.076  1.00  0.00     0.034 A 
ATOM     61  C   UNL A   1      45.629  27.717  26.728  1.00  0.00     0.034 A 
ATOM     62  C   UNL A   1      41.108  30.901  30.197  1.00  0.00     0.049 A 
ATOM     63  C   UNL A   1      45.620  29.036  27.451  1.00  0.00     0.074 A 
ATOM     64  C   UNL A   1      41.246  32.094  30.884  1.00  0.00     0.029 A 
ATOM     65  N   UNL A   1      42.335  30.635  29.606  1.00  0.00    -0.354 N 
ATOM     66  N   UNL A   1      44.668  29.575  28.171  1.00  0.00    -0.248 NA
ATOM     67  C   UNL A   1      46.847  29.841  27.378  1.00  0.00     0.031 C 
ATOM     68  C   UNL A   1      42.545  32.569  30.676  1.00  0.00     0.029 A 
ATOM     69  C   UNL A   1      43.229  31.650  29.898  1.00  0.00     0.049 A 
ATOM     70  H   UNL A   1      42.538  29.841  29.060  1.00  0.00     0.167 HD
ATOM     71  C   UNL A   1      45.192  30.763  28.668  1.00  0.00     0.074 A 
ATOM     72  C   UNL A   1      46.554  30.852  28.183  1.00  0.00     0.031 C 
ATOM     73  C   UNL A   1      44.597  31.702  29.445  1.00  0.00     0.034 A 
BRANCH  60  74
ATOM     74  C   UNL A   1      38.659  30.539  30.711  1.00  0.00     0.023 A 
ATOM     75  C   UNL A   1      38.434  30.313  32.085  1.00  0.00     0.012 A 
ATOM     76  C   UNL A   1      37.700  31.250  29.962  1.00  0.00     0.148 A 
ATOM     77  C   UNL A   1      37.260  30.753  32.695  1.00  0.00     0.002 A 
ATOM     78  C   UNL A   1      36.557  31.728  30.589  1.00  0.00     0.091 A 
ATOM     79  F   UNL A   1      37.921  31.436  28.653  1.00  0.00    -0.205 F 
ATOM     80  C   UNL A   1      36.329  31.469  31.951  1.00  0.00     0.022 A 
BRANCH  78  81
ATOM     81  S   UNL A   1      35.334  32.734  29.741  1.00  0.00     0.127 S 
ATOM     82  O   UNL A   1      36.145  33.861  29.284  1.00  0.00    -0.237 OA
ATOM     83  O   UNL A   1      34.886  31.834  28.677  1.00  0.00    -0.237 OA
ATOM     84  O   UNL A   1      34.318  33.057  30.733  1.00  0.00    -0.744 OA
ENDBRANCH  78  81
ENDBRANCH  60  74
BRANCH  61  85
ATOM     85  C   UNL A   1      46.837  27.258  25.986  1.00  0.00     0.023 A 
ATOM     86  C   UNL A   1      47.744  26.380  26.610  1.00  0.00     0.012 A 
ATOM     87  C   UNL A   1      47.082  27.668  24.661  1.00  0.00     0.148 A 
ATOM     88  C   UNL A   1      48.893  25.950  25.945  1.00  0.00     0.002 A 
ATOM     89  C   UNL A   1      48.196  27.190  23.983  1.00  0.00     0.091 A 
ATOM     90  F   UNL A   1      46.210  28.509  24.086  1.00  0.00    -0.205 F 
ATOM     91  C   UNL A   1      49.114  26.347  24.629  1.00  0.00     0.022 A 
BRANCH  89  92
ATOM     92  S   UNL A   1      48.491  27.539  22.246  1.00  0.00     0.127 S 
ATOM     93  O   UNL A   1      49.728  28.313  22.301  1.00  0.00    -0.237 OA
ATOM     94  O   UNL A   1      48.631  26.192  21.689  1.00  0.00    -0.237 OA
ATOM     95  O   UNL A   1      47.313  28.260  21.783  1.00  0.00    -0.744 OA
ENDBRANCH  89  92
ENDBRANCH  61  85
BRANCH  73  96
ATOM     96  C   UNL A   1      45.422  32.892  29.860  1.00  0.00     0.023 A 
ATOM     97  C   UNL A   1      46.196  32.840  31.036  1.00  0.00     0.012 A 
ATOM     98  C   UNL A   1      45.484  34.038  29.041  1.00  0.00     0.148 A 
ATOM     99  C   UNL A   1      46.990  33.923  31.410  1.00  0.00     0.002 A 
ATOM    100  C   UNL A   1      46.319  35.090  29.392  1.00  0.00     0.091 A 
ATOM    101  F   UNL A   1      44.728  34.074  27.935  1.00  0.00    -0.205 F 
ATOM    102  C   UNL A   1      47.061  35.042  30.583  1.00  0.00     0.022 A 
BRANCH 100 103
ATOM    103  S   UNL A   1      46.552  36.527  28.340  1.00  0.00     0.127 S 
ATOM    104  O   UNL A   1      45.198  36.746  27.832  1.00  0.00    -0.237 OA
ATOM    105  O   UNL A   1      47.017  37.535  29.294  1.00  0.00    -0.237 OA
ATOM    106  O   UNL A   1      47.538  36.140  27.340  1.00  0.00    -0.744 OA
ENDBRANCH 100 103
ENDBRANCH  73  96
ENDBRANCH  47  48
ENDBRANCH  39  42
ENDBRANCH  37  38
ENDBRANCH  36  37
ENDBRANCH   1  36
TORSDOF 19
ENDMDL
MODEL 3
REMARK VINA RESULT:     -11.6      2.184      8.873
REMARK SMILES N#CCOc1ccc2[nH]cc([C@H](C(=O)NCCCNC(=O)c3ccc(-c4c5nc(c(-c6cccc(S(=O)(=O)[O-])c6F)c6ccc([nH]6)c(-c6cccc(S(=O)(=O)[O-])c6F)c6nc(c(-c7cccc(S(=O)(=O)[O-])c7F)c7ccc4[nH]7)C=C6)C=C5)cc3)[NH+]3CC[NH+]([C@@H]4CCS(=O)(=O)C4)CC3)c2c1
REMARK SMILES IDX 16 1 15 2 13 3 14 4 12 6 11 7 5 8 6 9 99 10 7 11 98 12 8 13
REMARK SMILES IDX 9 14 10 15 4 17 3 18 2 19 1 20 85 21 86 22 97 23 87 25 96 26
REMARK SMILES IDX 88 27 89 29 90 30 95 31 91 32 92 33 93 34 94 35 17 36 18 37
REMARK SMILES IDX 19 38 20 39 21 41 22 42 23 43 84 44 24 45 83 46 25 47 26 48
REMARK SMILES IDX 27 49 77 50 28 51 82 52 76 53 78 54 29 55 81 56 75 57 74 58
REMARK SMILES IDX 30 60 62 61 42 62 61 63 43 64 46 65 60 66 79 67 44 68 45 69
REMARK SMILES IDX 59 71 80 72 47 73 31 74 32 75 40 76 33 77 35 78 41 79 34 80
REMARK SMILES IDX 36 81 37 82 38 83 39 84 63 85 64 86 72 87 65 88 67 89 73 90
REMARK SMILES IDX 66 91 68 92 69 93 70 94 71 95 48 96 49 97 57 98 50 99 52 100
REMARK SMILES IDX 58 101 51 102 53 103 54 104 55 105 56 106
REMARK H PARENT 15 5 9 16 85 24 88 28 19 40 78 59 46 70
REMARK Flexibility Score: inf
ROOT
ATOM      1  C   UNL A   1      35.207  24.282  25.821  1.00  0.00     0.118 C 
ENDROOT
BRANCH   1   2
ATOM      2  N   UNL A   1      34.938  24.672  24.457  1.00  0.00    -0.351 N 
ATOM      3  C   UNL A   1      33.774  24.663  23.760  1.00  0.00     0.283 C 
ATOM      4  O   UNL A   1      33.875  25.018  22.583  1.00  0.00    -0.268 OA
ATOM      5  H   UNL A   1      35.721  24.994  23.955  1.00  0.00     0.163 HD
BRANCH   3   6
ATOM      6  C   UNL A   1      32.445  24.371  24.489  1.00  0.00     0.308 C 
BRANCH   6   7
ATOM      7  C   UNL A   1      31.403  25.421  24.169  1.00  0.00     0.045 A 
ATOM      8  C   UNL A   1      32.302  28.954  25.300  1.00  0.00     0.121 A 
ATOM      9  C   UNL A   1      31.301  29.572  24.549  1.00  0.00     0.048 A 
ATOM     10  C   UNL A   1      32.415  27.591  25.214  1.00  0.00     0.057 A 
ATOM     11  C   UNL A   1      30.287  28.841  23.899  1.00  0.00     0.030 A 
ATOM     12  C   UNL A   1      31.485  26.812  24.499  1.00  0.00     0.013 A 
ATOM     13  C   UNL A   1      30.405  27.452  23.900  1.00  0.00     0.046 A 
ATOM     14  N   UNL A   1      29.615  26.476  23.341  1.00  0.00    -0.361 N 
ATOM     15  C   UNL A   1      30.213  25.251  23.480  1.00  0.00     0.094 A 
ATOM     16  H   UNL A   1      28.746  26.633  22.905  1.00  0.00     0.166 HD
BRANCH   8  17
ATOM     17  O   UNL A   1      33.292  29.549  26.065  1.00  0.00    -0.479 OA
BRANCH  17  18
ATOM     18  C   UNL A   1      33.686  28.780  27.245  1.00  0.00     0.349 C 
BRANCH  18  19
ATOM     19  C   UNL A   1      35.141  29.184  27.422  1.00  0.00     0.104 C 
ATOM     20  N   UNL A   1      36.348  29.518  27.569  1.00  0.00    -0.195 NA
ENDBRANCH  18  19
ENDBRANCH  17  18
ENDBRANCH   8  17
ENDBRANCH   6   7
BRANCH   6  21
ATOM     21  N   UNL A   1      31.918  23.011  24.234  1.00  0.00    -0.312 N 
ATOM     22  C   UNL A   1      32.677  22.145  23.318  1.00  0.00     0.325 C 
ATOM     23  C   UNL A   1      31.541  22.338  25.485  1.00  0.00     0.325 C 
ATOM     24  H   UNL A   1      31.076  23.186  23.685  1.00  0.00     0.349 HD
ATOM     25  C   UNL A   1      33.581  21.036  23.909  1.00  0.00     0.324 C 
ATOM     26  C   UNL A   1      32.555  21.341  26.075  1.00  0.00     0.324 C 
ATOM     27  N   UNL A   1      33.090  20.371  25.123  1.00  0.00    -0.322 N 
ATOM     28  H   UNL A   1      33.896  19.979  25.608  1.00  0.00     0.348 HD
BRANCH  27  29
ATOM     29  C   UNL A   1      32.404  19.096  24.938  1.00  0.00     0.200 C 
ATOM     30  C   UNL A   1      32.503  18.015  26.027  1.00  0.00     0.082 C 
ATOM     31  C   UNL A   1      32.723  18.414  23.599  1.00  0.00     0.201 C 
ATOM     32  C   UNL A   1      33.622  17.038  25.709  1.00  0.00     0.143 C 
ATOM     33  S   UNL A   1      33.858  17.086  23.951  1.00  0.00     0.156 S 
ATOM     34  O   UNL A   1      35.215  17.511  23.689  1.00  0.00    -0.229 OA
ATOM     35  O   UNL A   1      33.322  15.863  23.385  1.00  0.00    -0.229 OA
ENDBRANCH  27  29
ENDBRANCH   6  21
ENDBRANCH   3   6
ENDBRANCH   1   2
BRANCH   1  36
ATOM     36  C   UNL A   1      35.738  22.859  25.835  1.00  0.00     0.042 C 
BRANCH  36  37
ATOM     37  C   UNL A   1      36.955  22.671  24.935  1.00  0.00     0.118 C 
BRANCH  37  38
ATOM     38  N   UNL A   1      37.738  21.487  25.287  1.00  0.00    -0.352 N 
ATOM     39  C   UNL A   1      38.930  21.414  25.959  1.00  0.00     0.251 C 
ATOM     40  H   UNL A   1      37.355  20.626  25.003  1.00  0.00     0.163 HD
ATOM     41  O   UNL A   1      39.554  20.359  26.008  1.00  0.00    -0.269 OA
BRANCH  39  42
ATOM     42  C   UNL A   1      39.451  22.636  26.594  1.00  0.00     0.039 A 
ATOM     43  C   UNL A   1      40.438  22.526  27.572  1.00  0.00     0.014 A 
ATOM     44  C   UNL A   1      39.014  23.887  26.149  1.00  0.00     0.014 A 
ATOM     45  C   UNL A   1      41.041  23.685  28.059  1.00  0.00     0.010 A 
ATOM     46  C   UNL A   1      39.684  25.029  26.563  1.00  0.00     0.010 A 
ATOM     47  C   UNL A   1      40.698  24.941  27.528  1.00  0.00    -0.014 A 
BRANCH  47  48
ATOM     48  C   UNL A   1      41.396  26.175  27.961  1.00  0.00     0.031 A 
ATOM     49  C   UNL A   1      40.653  27.229  28.734  1.00  0.00     0.074 A 
ATOM     50  C   UNL A   1      42.674  26.382  27.584  1.00  0.00     0.049 A 
ATOM     51  N   UNL A   1      41.077  28.390  29.159  1.00  0.00    -0.248 NA
ATOM     52  C   UNL A   1      39.238  26.958  29.045  1.00  0.00     0.031 C 
ATOM     53  C   UNL A   1      43.473  25.471  26.760  1.00  0.00     0.029 A 
ATOM     54  N   UNL A   1      43.518  27.437  27.823  1.00  0.00    -0.354 N 
ATOM     55  C   UNL A   1      39.979  28.998  29.755  1.00  0.00     0.074 A 
ATOM     56  C   UNL A   1      38.859  28.099  29.600  1.00  0.00     0.031 C 
ATOM     57  C   UNL A   1      44.693  25.999  26.575  1.00  0.00     0.029 A 
ATOM     58  C   UNL A   1      44.753  27.301  27.233  1.00  0.00     0.049 A 
ATOM     59  H   UNL A   1      43.264  28.217  28.368  1.00  0.00     0.167 HD
ATOM     60  C   UNL A   1      39.917  30.186  30.401  1.00  0.00     0.034 A 
ATOM     61  C   UNL A   1      45.809  28.136  27.213  1.00  0.00     0.034 A 
ATOM     62  C   UNL A   1      41.042  31.062  30.580  1.00  0.00     0.049 A 
ATOM     63  C   UNL A   1      45.720  29.439  27.960  1.00  0.00     0.074 A 
ATOM     64  C   UNL A   1      41.106  32.244  31.293  1.00  0.00     0.029 A 
ATOM     65  N   UNL A   1      42.299  30.858  30.028  1.00  0.00    -0.354 N 
ATOM     66  N   UNL A   1      44.722  29.924  28.657  1.00  0.00    -0.248 NA
ATOM     67  C   UNL A   1      46.915  30.294  27.947  1.00  0.00     0.031 C 
ATOM     68  C   UNL A   1      42.391  32.776  31.142  1.00  0.00     0.029 A 
ATOM     69  C   UNL A   1      43.140  31.902  30.370  1.00  0.00     0.049 A 
ATOM     70  H   UNL A   1      42.554  30.085  29.474  1.00  0.00     0.167 HD
ATOM     71  C   UNL A   1      45.179  31.122  29.195  1.00  0.00     0.074 A 
ATOM     72  C   UNL A   1      46.552  31.276  28.760  1.00  0.00     0.031 C 
ATOM     73  C   UNL A   1      44.518  32.019  29.968  1.00  0.00     0.034 A 
BRANCH  60  74
ATOM     74  C   UNL A   1      38.594  30.589  30.999  1.00  0.00     0.023 A 
ATOM     75  C   UNL A   1      38.261  30.175  32.305  1.00  0.00     0.012 A 
ATOM     76  C   UNL A   1      37.704  31.421  30.290  1.00  0.00     0.148 A 
ATOM     77  C   UNL A   1      37.048  30.550  32.883  1.00  0.00     0.002 A 
ATOM     78  C   UNL A   1      36.522  31.832  30.893  1.00  0.00     0.091 A 
ATOM     79  F   UNL A   1      38.028  31.787  29.042  1.00  0.00    -0.205 F 
ATOM     80  C   UNL A   1      36.186  31.386  32.182  1.00  0.00     0.022 A 
BRANCH  78  81
ATOM     81  S   UNL A   1      35.380  32.975  30.108  1.00  0.00     0.127 S 
ATOM     82  O   UNL A   1      34.771  32.128  29.085  1.00  0.00    -0.237 OA
ATOM     83  O   UNL A   1      34.492  33.328  31.217  1.00  0.00    -0.237 OA
ATOM     84  O   UNL A   1      36.193  34.075  29.605  1.00  0.00    -0.744 OA
ENDBRANCH  78  81
ENDBRANCH  60  74
BRANCH  61  85
ATOM     85  C   UNL A   1      47.060  27.742  26.506  1.00  0.00     0.023 A 
ATOM     86  C   UNL A   1      48.112  27.151  27.232  1.00  0.00     0.012 A 
ATOM     87  C   UNL A   1      47.206  27.930  25.118  1.00  0.00     0.148 A 
ATOM     88  C   UNL A   1      49.302  26.790  26.598  1.00  0.00     0.002 A 
ATOM     89  C   UNL A   1      48.370  27.515  24.482  1.00  0.00     0.091 A 
ATOM     90  F   UNL A   1      46.197  28.501  24.446  1.00  0.00    -0.205 F 
ATOM     91  C   UNL A   1      49.427  26.963  25.222  1.00  0.00     0.022 A 
BRANCH  89  92
ATOM     92  S   UNL A   1      48.567  27.574  22.697  1.00  0.00     0.127 S 
ATOM     93  O   UNL A   1      49.867  28.225  22.561  1.00  0.00    -0.237 OA
ATOM     94  O   UNL A   1      48.548  26.154  22.346  1.00  0.00    -0.237 OA
ATOM     95  O   UNL A   1      47.425  28.330  22.200  1.00  0.00    -0.744 OA
ENDBRANCH  89  92
ENDBRANCH  61  85
BRANCH  73  96
ATOM     96  C   UNL A   1      45.279  33.233  30.434  1.00  0.00     0.023 A 
ATOM     97  C   UNL A   1      46.122  33.149  31.560  1.00  0.00     0.012 A 
ATOM     98  C   UNL A   1      45.210  34.440  29.710  1.00  0.00     0.148 A 
ATOM     99  C   UNL A   1      46.857  34.257  31.979  1.00  0.00     0.002 A 
ATOM    100  C   UNL A   1      45.987  35.523  30.101  1.00  0.00     0.091 A 
ATOM    101  F   UNL A   1      44.390  34.504  28.652  1.00  0.00    -0.205 F 
ATOM    102  C   UNL A   1      46.798  35.439  31.243  1.00  0.00     0.022 A 
BRANCH 100 103
ATOM    103  S   UNL A   1      46.053  37.051  29.159  1.00  0.00     0.127 S 
ATOM    104  O   UNL A   1      46.553  36.583  27.868  1.00  0.00    -0.237 OA
ATOM    105  O   UNL A   1      44.651  37.471  29.155  1.00  0.00    -0.237 OA
ATOM    106  O   UNL A   1      46.948  37.938  29.891  1.00  0.00    -0.744 OA
ENDBRANCH 100 103
ENDBRANCH  73  96
ENDBRANCH  47  48
ENDBRANCH  39  42
ENDBRANCH  37  38
ENDBRANCH  36  37
ENDBRANCH   1  36
TORSDOF 19
ENDMDL
