MODEL 1
REMARK VINA RESULT:     -13.5      0.000      0.000
REMARK SMILES O=C(NCCCNC(=O)c1cc(Cl)ccc1N1C(=O)CC2(CCCC2)C1=O)c1ccc(-c2c3nc(c(-c4cccc(S(=O)(=O)[O-])c4F)c4ccc([nH]4)c(-c4cccc(S(=O)(=O)[O-])c4F)c4nc(c(-c5cccc(S(=O)(=O)[O-])c5F)c5ccc2[nH]5)C=C4)C=C3)cc1
REMARK SMILES IDX 4 1 3 2 1 3 2 4 28 6 29 7 90 8 30 9 89 10 31 11 32 12 33 13
REMARK SMILES IDX 83 14 34 15 88 16 82 17 84 18 35 19 87 20 81 21 80 22 36 24
REMARK SMILES IDX 68 25 48 26 67 27 49 28 52 29 66 30 85 31 50 32 51 33 65 35
REMARK SMILES IDX 86 36 53 37 37 38 38 39 46 40 39 41 41 42 47 43 40 44 42 45
REMARK SMILES IDX 43 46 44 47 45 48 69 49 70 50 78 51 71 52 73 53 79 54 72 55
REMARK SMILES IDX 74 56 75 57 76 58 77 59 54 60 55 61 63 62 56 63 58 64 64 65
REMARK SMILES IDX 57 66 59 67 60 68 61 69 62 70 5 71 6 72 7 73 8 74 9 76 10 77
REMARK SMILES IDX 11 78 16 79 12 80 15 81 13 82 14 83 17 84 18 85 26 86 19 87
REMARK SMILES IDX 20 88 21 89 27 90 22 91 25 92 23 93 24 94
REMARK H PARENT 3 5 84 23 52 34 7 75
REMARK Flexibility Score: inf
ROOT
ATOM      1  C   UNL A   1      32.733  29.368  25.507  1.00  0.00     0.118 C 
ENDROOT
BRANCH   1   2
ATOM      2  N   UNL A   1      32.301  30.687  25.958  1.00  0.00    -0.352 N 
ATOM      3  O   UNL A   1      32.187  32.521  27.251  1.00  0.00    -0.269 OA
ATOM      4  C   UNL A   1      32.824  31.524  26.917  1.00  0.00     0.251 C 
ATOM      5  H   UNL A   1      31.502  31.034  25.499  1.00  0.00     0.163 HD
BRANCH   4   6
ATOM      6  C   UNL A   1      34.121  31.219  27.563  1.00  0.00     0.039 A 
ATOM      7  C   UNL A   1      34.433  29.920  27.958  1.00  0.00     0.014 A 
ATOM      8  C   UNL A   1      35.053  32.243  27.761  1.00  0.00     0.014 A 
ATOM      9  C   UNL A   1      35.568  29.682  28.722  1.00  0.00     0.010 A 
ATOM     10  C   UNL A   1      36.257  31.977  28.426  1.00  0.00     0.010 A 
ATOM     11  C   UNL A   1      36.507  30.703  28.953  1.00  0.00    -0.014 A 
BRANCH  11  12
ATOM     12  C   UNL A   1      37.756  30.363  29.685  1.00  0.00     0.031 A 
ATOM     13  C   UNL A   1      37.992  30.806  31.104  1.00  0.00     0.074 A 
ATOM     14  C   UNL A   1      38.667  29.585  29.064  1.00  0.00     0.049 A 
ATOM     15  N   UNL A   1      38.980  30.495  31.905  1.00  0.00    -0.248 NA
ATOM     16  C   UNL A   1      37.007  31.722  31.702  1.00  0.00     0.031 C 
ATOM     17  C   UNL A   1      38.581  29.148  27.668  1.00  0.00     0.029 A 
ATOM     18  N   UNL A   1      39.823  29.006  29.521  1.00  0.00    -0.354 N 
ATOM     19  C   UNL A   1      38.756  31.195  33.085  1.00  0.00     0.074 A 
ATOM     20  C   UNL A   1      37.545  31.963  32.891  1.00  0.00     0.031 C 
ATOM     21  C   UNL A   1      39.605  28.325  27.398  1.00  0.00     0.029 A 
ATOM     22  C   UNL A   1      40.448  28.218  28.583  1.00  0.00     0.049 A 
ATOM     23  H   UNL A   1      40.171  29.142  30.431  1.00  0.00     0.167 HD
ATOM     24  C   UNL A   1      39.480  31.180  34.230  1.00  0.00     0.034 A 
ATOM     25  C   UNL A   1      41.575  27.485  28.661  1.00  0.00     0.034 A 
ATOM     26  C   UNL A   1      40.663  30.384  34.431  1.00  0.00     0.049 A 
ATOM     27  C   UNL A   1      42.316  27.434  29.965  1.00  0.00     0.074 A 
ATOM     28  C   UNL A   1      41.446  30.277  35.569  1.00  0.00     0.029 A 
ATOM     29  N   UNL A   1      41.232  29.553  33.478  1.00  0.00    -0.354 N 
ATOM     30  N   UNL A   1      42.018  28.012  31.103  1.00  0.00    -0.248 NA
ATOM     31  C   UNL A   1      43.530  26.610  30.006  1.00  0.00     0.031 C 
ATOM     32  C   UNL A   1      42.489  29.383  35.301  1.00  0.00     0.029 A 
ATOM     33  C   UNL A   1      42.351  28.926  34.001  1.00  0.00     0.049 A 
ATOM     34  H   UNL A   1      40.890  29.427  32.563  1.00  0.00     0.167 HD
ATOM     35  C   UNL A   1      43.003  27.618  31.998  1.00  0.00     0.074 A 
ATOM     36  C   UNL A   1      43.880  26.714  31.282  1.00  0.00     0.031 C 
ATOM     37  C   UNL A   1      43.187  27.996  33.287  1.00  0.00     0.034 A 
BRANCH  24  38
ATOM     38  C   UNL A   1      38.980  32.005  35.389  1.00  0.00     0.023 A 
ATOM     39  C   UNL A   1      39.108  33.407  35.340  1.00  0.00     0.012 A 
ATOM     40  C   UNL A   1      38.317  31.410  36.481  1.00  0.00     0.148 A 
ATOM     41  C   UNL A   1      38.603  34.205  36.366  1.00  0.00     0.002 A 
ATOM     42  C   UNL A   1      37.784  32.214  37.484  1.00  0.00     0.091 A 
ATOM     43  F   UNL A   1      38.222  30.073  36.521  1.00  0.00    -0.205 F 
ATOM     44  C   UNL A   1      37.932  33.609  37.432  1.00  0.00     0.022 A 
BRANCH  42  45
ATOM     45  S   UNL A   1      36.842  31.550  38.863  1.00  0.00     0.127 S 
ATOM     46  O   UNL A   1      37.771  31.742  39.975  1.00  0.00    -0.237 OA
ATOM     47  O   UNL A   1      35.670  32.427  38.889  1.00  0.00    -0.237 OA
ATOM     48  O   UNL A   1      36.553  30.164  38.520  1.00  0.00    -0.744 OA
ENDBRANCH  42  45
ENDBRANCH  24  38
BRANCH  25  49
ATOM     49  C   UNL A   1      42.027  26.702  27.477  1.00  0.00     0.023 A 
ATOM     50  C   UNL A   1      42.782  27.332  26.470  1.00  0.00     0.012 A 
ATOM     51  C   UNL A   1      41.767  25.322  27.376  1.00  0.00     0.148 A 
ATOM     52  C   UNL A   1      43.252  26.606  25.375  1.00  0.00     0.002 A 
ATOM     53  C   UNL A   1      42.294  24.592  26.318  1.00  0.00     0.091 A 
ATOM     54  F   UNL A   1      41.026  24.740  28.331  1.00  0.00    -0.205 F 
ATOM     55  C   UNL A   1      43.022  25.233  25.306  1.00  0.00     0.022 A 
BRANCH  53  56
ATOM     56  S   UNL A   1      42.172  22.800  26.268  1.00  0.00     0.127 S 
ATOM     57  O   UNL A   1      42.891  22.414  27.478  1.00  0.00    -0.237 OA
ATOM     58  O   UNL A   1      40.725  22.583  26.314  1.00  0.00    -0.237 OA
ATOM     59  O   UNL A   1      42.786  22.418  25.002  1.00  0.00    -0.744 OA
ENDBRANCH  53  56
ENDBRANCH  25  49
BRANCH  37  60
ATOM     60  C   UNL A   1      44.386  27.433  34.000  1.00  0.00     0.023 A 
ATOM     61  C   UNL A   1      45.634  28.071  33.859  1.00  0.00     0.012 A 
ATOM     62  C   UNL A   1      44.275  26.307  34.836  1.00  0.00     0.148 A 
ATOM     63  C   UNL A   1      46.762  27.576  34.511  1.00  0.00     0.002 A 
ATOM     64  C   UNL A   1      45.395  25.843  35.517  1.00  0.00     0.091 A 
ATOM     65  F   UNL A   1      43.084  25.698  34.939  1.00  0.00    -0.205 F 
ATOM     66  C   UNL A   1      46.640  26.469  35.347  1.00  0.00     0.022 A 
BRANCH  64  67
ATOM     67  S   UNL A   1      45.304  24.472  36.673  1.00  0.00     0.127 S 
ATOM     68  O   UNL A   1      46.628  24.512  37.291  1.00  0.00    -0.237 OA
ATOM     69  O   UNL A   1      44.207  24.873  37.556  1.00  0.00    -0.237 OA
ATOM     70  O   UNL A   1      45.020  23.295  35.864  1.00  0.00    -0.744 OA
ENDBRANCH  64  67
ENDBRANCH  37  60
ENDBRANCH  11  12
ENDBRANCH   4   6
ENDBRANCH   1   2
BRANCH   1  71
ATOM     71  C   UNL A   1      33.046  29.319  24.019  1.00  0.00     0.042 C 
BRANCH  71  72
ATOM     72  C   UNL A   1      34.252  28.464  23.666  1.00  0.00     0.118 C 
BRANCH  72  73
ATOM     73  N   UNL A   1      34.031  27.637  22.486  1.00  0.00    -0.352 N 
ATOM     74  C   UNL A   1      33.077  26.685  22.234  1.00  0.00     0.253 C 
ATOM     75  H   UNL A   1      34.669  27.786  21.752  1.00  0.00     0.163 HD
ATOM     76  O   UNL A   1      33.164  25.980  21.230  1.00  0.00    -0.269 OA
BRANCH  74  77
ATOM     77  C   UNL A   1      31.904  26.525  23.127  1.00  0.00     0.065 A 
ATOM     78  C   UNL A   1      30.731  27.226  22.790  1.00  0.00     0.036 A 
ATOM     79  C   UNL A   1      31.868  25.535  24.133  1.00  0.00     0.065 A 
ATOM     80  C   UNL A   1      29.560  27.022  23.510  1.00  0.00     0.041 A 
ATOM     81  C   UNL A   1      30.656  25.317  24.812  1.00  0.00     0.029 A 
ATOM     82  Cl  UNL A   1      28.153  27.933  23.125  1.00  0.00    -0.084 Cl
ATOM     83  C   UNL A   1      29.518  26.074  24.522  1.00  0.00     0.023 A 
BRANCH  79  84
ATOM     84  N   UNL A   1      32.992  24.740  24.472  1.00  0.00    -0.249 N 
ATOM     85  C   UNL A   1      33.904  25.089  25.438  1.00  0.00     0.234 C 
ATOM     86  C   UNL A   1      33.310  23.550  23.854  1.00  0.00     0.240 C 
ATOM     87  O   UNL A   1      33.971  26.129  26.081  1.00  0.00    -0.274 OA
ATOM     88  C   UNL A   1      34.813  23.920  25.678  1.00  0.00     0.118 C 
ATOM     89  C   UNL A   1      34.619  23.056  24.436  1.00  0.00     0.059 C 
ATOM     90  O   UNL A   1      32.743  23.036  22.897  1.00  0.00    -0.273 OA
ATOM     91  C   UNL A   1      35.776  23.215  23.442  1.00  0.00     0.017 C 
ATOM     92  C   UNL A   1      34.639  21.556  24.715  1.00  0.00     0.017 C 
ATOM     93  C   UNL A   1      36.847  22.242  23.934  1.00  0.00     0.001 C 
ATOM     94  C   UNL A   1      36.120  21.198  24.781  1.00  0.00     0.001 C 
ENDBRANCH  79  84
ENDBRANCH  74  77
ENDBRANCH  72  73
ENDBRANCH  71  72
ENDBRANCH   1  71
TORSDOF 14
ENDMDL
MODEL 2
REMARK VINA RESULT:     -13.5      1.296      1.560
REMARK SMILES O=C(NCCCNC(=O)c1cc(Cl)ccc1N1C(=O)CC2(CCCC2)C1=O)c1ccc(-c2c3nc(c(-c4cccc(S(=O)(=O)[O-])c4F)c4ccc([nH]4)c(-c4cccc(S(=O)(=O)[O-])c4F)c4nc(c(-c5cccc(S(=O)(=O)[O-])c5F)c5ccc2[nH]5)C=C4)C=C3)cc1
REMARK SMILES IDX 4 1 3 2 1 3 2 4 28 6 29 7 90 8 30 9 89 10 31 11 32 12 33 13
REMARK SMILES IDX 83 14 34 15 88 16 82 17 84 18 35 19 87 20 81 21 80 22 36 24
REMARK SMILES IDX 68 25 48 26 67 27 49 28 52 29 66 30 85 31 50 32 51 33 65 35
REMARK SMILES IDX 86 36 53 37 37 38 38 39 46 40 39 41 41 42 47 43 40 44 42 45
REMARK SMILES IDX 43 46 44 47 45 48 69 49 70 50 78 51 71 52 73 53 79 54 72 55
REMARK SMILES IDX 74 56 75 57 76 58 77 59 54 60 55 61 63 62 56 63 58 64 64 65
REMARK SMILES IDX 57 66 59 67 60 68 61 69 62 70 5 71 6 72 7 73 8 74 9 76 10 77
REMARK SMILES IDX 11 78 16 79 12 80 15 81 13 82 14 83 17 84 18 85 26 86 19 87
REMARK SMILES IDX 20 88 21 89 27 90 22 91 25 92 23 93 24 94
REMARK H PARENT 3 5 84 23 52 34 7 75
REMARK Flexibility Score: inf
ROOT
ATOM      1  C   UNL A   1      32.764  29.433  25.619  1.00  0.00     0.118 C 
ENDROOT
BRANCH   1   2
ATOM      2  N   UNL A   1      32.386  30.777  26.042  1.00  0.00    -0.352 N 
ATOM      3  O   UNL A   1      32.358  32.646  27.288  1.00  0.00    -0.269 OA
ATOM      4  C   UNL A   1      32.952  31.619  26.972  1.00  0.00     0.251 C 
ATOM      5  H   UNL A   1      31.595  31.143  25.584  1.00  0.00     0.163 HD
BRANCH   4   6
ATOM      6  C   UNL A   1      34.247  31.282  27.609  1.00  0.00     0.039 A 
ATOM      7  C   UNL A   1      34.538  29.972  27.983  1.00  0.00     0.014 A 
ATOM      8  C   UNL A   1      35.196  32.287  27.820  1.00  0.00     0.014 A 
ATOM      9  C   UNL A   1      35.671  29.703  28.739  1.00  0.00     0.010 A 
ATOM     10  C   UNL A   1      36.397  31.991  28.477  1.00  0.00     0.010 A 
ATOM     11  C   UNL A   1      36.627  30.704  28.984  1.00  0.00    -0.014 A 
BRANCH  11  12
ATOM     12  C   UNL A   1      37.873  30.333  29.706  1.00  0.00     0.031 A 
ATOM     13  C   UNL A   1      38.134  30.776  31.121  1.00  0.00     0.074 A 
ATOM     14  C   UNL A   1      38.755  29.527  29.082  1.00  0.00     0.049 A 
ATOM     15  N   UNL A   1      39.119  30.440  31.915  1.00  0.00    -0.248 NA
ATOM     16  C   UNL A   1      37.181  31.723  31.723  1.00  0.00     0.031 C 
ATOM     17  C   UNL A   1      38.645  29.085  27.688  1.00  0.00     0.029 A 
ATOM     18  N   UNL A   1      39.898  28.917  29.531  1.00  0.00    -0.354 N 
ATOM     19  C   UNL A   1      38.926  31.152  33.093  1.00  0.00     0.074 A 
ATOM     20  C   UNL A   1      37.736  31.954  32.906  1.00  0.00     0.031 C 
ATOM     21  C   UNL A   1      39.642  28.232  27.414  1.00  0.00     0.029 A 
ATOM     22  C   UNL A   1      40.493  28.107  28.591  1.00  0.00     0.049 A 
ATOM     23  H   UNL A   1      40.258  29.047  30.438  1.00  0.00     0.167 HD
ATOM     24  C   UNL A   1      39.659  31.122  34.232  1.00  0.00     0.034 A 
ATOM     25  C   UNL A   1      41.599  27.342  28.664  1.00  0.00     0.034 A 
ATOM     26  C   UNL A   1      40.820  30.293  34.427  1.00  0.00     0.049 A 
ATOM     27  C   UNL A   1      42.349  27.276  29.962  1.00  0.00     0.074 A 
ATOM     28  C   UNL A   1      41.610  30.169  35.558  1.00  0.00     0.029 A 
ATOM     29  N   UNL A   1      41.357  29.442  33.473  1.00  0.00    -0.354 N 
ATOM     30  N   UNL A   1      42.078  27.868  31.099  1.00  0.00    -0.248 NA
ATOM     31  C   UNL A   1      43.540  26.418  29.996  1.00  0.00     0.031 C 
ATOM     32  C   UNL A   1      42.625  29.245  35.286  1.00  0.00     0.029 A 
ATOM     33  C   UNL A   1      42.462  28.786  33.989  1.00  0.00     0.049 A 
ATOM     34  H   UNL A   1      41.004  29.322  32.562  1.00  0.00     0.167 HD
ATOM     35  C   UNL A   1      43.059  27.450  31.987  1.00  0.00     0.074 A 
ATOM     36  C   UNL A   1      43.904  26.518  31.268  1.00  0.00     0.031 C 
ATOM     37  C   UNL A   1      43.265  27.829  33.272  1.00  0.00     0.034 A 
BRANCH  24  38
ATOM     38  C   UNL A   1      39.193  31.966  35.391  1.00  0.00     0.023 A 
ATOM     39  C   UNL A   1      38.297  31.413  36.327  1.00  0.00     0.012 A 
ATOM     40  C   UNL A   1      39.696  33.266  35.602  1.00  0.00     0.148 A 
ATOM     41  C   UNL A   1      37.892  32.144  37.444  1.00  0.00     0.002 A 
ATOM     42  C   UNL A   1      39.316  33.976  36.737  1.00  0.00     0.091 A 
ATOM     43  F   UNL A   1      40.534  33.783  34.691  1.00  0.00    -0.205 F 
ATOM     44  C   UNL A   1      38.409  33.420  37.654  1.00  0.00     0.022 A 
BRANCH  42  45
ATOM     45  S   UNL A   1      39.980  35.597  37.135  1.00  0.00     0.127 S 
ATOM     46  O   UNL A   1      39.280  35.905  38.381  1.00  0.00    -0.237 OA
ATOM     47  O   UNL A   1      41.408  35.318  37.292  1.00  0.00    -0.237 OA
ATOM     48  O   UNL A   1      39.652  36.453  36.004  1.00  0.00    -0.744 OA
ENDBRANCH  42  45
ENDBRANCH  24  38
BRANCH  25  49
ATOM     49  C   UNL A   1      42.017  26.541  27.480  1.00  0.00     0.023 A 
ATOM     50  C   UNL A   1      42.790  27.141  26.468  1.00  0.00     0.012 A 
ATOM     51  C   UNL A   1      41.708  25.170  27.384  1.00  0.00     0.148 A 
ATOM     52  C   UNL A   1      43.230  26.396  25.373  1.00  0.00     0.002 A 
ATOM     53  C   UNL A   1      42.205  24.420  26.325  1.00  0.00     0.091 A 
ATOM     54  F   UNL A   1      40.951  24.617  28.343  1.00  0.00    -0.205 F 
ATOM     55  C   UNL A   1      42.951  25.032  25.309  1.00  0.00     0.022 A 
BRANCH  53  56
ATOM     56  S   UNL A   1      42.020  22.633  26.280  1.00  0.00     0.127 S 
ATOM     57  O   UNL A   1      42.691  22.229  27.511  1.00  0.00    -0.237 OA
ATOM     58  O   UNL A   1      40.565  22.469  26.287  1.00  0.00    -0.237 OA
ATOM     59  O   UNL A   1      42.654  22.223  25.033  1.00  0.00    -0.744 OA
ENDBRANCH  53  56
ENDBRANCH  25  49
BRANCH  37  60
ATOM     60  C   UNL A   1      44.454  27.235  33.978  1.00  0.00     0.023 A 
ATOM     61  C   UNL A   1      45.719  27.836  33.822  1.00  0.00     0.012 A 
ATOM     62  C   UNL A   1      44.318  26.118  34.822  1.00  0.00     0.148 A 
ATOM     63  C   UNL A   1      46.838  27.312  34.467  1.00  0.00     0.002 A 
ATOM     64  C   UNL A   1      45.430  25.625  35.495  1.00  0.00     0.091 A 
ATOM     65  F   UNL A   1      43.111  25.544  34.939  1.00  0.00    -0.205 F 
ATOM     66  C   UNL A   1      46.692  26.214  35.310  1.00  0.00     0.022 A 
BRANCH  64  67
ATOM     67  S   UNL A   1      45.310  24.263  36.660  1.00  0.00     0.127 S 
ATOM     68  O   UNL A   1      44.813  23.184  35.809  1.00  0.00    -0.237 OA
ATOM     69  O   UNL A   1      46.697  24.101  37.102  1.00  0.00    -0.237 OA
ATOM     70  O   UNL A   1      44.400  24.717  37.702  1.00  0.00    -0.744 OA
ENDBRANCH  64  67
ENDBRANCH  37  60
ENDBRANCH  11  12
ENDBRANCH   4   6
ENDBRANCH   1   2
BRANCH   1  71
ATOM     71  C   UNL A   1      33.011  29.325  24.122  1.00  0.00     0.042 C 
BRANCH  71  72
ATOM     72  C   UNL A   1      34.237  28.506  23.752  1.00  0.00     0.118 C 
BRANCH  72  73
ATOM     73  N   UNL A   1      34.036  27.698  22.555  1.00  0.00    -0.352 N 
ATOM     74  C   UNL A   1      33.088  26.748  22.274  1.00  0.00     0.253 C 
ATOM     75  H   UNL A   1      34.684  27.861  21.833  1.00  0.00     0.163 HD
ATOM     76  O   UNL A   1      33.192  26.060  21.259  1.00  0.00    -0.269 OA
BRANCH  74  77
ATOM     77  C   UNL A   1      31.902  26.571  23.146  1.00  0.00     0.065 A 
ATOM     78  C   UNL A   1      30.737  27.284  22.810  1.00  0.00     0.036 A 
ATOM     79  C   UNL A   1      31.849  25.557  24.126  1.00  0.00     0.065 A 
ATOM     80  C   UNL A   1      29.555  27.067  23.508  1.00  0.00     0.041 A 
ATOM     81  C   UNL A   1      30.627  25.327  24.784  1.00  0.00     0.029 A 
ATOM     82  Cl  UNL A   1      28.157  27.992  23.126  1.00  0.00    -0.084 Cl
ATOM     83  C   UNL A   1      29.496  26.095  24.497  1.00  0.00     0.023 A 
BRANCH  79  84
ATOM     84  N   UNL A   1      32.965  24.749  24.462  1.00  0.00    -0.249 N 
ATOM     85  C   UNL A   1      33.863  25.070  25.451  1.00  0.00     0.234 C 
ATOM     86  C   UNL A   1      33.291  23.575  23.817  1.00  0.00     0.240 C 
ATOM     87  O   UNL A   1      33.922  26.092  26.124  1.00  0.00    -0.274 OA
ATOM     88  C   UNL A   1      34.765  23.891  25.674  1.00  0.00     0.118 C 
ATOM     89  C   UNL A   1      34.589  23.062  24.406  1.00  0.00     0.059 C 
ATOM     90  O   UNL A   1      32.737  23.090  22.838  1.00  0.00    -0.273 OA
ATOM     91  C   UNL A   1      35.762  23.245  23.435  1.00  0.00     0.017 C 
ATOM     92  C   UNL A   1      34.600  21.555  24.644  1.00  0.00     0.017 C 
ATOM     93  C   UNL A   1      36.822  22.256  23.918  1.00  0.00     0.001 C 
ATOM     94  C   UNL A   1      36.079  21.192  24.724  1.00  0.00     0.001 C 
ENDBRANCH  79  84
ENDBRANCH  74  77
ENDBRANCH  72  73
ENDBRANCH  71  72
ENDBRANCH   1  71
TORSDOF 14
ENDMDL
MODEL 3
REMARK VINA RESULT:     -13.3      2.261      3.015
REMARK SMILES O=C(NCCCNC(=O)c1cc(Cl)ccc1N1C(=O)CC2(CCCC2)C1=O)c1ccc(-c2c3nc(c(-c4cccc(S(=O)(=O)[O-])c4F)c4ccc([nH]4)c(-c4cccc(S(=O)(=O)[O-])c4F)c4nc(c(-c5cccc(S(=O)(=O)[O-])c5F)c5ccc2[nH]5)C=C4)C=C3)cc1
REMARK SMILES IDX 4 1 3 2 1 3 2 4 28 6 29 7 90 8 30 9 89 10 31 11 32 12 33 13
REMARK SMILES IDX 83 14 34 15 88 16 82 17 84 18 35 19 87 20 81 21 80 22 36 24
REMARK SMILES IDX 68 25 48 26 67 27 49 28 52 29 66 30 85 31 50 32 51 33 65 35
REMARK SMILES IDX 86 36 53 37 37 38 38 39 46 40 39 41 41 42 47 43 40 44 42 45
REMARK SMILES IDX 43 46 44 47 45 48 69 49 70 50 78 51 71 52 73 53 79 54 72 55
REMARK SMILES IDX 74 56 75 57 76 58 77 59 54 60 55 61 63 62 56 63 58 64 64 65
REMARK SMILES IDX 57 66 59 67 60 68 61 69 62 70 5 71 6 72 7 73 8 74 9 76 10 77
REMARK SMILES IDX 11 78 16 79 12 80 15 81 13 82 14 83 17 84 18 85 26 86 19 87
REMARK SMILES IDX 20 88 21 89 27 90 22 91 25 92 23 93 24 94
REMARK H PARENT 3 5 84 23 52 34 7 75
REMARK Flexibility Score: inf
ROOT
ATOM      1  C   UNL A   1      32.851  32.542  27.237  1.00  0.00     0.118 C 
ENDROOT
BRANCH   1   2
ATOM      2  N   UNL A   1      32.572  33.891  27.719  1.00  0.00    -0.352 N 
ATOM      3  O   UNL A   1      32.624  35.677  29.080  1.00  0.00    -0.269 OA
ATOM      4  C   UNL A   1      33.140  34.616  28.741  1.00  0.00     0.251 C 
ATOM      5  H   UNL A   1      31.858  34.360  27.229  1.00  0.00     0.163 HD
BRANCH   4   6
ATOM      6  C   UNL A   1      34.341  34.114  29.449  1.00  0.00     0.039 A 
ATOM      7  C   UNL A   1      35.620  34.455  29.014  1.00  0.00     0.014 A 
ATOM      8  C   UNL A   1      34.190  33.303  30.579  1.00  0.00     0.014 A 
ATOM      9  C   UNL A   1      36.730  33.834  29.571  1.00  0.00     0.010 A 
ATOM     10  C   UNL A   1      35.318  32.774  31.218  1.00  0.00     0.010 A 
ATOM     11  C   UNL A   1      36.598  32.998  30.693  1.00  0.00    -0.014 A 
BRANCH  11  12
ATOM     12  C   UNL A   1      37.833  32.447  31.314  1.00  0.00     0.031 A 
ATOM     13  C   UNL A   1      38.342  32.939  32.642  1.00  0.00     0.074 A 
ATOM     14  C   UNL A   1      38.468  31.438  30.683  1.00  0.00     0.049 A 
ATOM     15  N   UNL A   1      39.337  32.480  33.358  1.00  0.00    -0.248 NA
ATOM     16  C   UNL A   1      37.661  34.097  33.244  1.00  0.00     0.031 C 
ATOM     17  C   UNL A   1      38.108  30.919  29.360  1.00  0.00     0.029 A 
ATOM     18  N   UNL A   1      39.524  30.654  31.069  1.00  0.00    -0.354 N 
ATOM     19  C   UNL A   1      39.425  33.305  34.473  1.00  0.00     0.074 A 
ATOM     20  C   UNL A   1      38.390  34.307  34.333  1.00  0.00     0.031 C 
ATOM     21  C   UNL A   1      38.889  29.870  29.069  1.00  0.00     0.029 A 
ATOM     22  C   UNL A   1      39.839  29.672  30.157  1.00  0.00     0.049 A 
ATOM     23  H   UNL A   1      40.010  30.781  31.915  1.00  0.00     0.167 HD
ATOM     24  C   UNL A   1      40.273  33.221  35.526  1.00  0.00     0.034 A 
ATOM     25  C   UNL A   1      40.785  28.714  30.188  1.00  0.00     0.034 A 
ATOM     26  C   UNL A   1      41.276  32.199  35.679  1.00  0.00     0.049 A 
ATOM     27  C   UNL A   1      41.663  28.604  31.400  1.00  0.00     0.074 A 
ATOM     28  C   UNL A   1      42.161  32.011  36.728  1.00  0.00     0.029 A 
ATOM     29  N   UNL A   1      41.525  31.188  34.764  1.00  0.00    -0.354 N 
ATOM     30  N   UNL A   1      41.647  29.324  32.496  1.00  0.00    -0.248 NA
ATOM     31  C   UNL A   1      42.670  27.536  31.395  1.00  0.00     0.031 C 
ATOM     32  C   UNL A   1      42.947  30.888  36.444  1.00  0.00     0.029 A 
ATOM     33  C   UNL A   1      42.545  30.371  35.224  1.00  0.00     0.049 A 
ATOM     34  H   UNL A   1      41.048  31.069  33.911  1.00  0.00     0.167 HD
ATOM     35  C   UNL A   1      42.635  28.793  33.313  1.00  0.00     0.074 A 
ATOM     36  C   UNL A   1      43.198  27.661  32.606  1.00  0.00     0.031 C 
ATOM     37  C   UNL A   1      43.063  29.222  34.525  1.00  0.00     0.034 A 
BRANCH  24  38
ATOM     38  C   UNL A   1      40.116  34.227  36.638  1.00  0.00     0.023 A 
ATOM     39  C   UNL A   1      40.440  35.576  36.394  1.00  0.00     0.012 A 
ATOM     40  C   UNL A   1      39.578  33.861  37.888  1.00  0.00     0.148 A 
ATOM     41  C   UNL A   1      40.251  36.544  37.380  1.00  0.00     0.002 A 
ATOM     42  C   UNL A   1      39.359  34.838  38.855  1.00  0.00     0.091 A 
ATOM     43  F   UNL A   1      39.294  32.570  38.110  1.00  0.00    -0.205 F 
ATOM     44  C   UNL A   1      39.701  36.177  38.605  1.00  0.00     0.022 A 
BRANCH  42  45
ATOM     45  S   UNL A   1      38.590  34.479  40.439  1.00  0.00     0.127 S 
ATOM     46  O   UNL A   1      39.664  33.774  41.135  1.00  0.00    -0.237 OA
ATOM     47  O   UNL A   1      38.306  35.819  40.957  1.00  0.00    -0.237 OA
ATOM     48  O   UNL A   1      37.408  33.682  40.140  1.00  0.00    -0.744 OA
ENDBRANCH  42  45
ENDBRANCH  24  38
BRANCH  25  49
ATOM     49  C   UNL A   1      40.901  27.758  29.053  1.00  0.00     0.023 A 
ATOM     50  C   UNL A   1      40.046  26.642  28.990  1.00  0.00     0.012 A 
ATOM     51  C   UNL A   1      41.810  27.986  28.001  1.00  0.00     0.148 A 
ATOM     52  C   UNL A   1      40.108  25.759  27.910  1.00  0.00     0.002 A 
ATOM     53  C   UNL A   1      41.820  27.140  26.898  1.00  0.00     0.091 A 
ATOM     54  F   UNL A   1      42.634  29.040  28.086  1.00  0.00    -0.205 F 
ATOM     55  C   UNL A   1      40.984  26.016  26.857  1.00  0.00     0.022 A 
BRANCH  53  56
ATOM     56  S   UNL A   1      42.804  27.517  25.443  1.00  0.00     0.127 S 
ATOM     57  O   UNL A   1      42.581  26.337  24.614  1.00  0.00    -0.237 OA
ATOM     58  O   UNL A   1      42.177  28.745  24.951  1.00  0.00    -0.237 OA
ATOM     59  O   UNL A   1      44.159  27.707  25.946  1.00  0.00    -0.744 OA
ENDBRANCH  53  56
ENDBRANCH  25  49
BRANCH  37  60
ATOM     60  C   UNL A   1      44.199  28.465  35.158  1.00  0.00     0.023 A 
ATOM     61  C   UNL A   1      45.522  28.761  34.776  1.00  0.00     0.012 A 
ATOM     62  C   UNL A   1      43.965  27.497  36.152  1.00  0.00     0.148 A 
ATOM     63  C   UNL A   1      46.595  28.079  35.348  1.00  0.00     0.002 A 
ATOM     64  C   UNL A   1      45.042  26.850  36.748  1.00  0.00     0.091 A 
ATOM     65  F   UNL A   1      42.698  27.210  36.485  1.00  0.00    -0.205 F 
ATOM     66  C   UNL A   1      46.355  27.132  36.340  1.00  0.00     0.022 A 
BRANCH  64  67
ATOM     67  S   UNL A   1      44.821  25.675  38.088  1.00  0.00     0.127 S 
ATOM     68  O   UNL A   1      46.203  25.411  38.486  1.00  0.00    -0.237 OA
ATOM     69  O   UNL A   1      44.043  26.445  39.060  1.00  0.00    -0.237 OA
ATOM     70  O   UNL A   1      44.105  24.548  37.507  1.00  0.00    -0.744 OA
ENDBRANCH  64  67
ENDBRANCH  37  60
ENDBRANCH  11  12
ENDBRANCH   4   6
ENDBRANCH   1   2
BRANCH   1  71
ATOM     71  C   UNL A   1      31.610  31.818  26.737  1.00  0.00     0.042 C 
BRANCH  71  72
ATOM     72  C   UNL A   1      31.802  30.324  26.536  1.00  0.00     0.118 C 
BRANCH  72  73
ATOM     73  N   UNL A   1      32.600  30.011  25.357  1.00  0.00    -0.352 N 
ATOM     74  C   UNL A   1      32.299  29.249  24.256  1.00  0.00     0.253 C 
ATOM     75  H   UNL A   1      33.499  30.410  25.348  1.00  0.00     0.163 HD
ATOM     76  O   UNL A   1      33.178  28.975  23.441  1.00  0.00    -0.269 OA
BRANCH  74  77
ATOM     77  C   UNL A   1      30.911  28.794  24.000  1.00  0.00     0.065 A 
ATOM     78  C   UNL A   1      30.042  29.692  23.356  1.00  0.00     0.036 A 
ATOM     79  C   UNL A   1      30.532  27.444  24.168  1.00  0.00     0.065 A 
ATOM     80  C   UNL A   1      28.769  29.285  22.972  1.00  0.00     0.041 A 
ATOM     81  C   UNL A   1      29.256  27.049  23.727  1.00  0.00     0.029 A 
ATOM     82  Cl  UNL A   1      27.697  30.413  22.241  1.00  0.00    -0.084 Cl
ATOM     83  C   UNL A   1      28.371  27.969  23.159  1.00  0.00     0.023 A 
BRANCH  79  84
ATOM     84  N   UNL A   1      31.387  26.469  24.741  1.00  0.00    -0.249 N 
ATOM     85  C   UNL A   1      31.505  26.266  26.095  1.00  0.00     0.234 C 
ATOM     86  C   UNL A   1      32.212  25.641  24.012  1.00  0.00     0.240 C 
ATOM     87  O   UNL A   1      31.002  26.909  27.008  1.00  0.00    -0.274 OA
ATOM     88  C   UNL A   1      32.313  25.021  26.320  1.00  0.00     0.118 C 
ATOM     89  C   UNL A   1      33.022  24.810  24.986  1.00  0.00     0.059 C 
ATOM     90  O   UNL A   1      32.395  25.657  22.800  1.00  0.00    -0.273 OA
ATOM     91  C   UNL A   1      34.485  25.265  25.039  1.00  0.00     0.017 C 
ATOM     92  C   UNL A   1      33.155  23.346  24.580  1.00  0.00     0.017 C 
ATOM     93  C   UNL A   1      35.243  24.070  25.615  1.00  0.00     0.001 C 
ATOM     94  C   UNL A   1      34.371  22.843  25.352  1.00  0.00     0.001 C 
ENDBRANCH  79  84
ENDBRANCH  74  77
ENDBRANCH  72  73
ENDBRANCH  71  72
ENDBRANCH   1  71
TORSDOF 14
ENDMDL
