MODEL 1
REMARK VINA RESULT:     -14.1      0.000      0.000
REMARK SMILES Cc1cccc(-c2ncc(C[NH+]3CCC4(CC3)NC(=O)C[C@H]4C(=O)NCCCNC(=O)c3ccc(-c4c5nc(c(-c6cccc(S(=O)(=O)[O-])c6F)c6ccc([nH]6)c(-c6cccc(S(=O)(=O)[O-])c6F)c6nc(c(-c7cccc(S(=O)(=O)[O-])c7F)c7ccc4[nH]7)C=C6)C=C5)cc3)cn2)c1
REMARK SMILES IDX 27 1 26 2 25 3 23 4 24 5 22 7 12 8 13 9 17 10 14 12 16 13
REMARK SMILES IDX 15 14 18 15 19 16 21 18 20 19 11 20 10 21 7 22 8 23 96 24
REMARK SMILES IDX 9 25 95 26 6 27 1 28 2 29 3 30 97 31 4 32 5 33 28 34 29 35
REMARK SMILES IDX 30 36 31 38 32 39 33 40 94 41 34 42 93 43 35 44 36 45 37 46
REMARK SMILES IDX 87 47 38 48 92 49 86 50 88 51 39 52 91 53 85 54 84 55 40 57
REMARK SMILES IDX 72 58 52 59 71 60 53 61 56 62 70 63 89 64 54 65 55 66 69 68
REMARK SMILES IDX 90 69 57 70 41 71 42 72 50 73 43 74 45 75 51 76 44 77 46 78
REMARK SMILES IDX 47 79 48 80 49 81 73 82 74 83 82 84 75 85 77 86 83 87 76 88
REMARK SMILES IDX 78 89 79 90 80 91 81 92 58 93 59 94 67 95 60 96 62 97 68 98
REMARK SMILES IDX 61 99 63 100 64 101 65 102 66 103
REMARK H PARENT 25 6 12 11 18 17 29 37 88 56 56 67
REMARK Flexibility Score: inf
ROOT
ATOM      1  C   UNL A   1      32.768  31.236  26.557  1.00  0.00     0.042 C 
ENDROOT
BRANCH   1   2
ATOM      2  C   UNL A   1      32.753  29.831  25.965  1.00  0.00     0.117 C 
BRANCH   2   3
ATOM      3  N   UNL A   1      32.050  29.669  24.692  1.00  0.00    -0.356 N 
ATOM      4  C   UNL A   1      32.085  28.750  23.685  1.00  0.00     0.226 C 
ATOM      5  O   UNL A   1      31.225  28.867  22.802  1.00  0.00    -0.275 OA
ATOM      6  H   UNL A   1      31.402  30.391  24.525  1.00  0.00     0.163 HD
BRANCH   4   7
ATOM      7  C   UNL A   1      33.142  27.646  23.512  1.00  0.00     0.114 C 
ATOM      8  N   UNL A   1      32.541  24.986  26.652  1.00  0.00    -0.331 N 
ATOM      9  C   UNL A   1      33.832  25.026  25.980  1.00  0.00     0.264 C 
ATOM     10  C   UNL A   1      31.752  26.155  26.310  1.00  0.00     0.264 C 
ATOM     11  H   UNL A   1      32.790  25.034  27.640  1.00  0.00     0.348 HD
ATOM     12  C   UNL A   1      33.816  25.284  24.469  1.00  0.00     0.091 C 
ATOM     13  C   UNL A   1      31.467  26.224  24.822  1.00  0.00     0.091 C 
ATOM     14  C   UNL A   1      32.699  26.218  23.908  1.00  0.00     0.063 C 
ATOM     15  N   UNL A   1      32.411  25.660  22.592  1.00  0.00    -0.349 N 
ATOM     16  C   UNL A   1      33.043  26.302  21.557  1.00  0.00     0.221 C 
ATOM     17  H   UNL A   1      31.814  24.888  22.458  1.00  0.00     0.164 HD
ATOM     18  C   UNL A   1      33.655  27.568  22.074  1.00  0.00     0.116 C 
ATOM     19  O   UNL A   1      33.092  25.898  20.400  1.00  0.00    -0.275 OA
BRANCH   8  20
ATOM     20  C   UNL A   1      31.804  23.711  26.770  1.00  0.00     0.302 C 
BRANCH  20  21
ATOM     21  C   UNL A   1      32.401  22.490  26.123  1.00  0.00     0.043 A 
ATOM     22  C   UNL A   1      33.065  19.993  25.249  1.00  0.00     0.159 A 
ATOM     23  N   UNL A   1      32.141  20.684  24.551  1.00  0.00    -0.236 NA
ATOM     24  N   UNL A   1      33.755  20.492  26.292  1.00  0.00    -0.236 NA
ATOM     25  C   UNL A   1      31.872  21.934  24.979  1.00  0.00     0.124 A 
ATOM     26  C   UNL A   1      33.412  21.736  26.703  1.00  0.00     0.124 A 
BRANCH  22  27
ATOM     27  C   UNL A   1      33.223  18.568  24.925  1.00  0.00     0.019 A 
ATOM     28  C   UNL A   1      32.027  15.158  26.225  1.00  0.00     0.044 C 
ATOM     29  C   UNL A   1      32.703  16.201  25.382  1.00  0.00    -0.050 A 
ATOM     30  C   UNL A   1      33.518  15.823  24.316  1.00  0.00     0.003 A 
ATOM     31  C   UNL A   1      32.543  17.568  25.654  1.00  0.00     0.015 A 
ATOM     32  C   UNL A   1      34.190  16.791  23.570  1.00  0.00     0.001 A 
ATOM     33  C   UNL A   1      34.059  18.149  23.884  1.00  0.00     0.012 A 
ENDBRANCH  22  27
ENDBRANCH  20  21
ENDBRANCH   8  20
ENDBRANCH   4   7
ENDBRANCH   2   3
ENDBRANCH   1   2
BRANCH   1  34
ATOM     34  C   UNL A   1      33.298  31.342  27.982  1.00  0.00     0.118 C 
BRANCH  34  35
ATOM     35  N   UNL A   1      34.507  32.168  27.990  1.00  0.00    -0.352 N 
ATOM     36  C   UNL A   1      35.768  31.955  28.519  1.00  0.00     0.251 C 
ATOM     37  H   UNL A   1      34.404  33.034  27.534  1.00  0.00     0.163 HD
ATOM     38  O   UNL A   1      36.509  32.909  28.731  1.00  0.00    -0.269 OA
BRANCH  36  39
ATOM     39  C   UNL A   1      36.282  30.569  28.597  1.00  0.00     0.039 A 
ATOM     40  C   UNL A   1      36.600  30.172  29.902  1.00  0.00     0.014 A 
ATOM     41  C   UNL A   1      36.961  30.047  27.507  1.00  0.00     0.014 A 
ATOM     42  C   UNL A   1      37.836  29.603  30.139  1.00  0.00     0.010 A 
ATOM     43  C   UNL A   1      38.233  29.587  27.739  1.00  0.00     0.010 A 
ATOM     44  C   UNL A   1      38.694  29.468  29.058  1.00  0.00    -0.014 A 
BRANCH  44  45
ATOM     45  C   UNL A   1      40.070  29.051  29.166  1.00  0.00     0.031 A 
ATOM     46  C   UNL A   1      40.316  27.610  28.965  1.00  0.00     0.074 A 
ATOM     47  C   UNL A   1      41.041  29.995  29.193  1.00  0.00     0.049 A 
ATOM     48  N   UNL A   1      41.417  27.012  29.238  1.00  0.00    -0.248 NA
ATOM     49  C   UNL A   1      39.285  26.710  28.441  1.00  0.00     0.031 C 
ATOM     50  C   UNL A   1      42.445  29.809  28.851  1.00  0.00     0.029 A 
ATOM     51  N   UNL A   1      41.001  31.319  29.660  1.00  0.00    -0.354 N 
ATOM     52  C   UNL A   1      41.357  25.765  28.644  1.00  0.00     0.074 A 
ATOM     53  C   UNL A   1      39.982  25.587  28.259  1.00  0.00     0.031 C 
ATOM     54  C   UNL A   1      43.159  30.818  29.378  1.00  0.00     0.029 A 
ATOM     55  C   UNL A   1      42.259  31.545  30.253  1.00  0.00     0.049 A 
ATOM     56  H   UNL A   1      40.252  31.954  29.587  1.00  0.00     0.167 HD
ATOM     57  C   UNL A   1      42.527  25.119  28.388  1.00  0.00     0.034 A 
ATOM     58  C   UNL A   1      42.460  31.708  31.600  1.00  0.00     0.034 A 
ATOM     59  C   UNL A   1      43.649  25.900  28.928  1.00  0.00     0.049 A 
ATOM     60  C   UNL A   1      43.381  30.642  32.191  1.00  0.00     0.074 A 
ATOM     61  C   UNL A   1      44.494  26.839  28.357  1.00  0.00     0.029 A 
ATOM     62  N   UNL A   1      43.766  26.055  30.305  1.00  0.00    -0.354 N 
ATOM     63  N   UNL A   1      43.697  29.532  31.579  1.00  0.00    -0.248 NA
ATOM     64  C   UNL A   1      44.027  30.740  33.499  1.00  0.00     0.031 C 
ATOM     65  C   UNL A   1      45.064  27.611  29.406  1.00  0.00     0.029 A 
ATOM     66  C   UNL A   1      44.594  27.123  30.614  1.00  0.00     0.049 A 
ATOM     67  H   UNL A   1      43.320  25.483  30.970  1.00  0.00     0.167 HD
ATOM     68  C   UNL A   1      44.490  28.748  32.375  1.00  0.00     0.074 A 
ATOM     69  C   UNL A   1      44.715  29.583  33.547  1.00  0.00     0.031 C 
ATOM     70  C   UNL A   1      44.857  27.477  32.008  1.00  0.00     0.034 A 
BRANCH  57  71
ATOM     71  C   UNL A   1      42.703  23.997  27.376  1.00  0.00     0.023 A 
ATOM     72  C   UNL A   1      43.371  24.331  26.175  1.00  0.00     0.012 A 
ATOM     73  C   UNL A   1      42.227  22.668  27.468  1.00  0.00     0.148 A 
ATOM     74  C   UNL A   1      43.486  23.446  25.100  1.00  0.00     0.002 A 
ATOM     75  C   UNL A   1      42.297  21.794  26.374  1.00  0.00     0.091 A 
ATOM     76  F   UNL A   1      41.768  22.202  28.633  1.00  0.00    -0.205 F 
ATOM     77  C   UNL A   1      42.923  22.185  25.187  1.00  0.00     0.022 A 
BRANCH  75  78
ATOM     78  S   UNL A   1      41.543  20.155  26.376  1.00  0.00     0.127 S 
ATOM     79  O   UNL A   1      42.210  19.506  25.245  1.00  0.00    -0.237 OA
ATOM     80  O   UNL A   1      41.928  19.633  27.685  1.00  0.00    -0.237 OA
ATOM     81  O   UNL A   1      40.114  20.366  26.178  1.00  0.00    -0.744 OA
ENDBRANCH  75  78
ENDBRANCH  57  71
BRANCH  58  82
ATOM     82  C   UNL A   1      41.304  32.347  32.299  1.00  0.00     0.023 A 
ATOM     83  C   UNL A   1      40.906  33.618  31.819  1.00  0.00     0.012 A 
ATOM     84  C   UNL A   1      40.384  31.578  33.028  1.00  0.00     0.148 A 
ATOM     85  C   UNL A   1      39.565  34.001  31.851  1.00  0.00     0.002 A 
ATOM     86  C   UNL A   1      39.049  31.976  33.072  1.00  0.00     0.091 A 
ATOM     87  F   UNL A   1      40.805  30.446  33.608  1.00  0.00    -0.205 F 
ATOM     88  C   UNL A   1      38.628  33.151  32.426  1.00  0.00     0.022 A 
BRANCH  86  89
ATOM     89  S   UNL A   1      37.791  30.944  33.837  1.00  0.00     0.127 S 
ATOM     90  O   UNL A   1      38.249  29.607  33.476  1.00  0.00    -0.237 OA
ATOM     91  O   UNL A   1      37.929  31.275  35.253  1.00  0.00    -0.237 OA
ATOM     92  O   UNL A   1      36.539  31.382  33.239  1.00  0.00    -0.744 OA
ENDBRANCH  86  89
ENDBRANCH  58  82
BRANCH  70  93
ATOM     93  C   UNL A   1      45.512  26.429  32.905  1.00  0.00     0.023 A 
ATOM     94  C   UNL A   1      46.904  26.357  33.093  1.00  0.00     0.012 A 
ATOM     95  C   UNL A   1      44.728  25.551  33.706  1.00  0.00     0.148 A 
ATOM     96  C   UNL A   1      47.492  25.432  33.965  1.00  0.00     0.002 A 
ATOM     97  C   UNL A   1      45.309  24.731  34.670  1.00  0.00     0.091 A 
ATOM     98  F   UNL A   1      43.403  25.471  33.523  1.00  0.00    -0.205 F 
ATOM     99  C   UNL A   1      46.695  24.638  34.774  1.00  0.00     0.022 A 
BRANCH  97 100
ATOM    100  S   UNL A   1      44.316  23.890  35.913  1.00  0.00     0.127 S 
ATOM    101  O   UNL A   1      45.342  23.360  36.808  1.00  0.00    -0.237 OA
ATOM    102  O   UNL A   1      43.529  24.990  36.472  1.00  0.00    -0.237 OA
ATOM    103  O   UNL A   1      43.531  22.906  35.181  1.00  0.00    -0.744 OA
ENDBRANCH  97 100
ENDBRANCH  70  93
ENDBRANCH  44  45
ENDBRANCH  36  39
ENDBRANCH  34  35
ENDBRANCH   1  34
TORSDOF 16
ENDMDL
MODEL 2
REMARK VINA RESULT:     -13.3      2.089      2.565
REMARK SMILES Cc1cccc(-c2ncc(C[NH+]3CCC4(CC3)NC(=O)C[C@H]4C(=O)NCCCNC(=O)c3ccc(-c4c5nc(c(-c6cccc(S(=O)(=O)[O-])c6F)c6ccc([nH]6)c(-c6cccc(S(=O)(=O)[O-])c6F)c6nc(c(-c7cccc(S(=O)(=O)[O-])c7F)c7ccc4[nH]7)C=C6)C=C5)cc3)cn2)c1
REMARK SMILES IDX 27 1 26 2 25 3 23 4 24 5 22 7 12 8 13 9 17 10 14 12 16 13
REMARK SMILES IDX 15 14 18 15 19 16 21 18 20 19 11 20 10 21 7 22 8 23 96 24
REMARK SMILES IDX 9 25 95 26 6 27 1 28 2 29 3 30 97 31 4 32 5 33 28 34 29 35
REMARK SMILES IDX 30 36 31 38 32 39 33 40 94 41 34 42 93 43 35 44 36 45 37 46
REMARK SMILES IDX 87 47 38 48 92 49 86 50 88 51 39 52 91 53 85 54 84 55 40 57
REMARK SMILES IDX 72 58 52 59 71 60 53 61 56 62 70 63 89 64 54 65 55 66 69 68
REMARK SMILES IDX 90 69 57 70 41 71 42 72 50 73 43 74 45 75 51 76 44 77 46 78
REMARK SMILES IDX 47 79 48 80 49 81 73 82 74 83 82 84 75 85 77 86 83 87 76 88
REMARK SMILES IDX 78 89 79 90 80 91 81 92 58 93 59 94 67 95 60 96 62 97 68 98
REMARK SMILES IDX 61 99 63 100 64 101 65 102 66 103
REMARK H PARENT 25 6 12 11 18 17 29 37 88 56 56 67
REMARK Flexibility Score: inf
ROOT
ATOM      1  C   UNL A   1      34.622  29.793  27.106  1.00  0.00     0.042 C 
ENDROOT
BRANCH   1   2
ATOM      2  C   UNL A   1      33.993  29.569  25.736  1.00  0.00     0.117 C 
BRANCH   2   3
ATOM      3  N   UNL A   1      32.716  30.240  25.490  1.00  0.00    -0.356 N 
ATOM      4  C   UNL A   1      31.568  29.910  24.831  1.00  0.00     0.226 C 
ATOM      5  O   UNL A   1      30.618  30.693  24.952  1.00  0.00    -0.275 OA
ATOM      6  H   UNL A   1      32.677  31.136  25.893  1.00  0.00     0.163 HD
BRANCH   4   7
ATOM      7  C   UNL A   1      31.385  28.703  23.895  1.00  0.00     0.114 C 
ATOM      8  N   UNL A   1      32.529  25.364  26.095  1.00  0.00    -0.331 N 
ATOM      9  C   UNL A   1      32.530  25.302  24.641  1.00  0.00     0.264 C 
ATOM     10  C   UNL A   1      32.434  26.741  26.546  1.00  0.00     0.264 C 
ATOM     11  H   UNL A   1      33.448  24.997  26.345  1.00  0.00     0.348 HD
ATOM     12  C   UNL A   1      31.416  26.067  23.916  1.00  0.00     0.091 C 
ATOM     13  C   UNL A   1      31.149  27.396  26.082  1.00  0.00     0.091 C 
ATOM     14  C   UNL A   1      30.911  27.393  24.566  1.00  0.00     0.063 C 
ATOM     15  N   UNL A   1      29.492  27.424  24.227  1.00  0.00    -0.349 N 
ATOM     16  C   UNL A   1      29.191  28.201  23.137  1.00  0.00     0.221 C 
ATOM     17  H   UNL A   1      28.810  26.930  24.737  1.00  0.00     0.164 HD
ATOM     18  C   UNL A   1      30.400  29.003  22.763  1.00  0.00     0.116 C 
ATOM     19  O   UNL A   1      28.105  28.229  22.568  1.00  0.00    -0.275 OA
BRANCH   8  20
ATOM     20  C   UNL A   1      31.777  24.365  26.881  1.00  0.00     0.302 C 
BRANCH  20  21
ATOM     21  C   UNL A   1      31.943  22.913  26.518  1.00  0.00     0.043 A 
ATOM     22  C   UNL A   1      32.494  20.498  25.376  1.00  0.00     0.159 A 
ATOM     23  N   UNL A   1      33.441  21.062  26.154  1.00  0.00    -0.236 NA
ATOM     24  N   UNL A   1      31.256  21.000  25.206  1.00  0.00    -0.236 NA
ATOM     25  C   UNL A   1      33.118  22.232  26.744  1.00  0.00     0.124 A 
ATOM     26  C   UNL A   1      31.004  22.196  25.789  1.00  0.00     0.124 A 
BRANCH  22  27
ATOM     27  C   UNL A   1      32.894  19.337  24.568  1.00  0.00     0.019 A 
ATOM     28  C   UNL A   1      35.070  16.192  24.905  1.00  0.00     0.044 C 
ATOM     29  C   UNL A   1      34.134  17.218  24.336  1.00  0.00    -0.050 A 
ATOM     30  C   UNL A   1      33.672  17.099  23.026  1.00  0.00     0.003 A 
ATOM     31  C   UNL A   1      33.715  18.319  25.099  1.00  0.00     0.015 A 
ATOM     32  C   UNL A   1      32.847  18.084  22.482  1.00  0.00     0.001 A 
ATOM     33  C   UNL A   1      32.477  19.201  23.239  1.00  0.00     0.012 A 
ENDBRANCH  22  27
ENDBRANCH  20  21
ENDBRANCH   8  20
ENDBRANCH   4   7
ENDBRANCH   2   3
ENDBRANCH   1   2
BRANCH   1  34
ATOM     34  C   UNL A   1      34.401  31.175  27.711  1.00  0.00     0.118 C 
BRANCH  34  35
ATOM     35  N   UNL A   1      35.692  31.851  27.860  1.00  0.00    -0.352 N 
ATOM     36  C   UNL A   1      36.905  31.423  28.369  1.00  0.00     0.251 C 
ATOM     37  H   UNL A   1      35.697  32.781  27.537  1.00  0.00     0.163 HD
ATOM     38  O   UNL A   1      37.738  32.247  28.732  1.00  0.00    -0.269 OA
BRANCH  36  39
ATOM     39  C   UNL A   1      37.264  29.992  28.246  1.00  0.00     0.039 A 
ATOM     40  C   UNL A   1      37.293  29.324  29.477  1.00  0.00     0.014 A 
ATOM     41  C   UNL A   1      38.083  29.597  27.200  1.00  0.00     0.014 A 
ATOM     42  C   UNL A   1      38.405  28.567  29.794  1.00  0.00     0.010 A 
ATOM     43  C   UNL A   1      39.241  28.942  27.540  1.00  0.00     0.010 A 
ATOM     44  C   UNL A   1      39.433  28.524  28.865  1.00  0.00    -0.014 A 
BRANCH  44  45
ATOM     45  C   UNL A   1      40.720  27.921  29.111  1.00  0.00     0.031 A 
ATOM     46  C   UNL A   1      40.795  26.466  28.880  1.00  0.00     0.074 A 
ATOM     47  C   UNL A   1      41.796  28.723  29.289  1.00  0.00     0.049 A 
ATOM     48  N   UNL A   1      41.767  25.716  29.250  1.00  0.00    -0.248 NA
ATOM     49  C   UNL A   1      39.724  25.729  28.203  1.00  0.00     0.031 C 
ATOM     50  C   UNL A   1      43.194  28.357  29.102  1.00  0.00     0.029 A 
ATOM     51  N   UNL A   1      41.877  30.028  29.804  1.00  0.00    -0.354 N 
ATOM     52  C   UNL A   1      41.615  24.506  28.601  1.00  0.00     0.074 A 
ATOM     53  C   UNL A   1      40.283  24.527  28.054  1.00  0.00     0.031 C 
ATOM     54  C   UNL A   1      43.968  29.245  29.748  1.00  0.00     0.029 A 
ATOM     55  C   UNL A   1      43.074  30.065  30.545  1.00  0.00     0.049 A 
ATOM     56  H   UNL A   1      41.232  30.760  29.673  1.00  0.00     0.167 HD
ATOM     57  C   UNL A   1      42.711  23.714  28.453  1.00  0.00     0.034 A 
ATOM     58  C   UNL A   1      43.133  30.163  31.912  1.00  0.00     0.034 A 
ATOM     59  C   UNL A   1      43.854  24.321  29.150  1.00  0.00     0.049 A 
ATOM     60  C   UNL A   1      43.829  28.966  32.559  1.00  0.00     0.074 A 
ATOM     61  C   UNL A   1      44.877  25.150  28.719  1.00  0.00     0.029 A 
ATOM     62  N   UNL A   1      43.826  24.421  30.536  1.00  0.00    -0.354 N 
ATOM     63  N   UNL A   1      44.066  27.841  31.940  1.00  0.00    -0.248 NA
ATOM     64  C   UNL A   1      44.323  28.941  33.934  1.00  0.00     0.031 C 
ATOM     65  C   UNL A   1      45.416  25.809  29.858  1.00  0.00     0.029 A 
ATOM     66  C   UNL A   1      44.746  25.358  30.983  1.00  0.00     0.049 A 
ATOM     67  H   UNL A   1      43.233  23.898  31.122  1.00  0.00     0.167 HD
ATOM     68  C   UNL A   1      44.649  26.935  32.788  1.00  0.00     0.074 A 
ATOM     69  C   UNL A   1      44.841  27.700  34.012  1.00  0.00     0.031 C 
ATOM     70  C   UNL A   1      44.885  25.636  32.412  1.00  0.00     0.034 A 
BRANCH  57  71
ATOM     71  C   UNL A   1      42.856  22.606  27.421  1.00  0.00     0.023 A 
ATOM     72  C   UNL A   1      42.064  21.452  27.621  1.00  0.00     0.012 A 
ATOM     73  C   UNL A   1      43.732  22.568  26.310  1.00  0.00     0.148 A 
ATOM     74  C   UNL A   1      42.188  20.301  26.836  1.00  0.00     0.002 A 
ATOM     75  C   UNL A   1      43.895  21.399  25.553  1.00  0.00     0.091 A 
ATOM     76  F   UNL A   1      44.366  23.678  25.922  1.00  0.00    -0.205 F 
ATOM     77  C   UNL A   1      43.126  20.263  25.819  1.00  0.00     0.022 A 
BRANCH  75  78
ATOM     78  S   UNL A   1      45.129  21.239  24.247  1.00  0.00     0.127 S 
ATOM     79  O   UNL A   1      46.377  21.157  25.009  1.00  0.00    -0.237 OA
ATOM     80  O   UNL A   1      44.736  19.991  23.595  1.00  0.00    -0.237 OA
ATOM     81  O   UNL A   1      45.013  22.440  23.428  1.00  0.00    -0.744 OA
ENDBRANCH  75  78
ENDBRANCH  57  71
BRANCH  58  82
ATOM     82  C   UNL A   1      41.998  30.934  32.501  1.00  0.00     0.023 A 
ATOM     83  C   UNL A   1      41.832  32.261  32.035  1.00  0.00     0.012 A 
ATOM     84  C   UNL A   1      40.903  30.278  33.085  1.00  0.00     0.148 A 
ATOM     85  C   UNL A   1      40.559  32.824  31.930  1.00  0.00     0.002 A 
ATOM     86  C   UNL A   1      39.636  30.854  32.993  1.00  0.00     0.091 A 
ATOM     87  F   UNL A   1      41.097  29.083  33.659  1.00  0.00    -0.205 F 
ATOM     88  C   UNL A   1      39.456  32.094  32.355  1.00  0.00     0.022 A 
BRANCH  86  89
ATOM     89  S   UNL A   1      38.170  29.984  33.561  1.00  0.00     0.127 S 
ATOM     90  O   UNL A   1      38.244  30.197  35.003  1.00  0.00    -0.237 OA
ATOM     91  O   UNL A   1      37.092  30.709  32.892  1.00  0.00    -0.237 OA
ATOM     92  O   UNL A   1      38.348  28.616  33.100  1.00  0.00    -0.744 OA
ENDBRANCH  86  89
ENDBRANCH  58  82
BRANCH  70  93
ATOM     93  C   UNL A   1      45.286  24.485  33.332  1.00  0.00     0.023 A 
ATOM     94  C   UNL A   1      44.439  23.395  33.596  1.00  0.00     0.012 A 
ATOM     95  C   UNL A   1      46.603  24.395  33.867  1.00  0.00     0.148 A 
ATOM     96  C   UNL A   1      44.838  22.314  34.391  1.00  0.00     0.002 A 
ATOM     97  C   UNL A   1      47.039  23.257  34.540  1.00  0.00     0.091 A 
ATOM     98  F   UNL A   1      47.449  25.428  33.759  1.00  0.00    -0.205 F 
ATOM     99  C   UNL A   1      46.147  22.230  34.842  1.00  0.00     0.022 A 
BRANCH  97 100
ATOM    100  S   UNL A   1      48.780  22.988  34.905  1.00  0.00     0.127 S 
ATOM    101  O   UNL A   1      48.995  23.896  36.029  1.00  0.00    -0.237 OA
ATOM    102  O   UNL A   1      48.804  21.567  35.257  1.00  0.00    -0.237 OA
ATOM    103  O   UNL A   1      49.489  23.311  33.674  1.00  0.00    -0.744 OA
ENDBRANCH  97 100
ENDBRANCH  70  93
ENDBRANCH  44  45
ENDBRANCH  36  39
ENDBRANCH  34  35
ENDBRANCH   1  34
TORSDOF 16
ENDMDL
MODEL 3
REMARK VINA RESULT:     -13.2      2.527      3.401
REMARK SMILES Cc1cccc(-c2ncc(C[NH+]3CCC4(CC3)NC(=O)C[C@H]4C(=O)NCCCNC(=O)c3ccc(-c4c5nc(c(-c6cccc(S(=O)(=O)[O-])c6F)c6ccc([nH]6)c(-c6cccc(S(=O)(=O)[O-])c6F)c6nc(c(-c7cccc(S(=O)(=O)[O-])c7F)c7ccc4[nH]7)C=C6)C=C5)cc3)cn2)c1
REMARK SMILES IDX 27 1 26 2 25 3 23 4 24 5 22 7 12 8 13 9 17 10 14 12 16 13
REMARK SMILES IDX 15 14 18 15 19 16 21 18 20 19 11 20 10 21 7 22 8 23 96 24
REMARK SMILES IDX 9 25 95 26 6 27 1 28 2 29 3 30 97 31 4 32 5 33 28 34 29 35
REMARK SMILES IDX 30 36 31 38 32 39 33 40 94 41 34 42 93 43 35 44 36 45 37 46
REMARK SMILES IDX 87 47 38 48 92 49 86 50 88 51 39 52 91 53 85 54 84 55 40 57
REMARK SMILES IDX 72 58 52 59 71 60 53 61 56 62 70 63 89 64 54 65 55 66 69 68
REMARK SMILES IDX 90 69 57 70 41 71 42 72 50 73 43 74 45 75 51 76 44 77 46 78
REMARK SMILES IDX 47 79 48 80 49 81 73 82 74 83 82 84 75 85 77 86 83 87 76 88
REMARK SMILES IDX 78 89 79 90 80 91 81 92 58 93 59 94 67 95 60 96 62 97 68 98
REMARK SMILES IDX 61 99 63 100 64 101 65 102 66 103
REMARK H PARENT 25 6 12 11 18 17 29 37 88 56 56 67
REMARK Flexibility Score: inf
ROOT
ATOM      1  C   UNL A   1      34.111  30.805  26.968  1.00  0.00     0.042 C 
ENDROOT
BRANCH   1   2
ATOM      2  C   UNL A   1      34.414  29.357  26.601  1.00  0.00     0.117 C 
BRANCH   2   3
ATOM      3  N   UNL A   1      34.290  29.005  25.187  1.00  0.00    -0.356 N 
ATOM      4  C   UNL A   1      33.250  28.691  24.362  1.00  0.00     0.226 C 
ATOM      5  O   UNL A   1      33.513  28.582  23.158  1.00  0.00    -0.275 OA
ATOM      6  H   UNL A   1      35.158  28.994  24.723  1.00  0.00     0.163 HD
BRANCH   4   7
ATOM      7  C   UNL A   1      31.811  28.381  24.809  1.00  0.00     0.114 C 
ATOM      8  N   UNL A   1      30.723  24.889  22.830  1.00  0.00    -0.331 N 
ATOM      9  C   UNL A   1      29.690  25.781  23.335  1.00  0.00     0.264 C 
ATOM     10  C   UNL A   1      32.012  25.557  22.819  1.00  0.00     0.264 C 
ATOM     11  H   UNL A   1      30.433  24.716  21.867  1.00  0.00     0.348 HD
ATOM     12  C   UNL A   1      29.979  26.492  24.662  1.00  0.00     0.091 C 
ATOM     13  C   UNL A   1      32.440  25.974  24.212  1.00  0.00     0.091 C 
ATOM     14  C   UNL A   1      31.459  26.883  24.964  1.00  0.00     0.063 C 
ATOM     15  N   UNL A   1      31.565  26.738  26.412  1.00  0.00    -0.349 N 
ATOM     16  C   UNL A   1      31.433  27.913  27.107  1.00  0.00     0.221 C 
ATOM     17  H   UNL A   1      31.720  25.870  26.851  1.00  0.00     0.164 HD
ATOM     18  C   UNL A   1      31.469  29.056  26.139  1.00  0.00     0.116 C 
ATOM     19  O   UNL A   1      31.307  28.004  28.323  1.00  0.00    -0.275 OA
BRANCH   8  20
ATOM     20  C   UNL A   1      30.728  23.463  23.218  1.00  0.00     0.302 C 
BRANCH  20  21
ATOM     21  C   UNL A   1      32.041  22.847  23.621  1.00  0.00     0.043 A 
ATOM     22  C   UNL A   1      34.576  22.286  24.455  1.00  0.00     0.159 A 
ATOM     23  N   UNL A   1      33.604  22.355  25.387  1.00  0.00    -0.236 NA
ATOM     24  N   UNL A   1      34.362  22.376  23.129  1.00  0.00    -0.236 NA
ATOM     25  C   UNL A   1      32.353  22.585  24.937  1.00  0.00     0.124 A 
ATOM     26  C   UNL A   1      33.093  22.647  22.739  1.00  0.00     0.124 A 
BRANCH  22  27
ATOM     27  C   UNL A   1      35.965  22.240  24.936  1.00  0.00     0.019 A 
ATOM     28  C   UNL A   1      38.830  19.705  25.257  1.00  0.00     0.044 C 
ATOM     29  C   UNL A   1      38.057  20.991  25.312  1.00  0.00    -0.050 A 
ATOM     30  C   UNL A   1      38.636  22.136  25.856  1.00  0.00     0.003 A 
ATOM     31  C   UNL A   1      36.740  21.065  24.832  1.00  0.00     0.015 A 
ATOM     32  C   UNL A   1      37.896  23.315  25.957  1.00  0.00     0.001 A 
ATOM     33  C   UNL A   1      36.568  23.360  25.519  1.00  0.00     0.012 A 
ENDBRANCH  22  27
ENDBRANCH  20  21
ENDBRANCH   8  20
ENDBRANCH   4   7
ENDBRANCH   2   3
ENDBRANCH   1   2
BRANCH   1  34
ATOM     34  C   UNL A   1      34.483  31.214  28.389  1.00  0.00     0.118 C 
BRANCH  34  35
ATOM     35  N   UNL A   1      35.772  31.910  28.370  1.00  0.00    -0.352 N 
ATOM     36  C   UNL A   1      37.056  31.485  28.661  1.00  0.00     0.251 C 
ATOM     37  H   UNL A   1      35.713  32.855  28.100  1.00  0.00     0.163 HD
ATOM     38  O   UNL A   1      37.923  32.308  28.934  1.00  0.00    -0.269 OA
BRANCH  36  39
ATOM     39  C   UNL A   1      37.411  30.070  28.409  1.00  0.00     0.039 A 
ATOM     40  C   UNL A   1      37.385  29.281  29.566  1.00  0.00     0.014 A 
ATOM     41  C   UNL A   1      38.272  29.774  27.363  1.00  0.00     0.014 A 
ATOM     42  C   UNL A   1      38.478  28.485  29.850  1.00  0.00     0.010 A 
ATOM     43  C   UNL A   1      39.410  29.078  27.682  1.00  0.00     0.010 A 
ATOM     44  C   UNL A   1      39.544  28.527  28.964  1.00  0.00    -0.014 A 
BRANCH  44  45
ATOM     45  C   UNL A   1      40.816  27.889  29.201  1.00  0.00     0.031 A 
ATOM     46  C   UNL A   1      40.855  26.435  28.954  1.00  0.00     0.074 A 
ATOM     47  C   UNL A   1      41.913  28.662  29.385  1.00  0.00     0.049 A 
ATOM     48  N   UNL A   1      41.810  25.658  29.314  1.00  0.00    -0.248 NA
ATOM     49  C   UNL A   1      39.765  25.732  28.273  1.00  0.00     0.031 C 
ATOM     50  C   UNL A   1      43.301  28.263  29.190  1.00  0.00     0.029 A 
ATOM     51  N   UNL A   1      42.027  29.959  29.913  1.00  0.00    -0.354 N 
ATOM     52  C   UNL A   1      41.626  24.458  28.653  1.00  0.00     0.074 A 
ATOM     53  C   UNL A   1      40.294  24.518  28.110  1.00  0.00     0.031 C 
ATOM     54  C   UNL A   1      44.098  29.125  29.844  1.00  0.00     0.029 A 
ATOM     55  C   UNL A   1      43.226  29.959  30.652  1.00  0.00     0.049 A 
ATOM     56  H   UNL A   1      41.400  30.708  29.792  1.00  0.00     0.167 HD
ATOM     57  C   UNL A   1      42.702  23.641  28.493  1.00  0.00     0.034 A 
ATOM     58  C   UNL A   1      43.291  30.041  32.020  1.00  0.00     0.034 A 
ATOM     59  C   UNL A   1      43.861  24.212  29.194  1.00  0.00     0.049 A 
ATOM     60  C   UNL A   1      43.958  28.820  32.652  1.00  0.00     0.074 A 
ATOM     61  C   UNL A   1      44.903  25.021  28.769  1.00  0.00     0.029 A 
ATOM     62  N   UNL A   1      43.839  24.298  30.581  1.00  0.00    -0.354 N 
ATOM     63  N   UNL A   1      44.166  27.695  32.021  1.00  0.00    -0.248 NA
ATOM     64  C   UNL A   1      44.455  28.768  34.026  1.00  0.00     0.031 C 
ATOM     65  C   UNL A   1      45.461  25.654  29.914  1.00  0.00     0.029 A 
ATOM     66  C   UNL A   1      44.782  25.208  31.036  1.00  0.00     0.049 A 
ATOM     67  H   UNL A   1      43.234  23.783  31.163  1.00  0.00     0.167 HD
ATOM     68  C   UNL A   1      44.728  26.767  32.857  1.00  0.00     0.074 A 
ATOM     69  C   UNL A   1      44.942  27.513  34.089  1.00  0.00     0.031 C 
ATOM     70  C   UNL A   1      44.931  25.466  32.467  1.00  0.00     0.034 A 
BRANCH  57  71
ATOM     71  C   UNL A   1      42.817  22.541  27.449  1.00  0.00     0.023 A 
ATOM     72  C   UNL A   1      42.037  21.382  27.667  1.00  0.00     0.012 A 
ATOM     73  C   UNL A   1      43.655  22.514  26.310  1.00  0.00     0.148 A 
ATOM     74  C   UNL A   1      42.139  20.237  26.871  1.00  0.00     0.002 A 
ATOM     75  C   UNL A   1      43.797  21.352  25.539  1.00  0.00     0.091 A 
ATOM     76  F   UNL A   1      44.271  23.630  25.909  1.00  0.00    -0.205 F 
ATOM     77  C   UNL A   1      43.043  20.211  25.823  1.00  0.00     0.022 A 
BRANCH  75  78
ATOM     78  S   UNL A   1      44.988  21.206  24.192  1.00  0.00     0.127 S 
ATOM     79  O   UNL A   1      46.259  21.461  24.873  1.00  0.00    -0.237 OA
ATOM     80  O   UNL A   1      44.803  19.823  23.757  1.00  0.00    -0.237 OA
ATOM     81  O   UNL A   1      44.624  22.226  23.216  1.00  0.00    -0.744 OA
ENDBRANCH  75  78
ENDBRANCH  57  71
BRANCH  58  82
ATOM     82  C   UNL A   1      42.176  30.833  32.620  1.00  0.00     0.023 A 
ATOM     83  C   UNL A   1      42.068  32.181  32.199  1.00  0.00     0.012 A 
ATOM     84  C   UNL A   1      41.048  30.199  33.164  1.00  0.00     0.148 A 
ATOM     85  C   UNL A   1      40.819  32.795  32.096  1.00  0.00     0.002 A 
ATOM     86  C   UNL A   1      39.806  30.826  33.074  1.00  0.00     0.091 A 
ATOM     87  F   UNL A   1      41.189  28.979  33.697  1.00  0.00    -0.205 F 
ATOM     88  C   UNL A   1      39.682  32.093  32.479  1.00  0.00     0.022 A 
BRANCH  86  89
ATOM     89  S   UNL A   1      38.299  29.993  33.591  1.00  0.00     0.127 S 
ATOM     90  O   UNL A   1      38.317  30.222  35.032  1.00  0.00    -0.237 OA
ATOM     91  O   UNL A   1      37.266  30.731  32.868  1.00  0.00    -0.237 OA
ATOM     92  O   UNL A   1      38.469  28.616  33.153  1.00  0.00    -0.744 OA
ENDBRANCH  86  89
ENDBRANCH  58  82
BRANCH  70  93
ATOM     93  C   UNL A   1      45.306  24.296  33.374  1.00  0.00     0.023 A 
ATOM     94  C   UNL A   1      44.464  23.186  33.565  1.00  0.00     0.012 A 
ATOM     95  C   UNL A   1      46.596  24.211  33.970  1.00  0.00     0.148 A 
ATOM     96  C   UNL A   1      44.842  22.089  34.350  1.00  0.00     0.002 A 
ATOM     97  C   UNL A   1      47.017  23.061  34.633  1.00  0.00     0.091 A 
ATOM     98  F   UNL A   1      47.430  25.260  33.933  1.00  0.00    -0.205 F 
ATOM     99  C   UNL A   1      46.128  22.013  34.862  1.00  0.00     0.022 A 
BRANCH  97 100
ATOM    100  S   UNL A   1      48.743  22.808  35.076  1.00  0.00     0.127 S 
ATOM    101  O   UNL A   1      48.724  21.438  35.584  1.00  0.00    -0.237 OA
ATOM    102  O   UNL A   1      49.418  22.972  33.788  1.00  0.00    -0.237 OA
ATOM    103  O   UNL A   1      49.049  23.848  36.049  1.00  0.00    -0.744 OA
ENDBRANCH  97 100
ENDBRANCH  70  93
ENDBRANCH  44  45
ENDBRANCH  36  39
ENDBRANCH  34  35
ENDBRANCH   1  34
TORSDOF 16
ENDMDL
