MODEL 1
REMARK VINA RESULT:     -13.7      0.000      0.000
REMARK SMILES C[C@H]1c2ccc(O)cc2OC(=O)[C@@H]1CC(=O)N[C@@H](CC1=c2ccccc2=NC1)C(=O)NCCCNC(=O)c1ccc(-c2c3nc(c(-c4cccc(S(=O)(=O)[O-])c4F)c4ccc([nH]4)c(-c4cccc(S(=O)(=O)[O-])c4F)c4nc(c(-c5cccc(S(=O)(=O)[O-])c5F)c5ccc2[nH]5)C=C4)C=C3)cc1
REMARK SMILES IDX 32 1 31 2 29 3 30 4 18 6 17 7 15 8 16 9 14 11 13 12 1 13
REMARK SMILES IDX 2 14 3 15 4 16 9 17 11 18 5 19 8 20 10 21 12 22 6 23 7 24
REMARK SMILES IDX 19 26 20 27 21 28 28 29 22 30 26 31 27 32 23 33 25 34 24 35
REMARK SMILES IDX 33 36 34 37 35 38 36 39 37 41 38 42 39 43 100 44 40 45 99 46
REMARK SMILES IDX 41 47 42 48 43 49 93 50 44 51 98 52 92 53 94 54 45 55 97 56
REMARK SMILES IDX 91 57 90 58 46 60 78 61 58 62 77 63 59 64 62 65 76 66 95 67
REMARK SMILES IDX 60 68 61 69 75 71 96 72 63 73 47 74 48 75 56 76 49 77 51 78
REMARK SMILES IDX 57 79 50 80 52 81 53 82 54 83 55 84 79 85 80 86 88 87 81 88
REMARK SMILES IDX 83 89 89 90 82 91 84 92 85 93 86 94 87 95 64 96 65 97 73 98
REMARK SMILES IDX 66 99 68 100 74 101 67 102 69 103 70 104 71 105 72 106
REMARK H PARENT 31 5 17 10 7 25 35 40 94 59 62 70
REMARK Flexibility Score: inf
ROOT
ATOM      1  C   UNL A   1      31.950  28.321  25.805  1.00  0.00     0.117 C 
ENDROOT
BRANCH   1   2
ATOM      2  N   UNL A   1      33.051  28.338  24.882  1.00  0.00    -0.354 N 
ATOM      3  C   UNL A   1      32.872  28.562  23.541  1.00  0.00     0.242 C 
ATOM      4  O   UNL A   1      33.698  29.293  22.979  1.00  0.00    -0.273 OA
ATOM      5  H   UNL A   1      33.961  28.182  25.223  1.00  0.00     0.163 HD
BRANCH   3   6
ATOM      6  C   UNL A   1      31.663  27.985  22.733  1.00  0.00     0.175 C 
BRANCH   6   7
ATOM      7  N   UNL A   1      31.943  27.056  21.632  1.00  0.00    -0.344 N 
ATOM      8  C   UNL A   1      32.837  26.025  21.579  1.00  0.00     0.221 C 
ATOM      9  O   UNL A   1      33.033  25.468  20.498  1.00  0.00    -0.275 OA
ATOM     10  H   UNL A   1      31.410  27.196  20.815  1.00  0.00     0.164 HD
BRANCH   8  11
ATOM     11  C   UNL A   1      33.559  25.547  22.829  1.00  0.00     0.116 C 
BRANCH  11  12
ATOM     12  C   UNL A   1      32.662  24.798  23.843  1.00  0.00     0.116 C 
ATOM     13  C   UNL A   1      32.272  24.137  26.282  1.00  0.00     0.014 C 
ATOM     14  C   UNL A   1      33.248  24.760  25.274  1.00  0.00     0.034 C 
ATOM     15  C   UNL A   1      34.539  23.979  25.242  1.00  0.00    -0.001 A 
ATOM     16  C   UNL A   1      35.603  24.262  26.102  1.00  0.00     0.011 A 
ATOM     17  C   UNL A   1      34.698  22.972  24.285  1.00  0.00     0.138 A 
ATOM     18  C   UNL A   1      32.468  23.352  23.453  1.00  0.00     0.315 C 
ATOM     19  C   UNL A   1      36.818  23.585  25.956  1.00  0.00     0.047 A 
ATOM     20  C   UNL A   1      35.909  22.312  24.107  1.00  0.00     0.093 A 
ATOM     21  O   UNL A   1      33.618  22.571  23.480  1.00  0.00    -0.426 OA
ATOM     22  O   UNL A   1      31.389  22.897  23.091  1.00  0.00    -0.251 OA
ATOM     23  C   UNL A   1      36.968  22.636  24.945  1.00  0.00     0.119 A 
BRANCH  23  24
ATOM     24  O   UNL A   1      38.153  21.991  24.748  1.00  0.00    -0.508 OA
ATOM     25  H   UNL A   1      38.925  22.483  24.544  1.00  0.00     0.293 HD
ENDBRANCH  23  24
ENDBRANCH  11  12
ENDBRANCH   8  11
ENDBRANCH   6   7
BRANCH   6  26
ATOM     26  C   UNL A   1      30.315  27.673  23.467  1.00  0.00     0.068 C 
BRANCH  26  27
ATOM     27  C   UNL A   1      29.206  28.705  23.600  1.00  0.00    -0.037 C 
ATOM     28  C   UNL A   1      29.301  29.949  23.101  1.00  0.00     0.001 A 
ATOM     29  C   UNL A   1      27.799  28.214  23.483  1.00  0.00     0.174 C 
ATOM     30  C   UNL A   1      29.155  31.208  23.832  1.00  0.00     0.010 A 
ATOM     31  C   UNL A   1      28.155  29.875  22.147  1.00  0.00     0.065 A 
ATOM     32  N   UNL A   1      27.265  28.954  22.324  1.00  0.00    -0.280 NA
ATOM     33  C   UNL A   1      28.708  32.281  23.143  1.00  0.00     0.001 A 
ATOM     34  C   UNL A   1      28.141  30.976  21.168  1.00  0.00     0.028 A 
ATOM     35  C   UNL A   1      28.441  32.169  21.710  1.00  0.00     0.002 A 
ENDBRANCH  26  27
ENDBRANCH   6  26
ENDBRANCH   3   6
ENDBRANCH   1   2
BRANCH   1  36
ATOM     36  C   UNL A   1      31.595  29.589  26.557  1.00  0.00     0.042 C 
BRANCH  36  37
ATOM     37  C   UNL A   1      31.975  30.865  25.798  1.00  0.00     0.118 C 
BRANCH  37  38
ATOM     38  N   UNL A   1      31.962  32.106  26.585  1.00  0.00    -0.352 N 
ATOM     39  C   UNL A   1      32.841  32.732  27.451  1.00  0.00     0.251 C 
ATOM     40  H   UNL A   1      31.127  32.613  26.468  1.00  0.00     0.163 HD
ATOM     41  O   UNL A   1      32.519  33.796  27.951  1.00  0.00    -0.269 OA
BRANCH  39  42
ATOM     42  C   UNL A   1      34.133  32.112  27.832  1.00  0.00     0.039 A 
ATOM     43  C   UNL A   1      34.250  30.747  28.023  1.00  0.00     0.014 A 
ATOM     44  C   UNL A   1      35.259  32.923  28.030  1.00  0.00     0.014 A 
ATOM     45  C   UNL A   1      35.343  30.240  28.708  1.00  0.00     0.010 A 
ATOM     46  C   UNL A   1      36.436  32.376  28.566  1.00  0.00     0.010 A 
ATOM     47  C   UNL A   1      36.456  31.044  29.002  1.00  0.00    -0.014 A 
BRANCH  47  48
ATOM     48  C   UNL A   1      37.581  30.464  29.794  1.00  0.00     0.031 A 
ATOM     49  C   UNL A   1      38.622  29.585  29.137  1.00  0.00     0.074 A 
ATOM     50  C   UNL A   1      37.735  30.818  31.090  1.00  0.00     0.049 A 
ATOM     51  N   UNL A   1      39.668  29.010  29.677  1.00  0.00    -0.248 NA
ATOM     52  C   UNL A   1      38.479  29.304  27.696  1.00  0.00     0.031 C 
ATOM     53  C   UNL A   1      36.809  31.663  31.851  1.00  0.00     0.029 A 
ATOM     54  N   UNL A   1      38.746  30.561  31.982  1.00  0.00    -0.354 N 
ATOM     55  C   UNL A   1      40.256  28.252  28.670  1.00  0.00     0.074 A 
ATOM     56  C   UNL A   1      39.465  28.444  27.477  1.00  0.00     0.031 C 
ATOM     57  C   UNL A   1      37.344  31.944  33.047  1.00  0.00     0.029 A 
ATOM     58  C   UNL A   1      38.598  31.215  33.185  1.00  0.00     0.049 A 
ATOM     59  H   UNL A   1      39.503  29.965  31.781  1.00  0.00     0.167 HD
ATOM     60  C   UNL A   1      41.366  27.479  28.730  1.00  0.00     0.034 A 
ATOM     61  C   UNL A   1      39.371  31.220  34.288  1.00  0.00     0.034 A 
ATOM     62  C   UNL A   1      42.211  27.364  29.885  1.00  0.00     0.049 A 
ATOM     63  C   UNL A   1      40.604  30.368  34.315  1.00  0.00     0.074 A 
ATOM     64  C   UNL A   1      43.374  26.624  30.024  1.00  0.00     0.029 A 
ATOM     65  N   UNL A   1      42.008  28.022  31.086  1.00  0.00    -0.354 N 
ATOM     66  N   UNL A   1      41.139  29.668  33.347  1.00  0.00    -0.248 NA
ATOM     67  C   UNL A   1      41.332  30.295  35.590  1.00  0.00     0.031 C 
ATOM     68  C   UNL A   1      43.877  26.839  31.309  1.00  0.00     0.029 A 
ATOM     69  C   UNL A   1      43.028  27.711  31.968  1.00  0.00     0.049 A 
ATOM     70  H   UNL A   1      41.251  28.620  31.282  1.00  0.00     0.167 HD
ATOM     71  C   UNL A   1      42.267  29.071  33.893  1.00  0.00     0.074 A 
ATOM     72  C   UNL A   1      42.357  29.516  35.267  1.00  0.00     0.031 C 
ATOM     73  C   UNL A   1      43.132  28.206  33.313  1.00  0.00     0.034 A 
BRANCH  60  74
ATOM     74  C   UNL A   1      41.788  26.721  27.501  1.00  0.00     0.023 A 
ATOM     75  C   UNL A   1      42.542  27.379  26.510  1.00  0.00     0.012 A 
ATOM     76  C   UNL A   1      41.577  25.331  27.408  1.00  0.00     0.148 A 
ATOM     77  C   UNL A   1      43.088  26.663  25.446  1.00  0.00     0.002 A 
ATOM     78  C   UNL A   1      42.148  24.620  26.359  1.00  0.00     0.091 A 
ATOM     79  F   UNL A   1      40.854  24.731  28.364  1.00  0.00    -0.205 F 
ATOM     80  C   UNL A   1      42.901  25.284  25.377  1.00  0.00     0.022 A 
BRANCH  78  81
ATOM     81  S   UNL A   1      42.021  22.834  26.207  1.00  0.00     0.127 S 
ATOM     82  O   UNL A   1      42.683  22.384  27.432  1.00  0.00    -0.237 OA
ATOM     83  O   UNL A   1      40.573  22.632  26.186  1.00  0.00    -0.237 OA
ATOM     84  O   UNL A   1      42.714  22.482  24.975  1.00  0.00    -0.744 OA
ENDBRANCH  78  81
ENDBRANCH  60  74
BRANCH  61  85
ATOM     85  C   UNL A   1      39.005  32.076  35.450  1.00  0.00     0.023 A 
ATOM     86  C   UNL A   1      38.159  31.555  36.448  1.00  0.00     0.012 A 
ATOM     87  C   UNL A   1      39.523  33.376  35.596  1.00  0.00     0.148 A 
ATOM     88  C   UNL A   1      37.831  32.319  37.569  1.00  0.00     0.002 A 
ATOM     89  C   UNL A   1      39.237  34.111  36.740  1.00  0.00     0.091 A 
ATOM     90  F   UNL A   1      40.307  33.859  34.622  1.00  0.00    -0.205 F 
ATOM     91  C   UNL A   1      38.380  33.589  37.722  1.00  0.00     0.022 A 
BRANCH  89  92
ATOM     92  S   UNL A   1      40.005  35.699  37.074  1.00  0.00     0.127 S 
ATOM     93  O   UNL A   1      39.653  36.457  35.877  1.00  0.00    -0.237 OA
ATOM     94  O   UNL A   1      39.318  36.119  38.295  1.00  0.00    -0.237 OA
ATOM     95  O   UNL A   1      41.423  35.416  37.253  1.00  0.00    -0.744 OA
ENDBRANCH  89  92
ENDBRANCH  61  85
BRANCH  73  96
ATOM     96  C   UNL A   1      44.263  27.688  34.150  1.00  0.00     0.023 A 
ATOM     97  C   UNL A   1      45.465  28.421  34.209  1.00  0.00     0.012 A 
ATOM     98  C   UNL A   1      44.101  26.544  34.953  1.00  0.00     0.148 A 
ATOM     99  C   UNL A   1      46.496  28.013  35.051  1.00  0.00     0.002 A 
ATOM    100  C   UNL A   1      45.122  26.162  35.814  1.00  0.00     0.091 A 
ATOM    101  F   UNL A   1      42.950  25.861  34.866  1.00  0.00    -0.205 F 
ATOM    102  C   UNL A   1      46.321  26.892  35.860  1.00  0.00     0.022 A 
BRANCH 100 103
ATOM    103  S   UNL A   1      44.962  24.777  36.944  1.00  0.00     0.127 S 
ATOM    104  O   UNL A   1      46.270  24.773  37.597  1.00  0.00    -0.237 OA
ATOM    105  O   UNL A   1      43.853  25.201  37.799  1.00  0.00    -0.237 OA
ATOM    106  O   UNL A   1      44.678  23.611  36.117  1.00  0.00    -0.744 OA
ENDBRANCH 100 103
ENDBRANCH  73  96
ENDBRANCH  47  48
ENDBRANCH  39  42
ENDBRANCH  37  38
ENDBRANCH  36  37
ENDBRANCH   1  36
TORSDOF 19
ENDMDL
MODEL 2
REMARK VINA RESULT:     -13.6      5.113      8.676
REMARK SMILES C[C@H]1c2ccc(O)cc2OC(=O)[C@@H]1CC(=O)N[C@@H](CC1=c2ccccc2=NC1)C(=O)NCCCNC(=O)c1ccc(-c2c3nc(c(-c4cccc(S(=O)(=O)[O-])c4F)c4ccc([nH]4)c(-c4cccc(S(=O)(=O)[O-])c4F)c4nc(c(-c5cccc(S(=O)(=O)[O-])c5F)c5ccc2[nH]5)C=C4)C=C3)cc1
REMARK SMILES IDX 32 1 31 2 29 3 30 4 18 6 17 7 15 8 16 9 14 11 13 12 1 13
REMARK SMILES IDX 2 14 3 15 4 16 9 17 11 18 5 19 8 20 10 21 12 22 6 23 7 24
REMARK SMILES IDX 19 26 20 27 21 28 28 29 22 30 26 31 27 32 23 33 25 34 24 35
REMARK SMILES IDX 33 36 34 37 35 38 36 39 37 41 38 42 39 43 100 44 40 45 99 46
REMARK SMILES IDX 41 47 42 48 43 49 93 50 44 51 98 52 92 53 94 54 45 55 97 56
REMARK SMILES IDX 91 57 90 58 46 60 78 61 58 62 77 63 59 64 62 65 76 66 95 67
REMARK SMILES IDX 60 68 61 69 75 71 96 72 63 73 47 74 48 75 56 76 49 77 51 78
REMARK SMILES IDX 57 79 50 80 52 81 53 82 54 83 55 84 79 85 80 86 88 87 81 88
REMARK SMILES IDX 83 89 89 90 82 91 84 92 85 93 86 94 87 95 64 96 65 97 73 98
REMARK SMILES IDX 66 99 68 100 74 101 67 102 69 103 70 104 71 105 72 106
REMARK H PARENT 31 5 17 10 7 25 35 40 94 59 62 70
REMARK Flexibility Score: inf
ROOT
ATOM      1  C   UNL A   1      35.317  21.429  26.119  1.00  0.00     0.117 C 
ENDROOT
BRANCH   1   2
ATOM      2  N   UNL A   1      34.493  22.583  26.345  1.00  0.00    -0.354 N 
ATOM      3  C   UNL A   1      33.168  22.612  25.989  1.00  0.00     0.242 C 
ATOM      4  O   UNL A   1      32.385  23.143  26.786  1.00  0.00    -0.273 OA
ATOM      5  H   UNL A   1      34.891  23.378  26.767  1.00  0.00     0.163 HD
BRANCH   3   6
ATOM      6  C   UNL A   1      32.624  21.966  24.672  1.00  0.00     0.175 C 
BRANCH   6   7
ATOM      7  N   UNL A   1      33.215  22.386  23.396  1.00  0.00    -0.344 N 
ATOM      8  C   UNL A   1      33.133  23.594  22.763  1.00  0.00     0.221 C 
ATOM      9  O   UNL A   1      33.568  23.690  21.615  1.00  0.00    -0.275 OA
ATOM     10  H   UNL A   1      33.746  21.700  22.930  1.00  0.00     0.164 HD
BRANCH   8  11
ATOM     11  C   UNL A   1      32.545  24.809  23.464  1.00  0.00     0.116 C 
BRANCH  11  12
ATOM     12  C   UNL A   1      32.742  26.145  22.709  1.00  0.00     0.116 C 
ATOM     13  C   UNL A   1      33.990  28.373  22.581  1.00  0.00     0.014 C 
ATOM     14  C   UNL A   1      33.707  27.120  23.423  1.00  0.00     0.034 C 
ATOM     15  C   UNL A   1      33.102  27.506  24.750  1.00  0.00    -0.001 A 
ATOM     16  C   UNL A   1      33.885  27.803  25.869  1.00  0.00     0.011 A 
ATOM     17  C   UNL A   1      31.710  27.518  24.883  1.00  0.00     0.138 A 
ATOM     18  C   UNL A   1      31.443  26.902  22.568  1.00  0.00     0.315 C 
ATOM     19  C   UNL A   1      33.276  28.043  27.104  1.00  0.00     0.047 A 
ATOM     20  C   UNL A   1      31.090  27.724  26.110  1.00  0.00     0.093 A 
ATOM     21  O   UNL A   1      30.882  27.344  23.761  1.00  0.00    -0.426 OA
ATOM     22  O   UNL A   1      30.886  27.079  21.490  1.00  0.00    -0.251 OA
ATOM     23  C   UNL A   1      31.887  27.977  27.219  1.00  0.00     0.119 A 
BRANCH  23  24
ATOM     24  O   UNL A   1      31.266  28.162  28.419  1.00  0.00    -0.508 OA
ATOM     25  H   UNL A   1      30.927  27.425  28.889  1.00  0.00     0.293 HD
ENDBRANCH  23  24
ENDBRANCH  11  12
ENDBRANCH   8  11
ENDBRANCH   6   7
BRANCH   6  26
ATOM     26  C   UNL A   1      32.171  20.466  24.671  1.00  0.00     0.068 C 
BRANCH  26  27
ATOM     27  C   UNL A   1      32.968  19.378  23.969  1.00  0.00    -0.037 C 
ATOM     28  C   UNL A   1      33.569  18.372  24.627  1.00  0.00     0.001 A 
ATOM     29  C   UNL A   1      32.449  18.892  22.655  1.00  0.00     0.174 C 
ATOM     30  C   UNL A   1      34.985  18.007  24.581  1.00  0.00     0.010 A 
ATOM     31  C   UNL A   1      32.818  17.242  24.002  1.00  0.00     0.065 A 
ATOM     32  N   UNL A   1      32.201  17.455  22.886  1.00  0.00    -0.280 NA
ATOM     33  C   UNL A   1      35.303  16.712  24.797  1.00  0.00     0.001 A 
ATOM     34  C   UNL A   1      32.987  15.966  24.718  1.00  0.00     0.028 A 
ATOM     35  C   UNL A   1      34.252  15.745  25.115  1.00  0.00     0.002 A 
ENDBRANCH  26  27
ENDBRANCH   6  26
ENDBRANCH   3   6
ENDBRANCH   1   2
BRANCH   1  36
ATOM     36  C   UNL A   1      36.111  21.326  24.831  1.00  0.00     0.042 C 
BRANCH  36  37
ATOM     37  C   UNL A   1      37.500  21.964  24.930  1.00  0.00     0.118 C 
BRANCH  37  38
ATOM     38  N   UNL A   1      38.586  21.072  25.358  1.00  0.00    -0.352 N 
ATOM     39  C   UNL A   1      39.658  21.173  26.227  1.00  0.00     0.251 C 
ATOM     40  H   UNL A   1      38.539  20.191  24.922  1.00  0.00     0.163 HD
ATOM     41  O   UNL A   1      40.396  20.212  26.367  1.00  0.00    -0.269 OA
BRANCH  39  42
ATOM     42  C   UNL A   1      39.967  22.436  26.940  1.00  0.00     0.039 A 
ATOM     43  C   UNL A   1      39.289  23.609  26.657  1.00  0.00     0.014 A 
ATOM     44  C   UNL A   1      40.984  22.457  27.905  1.00  0.00     0.014 A 
ATOM     45  C   UNL A   1      39.818  24.823  27.064  1.00  0.00     0.010 A 
ATOM     46  C   UNL A   1      41.409  23.677  28.454  1.00  0.00     0.010 A 
ATOM     47  C   UNL A   1      40.895  24.885  27.964  1.00  0.00    -0.014 A 
BRANCH  47  48
ATOM     48  C   UNL A   1      41.465  26.217  28.323  1.00  0.00     0.031 A 
ATOM     49  C   UNL A   1      42.842  26.626  27.847  1.00  0.00     0.074 A 
ATOM     50  C   UNL A   1      40.700  27.113  28.985  1.00  0.00     0.049 A 
ATOM     51  N   UNL A   1      43.482  27.749  28.060  1.00  0.00    -0.248 NA
ATOM     52  C   UNL A   1      43.608  25.661  27.037  1.00  0.00     0.031 C 
ATOM     53  C   UNL A   1      39.351  26.856  29.500  1.00  0.00     0.029 A 
ATOM     54  N   UNL A   1      40.918  28.432  29.295  1.00  0.00    -0.354 N 
ATOM     55  C   UNL A   1      44.736  27.597  27.478  1.00  0.00     0.074 A 
ATOM     56  C   UNL A   1      44.773  26.279  26.889  1.00  0.00     0.031 C 
ATOM     57  C   UNL A   1      38.823  27.999  29.957  1.00  0.00     0.029 A 
ATOM     58  C   UNL A   1      39.829  29.050  29.870  1.00  0.00     0.049 A 
ATOM     59  H   UNL A   1      41.771  28.893  29.124  1.00  0.00     0.167 HD
ATOM     60  C   UNL A   1      45.758  28.482  27.425  1.00  0.00     0.034 A 
ATOM     61  C   UNL A   1      39.655  30.315  30.298  1.00  0.00     0.034 A 
ATOM     62  C   UNL A   1      45.692  29.828  27.922  1.00  0.00     0.049 A 
ATOM     63  C   UNL A   1      40.802  31.277  30.208  1.00  0.00     0.074 A 
ATOM     64  C   UNL A   1      46.673  30.804  27.883  1.00  0.00     0.029 A 
ATOM     65  N   UNL A   1      44.581  30.399  28.519  1.00  0.00    -0.354 N 
ATOM     66  N   UNL A   1      41.973  31.106  29.648  1.00  0.00    -0.248 NA
ATOM     67  C   UNL A   1      40.610  32.598  30.822  1.00  0.00     0.031 C 
ATOM     68  C   UNL A   1      46.155  31.968  28.453  1.00  0.00     0.029 A 
ATOM     69  C   UNL A   1      44.851  31.716  28.846  1.00  0.00     0.049 A 
ATOM     70  H   UNL A   1      43.728  29.937  28.686  1.00  0.00     0.167 HD
ATOM     71  C   UNL A   1      42.658  32.298  29.838  1.00  0.00     0.074 A 
ATOM     72  C   UNL A   1      41.761  33.194  30.538  1.00  0.00     0.031 C 
ATOM     73  C   UNL A   1      43.929  32.609  29.491  1.00  0.00     0.034 A 
BRANCH  60  74
ATOM     74  C   UNL A   1      47.043  28.066  26.762  1.00  0.00     0.023 A 
ATOM     75  C   UNL A   1      48.064  27.485  27.539  1.00  0.00     0.012 A 
ATOM     76  C   UNL A   1      47.170  28.103  25.359  1.00  0.00     0.148 A 
ATOM     77  C   UNL A   1      49.191  26.938  26.928  1.00  0.00     0.002 A 
ATOM     78  C   UNL A   1      48.284  27.530  24.756  1.00  0.00     0.091 A 
ATOM     79  F   UNL A   1      46.184  28.663  24.644  1.00  0.00    -0.205 F 
ATOM     80  C   UNL A   1      49.296  26.950  25.539  1.00  0.00     0.022 A 
BRANCH  78  81
ATOM     81  S   UNL A   1      48.492  27.437  22.973  1.00  0.00     0.127 S 
ATOM     82  O   UNL A   1      47.342  28.210  22.501  1.00  0.00    -0.237 OA
ATOM     83  O   UNL A   1      49.786  28.090  22.783  1.00  0.00    -0.237 OA
ATOM     84  O   UNL A   1      48.456  26.021  22.635  1.00  0.00    -0.744 OA
ENDBRANCH  78  81
ENDBRANCH  60  74
BRANCH  61  85
ATOM     85  C   UNL A   1      38.336  30.744  30.837  1.00  0.00     0.023 A 
ATOM     86  C   UNL A   1      38.045  30.530  32.198  1.00  0.00     0.012 A 
ATOM     87  C   UNL A   1      37.392  31.402  30.027  1.00  0.00     0.148 A 
ATOM     88  C   UNL A   1      36.832  30.959  32.740  1.00  0.00     0.002 A 
ATOM     89  C   UNL A   1      36.210  31.874  30.585  1.00  0.00     0.091 A 
ATOM     90  F   UNL A   1      37.680  31.574  28.729  1.00  0.00    -0.205 F 
ATOM     91  C   UNL A   1      35.923  31.643  31.938  1.00  0.00     0.022 A 
BRANCH  89  92
ATOM     92  S   UNL A   1      35.046  32.874  29.653  1.00  0.00     0.127 S 
ATOM     93  O   UNL A   1      35.936  33.802  28.962  1.00  0.00    -0.237 OA
ATOM     94  O   UNL A   1      34.407  31.877  28.794  1.00  0.00    -0.237 OA
ATOM     95  O   UNL A   1      34.157  33.465  30.645  1.00  0.00    -0.744 OA
ENDBRANCH  89  92
ENDBRANCH  61  85
BRANCH  73  96
ATOM     96  C   UNL A   1      44.432  33.977  29.846  1.00  0.00     0.023 A 
ATOM     97  C   UNL A   1      45.149  34.154  31.044  1.00  0.00     0.012 A 
ATOM     98  C   UNL A   1      44.287  35.053  28.950  1.00  0.00     0.148 A 
ATOM     99  C   UNL A   1      45.709  35.392  31.352  1.00  0.00     0.002 A 
ATOM    100  C   UNL A   1      44.875  36.275  29.249  1.00  0.00     0.091 A 
ATOM    101  F   UNL A   1      43.589  34.855  27.823  1.00  0.00    -0.205 F 
ATOM    102  C   UNL A   1      45.582  36.448  30.451  1.00  0.00     0.022 A 
BRANCH 100 103
ATOM    103  S   UNL A   1      44.826  37.670  28.120  1.00  0.00     0.127 S 
ATOM    104  O   UNL A   1      45.353  37.077  26.892  1.00  0.00    -0.237 OA
ATOM    105  O   UNL A   1      43.399  37.988  28.082  1.00  0.00    -0.237 OA
ATOM    106  O   UNL A   1      45.662  38.703  28.718  1.00  0.00    -0.744 OA
ENDBRANCH 100 103
ENDBRANCH  73  96
ENDBRANCH  47  48
ENDBRANCH  39  42
ENDBRANCH  37  38
ENDBRANCH  36  37
ENDBRANCH   1  36
TORSDOF 19
ENDMDL
MODEL 3
REMARK VINA RESULT:     -13.3      4.991     10.632
REMARK SMILES C[C@H]1c2ccc(O)cc2OC(=O)[C@@H]1CC(=O)N[C@@H](CC1=c2ccccc2=NC1)C(=O)NCCCNC(=O)c1ccc(-c2c3nc(c(-c4cccc(S(=O)(=O)[O-])c4F)c4ccc([nH]4)c(-c4cccc(S(=O)(=O)[O-])c4F)c4nc(c(-c5cccc(S(=O)(=O)[O-])c5F)c5ccc2[nH]5)C=C4)C=C3)cc1
REMARK SMILES IDX 32 1 31 2 29 3 30 4 18 6 17 7 15 8 16 9 14 11 13 12 1 13
REMARK SMILES IDX 2 14 3 15 4 16 9 17 11 18 5 19 8 20 10 21 12 22 6 23 7 24
REMARK SMILES IDX 19 26 20 27 21 28 28 29 22 30 26 31 27 32 23 33 25 34 24 35
REMARK SMILES IDX 33 36 34 37 35 38 36 39 37 41 38 42 39 43 100 44 40 45 99 46
REMARK SMILES IDX 41 47 42 48 43 49 93 50 44 51 98 52 92 53 94 54 45 55 97 56
REMARK SMILES IDX 91 57 90 58 46 60 78 61 58 62 77 63 59 64 62 65 76 66 95 67
REMARK SMILES IDX 60 68 61 69 75 71 96 72 63 73 47 74 48 75 56 76 49 77 51 78
REMARK SMILES IDX 57 79 50 80 52 81 53 82 54 83 55 84 79 85 80 86 88 87 81 88
REMARK SMILES IDX 83 89 89 90 82 91 84 92 85 93 86 94 87 95 64 96 65 97 73 98
REMARK SMILES IDX 66 99 68 100 74 101 67 102 69 103 70 104 71 105 72 106
REMARK H PARENT 31 5 17 10 7 25 35 40 94 59 62 70
REMARK Flexibility Score: inf
ROOT
ATOM      1  C   UNL A   1      34.997  21.622  26.353  1.00  0.00     0.117 C 
ENDROOT
BRANCH   1   2
ATOM      2  N   UNL A   1      33.946  22.554  26.651  1.00  0.00    -0.354 N 
ATOM      3  C   UNL A   1      32.678  22.404  26.150  1.00  0.00     0.242 C 
ATOM      4  O   UNL A   1      31.739  22.643  26.920  1.00  0.00    -0.273 OA
ATOM      5  H   UNL A   1      34.142  23.325  27.232  1.00  0.00     0.163 HD
BRANCH   3   6
ATOM      6  C   UNL A   1      32.388  21.904  24.696  1.00  0.00     0.175 C 
BRANCH   6   7
ATOM      7  N   UNL A   1      33.188  22.458  23.598  1.00  0.00    -0.344 N 
ATOM      8  C   UNL A   1      32.924  23.530  22.794  1.00  0.00     0.221 C 
ATOM      9  O   UNL A   1      33.651  23.731  21.820  1.00  0.00    -0.275 OA
ATOM     10  H   UNL A   1      34.036  21.991  23.416  1.00  0.00     0.164 HD
BRANCH   8  11
ATOM     11  C   UNL A   1      31.777  24.480  23.102  1.00  0.00     0.116 C 
BRANCH  11  12
ATOM     12  C   UNL A   1      31.769  25.030  24.548  1.00  0.00     0.116 C 
ATOM     13  C   UNL A   1      30.459  26.261  26.367  1.00  0.00     0.014 C 
ATOM     14  C   UNL A   1      30.503  25.851  24.887  1.00  0.00     0.034 C 
ATOM     15  C   UNL A   1      30.475  27.074  24.003  1.00  0.00    -0.001 A 
ATOM     16  C   UNL A   1      29.280  27.655  23.572  1.00  0.00     0.011 A 
ATOM     17  C   UNL A   1      31.685  27.615  23.557  1.00  0.00     0.138 A 
ATOM     18  C   UNL A   1      32.929  25.964  24.796  1.00  0.00     0.315 C 
ATOM     19  C   UNL A   1      29.309  28.717  22.662  1.00  0.00     0.047 A 
ATOM     20  C   UNL A   1      31.729  28.650  22.629  1.00  0.00     0.093 A 
ATOM     21  O   UNL A   1      32.910  27.141  24.058  1.00  0.00    -0.426 OA
ATOM     22  O   UNL A   1      33.853  25.695  25.554  1.00  0.00    -0.251 OA
ATOM     23  C   UNL A   1      30.530  29.187  22.180  1.00  0.00     0.119 A 
BRANCH  23  24
ATOM     24  O   UNL A   1      30.590  30.191  21.259  1.00  0.00    -0.508 OA
ATOM     25  H   UNL A   1      30.079  30.137  20.475  1.00  0.00     0.293 HD
ENDBRANCH  23  24
ENDBRANCH  11  12
ENDBRANCH   8  11
ENDBRANCH   6   7
BRANCH   6  26
ATOM     26  C   UNL A   1      31.969  20.413  24.456  1.00  0.00     0.068 C 
BRANCH  26  27
ATOM     27  C   UNL A   1      32.912  19.396  23.833  1.00  0.00    -0.037 C 
ATOM     28  C   UNL A   1      33.549  18.453  24.548  1.00  0.00     0.001 A 
ATOM     29  C   UNL A   1      32.541  18.855  22.490  1.00  0.00     0.174 C 
ATOM     30  C   UNL A   1      34.991  18.218  24.615  1.00  0.00     0.010 A 
ATOM     31  C   UNL A   1      32.952  17.256  23.885  1.00  0.00     0.065 A 
ATOM     32  N   UNL A   1      32.405  17.404  22.723  1.00  0.00    -0.280 NA
ATOM     33  C   UNL A   1      35.406  16.958  24.873  1.00  0.00     0.001 A 
ATOM     34  C   UNL A   1      33.178  16.005  24.630  1.00  0.00     0.028 A 
ATOM     35  C   UNL A   1      34.424  15.903  25.124  1.00  0.00     0.002 A 
ENDBRANCH  26  27
ENDBRANCH   6  26
ENDBRANCH   3   6
ENDBRANCH   1   2
BRANCH   1  36
ATOM     36  C   UNL A   1      36.364  22.148  25.956  1.00  0.00     0.042 C 
BRANCH  36  37
ATOM     37  C   UNL A   1      37.010  21.345  24.824  1.00  0.00     0.118 C 
BRANCH  37  38
ATOM     38  N   UNL A   1      38.165  20.520  25.203  1.00  0.00    -0.352 N 
ATOM     39  C   UNL A   1      39.317  20.719  25.944  1.00  0.00     0.251 C 
ATOM     40  H   UNL A   1      38.105  19.605  24.845  1.00  0.00     0.163 HD
ATOM     41  O   UNL A   1      40.099  19.793  26.079  1.00  0.00    -0.269 OA
BRANCH  39  42
ATOM     42  C   UNL A   1      39.653  22.043  26.521  1.00  0.00     0.039 A 
ATOM     43  C   UNL A   1      39.028  23.199  26.086  1.00  0.00     0.014 A 
ATOM     44  C   UNL A   1      40.643  22.138  27.508  1.00  0.00     0.014 A 
ATOM     45  C   UNL A   1      39.591  24.433  26.371  1.00  0.00     0.010 A 
ATOM     46  C   UNL A   1      41.098  23.397  27.931  1.00  0.00     0.010 A 
ATOM     47  C   UNL A   1      40.644  24.559  27.293  1.00  0.00    -0.014 A 
BRANCH  47  48
ATOM     48  C   UNL A   1      41.253  25.903  27.518  1.00  0.00     0.031 A 
ATOM     49  C   UNL A   1      40.577  26.924  28.408  1.00  0.00     0.074 A 
ATOM     50  C   UNL A   1      42.477  26.173  27.013  1.00  0.00     0.049 A 
ATOM     51  N   UNL A   1      40.976  28.133  28.717  1.00  0.00    -0.248 NA
ATOM     52  C   UNL A   1      39.290  26.556  29.026  1.00  0.00     0.031 C 
ATOM     53  C   UNL A   1      43.248  25.279  26.141  1.00  0.00     0.029 A 
ATOM     54  N   UNL A   1      43.314  27.245  27.196  1.00  0.00    -0.354 N 
ATOM     55  C   UNL A   1      39.966  28.685  29.497  1.00  0.00     0.074 A 
ATOM     56  C   UNL A   1      38.936  27.682  29.631  1.00  0.00     0.031 C 
ATOM     57  C   UNL A   1      44.475  25.784  25.959  1.00  0.00     0.029 A 
ATOM     58  C   UNL A   1      44.549  27.087  26.607  1.00  0.00     0.049 A 
ATOM     59  H   UNL A   1      43.055  28.051  27.699  1.00  0.00     0.167 HD
ATOM     60  C   UNL A   1      39.911  29.913  30.066  1.00  0.00     0.034 A 
ATOM     61  C   UNL A   1      45.622  27.901  26.573  1.00  0.00     0.034 A 
ATOM     62  C   UNL A   1      40.975  30.876  30.019  1.00  0.00     0.049 A 
ATOM     63  C   UNL A   1      45.534  29.247  27.229  1.00  0.00     0.074 A 
ATOM     64  C   UNL A   1      41.014  32.136  30.593  1.00  0.00     0.029 A 
ATOM     65  N   UNL A   1      42.192  30.683  29.390  1.00  0.00    -0.354 N 
ATOM     66  N   UNL A   1      44.570  29.739  27.964  1.00  0.00    -0.248 NA
ATOM     67  C   UNL A   1      46.675  30.153  27.037  1.00  0.00     0.031 C 
ATOM     68  C   UNL A   1      42.259  32.703  30.315  1.00  0.00     0.029 A 
ATOM     69  C   UNL A   1      42.993  31.797  29.569  1.00  0.00     0.049 A 
ATOM     70  H   UNL A   1      42.449  29.874  28.891  1.00  0.00     0.167 HD
ATOM     71  C   UNL A   1      44.986  31.012  28.326  1.00  0.00     0.074 A 
ATOM     72  C   UNL A   1      46.303  31.205  27.756  1.00  0.00     0.031 C 
ATOM     73  C   UNL A   1      44.321  31.950  29.042  1.00  0.00     0.034 A 
BRANCH  60  74
ATOM     74  C   UNL A   1      38.682  30.295  30.845  1.00  0.00     0.023 A 
ATOM     75  C   UNL A   1      38.650  30.069  32.235  1.00  0.00     0.012 A 
ATOM     76  C   UNL A   1      37.639  31.017  30.232  1.00  0.00     0.148 A 
ATOM     77  C   UNL A   1      37.599  30.563  33.006  1.00  0.00     0.002 A 
ATOM     78  C   UNL A   1      36.610  31.530  31.012  1.00  0.00     0.091 A 
ATOM     79  F   UNL A   1      37.695  31.216  28.907  1.00  0.00    -0.205 F 
ATOM     80  C   UNL A   1      36.587  31.303  32.398  1.00  0.00     0.022 A 
BRANCH  78  81
ATOM     81  S   UNL A   1      35.289  32.547  30.341  1.00  0.00     0.127 S 
ATOM     82  O   UNL A   1      34.829  31.730  29.217  1.00  0.00    -0.237 OA
ATOM     83  O   UNL A   1      34.357  32.618  31.465  1.00  0.00    -0.237 OA
ATOM     84  O   UNL A   1      35.904  33.813  29.964  1.00  0.00    -0.744 OA
ENDBRANCH  78  81
ENDBRANCH  60  74
BRANCH  61  85
ATOM     85  C   UNL A   1      46.874  27.454  25.904  1.00  0.00     0.023 A 
ATOM     86  C   UNL A   1      47.783  26.647  26.615  1.00  0.00     0.012 A 
ATOM     87  C   UNL A   1      47.147  27.782  24.563  1.00  0.00     0.148 A 
ATOM     88  C   UNL A   1      48.946  26.179  26.001  1.00  0.00     0.002 A 
ATOM     89  C   UNL A   1      48.279  27.268  23.942  1.00  0.00     0.091 A 
ATOM     90  F   UNL A   1      46.280  28.571  23.914  1.00  0.00    -0.205 F 
ATOM     91  C   UNL A   1      49.186  26.477  24.662  1.00  0.00     0.022 A 
BRANCH  89  92
ATOM     92  S   UNL A   1      48.595  27.499  22.189  1.00  0.00     0.127 S 
ATOM     93  O   UNL A   1      48.782  26.124  21.736  1.00  0.00    -0.237 OA
ATOM     94  O   UNL A   1      47.356  28.134  21.738  1.00  0.00    -0.237 OA
ATOM     95  O   UNL A   1      49.768  28.359  22.114  1.00  0.00    -0.744 OA
ENDBRANCH  89  92
ENDBRANCH  61  85
BRANCH  73  96
ATOM     96  C   UNL A   1      45.002  33.267  29.266  1.00  0.00     0.023 A 
ATOM     97  C   UNL A   1      45.806  33.437  30.410  1.00  0.00     0.012 A 
ATOM     98  C   UNL A   1      44.932  34.288  28.301  1.00  0.00     0.148 A 
ATOM     99  C   UNL A   1      46.525  34.615  30.595  1.00  0.00     0.002 A 
ATOM    100  C   UNL A   1      45.677  35.447  28.477  1.00  0.00     0.091 A 
ATOM    101  F   UNL A   1      44.149  34.101  27.229  1.00  0.00    -0.205 F 
ATOM    102  C   UNL A   1      46.469  35.614  29.625  1.00  0.00     0.022 A 
BRANCH 100 103
ATOM    103  S   UNL A   1      45.725  36.757  27.250  1.00  0.00     0.127 S 
ATOM    104  O   UNL A   1      46.203  36.041  26.069  1.00  0.00    -0.237 OA
ATOM    105  O   UNL A   1      44.324  37.174  27.188  1.00  0.00    -0.237 OA
ATOM    106  O   UNL A   1      46.635  37.768  27.774  1.00  0.00    -0.744 OA
ENDBRANCH 100 103
ENDBRANCH  73  96
ENDBRANCH  47  48
ENDBRANCH  39  42
ENDBRANCH  37  38
ENDBRANCH  36  37
ENDBRANCH   1  36
TORSDOF 19
ENDMDL
