MODEL 1
REMARK VINA RESULT:     -12.7      0.000      0.000
REMARK SMILES Cc1ccccc1O[C@H](C)C(=O)Oc1cccc(C(=O)NCCCNC(=O)c2ccc(-c3c4nc(c(-c5cccc(S(=O)(=O)[O-])c5F)c5ccc([nH]5)c(-c5cccc(S(=O)(=O)[O-])c5F)c5nc(c(-c6cccc(S(=O)(=O)[O-])c6F)c6ccc3[nH]6)C=C5)C=C4)cc2)c1
REMARK SMILES IDX 22 1 21 2 19 3 20 4 18 6 14 7 15 8 91 9 16 10 17 11 13 12
REMARK SMILES IDX 11 13 12 14 9 15 10 16 8 17 7 18 1 19 2 20 3 21 4 22 6 23
REMARK SMILES IDX 5 24 23 25 24 26 25 27 26 28 27 30 28 31 29 32 90 33 30 34
REMARK SMILES IDX 89 35 31 36 32 37 33 38 83 39 34 40 88 41 82 42 84 43 35 44
REMARK SMILES IDX 87 45 81 46 80 47 36 49 68 50 48 51 67 52 49 53 52 54 66 55
REMARK SMILES IDX 85 56 50 57 51 58 65 60 86 61 53 62 37 63 38 64 46 65 39 66
REMARK SMILES IDX 41 67 47 68 40 69 42 70 43 71 44 72 45 73 69 74 70 75 78 76
REMARK SMILES IDX 71 77 73 78 79 79 72 80 74 81 75 82 76 83 77 84 54 85 55 86
REMARK SMILES IDX 63 87 56 88 58 89 64 90 57 91 59 92 60 93 61 94 62 95
REMARK H PARENT 21 5 25 29 84 48 52 59
REMARK Flexibility Score: inf
ROOT
ATOM      1  C   UNL A   1      32.098  30.037  26.013  1.00  0.00     0.118 C 
ENDROOT
BRANCH   1   2
ATOM      2  N   UNL A   1      32.855  29.764  24.803  1.00  0.00    -0.352 N 
ATOM      3  C   UNL A   1      32.600  28.923  23.747  1.00  0.00     0.251 C 
ATOM      4  O   UNL A   1      33.362  28.950  22.781  1.00  0.00    -0.269 OA
ATOM      5  H   UNL A   1      33.695  30.270  24.726  1.00  0.00     0.163 HD
BRANCH   3   6
ATOM      6  C   UNL A   1      31.427  28.004  23.692  1.00  0.00     0.043 A 
ATOM      7  C   UNL A   1      30.591  25.764  24.113  1.00  0.00     0.131 A 
ATOM      8  C   UNL A   1      29.296  26.161  23.802  1.00  0.00     0.047 A 
ATOM      9  C   UNL A   1      31.651  26.673  24.068  1.00  0.00     0.061 A 
ATOM     10  C   UNL A   1      29.062  27.481  23.435  1.00  0.00     0.005 A 
ATOM     11  C   UNL A   1      30.118  28.396  23.397  1.00  0.00     0.014 A 
BRANCH   7  12
ATOM     12  O   UNL A   1      30.921  24.487  24.613  1.00  0.00    -0.424 OA
BRANCH  12  13
ATOM     13  C   UNL A   1      31.192  24.212  25.949  1.00  0.00     0.352 C 
ATOM     14  O   UNL A   1      30.408  24.335  26.883  1.00  0.00    -0.247 OA
BRANCH  13  15
ATOM     15  C   UNL A   1      32.634  23.700  26.103  1.00  0.00     0.280 C 
ATOM     16  C   UNL A   1      32.745  22.178  26.129  1.00  0.00     0.066 C 
BRANCH  15  17
ATOM     17  O   UNL A   1      33.691  24.305  25.369  1.00  0.00    -0.479 OA
BRANCH  17  18
ATOM     18  C   UNL A   1      34.891  23.692  25.156  1.00  0.00     0.123 A 
ATOM     19  C   UNL A   1      34.131  23.438  22.735  1.00  0.00     0.048 C 
ATOM     20  C   UNL A   1      35.132  23.248  23.842  1.00  0.00    -0.009 A 
ATOM     21  C   UNL A   1      36.368  22.659  23.521  1.00  0.00     0.007 A 
ATOM     22  C   UNL A   1      37.351  22.495  24.492  1.00  0.00     0.001 A 
ATOM     23  C   UNL A   1      35.901  23.554  26.109  1.00  0.00     0.047 A 
ATOM     24  C   UNL A   1      37.118  22.943  25.785  1.00  0.00     0.004 A 
ENDBRANCH  17  18
ENDBRANCH  15  17
ENDBRANCH  13  15
ENDBRANCH  12  13
ENDBRANCH   7  12
ENDBRANCH   3   6
ENDBRANCH   1   2
BRANCH   1  25
ATOM     25  C   UNL A   1      32.850  30.993  26.934  1.00  0.00     0.042 C 
BRANCH  25  26
ATOM     26  C   UNL A   1      34.239  30.513  27.312  1.00  0.00     0.118 C 
BRANCH  26  27
ATOM     27  N   UNL A   1      35.140  31.597  27.692  1.00  0.00    -0.352 N 
ATOM     28  C   UNL A   1      36.436  31.507  28.171  1.00  0.00     0.251 C 
ATOM     29  H   UNL A   1      34.781  32.508  27.594  1.00  0.00     0.163 HD
ATOM     30  O   UNL A   1      37.030  32.521  28.525  1.00  0.00    -0.269 OA
BRANCH  28  31
ATOM     31  C   UNL A   1      37.104  30.188  28.136  1.00  0.00     0.039 A 
ATOM     32  C   UNL A   1      37.101  29.421  29.305  1.00  0.00     0.014 A 
ATOM     33  C   UNL A   1      37.959  29.878  27.081  1.00  0.00     0.014 A 
ATOM     34  C   UNL A   1      38.131  28.510  29.524  1.00  0.00     0.010 A 
ATOM     35  C   UNL A   1      39.036  29.059  27.338  1.00  0.00     0.010 A 
ATOM     36  C   UNL A   1      39.156  28.432  28.586  1.00  0.00    -0.014 A 
BRANCH  36  37
ATOM     37  C   UNL A   1      40.439  27.785  28.816  1.00  0.00     0.031 A 
ATOM     38  C   UNL A   1      40.568  26.327  28.648  1.00  0.00     0.074 A 
ATOM     39  C   UNL A   1      41.542  28.546  28.985  1.00  0.00     0.049 A 
ATOM     40  N   UNL A   1      41.599  25.644  29.011  1.00  0.00    -0.248 NA
ATOM     41  C   UNL A   1      39.496  25.509  28.098  1.00  0.00     0.031 C 
ATOM     42  C   UNL A   1      42.931  28.139  28.796  1.00  0.00     0.029 A 
ATOM     43  N   UNL A   1      41.635  29.793  29.613  1.00  0.00    -0.354 N 
ATOM     44  C   UNL A   1      41.469  24.384  28.469  1.00  0.00     0.074 A 
ATOM     45  C   UNL A   1      40.098  24.320  28.031  1.00  0.00     0.031 C 
ATOM     46  C   UNL A   1      43.715  28.932  29.539  1.00  0.00     0.029 A 
ATOM     47  C   UNL A   1      42.834  29.753  30.348  1.00  0.00     0.049 A 
ATOM     48  H   UNL A   1      40.996  30.540  29.554  1.00  0.00     0.167 HD
ATOM     49  C   UNL A   1      42.590  23.621  28.328  1.00  0.00     0.034 A 
ATOM     50  C   UNL A   1      42.896  29.874  31.704  1.00  0.00     0.034 A 
ATOM     51  C   UNL A   1      43.723  24.214  29.063  1.00  0.00     0.049 A 
ATOM     52  C   UNL A   1      43.586  28.710  32.394  1.00  0.00     0.074 A 
ATOM     53  C   UNL A   1      44.861  24.912  28.691  1.00  0.00     0.029 A 
ATOM     54  N   UNL A   1      43.634  24.329  30.446  1.00  0.00    -0.354 N 
ATOM     55  N   UNL A   1      44.001  27.624  31.801  1.00  0.00    -0.248 NA
ATOM     56  C   UNL A   1      43.831  28.672  33.831  1.00  0.00     0.031 C 
ATOM     57  C   UNL A   1      45.423  25.495  29.863  1.00  0.00     0.029 A 
ATOM     58  C   UNL A   1      44.643  25.133  30.949  1.00  0.00     0.049 A 
ATOM     59  H   UNL A   1      42.942  23.895  30.997  1.00  0.00     0.167 HD
ATOM     60  C   UNL A   1      44.422  26.702  32.733  1.00  0.00     0.074 A 
ATOM     61  C   UNL A   1      44.372  27.451  33.981  1.00  0.00     0.031 C 
ATOM     62  C   UNL A   1      44.705  25.402  32.387  1.00  0.00     0.034 A 
BRANCH  49  63
ATOM     63  C   UNL A   1      42.766  22.475  27.333  1.00  0.00     0.023 A 
ATOM     64  C   UNL A   1      41.998  21.307  27.551  1.00  0.00     0.012 A 
ATOM     65  C   UNL A   1      43.690  22.397  26.264  1.00  0.00     0.148 A 
ATOM     66  C   UNL A   1      42.190  20.124  26.823  1.00  0.00     0.002 A 
ATOM     67  C   UNL A   1      43.904  21.213  25.550  1.00  0.00     0.091 A 
ATOM     68  F   UNL A   1      44.370  23.472  25.880  1.00  0.00    -0.205 F 
ATOM     69  C   UNL A   1      43.160  20.068  25.834  1.00  0.00     0.022 A 
BRANCH  67  70
ATOM     70  S   UNL A   1      45.174  21.067  24.274  1.00  0.00     0.127 S 
ATOM     71  O   UNL A   1      46.371  20.782  25.067  1.00  0.00    -0.237 OA
ATOM     72  O   UNL A   1      44.690  19.941  23.478  1.00  0.00    -0.237 OA
ATOM     73  O   UNL A   1      45.210  22.346  23.575  1.00  0.00    -0.744 OA
ENDBRANCH  67  70
ENDBRANCH  49  63
BRANCH  50  74
ATOM     74  C   UNL A   1      41.806  30.711  32.284  1.00  0.00     0.023 A 
ATOM     75  C   UNL A   1      41.756  32.064  31.869  1.00  0.00     0.012 A 
ATOM     76  C   UNL A   1      40.667  30.143  32.880  1.00  0.00     0.148 A 
ATOM     77  C   UNL A   1      40.569  32.793  31.929  1.00  0.00     0.002 A 
ATOM     78  C   UNL A   1      39.484  30.881  32.941  1.00  0.00     0.091 A 
ATOM     79  F   UNL A   1      40.729  28.873  33.298  1.00  0.00    -0.205 F 
ATOM     80  C   UNL A   1      39.425  32.190  32.436  1.00  0.00     0.022 A 
BRANCH  78  81
ATOM     81  S   UNL A   1      37.943  30.164  33.532  1.00  0.00     0.127 S 
ATOM     82  O   UNL A   1      38.133  30.220  34.979  1.00  0.00    -0.237 OA
ATOM     83  O   UNL A   1      36.946  31.094  33.004  1.00  0.00    -0.237 OA
ATOM     84  O   UNL A   1      37.896  28.838  32.937  1.00  0.00    -0.744 OA
ENDBRANCH  78  81
ENDBRANCH  50  74
BRANCH  62  85
ATOM     85  C   UNL A   1      45.011  24.228  33.329  1.00  0.00     0.023 A 
ATOM     86  C   UNL A   1      44.118  23.166  33.563  1.00  0.00     0.012 A 
ATOM     87  C   UNL A   1      46.282  24.104  33.966  1.00  0.00     0.148 A 
ATOM     88  C   UNL A   1      44.448  22.057  34.358  1.00  0.00     0.002 A 
ATOM     89  C   UNL A   1      46.640  22.959  34.681  1.00  0.00     0.091 A 
ATOM     90  F   UNL A   1      47.158  25.116  33.926  1.00  0.00    -0.205 F 
ATOM     91  C   UNL A   1      45.719  21.937  34.892  1.00  0.00     0.022 A 
BRANCH  89  92
ATOM     92  S   UNL A   1      48.330  22.709  35.245  1.00  0.00     0.127 S 
ATOM     93  O   UNL A   1      48.457  23.722  36.289  1.00  0.00    -0.237 OA
ATOM     94  O   UNL A   1      48.300  21.330  35.736  1.00  0.00    -0.237 OA
ATOM     95  O   UNL A   1      49.152  22.895  34.055  1.00  0.00    -0.744 OA
ENDBRANCH  89  92
ENDBRANCH  62  85
ENDBRANCH  36  37
ENDBRANCH  28  31
ENDBRANCH  26  27
ENDBRANCH  25  26
ENDBRANCH   1  25
TORSDOF 18
ENDMDL
MODEL 2
REMARK VINA RESULT:     -12.7      1.699      2.044
REMARK SMILES Cc1ccccc1O[C@H](C)C(=O)Oc1cccc(C(=O)NCCCNC(=O)c2ccc(-c3c4nc(c(-c5cccc(S(=O)(=O)[O-])c5F)c5ccc([nH]5)c(-c5cccc(S(=O)(=O)[O-])c5F)c5nc(c(-c6cccc(S(=O)(=O)[O-])c6F)c6ccc3[nH]6)C=C5)C=C4)cc2)c1
REMARK SMILES IDX 22 1 21 2 19 3 20 4 18 6 14 7 15 8 91 9 16 10 17 11 13 12
REMARK SMILES IDX 11 13 12 14 9 15 10 16 8 17 7 18 1 19 2 20 3 21 4 22 6 23
REMARK SMILES IDX 5 24 23 25 24 26 25 27 26 28 27 30 28 31 29 32 90 33 30 34
REMARK SMILES IDX 89 35 31 36 32 37 33 38 83 39 34 40 88 41 82 42 84 43 35 44
REMARK SMILES IDX 87 45 81 46 80 47 36 49 68 50 48 51 67 52 49 53 52 54 66 55
REMARK SMILES IDX 85 56 50 57 51 58 65 60 86 61 53 62 37 63 38 64 46 65 39 66
REMARK SMILES IDX 41 67 47 68 40 69 42 70 43 71 44 72 45 73 69 74 70 75 78 76
REMARK SMILES IDX 71 77 73 78 79 79 72 80 74 81 75 82 76 83 77 84 54 85 55 86
REMARK SMILES IDX 63 87 56 88 58 89 64 90 57 91 59 92 60 93 61 94 62 95
REMARK H PARENT 21 5 25 29 84 48 52 59
REMARK Flexibility Score: inf
ROOT
ATOM      1  C   UNL A   1      31.948  30.113  25.765  1.00  0.00     0.118 C 
ENDROOT
BRANCH   1   2
ATOM      2  N   UNL A   1      33.111  29.527  25.122  1.00  0.00    -0.352 N 
ATOM      3  C   UNL A   1      33.244  28.405  24.341  1.00  0.00     0.251 C 
ATOM      4  O   UNL A   1      34.339  28.177  23.827  1.00  0.00    -0.269 OA
ATOM      5  H   UNL A   1      33.950  30.019  25.273  1.00  0.00     0.163 HD
BRANCH   3   6
ATOM      6  C   UNL A   1      32.122  27.468  24.052  1.00  0.00     0.043 A 
ATOM      7  C   UNL A   1      31.209  25.243  24.383  1.00  0.00     0.131 A 
ATOM      8  C   UNL A   1      30.031  25.602  23.738  1.00  0.00     0.047 A 
ATOM      9  C   UNL A   1      32.246  26.163  24.549  1.00  0.00     0.061 A 
ATOM     10  C   UNL A   1      29.894  26.895  23.248  1.00  0.00     0.005 A 
ATOM     11  C   UNL A   1      30.926  27.822  23.419  1.00  0.00     0.014 A 
BRANCH   7  12
ATOM     12  O   UNL A   1      31.405  24.001  25.023  1.00  0.00    -0.424 OA
BRANCH  12  13
ATOM     13  C   UNL A   1      31.700  23.851  26.374  1.00  0.00     0.352 C 
ATOM     14  O   UNL A   1      30.902  23.946  27.300  1.00  0.00    -0.247 OA
BRANCH  13  15
ATOM     15  C   UNL A   1      33.190  23.519  26.557  1.00  0.00     0.280 C 
ATOM     16  C   UNL A   1      33.491  22.729  27.827  1.00  0.00     0.066 C 
BRANCH  15  17
ATOM     17  O   UNL A   1      33.967  23.077  25.451  1.00  0.00    -0.479 OA
BRANCH  17  18
ATOM     18  C   UNL A   1      35.311  22.860  25.530  1.00  0.00     0.123 A 
ATOM     19  C   UNL A   1      34.782  20.451  24.880  1.00  0.00     0.048 C 
ATOM     20  C   UNL A   1      35.742  21.550  25.247  1.00  0.00    -0.009 A 
ATOM     21  C   UNL A   1      37.117  21.252  25.247  1.00  0.00     0.007 A 
ATOM     22  C   UNL A   1      38.057  22.236  25.537  1.00  0.00     0.001 A 
ATOM     23  C   UNL A   1      36.270  23.843  25.783  1.00  0.00     0.047 A 
ATOM     24  C   UNL A   1      37.633  23.530  25.805  1.00  0.00     0.004 A 
ENDBRANCH  17  18
ENDBRANCH  15  17
ENDBRANCH  13  15
ENDBRANCH  12  13
ENDBRANCH   7  12
ENDBRANCH   3   6
ENDBRANCH   1   2
BRANCH   1  25
ATOM     25  C   UNL A   1      32.318  30.774  27.089  1.00  0.00     0.042 C 
BRANCH  25  26
ATOM     26  C   UNL A   1      33.703  30.407  27.591  1.00  0.00     0.118 C 
BRANCH  26  27
ATOM     27  N   UNL A   1      34.341  31.474  28.355  1.00  0.00    -0.352 N 
ATOM     28  C   UNL A   1      35.535  31.432  29.054  1.00  0.00     0.251 C 
ATOM     29  H   UNL A   1      33.862  32.333  28.376  1.00  0.00     0.163 HD
ATOM     30  O   UNL A   1      35.892  32.401  29.718  1.00  0.00    -0.269 OA
BRANCH  28  31
ATOM     31  C   UNL A   1      36.403  30.247  28.883  1.00  0.00     0.039 A 
ATOM     32  C   UNL A   1      36.707  29.489  30.019  1.00  0.00     0.014 A 
ATOM     33  C   UNL A   1      37.128  30.089  27.706  1.00  0.00     0.014 A 
ATOM     34  C   UNL A   1      37.897  28.767  30.057  1.00  0.00     0.010 A 
ATOM     35  C   UNL A   1      38.355  29.466  27.777  1.00  0.00     0.010 A 
ATOM     36  C   UNL A   1      38.767  28.867  28.975  1.00  0.00    -0.014 A 
BRANCH  36  37
ATOM     37  C   UNL A   1      40.160  28.448  28.994  1.00  0.00     0.031 A 
ATOM     38  C   UNL A   1      40.504  27.028  28.804  1.00  0.00     0.074 A 
ATOM     39  C   UNL A   1      41.132  29.387  28.985  1.00  0.00     0.049 A 
ATOM     40  N   UNL A   1      41.680  26.536  28.995  1.00  0.00    -0.248 NA
ATOM     41  C   UNL A   1      39.511  26.030  28.433  1.00  0.00     0.031 C 
ATOM     42  C   UNL A   1      42.522  29.212  28.573  1.00  0.00     0.029 A 
ATOM     43  N   UNL A   1      41.113  30.646  29.591  1.00  0.00    -0.354 N 
ATOM     44  C   UNL A   1      41.679  25.259  28.479  1.00  0.00     0.074 A 
ATOM     45  C   UNL A   1      40.286  24.956  28.267  1.00  0.00     0.031 C 
ATOM     46  C   UNL A   1      43.269  30.142  29.182  1.00  0.00     0.029 A 
ATOM     47  C   UNL A   1      42.403  30.826  30.124  1.00  0.00     0.049 A 
ATOM     48  H   UNL A   1      40.356  31.275  29.638  1.00  0.00     0.167 HD
ATOM     49  C   UNL A   1      42.875  24.689  28.157  1.00  0.00     0.034 A 
ATOM     50  C   UNL A   1      42.659  30.989  31.452  1.00  0.00     0.034 A 
ATOM     51  C   UNL A   1      43.995  25.480  28.701  1.00  0.00     0.049 A 
ATOM     52  C   UNL A   1      43.636  29.974  32.020  1.00  0.00     0.074 A 
ATOM     53  C   UNL A   1      44.925  26.348  28.152  1.00  0.00     0.029 A 
ATOM     54  N   UNL A   1      44.109  25.614  30.080  1.00  0.00    -0.354 N 
ATOM     55  N   UNL A   1      44.128  28.957  31.365  1.00  0.00    -0.248 NA
ATOM     56  C   UNL A   1      44.110  30.013  33.399  1.00  0.00     0.031 C 
ATOM     57  C   UNL A   1      45.561  27.047  29.219  1.00  0.00     0.029 A 
ATOM     58  C   UNL A   1      45.036  26.587  30.415  1.00  0.00     0.049 A 
ATOM     59  H   UNL A   1      43.597  25.086  30.735  1.00  0.00     0.167 HD
ATOM     60  C   UNL A   1      44.841  28.142  32.216  1.00  0.00     0.074 A 
ATOM     61  C   UNL A   1      44.865  28.903  33.456  1.00  0.00     0.031 C 
ATOM     62  C   UNL A   1      45.280  26.899  31.825  1.00  0.00     0.034 A 
BRANCH  49  63
ATOM     63  C   UNL A   1      43.081  23.564  27.145  1.00  0.00     0.023 A 
ATOM     64  C   UNL A   1      43.693  23.906  25.916  1.00  0.00     0.012 A 
ATOM     65  C   UNL A   1      42.639  22.223  27.244  1.00  0.00     0.148 A 
ATOM     66  C   UNL A   1      43.783  23.014  24.837  1.00  0.00     0.002 A 
ATOM     67  C   UNL A   1      42.702  21.337  26.164  1.00  0.00     0.091 A 
ATOM     68  F   UNL A   1      42.171  21.752  28.395  1.00  0.00    -0.205 F 
ATOM     69  C   UNL A   1      43.266  21.733  24.952  1.00  0.00     0.022 A 
BRANCH  67  70
ATOM     70  S   UNL A   1      42.018  19.667  26.241  1.00  0.00     0.127 S 
ATOM     71  O   UNL A   1      40.578  19.924  26.189  1.00  0.00    -0.237 OA
ATOM     72  O   UNL A   1      42.569  19.047  25.037  1.00  0.00    -0.237 OA
ATOM     73  O   UNL A   1      42.477  19.086  27.498  1.00  0.00    -0.744 OA
ENDBRANCH  67  70
ENDBRANCH  49  63
BRANCH  50  74
ATOM     74  C   UNL A   1      41.550  31.647  32.202  1.00  0.00     0.023 A 
ATOM     75  C   UNL A   1      41.228  32.974  31.824  1.00  0.00     0.012 A 
ATOM     76  C   UNL A   1      40.615  30.910  32.949  1.00  0.00     0.148 A 
ATOM     77  C   UNL A   1      39.964  33.507  32.072  1.00  0.00     0.002 A 
ATOM     78  C   UNL A   1      39.354  31.454  33.199  1.00  0.00     0.091 A 
ATOM     79  F   UNL A   1      40.937  29.668  33.331  1.00  0.00    -0.205 F 
ATOM     80  C   UNL A   1      39.016  32.735  32.731  1.00  0.00     0.022 A 
BRANCH  78  81
ATOM     81  S   UNL A   1      38.050  30.506  33.998  1.00  0.00     0.127 S 
ATOM     82  O   UNL A   1      38.489  30.525  35.391  1.00  0.00    -0.237 OA
ATOM     83  O   UNL A   1      36.863  31.312  33.714  1.00  0.00    -0.237 OA
ATOM     84  O   UNL A   1      38.066  29.213  33.332  1.00  0.00    -0.744 OA
ENDBRANCH  78  81
ENDBRANCH  50  74
BRANCH  62  85
ATOM     85  C   UNL A   1      45.925  25.816  32.703  1.00  0.00     0.023 A 
ATOM     86  C   UNL A   1      47.316  25.667  32.857  1.00  0.00     0.012 A 
ATOM     87  C   UNL A   1      45.129  24.936  33.495  1.00  0.00     0.148 A 
ATOM     88  C   UNL A   1      47.887  24.729  33.731  1.00  0.00     0.002 A 
ATOM     89  C   UNL A   1      45.697  24.067  34.429  1.00  0.00     0.091 A 
ATOM     90  F   UNL A   1      43.800  24.894  33.328  1.00  0.00    -0.205 F 
ATOM     91  C   UNL A   1      47.079  23.949  34.540  1.00  0.00     0.022 A 
BRANCH  89  92
ATOM     92  S   UNL A   1      44.671  23.166  35.601  1.00  0.00     0.127 S 
ATOM     93  O   UNL A   1      44.269  24.220  36.528  1.00  0.00    -0.237 OA
ATOM     94  O   UNL A   1      43.591  22.658  34.753  1.00  0.00    -0.237 OA
ATOM     95  O   UNL A   1      45.541  22.127  36.137  1.00  0.00    -0.744 OA
ENDBRANCH  89  92
ENDBRANCH  62  85
ENDBRANCH  36  37
ENDBRANCH  28  31
ENDBRANCH  26  27
ENDBRANCH  25  26
ENDBRANCH   1  25
TORSDOF 18
ENDMDL
MODEL 3
REMARK VINA RESULT:     -12.3      2.206      3.013
REMARK SMILES Cc1ccccc1O[C@H](C)C(=O)Oc1cccc(C(=O)NCCCNC(=O)c2ccc(-c3c4nc(c(-c5cccc(S(=O)(=O)[O-])c5F)c5ccc([nH]5)c(-c5cccc(S(=O)(=O)[O-])c5F)c5nc(c(-c6cccc(S(=O)(=O)[O-])c6F)c6ccc3[nH]6)C=C5)C=C4)cc2)c1
REMARK SMILES IDX 22 1 21 2 19 3 20 4 18 6 14 7 15 8 91 9 16 10 17 11 13 12
REMARK SMILES IDX 11 13 12 14 9 15 10 16 8 17 7 18 1 19 2 20 3 21 4 22 6 23
REMARK SMILES IDX 5 24 23 25 24 26 25 27 26 28 27 30 28 31 29 32 90 33 30 34
REMARK SMILES IDX 89 35 31 36 32 37 33 38 83 39 34 40 88 41 82 42 84 43 35 44
REMARK SMILES IDX 87 45 81 46 80 47 36 49 68 50 48 51 67 52 49 53 52 54 66 55
REMARK SMILES IDX 85 56 50 57 51 58 65 60 86 61 53 62 37 63 38 64 46 65 39 66
REMARK SMILES IDX 41 67 47 68 40 69 42 70 43 71 44 72 45 73 69 74 70 75 78 76
REMARK SMILES IDX 71 77 73 78 79 79 72 80 74 81 75 82 76 83 77 84 54 85 55 86
REMARK SMILES IDX 63 87 56 88 58 89 64 90 57 91 59 92 60 93 61 94 62 95
REMARK H PARENT 21 5 25 29 84 48 52 59
REMARK Flexibility Score: inf
ROOT
ATOM      1  C   UNL A   1      33.372  28.178  26.819  1.00  0.00     0.118 C 
ENDROOT
BRANCH   1   2
ATOM      2  N   UNL A   1      32.240  27.283  26.983  1.00  0.00    -0.352 N 
ATOM      3  C   UNL A   1      31.770  26.264  26.190  1.00  0.00     0.251 C 
ATOM      4  O   UNL A   1      30.837  25.580  26.609  1.00  0.00    -0.269 OA
ATOM      5  H   UNL A   1      31.720  27.432  27.805  1.00  0.00     0.163 HD
BRANCH   3   6
ATOM      6  C   UNL A   1      32.355  25.919  24.863  1.00  0.00     0.043 A 
ATOM      7  C   UNL A   1      33.712  24.356  23.595  1.00  0.00     0.131 A 
ATOM      8  C   UNL A   1      33.423  25.024  22.411  1.00  0.00     0.047 A 
ATOM      9  C   UNL A   1      33.181  24.789  24.813  1.00  0.00     0.061 A 
ATOM     10  C   UNL A   1      32.598  26.142  22.449  1.00  0.00     0.005 A 
ATOM     11  C   UNL A   1      32.058  26.574  23.664  1.00  0.00     0.014 A 
BRANCH   7  12
ATOM     12  O   UNL A   1      34.434  23.146  23.655  1.00  0.00    -0.424 OA
BRANCH  12  13
ATOM     13  C   UNL A   1      35.550  22.936  24.460  1.00  0.00     0.352 C 
ATOM     14  O   UNL A   1      36.243  23.808  24.972  1.00  0.00    -0.247 OA
BRANCH  13  15
ATOM     15  C   UNL A   1      35.792  21.429  24.647  1.00  0.00     0.280 C 
ATOM     16  C   UNL A   1      37.204  21.087  25.115  1.00  0.00     0.066 C 
BRANCH  15  17
ATOM     17  O   UNL A   1      34.806  20.617  25.273  1.00  0.00    -0.479 OA
BRANCH  17  18
ATOM     18  C   UNL A   1      34.290  19.497  24.690  1.00  0.00     0.123 A 
ATOM     19  C   UNL A   1      32.169  20.869  24.339  1.00  0.00     0.048 C 
ATOM     20  C   UNL A   1      32.969  19.601  24.216  1.00  0.00    -0.009 A 
ATOM     21  C   UNL A   1      32.379  18.512  23.548  1.00  0.00     0.007 A 
ATOM     22  C   UNL A   1      33.083  17.326  23.364  1.00  0.00     0.001 A 
ATOM     23  C   UNL A   1      34.995  18.313  24.465  1.00  0.00     0.047 A 
ATOM     24  C   UNL A   1      34.390  17.227  23.823  1.00  0.00     0.004 A 
ENDBRANCH  17  18
ENDBRANCH  15  17
ENDBRANCH  13  15
ENDBRANCH  12  13
ENDBRANCH   7  12
ENDBRANCH   3   6
ENDBRANCH   1   2
BRANCH   1  25
ATOM     25  C   UNL A   1      33.139  29.506  27.535  1.00  0.00     0.042 C 
BRANCH  25  26
ATOM     26  C   UNL A   1      33.951  30.657  26.971  1.00  0.00     0.118 C 
BRANCH  26  27
ATOM     27  N   UNL A   1      34.404  31.597  27.991  1.00  0.00    -0.352 N 
ATOM     28  C   UNL A   1      35.423  31.434  28.915  1.00  0.00     0.251 C 
ATOM     29  H   UNL A   1      33.926  32.455  28.027  1.00  0.00     0.163 HD
ATOM     30  O   UNL A   1      35.623  32.296  29.765  1.00  0.00    -0.269 OA
BRANCH  28  31
ATOM     31  C   UNL A   1      36.315  30.262  28.772  1.00  0.00     0.039 A 
ATOM     32  C   UNL A   1      36.611  29.521  29.920  1.00  0.00     0.014 A 
ATOM     33  C   UNL A   1      37.064  30.107  27.610  1.00  0.00     0.014 A 
ATOM     34  C   UNL A   1      37.813  28.822  29.988  1.00  0.00     0.010 A 
ATOM     35  C   UNL A   1      38.301  29.507  27.709  1.00  0.00     0.010 A 
ATOM     36  C   UNL A   1      38.700  28.927  28.921  1.00  0.00    -0.014 A 
BRANCH  36  37
ATOM     37  C   UNL A   1      40.100  28.534  28.970  1.00  0.00     0.031 A 
ATOM     38  C   UNL A   1      40.474  27.118  28.802  1.00  0.00     0.074 A 
ATOM     39  C   UNL A   1      41.056  29.489  28.968  1.00  0.00     0.049 A 
ATOM     40  N   UNL A   1      41.653  26.649  29.019  1.00  0.00    -0.248 NA
ATOM     41  C   UNL A   1      39.505  26.098  28.423  1.00  0.00     0.031 C 
ATOM     42  C   UNL A   1      42.455  29.335  28.584  1.00  0.00     0.029 A 
ATOM     43  N   UNL A   1      41.002  30.754  29.561  1.00  0.00    -0.354 N 
ATOM     44  C   UNL A   1      41.686  25.367  28.517  1.00  0.00     0.074 A 
ATOM     45  C   UNL A   1      40.302  25.037  28.283  1.00  0.00     0.031 C 
ATOM     46  C   UNL A   1      43.174  30.285  29.196  1.00  0.00     0.029 A 
ATOM     47  C   UNL A   1      42.279  30.962  30.115  1.00  0.00     0.049 A 
ATOM     48  H   UNL A   1      40.234  31.370  29.587  1.00  0.00     0.167 HD
ATOM     49  C   UNL A   1      42.897  24.815  28.224  1.00  0.00     0.034 A 
ATOM     50  C   UNL A   1      42.508  31.145  31.446  1.00  0.00     0.034 A 
ATOM     51  C   UNL A   1      43.992  25.632  28.779  1.00  0.00     0.049 A 
ATOM     52  C   UNL A   1      43.492  30.153  32.042  1.00  0.00     0.074 A 
ATOM     53  C   UNL A   1      44.917  26.511  28.238  1.00  0.00     0.029 A 
ATOM     54  N   UNL A   1      44.078  25.783  30.159  1.00  0.00    -0.354 N 
ATOM     55  N   UNL A   1      44.014  29.139  31.408  1.00  0.00    -0.248 NA
ATOM     56  C   UNL A   1      43.939  30.215  33.429  1.00  0.00     0.031 C 
ATOM     57  C   UNL A   1      45.520  27.232  29.309  1.00  0.00     0.029 A 
ATOM     58  C   UNL A   1      44.981  26.776  30.500  1.00  0.00     0.049 A 
ATOM     59  H   UNL A   1      43.564  25.252  30.809  1.00  0.00     0.167 HD
ATOM     60  C   UNL A   1      44.725  28.346  32.280  1.00  0.00     0.074 A 
ATOM     61  C   UNL A   1      44.714  29.120  33.512  1.00  0.00     0.031 C 
ATOM     62  C   UNL A   1      45.194  27.106  31.911  1.00  0.00     0.034 A 
BRANCH  49  63
ATOM     63  C   UNL A   1      43.142  23.684  27.227  1.00  0.00     0.023 A 
ATOM     64  C   UNL A   1      43.876  23.999  26.059  1.00  0.00     0.012 A 
ATOM     65  C   UNL A   1      42.633  22.364  27.280  1.00  0.00     0.148 A 
ATOM     66  C   UNL A   1      44.021  23.106  24.988  1.00  0.00     0.002 A 
ATOM     67  C   UNL A   1      42.752  21.477  26.205  1.00  0.00     0.091 A 
ATOM     68  F   UNL A   1      42.044  21.912  28.382  1.00  0.00    -0.205 F 
ATOM     69  C   UNL A   1      43.439  21.849  25.050  1.00  0.00     0.022 A 
BRANCH  67  70
ATOM     70  S   UNL A   1      41.990  19.839  26.211  1.00  0.00     0.127 S 
ATOM     71  O   UNL A   1      40.570  20.164  26.071  1.00  0.00    -0.237 OA
ATOM     72  O   UNL A   1      42.589  19.211  25.036  1.00  0.00    -0.237 OA
ATOM     73  O   UNL A   1      42.340  19.223  27.486  1.00  0.00    -0.744 OA
ENDBRANCH  67  70
ENDBRANCH  49  63
BRANCH  50  74
ATOM     74  C   UNL A   1      41.374  31.790  32.168  1.00  0.00     0.023 A 
ATOM     75  C   UNL A   1      41.075  33.129  31.813  1.00  0.00     0.012 A 
ATOM     76  C   UNL A   1      40.405  31.040  32.858  1.00  0.00     0.148 A 
ATOM     77  C   UNL A   1      39.805  33.664  32.025  1.00  0.00     0.002 A 
ATOM     78  C   UNL A   1      39.138  31.586  33.071  1.00  0.00     0.091 A 
ATOM     79  F   UNL A   1      40.703  29.786  33.218  1.00  0.00    -0.205 F 
ATOM     80  C   UNL A   1      38.827  32.881  32.625  1.00  0.00     0.022 A 
BRANCH  78  81
ATOM     81  S   UNL A   1      37.797  30.627  33.791  1.00  0.00     0.127 S 
ATOM     82  O   UNL A   1      38.034  30.823  35.219  1.00  0.00    -0.237 OA
ATOM     83  O   UNL A   1      36.614  31.304  33.263  1.00  0.00    -0.237 OA
ATOM     84  O   UNL A   1      37.989  29.277  33.284  1.00  0.00    -0.744 OA
ENDBRANCH  78  81
ENDBRANCH  50  74
BRANCH  62  85
ATOM     85  C   UNL A   1      45.842  26.044  32.812  1.00  0.00     0.023 A 
ATOM     86  C   UNL A   1      47.232  25.928  33.000  1.00  0.00     0.012 A 
ATOM     87  C   UNL A   1      45.047  25.152  33.592  1.00  0.00     0.148 A 
ATOM     88  C   UNL A   1      47.803  25.009  33.895  1.00  0.00     0.002 A 
ATOM     89  C   UNL A   1      45.612  24.303  34.545  1.00  0.00     0.091 A 
ATOM     90  F   UNL A   1      43.724  25.080  33.394  1.00  0.00    -0.205 F 
ATOM     91  C   UNL A   1      46.993  24.218  34.690  1.00  0.00     0.022 A 
BRANCH  89  92
ATOM     92  S   UNL A   1      44.579  23.387  35.700  1.00  0.00     0.127 S 
ATOM     93  O   UNL A   1      45.541  22.993  36.725  1.00  0.00    -0.237 OA
ATOM     94  O   UNL A   1      43.612  24.399  36.131  1.00  0.00    -0.237 OA
ATOM     95  O   UNL A   1      43.997  22.312  34.907  1.00  0.00    -0.744 OA
ENDBRANCH  89  92
ENDBRANCH  62  85
ENDBRANCH  36  37
ENDBRANCH  28  31
ENDBRANCH  26  27
ENDBRANCH  25  26
ENDBRANCH   1  25
TORSDOF 18
ENDMDL
