MODEL 1
REMARK VINA RESULT:     -12.2      0.000      0.000
REMARK SMILES Cc1cc(C)n(CC(=O)N[C@H]2C=C[C@@H](C(=O)NCCCNC(=O)c3ccc(-c4c5nc(c(-c6cccc(S(=O)(=O)[O-])c6F)c6ccc([nH]6)c(-c6cccc(S(=O)(=O)[O-])c6F)c6nc(c(-c7cccc(S(=O)(=O)[O-])c7F)c7ccc4[nH]7)C=C6)C=C5)cc3)C2)n1
REMARK SMILES IDX 19 1 18 2 17 3 15 4 16 5 14 7 11 8 12 9 87 10 13 11 10 12
REMARK SMILES IDX 8 13 9 14 7 16 6 17 1 18 2 19 3 20 88 21 4 22 5 23 20 24
REMARK SMILES IDX 21 25 22 26 23 28 24 29 25 30 86 31 26 32 85 33 27 34 28 35
REMARK SMILES IDX 29 36 79 37 30 38 84 39 78 40 80 41 31 42 83 43 77 44 76 45
REMARK SMILES IDX 32 47 64 48 44 49 63 50 45 51 48 52 62 53 81 54 46 55 47 56
REMARK SMILES IDX 61 58 82 59 49 60 33 61 34 62 42 63 35 64 37 65 43 66 36 67
REMARK SMILES IDX 38 68 39 69 40 70 41 71 65 72 66 73 74 74 67 75 69 76 75 77
REMARK SMILES IDX 68 78 70 79 71 80 72 81 73 82 50 83 51 84 59 85 52 86 54 87
REMARK SMILES IDX 60 88 53 89 55 90 56 91 57 92 58 93
REMARK H PARENT 17 6 10 15 21 27 80 46 48 57
REMARK Flexibility Score: inf
ROOT
ATOM      1  C   UNL A   1      37.829  21.336  24.865  1.00  0.00     0.042 C 
ENDROOT
BRANCH   1   2
ATOM      2  C   UNL A   1      36.522  21.037  25.599  1.00  0.00     0.117 C 
BRANCH   2   3
ATOM      3  N   UNL A   1      35.884  22.194  26.185  1.00  0.00    -0.356 N 
ATOM      4  C   UNL A   1      34.557  22.506  26.167  1.00  0.00     0.227 C 
ATOM      5  O   UNL A   1      34.093  23.047  27.176  1.00  0.00    -0.274 OA
ATOM      6  H   UNL A   1      36.474  22.830  26.649  1.00  0.00     0.163 HD
BRANCH   4   7
ATOM      7  C   UNL A   1      33.621  22.208  24.988  1.00  0.00     0.103 C 
ATOM      8  C   UNL A   1      31.355  22.974  24.331  1.00  0.00     0.106 C 
ATOM      9  C   UNL A   1      32.427  23.626  23.547  1.00  0.00    -0.006 C 
ATOM     10  C   UNL A   1      32.124  21.969  25.227  1.00  0.00     0.047 C 
ATOM     11  C   UNL A   1      33.652  23.242  23.916  1.00  0.00    -0.016 C 
BRANCH   8  12
ATOM     12  N   UNL A   1      30.526  23.863  25.142  1.00  0.00    -0.348 N 
ATOM     13  C   UNL A   1      30.701  24.980  25.890  1.00  0.00     0.242 C 
ATOM     14  O   UNL A   1      29.667  25.489  26.344  1.00  0.00    -0.273 OA
ATOM     15  H   UNL A   1      29.585  23.572  25.144  1.00  0.00     0.164 HD
BRANCH  13  16
ATOM     16  C   UNL A   1      32.038  25.616  26.190  1.00  0.00     0.244 C 
BRANCH  16  17
ATOM     17  N   UNL A   1      32.156  26.950  25.630  1.00  0.00    -0.260 N 
ATOM     18  C   UNL A   1      33.244  28.920  22.900  1.00  0.00     0.069 C 
ATOM     19  C   UNL A   1      32.652  28.399  24.158  1.00  0.00     0.060 A 
ATOM     20  C   UNL A   1      32.284  29.116  25.320  1.00  0.00     0.048 A 
ATOM     21  N   UNL A   1      32.456  27.088  24.324  1.00  0.00    -0.178 NA
ATOM     22  C   UNL A   1      31.962  28.154  26.261  1.00  0.00     0.036 A 
ATOM     23  C   UNL A   1      31.562  28.285  27.687  1.00  0.00     0.066 C 
ENDBRANCH  16  17
ENDBRANCH  13  16
ENDBRANCH   8  12
ENDBRANCH   4   7
ENDBRANCH   2   3
ENDBRANCH   1   2
BRANCH   1  24
ATOM     24  C   UNL A   1      39.029  21.296  25.811  1.00  0.00     0.118 C 
BRANCH  24  25
ATOM     25  N   UNL A   1      39.718  19.998  25.782  1.00  0.00    -0.352 N 
ATOM     26  C   UNL A   1      41.067  19.693  25.944  1.00  0.00     0.251 C 
ATOM     27  H   UNL A   1      39.134  19.222  25.622  1.00  0.00     0.163 HD
ATOM     28  O   UNL A   1      41.537  18.614  25.687  1.00  0.00    -0.269 OA
BRANCH  26  29
ATOM     29  C   UNL A   1      41.900  20.766  26.504  1.00  0.00     0.039 A 
ATOM     30  C   UNL A   1      42.436  21.772  25.700  1.00  0.00     0.014 A 
ATOM     31  C   UNL A   1      41.881  20.853  27.884  1.00  0.00     0.014 A 
ATOM     32  C   UNL A   1      42.796  22.973  26.307  1.00  0.00     0.010 A 
ATOM     33  C   UNL A   1      42.030  22.094  28.432  1.00  0.00     0.010 A 
ATOM     34  C   UNL A   1      42.517  23.158  27.669  1.00  0.00    -0.014 A 
BRANCH  34  35
ATOM     35  C   UNL A   1      42.537  24.491  28.276  1.00  0.00     0.031 A 
ATOM     36  C   UNL A   1      41.305  25.321  28.115  1.00  0.00     0.074 A 
ATOM     37  C   UNL A   1      43.460  24.858  29.192  1.00  0.00     0.049 A 
ATOM     38  N   UNL A   1      41.201  26.454  27.502  1.00  0.00    -0.248 NA
ATOM     39  C   UNL A   1      40.027  24.807  28.629  1.00  0.00     0.031 C 
ATOM     40  C   UNL A   1      44.573  24.064  29.735  1.00  0.00     0.029 A 
ATOM     41  N   UNL A   1      43.473  25.966  29.981  1.00  0.00    -0.354 N 
ATOM     42  C   UNL A   1      39.905  26.908  27.745  1.00  0.00     0.074 A 
ATOM     43  C   UNL A   1      39.184  25.783  28.281  1.00  0.00     0.031 C 
ATOM     44  C   UNL A   1      44.924  24.553  30.941  1.00  0.00     0.029 A 
ATOM     45  C   UNL A   1      44.246  25.819  31.125  1.00  0.00     0.049 A 
ATOM     46  H   UNL A   1      42.982  26.791  29.763  1.00  0.00     0.167 HD
ATOM     47  C   UNL A   1      39.593  28.236  27.699  1.00  0.00     0.034 A 
ATOM     48  C   UNL A   1      44.333  26.676  32.163  1.00  0.00     0.034 A 
ATOM     49  C   UNL A   1      40.663  29.011  27.121  1.00  0.00     0.049 A 
ATOM     50  C   UNL A   1      43.939  28.005  31.650  1.00  0.00     0.074 A 
ATOM     51  C   UNL A   1      41.347  29.016  25.922  1.00  0.00     0.029 A 
ATOM     52  N   UNL A   1      41.431  29.742  27.994  1.00  0.00    -0.354 N 
ATOM     53  N   UNL A   1      44.613  28.652  30.738  1.00  0.00    -0.248 NA
ATOM     54  C   UNL A   1      42.578  28.466  31.863  1.00  0.00     0.031 C 
ATOM     55  C   UNL A   1      42.695  29.330  26.273  1.00  0.00     0.029 A 
ATOM     56  C   UNL A   1      42.742  29.547  27.653  1.00  0.00     0.049 A 
ATOM     57  H   UNL A   1      41.100  30.303  28.732  1.00  0.00     0.167 HD
ATOM     58  C   UNL A   1      43.641  29.266  29.959  1.00  0.00     0.074 A 
ATOM     59  C   UNL A   1      42.441  29.254  30.792  1.00  0.00     0.031 C 
ATOM     60  C   UNL A   1      43.823  29.452  28.616  1.00  0.00     0.034 A 
BRANCH  47  61
ATOM     61  C   UNL A   1      38.489  28.922  28.477  1.00  0.00     0.023 A 
ATOM     62  C   UNL A   1      37.594  29.742  27.747  1.00  0.00     0.012 A 
ATOM     63  C   UNL A   1      38.440  29.029  29.884  1.00  0.00     0.148 A 
ATOM     64  C   UNL A   1      36.741  30.656  28.378  1.00  0.00     0.002 A 
ATOM     65  C   UNL A   1      37.528  29.876  30.510  1.00  0.00     0.091 A 
ATOM     66  F   UNL A   1      39.365  28.424  30.635  1.00  0.00    -0.205 F 
ATOM     67  C   UNL A   1      36.700  30.717  29.763  1.00  0.00     0.022 A 
BRANCH  65  68
ATOM     68  S   UNL A   1      37.392  29.926  32.301  1.00  0.00     0.127 S 
ATOM     69  O   UNL A   1      38.689  30.477  32.679  1.00  0.00    -0.237 OA
ATOM     70  O   UNL A   1      36.255  30.826  32.497  1.00  0.00    -0.237 OA
ATOM     71  O   UNL A   1      37.130  28.547  32.695  1.00  0.00    -0.744 OA
ENDBRANCH  65  68
ENDBRANCH  47  61
BRANCH  48  72
ATOM     72  C   UNL A   1      44.627  26.398  33.581  1.00  0.00     0.023 A 
ATOM     73  C   UNL A   1      45.953  26.449  34.042  1.00  0.00     0.012 A 
ATOM     74  C   UNL A   1      43.584  26.317  34.533  1.00  0.00     0.148 A 
ATOM     75  C   UNL A   1      46.235  26.453  35.412  1.00  0.00     0.002 A 
ATOM     76  C   UNL A   1      43.870  26.316  35.894  1.00  0.00     0.091 A 
ATOM     77  F   UNL A   1      42.314  26.330  34.102  1.00  0.00    -0.205 F 
ATOM     78  C   UNL A   1      45.196  26.395  36.338  1.00  0.00     0.022 A 
BRANCH  76  79
ATOM     79  S   UNL A   1      42.578  26.259  37.144  1.00  0.00     0.127 S 
ATOM     80  O   UNL A   1      41.803  27.463  36.842  1.00  0.00    -0.237 OA
ATOM     81  O   UNL A   1      41.905  25.003  36.825  1.00  0.00    -0.237 OA
ATOM     82  O   UNL A   1      43.274  26.301  38.424  1.00  0.00    -0.744 OA
ENDBRANCH  76  79
ENDBRANCH  48  72
BRANCH  60  83
ATOM     83  C   UNL A   1      45.206  29.240  28.039  1.00  0.00     0.023 A 
ATOM     84  C   UNL A   1      46.224  30.208  28.165  1.00  0.00     0.012 A 
ATOM     85  C   UNL A   1      45.546  27.975  27.529  1.00  0.00     0.148 A 
ATOM     86  C   UNL A   1      47.537  29.937  27.771  1.00  0.00     0.002 A 
ATOM     87  C   UNL A   1      46.863  27.691  27.180  1.00  0.00     0.091 A 
ATOM     88  F   UNL A   1      44.578  27.052  27.419  1.00  0.00    -0.205 F 
ATOM     89  C   UNL A   1      47.860  28.673  27.290  1.00  0.00     0.022 A 
BRANCH  87  90
ATOM     90  S   UNL A   1      47.363  26.041  26.680  1.00  0.00     0.127 S 
ATOM     91  O   UNL A   1      46.535  25.813  25.498  1.00  0.00    -0.237 OA
ATOM     92  O   UNL A   1      48.791  26.208  26.402  1.00  0.00    -0.237 OA
ATOM     93  O   UNL A   1      47.083  25.182  27.825  1.00  0.00    -0.744 OA
ENDBRANCH  87  90
ENDBRANCH  60  83
ENDBRANCH  34  35
ENDBRANCH  26  29
ENDBRANCH  24  25
ENDBRANCH   1  24
TORSDOF 16
ENDMDL
MODEL 2
REMARK VINA RESULT:     -12.0      1.723      2.141
REMARK SMILES Cc1cc(C)n(CC(=O)N[C@H]2C=C[C@@H](C(=O)NCCCNC(=O)c3ccc(-c4c5nc(c(-c6cccc(S(=O)(=O)[O-])c6F)c6ccc([nH]6)c(-c6cccc(S(=O)(=O)[O-])c6F)c6nc(c(-c7cccc(S(=O)(=O)[O-])c7F)c7ccc4[nH]7)C=C6)C=C5)cc3)C2)n1
REMARK SMILES IDX 19 1 18 2 17 3 15 4 16 5 14 7 11 8 12 9 87 10 13 11 10 12
REMARK SMILES IDX 8 13 9 14 7 16 6 17 1 18 2 19 3 20 88 21 4 22 5 23 20 24
REMARK SMILES IDX 21 25 22 26 23 28 24 29 25 30 86 31 26 32 85 33 27 34 28 35
REMARK SMILES IDX 29 36 79 37 30 38 84 39 78 40 80 41 31 42 83 43 77 44 76 45
REMARK SMILES IDX 32 47 64 48 44 49 63 50 45 51 48 52 62 53 81 54 46 55 47 56
REMARK SMILES IDX 61 58 82 59 49 60 33 61 34 62 42 63 35 64 37 65 43 66 36 67
REMARK SMILES IDX 38 68 39 69 40 70 41 71 65 72 66 73 74 74 67 75 69 76 75 77
REMARK SMILES IDX 68 78 70 79 71 80 72 81 73 82 50 83 51 84 59 85 52 86 54 87
REMARK SMILES IDX 60 88 53 89 55 90 56 91 57 92 58 93
REMARK H PARENT 17 6 10 15 21 27 80 46 48 57
REMARK Flexibility Score: inf
ROOT
ATOM      1  C   UNL A   1      38.029  21.103  25.016  1.00  0.00     0.042 C 
ENDROOT
BRANCH   1   2
ATOM      2  C   UNL A   1      36.759  21.518  25.759  1.00  0.00     0.117 C 
BRANCH   2   3
ATOM      3  N   UNL A   1      35.605  20.694  25.482  1.00  0.00    -0.356 N 
ATOM      4  C   UNL A   1      34.320  21.105  25.291  1.00  0.00     0.227 C 
ATOM      5  O   UNL A   1      33.650  20.487  24.457  1.00  0.00    -0.274 OA
ATOM      6  H   UNL A   1      35.764  19.724  25.427  1.00  0.00     0.163 HD
BRANCH   4   7
ATOM      7  C   UNL A   1      33.677  22.287  26.028  1.00  0.00     0.103 C 
ATOM      8  C   UNL A   1      32.400  24.293  25.320  1.00  0.00     0.106 C 
ATOM      9  C   UNL A   1      31.533  23.235  25.888  1.00  0.00    -0.006 C 
ATOM     10  C   UNL A   1      33.829  23.715  25.487  1.00  0.00     0.047 C 
ATOM     11  C   UNL A   1      32.210  22.140  26.243  1.00  0.00    -0.016 C 
BRANCH   8  12
ATOM     12  N   UNL A   1      32.144  24.647  23.927  1.00  0.00    -0.348 N 
ATOM     13  C   UNL A   1      31.324  25.487  23.246  1.00  0.00     0.242 C 
ATOM     14  O   UNL A   1      31.515  25.549  22.024  1.00  0.00    -0.273 OA
ATOM     15  H   UNL A   1      32.725  24.138  23.315  1.00  0.00     0.164 HD
BRANCH  13  16
ATOM     16  C   UNL A   1      30.232  26.321  23.874  1.00  0.00     0.244 C 
BRANCH  16  17
ATOM     17  N   UNL A   1      30.726  27.585  24.387  1.00  0.00    -0.260 N 
ATOM     18  C   UNL A   1      31.971  29.349  27.189  1.00  0.00     0.069 C 
ATOM     19  C   UNL A   1      31.532  28.906  25.842  1.00  0.00     0.060 A 
ATOM     20  C   UNL A   1      31.196  29.700  24.721  1.00  0.00     0.048 A 
ATOM     21  N   UNL A   1      31.351  27.609  25.580  1.00  0.00    -0.178 NA
ATOM     22  C   UNL A   1      30.678  28.820  23.788  1.00  0.00     0.036 A 
ATOM     23  C   UNL A   1      30.098  29.063  22.440  1.00  0.00     0.066 C 
ENDBRANCH  16  17
ENDBRANCH  13  16
ENDBRANCH   8  12
ENDBRANCH   4   7
ENDBRANCH   2   3
ENDBRANCH   1   2
BRANCH   1  24
ATOM     24  C   UNL A   1      39.253  21.137  25.932  1.00  0.00     0.118 C 
BRANCH  24  25
ATOM     25  N   UNL A   1      40.018  19.881  25.885  1.00  0.00    -0.352 N 
ATOM     26  C   UNL A   1      41.388  19.659  25.994  1.00  0.00     0.251 C 
ATOM     27  H   UNL A   1      39.475  19.070  25.758  1.00  0.00     0.163 HD
ATOM     28  O   UNL A   1      41.911  18.607  25.727  1.00  0.00    -0.269 OA
BRANCH  26  29
ATOM     29  C   UNL A   1      42.177  20.787  26.508  1.00  0.00     0.039 A 
ATOM     30  C   UNL A   1      42.568  21.843  25.684  1.00  0.00     0.014 A 
ATOM     31  C   UNL A   1      42.262  20.854  27.886  1.00  0.00     0.014 A 
ATOM     32  C   UNL A   1      42.881  23.060  26.285  1.00  0.00     0.010 A 
ATOM     33  C   UNL A   1      42.357  22.095  28.445  1.00  0.00     0.010 A 
ATOM     34  C   UNL A   1      42.698  23.205  27.668  1.00  0.00    -0.014 A 
BRANCH  34  35
ATOM     35  C   UNL A   1      42.663  24.526  28.297  1.00  0.00     0.031 A 
ATOM     36  C   UNL A   1      41.428  25.340  28.084  1.00  0.00     0.074 A 
ATOM     37  C   UNL A   1      43.530  24.891  29.268  1.00  0.00     0.049 A 
ATOM     38  N   UNL A   1      41.340  26.482  27.485  1.00  0.00    -0.248 NA
ATOM     39  C   UNL A   1      40.133  24.797  28.518  1.00  0.00     0.031 C 
ATOM     40  C   UNL A   1      44.623  24.105  29.858  1.00  0.00     0.029 A 
ATOM     41  N   UNL A   1      43.481  25.985  30.076  1.00  0.00    -0.354 N 
ATOM     42  C   UNL A   1      40.024  26.912  27.664  1.00  0.00     0.074 A 
ATOM     43  C   UNL A   1      39.294  25.766  28.142  1.00  0.00     0.031 C 
ATOM     44  C   UNL A   1      44.901  24.577  31.089  1.00  0.00     0.029 A 
ATOM     45  C   UNL A   1      44.193  25.829  31.258  1.00  0.00     0.049 A 
ATOM     46  H   UNL A   1      42.989  26.806  29.846  1.00  0.00     0.167 HD
ATOM     47  C   UNL A   1      39.693  28.235  27.624  1.00  0.00     0.034 A 
ATOM     48  C   UNL A   1      44.210  26.669  32.314  1.00  0.00     0.034 A 
ATOM     49  C   UNL A   1      40.781  29.036  27.119  1.00  0.00     0.049 A 
ATOM     50  C   UNL A   1      43.822  28.001  31.802  1.00  0.00     0.074 A 
ATOM     51  C   UNL A   1      41.529  29.074  25.960  1.00  0.00     0.029 A 
ATOM     52  N   UNL A   1      41.488  29.763  28.045  1.00  0.00    -0.354 N 
ATOM     53  N   UNL A   1      44.534  28.674  30.939  1.00  0.00    -0.248 NA
ATOM     54  C   UNL A   1      42.445  28.437  31.949  1.00  0.00     0.031 C 
ATOM     55  C   UNL A   1      42.850  29.402  26.388  1.00  0.00     0.029 A 
ATOM     56  C   UNL A   1      42.819  29.595  27.772  1.00  0.00     0.049 A 
ATOM     57  H   UNL A   1      41.108  30.306  28.773  1.00  0.00     0.167 HD
ATOM     58  C   UNL A   1      43.596  29.287  30.119  1.00  0.00     0.074 A 
ATOM     59  C   UNL A   1      42.353  29.241  30.885  1.00  0.00     0.031 C 
ATOM     60  C   UNL A   1      43.847  29.500  28.791  1.00  0.00     0.034 A 
BRANCH  47  61
ATOM     61  C   UNL A   1      38.538  28.890  28.353  1.00  0.00     0.023 A 
ATOM     62  C   UNL A   1      37.656  29.688  27.584  1.00  0.00     0.012 A 
ATOM     63  C   UNL A   1      38.423  28.992  29.756  1.00  0.00     0.148 A 
ATOM     64  C   UNL A   1      36.751  30.577  28.177  1.00  0.00     0.002 A 
ATOM     65  C   UNL A   1      37.462  29.813  30.341  1.00  0.00     0.091 A 
ATOM     66  F   UNL A   1      39.329  28.409  30.548  1.00  0.00    -0.205 F 
ATOM     67  C   UNL A   1      36.646  30.633  29.559  1.00  0.00     0.022 A 
BRANCH  65  68
ATOM     68  S   UNL A   1      37.243  29.856  32.124  1.00  0.00     0.127 S 
ATOM     69  O   UNL A   1      38.395  30.649  32.543  1.00  0.00    -0.237 OA
ATOM     70  O   UNL A   1      35.948  30.523  32.259  1.00  0.00    -0.237 OA
ATOM     71  O   UNL A   1      37.234  28.456  32.534  1.00  0.00    -0.744 OA
ENDBRANCH  65  68
ENDBRANCH  47  61
BRANCH  48  72
ATOM     72  C   UNL A   1      44.431  26.371  33.740  1.00  0.00     0.023 A 
ATOM     73  C   UNL A   1      45.734  26.392  34.265  1.00  0.00     0.012 A 
ATOM     74  C   UNL A   1      43.342  26.299  34.641  1.00  0.00     0.148 A 
ATOM     75  C   UNL A   1      45.951  26.375  35.646  1.00  0.00     0.002 A 
ATOM     76  C   UNL A   1      43.563  26.278  36.014  1.00  0.00     0.091 A 
ATOM     77  F   UNL A   1      42.094  26.341  34.150  1.00  0.00    -0.205 F 
ATOM     78  C   UNL A   1      44.867  26.327  36.521  1.00  0.00     0.022 A 
BRANCH  76  79
ATOM     79  S   UNL A   1      42.212  26.232  37.201  1.00  0.00     0.127 S 
ATOM     80  O   UNL A   1      42.923  26.295  38.479  1.00  0.00    -0.237 OA
ATOM     81  O   UNL A   1      41.466  27.438  36.855  1.00  0.00    -0.237 OA
ATOM     82  O   UNL A   1      41.528  24.968  36.960  1.00  0.00    -0.744 OA
ENDBRANCH  76  79
ENDBRANCH  48  72
BRANCH  60  83
ATOM     83  C   UNL A   1      45.263  29.319  28.287  1.00  0.00     0.023 A 
ATOM     84  C   UNL A   1      45.726  28.082  27.792  1.00  0.00     0.012 A 
ATOM     85  C   UNL A   1      46.082  30.450  28.131  1.00  0.00     0.148 A 
ATOM     86  C   UNL A   1      46.979  27.967  27.184  1.00  0.00     0.002 A 
ATOM     87  C   UNL A   1      47.310  30.344  27.484  1.00  0.00     0.091 A 
ATOM     88  F   UNL A   1      45.634  31.629  28.594  1.00  0.00    -0.205 F 
ATOM     89  C   UNL A   1      47.767  29.101  27.018  1.00  0.00     0.022 A 
BRANCH  87  90
ATOM     90  S   UNL A   1      48.306  31.793  27.124  1.00  0.00     0.127 S 
ATOM     91  O   UNL A   1      48.475  32.386  28.448  1.00  0.00    -0.237 OA
ATOM     92  O   UNL A   1      49.524  31.212  26.555  1.00  0.00    -0.237 OA
ATOM     93  O   UNL A   1      47.528  32.577  26.172  1.00  0.00    -0.744 OA
ENDBRANCH  87  90
ENDBRANCH  60  83
ENDBRANCH  34  35
ENDBRANCH  26  29
ENDBRANCH  24  25
ENDBRANCH   1  24
TORSDOF 16
ENDMDL
MODEL 3
REMARK VINA RESULT:     -11.8      3.859      9.305
REMARK SMILES Cc1cc(C)n(CC(=O)N[C@H]2C=C[C@@H](C(=O)NCCCNC(=O)c3ccc(-c4c5nc(c(-c6cccc(S(=O)(=O)[O-])c6F)c6ccc([nH]6)c(-c6cccc(S(=O)(=O)[O-])c6F)c6nc(c(-c7cccc(S(=O)(=O)[O-])c7F)c7ccc4[nH]7)C=C6)C=C5)cc3)C2)n1
REMARK SMILES IDX 19 1 18 2 17 3 15 4 16 5 14 7 11 8 12 9 87 10 13 11 10 12
REMARK SMILES IDX 8 13 9 14 7 16 6 17 1 18 2 19 3 20 88 21 4 22 5 23 20 24
REMARK SMILES IDX 21 25 22 26 23 28 24 29 25 30 86 31 26 32 85 33 27 34 28 35
REMARK SMILES IDX 29 36 79 37 30 38 84 39 78 40 80 41 31 42 83 43 77 44 76 45
REMARK SMILES IDX 32 47 64 48 44 49 63 50 45 51 48 52 62 53 81 54 46 55 47 56
REMARK SMILES IDX 61 58 82 59 49 60 33 61 34 62 42 63 35 64 37 65 43 66 36 67
REMARK SMILES IDX 38 68 39 69 40 70 41 71 65 72 66 73 74 74 67 75 69 76 75 77
REMARK SMILES IDX 68 78 70 79 71 80 72 81 73 82 50 83 51 84 59 85 52 86 54 87
REMARK SMILES IDX 60 88 53 89 55 90 56 91 57 92 58 93
REMARK H PARENT 17 6 10 15 21 27 80 46 48 57
REMARK Flexibility Score: inf
ROOT
ATOM      1  C   UNL A   1      32.604  30.929  26.526  1.00  0.00     0.042 C 
ENDROOT
BRANCH   1   2
ATOM      2  C   UNL A   1      32.787  29.434  26.788  1.00  0.00     0.117 C 
BRANCH   2   3
ATOM      3  N   UNL A   1      33.610  28.750  25.818  1.00  0.00    -0.356 N 
ATOM      4  C   UNL A   1      33.240  28.303  24.585  1.00  0.00     0.227 C 
ATOM      5  O   UNL A   1      34.080  28.383  23.682  1.00  0.00    -0.274 OA
ATOM      6  H   UNL A   1      34.546  28.587  26.077  1.00  0.00     0.163 HD
BRANCH   4   7
ATOM      7  C   UNL A   1      31.853  27.735  24.258  1.00  0.00     0.103 C 
ATOM      8  C   UNL A   1      31.034  25.760  23.000  1.00  0.00     0.106 C 
ATOM      9  C   UNL A   1      30.963  25.572  24.466  1.00  0.00    -0.006 C 
ATOM     10  C   UNL A   1      31.538  27.219  22.848  1.00  0.00     0.047 C 
ATOM     11  C   UNL A   1      31.431  26.619  25.150  1.00  0.00    -0.016 C 
BRANCH   8  12
ATOM     12  N   UNL A   1      31.903  24.834  22.279  1.00  0.00    -0.348 N 
ATOM     13  C   UNL A   1      33.161  24.342  22.409  1.00  0.00     0.242 C 
ATOM     14  O   UNL A   1      33.479  23.463  21.596  1.00  0.00    -0.273 OA
ATOM     15  H   UNL A   1      31.453  24.466  21.484  1.00  0.00     0.164 HD
BRANCH  13  16
ATOM     16  C   UNL A   1      34.158  24.789  23.451  1.00  0.00     0.244 C 
BRANCH  16  17
ATOM     17  N   UNL A   1      34.498  23.730  24.383  1.00  0.00    -0.260 N 
ATOM     18  C   UNL A   1      33.864  22.254  27.535  1.00  0.00     0.069 C 
ATOM     19  C   UNL A   1      34.336  22.590  26.168  1.00  0.00     0.060 A 
ATOM     20  C   UNL A   1      35.488  22.121  25.495  1.00  0.00     0.048 A 
ATOM     21  N   UNL A   1      33.680  23.485  25.424  1.00  0.00    -0.178 NA
ATOM     22  C   UNL A   1      35.571  22.873  24.337  1.00  0.00     0.036 A 
ATOM     23  C   UNL A   1      36.593  22.886  23.258  1.00  0.00     0.066 C 
ENDBRANCH  16  17
ENDBRANCH  13  16
ENDBRANCH   8  12
ENDBRANCH   4   7
ENDBRANCH   2   3
ENDBRANCH   1   2
BRANCH   1  24
ATOM     24  C   UNL A   1      33.277  31.777  27.605  1.00  0.00     0.118 C 
BRANCH  24  25
ATOM     25  N   UNL A   1      32.716  33.134  27.677  1.00  0.00    -0.352 N 
ATOM     26  C   UNL A   1      33.059  34.206  28.496  1.00  0.00     0.251 C 
ATOM     27  H   UNL A   1      31.982  33.314  27.046  1.00  0.00     0.163 HD
ATOM     28  O   UNL A   1      32.384  35.198  28.607  1.00  0.00    -0.269 OA
BRANCH  26  29
ATOM     29  C   UNL A   1      34.342  34.083  29.202  1.00  0.00     0.039 A 
ATOM     30  C   UNL A   1      34.465  33.339  30.375  1.00  0.00     0.014 A 
ATOM     31  C   UNL A   1      35.441  34.520  28.485  1.00  0.00     0.014 A 
ATOM     32  C   UNL A   1      35.730  32.874  30.727  1.00  0.00     0.010 A 
ATOM     33  C   UNL A   1      36.627  33.885  28.715  1.00  0.00     0.010 A 
ATOM     34  C   UNL A   1      36.802  33.085  29.847  1.00  0.00    -0.014 A 
BRANCH  34  35
ATOM     35  C   UNL A   1      38.051  32.333  29.975  1.00  0.00     0.031 A 
ATOM     36  C   UNL A   1      38.082  30.971  29.362  1.00  0.00     0.074 A 
ATOM     37  C   UNL A   1      39.216  32.916  30.337  1.00  0.00     0.049 A 
ATOM     38  N   UNL A   1      38.249  29.843  29.973  1.00  0.00    -0.248 NA
ATOM     39  C   UNL A   1      37.827  30.832  27.921  1.00  0.00     0.031 C 
ATOM     40  C   UNL A   1      39.467  34.327  30.666  1.00  0.00     0.029 A 
ATOM     41  N   UNL A   1      40.472  32.394  30.290  1.00  0.00    -0.354 N 
ATOM     42  C   UNL A   1      38.350  28.874  28.974  1.00  0.00     0.074 A 
ATOM     43  C   UNL A   1      37.905  29.508  27.760  1.00  0.00     0.031 C 
ATOM     44  C   UNL A   1      40.769  34.609  30.464  1.00  0.00     0.029 A 
ATOM     45  C   UNL A   1      41.468  33.360  30.245  1.00  0.00     0.049 A 
ATOM     46  H   UNL A   1      40.656  31.427  30.287  1.00  0.00     0.167 HD
ATOM     47  C   UNL A   1      39.008  27.698  29.184  1.00  0.00     0.034 A 
ATOM     48  C   UNL A   1      42.787  33.158  30.044  1.00  0.00     0.034 A 
ATOM     49  C   UNL A   1      39.311  27.504  30.581  1.00  0.00     0.049 A 
ATOM     50  C   UNL A   1      43.067  31.761  30.437  1.00  0.00     0.074 A 
ATOM     51  C   UNL A   1      38.584  27.435  31.752  1.00  0.00     0.029 A 
ATOM     52  N   UNL A   1      40.614  27.714  30.960  1.00  0.00    -0.354 N 
ATOM     53  N   UNL A   1      42.932  31.317  31.658  1.00  0.00    -0.248 NA
ATOM     54  C   UNL A   1      43.132  30.740  29.406  1.00  0.00     0.031 C 
ATOM     55  C   UNL A   1      39.400  28.083  32.727  1.00  0.00     0.029 A 
ATOM     56  C   UNL A   1      40.594  28.462  32.107  1.00  0.00     0.049 A 
ATOM     57  H   UNL A   1      41.417  27.387  30.494  1.00  0.00     0.167 HD
ATOM     58  C   UNL A   1      42.435  30.030  31.505  1.00  0.00     0.074 A 
ATOM     59  C   UNL A   1      42.739  29.681  30.119  1.00  0.00     0.031 C 
ATOM     60  C   UNL A   1      41.567  29.493  32.417  1.00  0.00     0.034 A 
BRANCH  47  61
ATOM     61  C   UNL A   1      39.706  26.863  28.129  1.00  0.00     0.023 A 
ATOM     62  C   UNL A   1      39.395  25.482  28.085  1.00  0.00     0.012 A 
ATOM     63  C   UNL A   1      40.825  27.284  27.377  1.00  0.00     0.148 A 
ATOM     64  C   UNL A   1      40.183  24.566  27.379  1.00  0.00     0.002 A 
ATOM     65  C   UNL A   1      41.554  26.382  26.606  1.00  0.00     0.091 A 
ATOM     66  F   UNL A   1      41.287  28.531  27.504  1.00  0.00    -0.205 F 
ATOM     67  C   UNL A   1      41.260  25.017  26.630  1.00  0.00     0.022 A 
BRANCH  65  68
ATOM     68  S   UNL A   1      42.906  26.939  25.563  1.00  0.00     0.127 S 
ATOM     69  O   UNL A   1      43.848  27.452  26.552  1.00  0.00    -0.237 OA
ATOM     70  O   UNL A   1      43.315  25.699  24.902  1.00  0.00    -0.237 OA
ATOM     71  O   UNL A   1      42.307  27.918  24.664  1.00  0.00    -0.744 OA
ENDBRANCH  65  68
ENDBRANCH  47  61
BRANCH  48  72
ATOM     72  C   UNL A   1      43.787  34.056  29.437  1.00  0.00     0.023 A 
ATOM     73  C   UNL A   1      44.556  34.901  30.255  1.00  0.00     0.012 A 
ATOM     74  C   UNL A   1      44.156  33.914  28.079  1.00  0.00     0.148 A 
ATOM     75  C   UNL A   1      45.679  35.561  29.748  1.00  0.00     0.002 A 
ATOM     76  C   UNL A   1      45.271  34.577  27.578  1.00  0.00     0.091 A 
ATOM     77  F   UNL A   1      43.463  33.062  27.308  1.00  0.00    -0.205 F 
ATOM     78  C   UNL A   1      46.042  35.394  28.413  1.00  0.00     0.022 A 
BRANCH  76  79
ATOM     79  S   UNL A   1      45.806  34.395  25.870  1.00  0.00     0.127 S 
ATOM     80  O   UNL A   1      46.712  35.532  25.709  1.00  0.00    -0.237 OA
ATOM     81  O   UNL A   1      46.461  33.090  25.897  1.00  0.00    -0.237 OA
ATOM     82  O   UNL A   1      44.590  34.481  25.071  1.00  0.00    -0.744 OA
ENDBRANCH  76  79
ENDBRANCH  48  72
BRANCH  60  83
ATOM     83  C   UNL A   1      41.376  30.206  33.737  1.00  0.00     0.023 A 
ATOM     84  C   UNL A   1      42.322  30.111  34.780  1.00  0.00     0.012 A 
ATOM     85  C   UNL A   1      40.330  31.135  33.867  1.00  0.00     0.148 A 
ATOM     86  C   UNL A   1      42.216  30.898  35.930  1.00  0.00     0.002 A 
ATOM     87  C   UNL A   1      40.251  31.950  34.992  1.00  0.00     0.091 A 
ATOM     88  F   UNL A   1      39.437  31.230  32.869  1.00  0.00    -0.205 F 
ATOM     89  C   UNL A   1      41.187  31.828  36.031  1.00  0.00     0.022 A 
BRANCH  87  90
ATOM     90  S   UNL A   1      39.026  33.257  35.117  1.00  0.00     0.127 S 
ATOM     91  O   UNL A   1      39.382  34.119  33.992  1.00  0.00    -0.237 OA
ATOM     92  O   UNL A   1      37.765  32.532  34.955  1.00  0.00    -0.237 OA
ATOM     93  O   UNL A   1      39.206  33.839  36.442  1.00  0.00    -0.744 OA
ENDBRANCH  87  90
ENDBRANCH  60  83
ENDBRANCH  34  35
ENDBRANCH  26  29
ENDBRANCH  24  25
ENDBRANCH   1  24
TORSDOF 16
ENDMDL
