MODEL 1
REMARK VINA RESULT:     -12.8      0.000      0.000
REMARK SMILES O=C(NCCCNC(=O)c1c(F)cccc1N[C@H]1CCCc2ccccc21)c1ccc(-c2c3nc(c(-c4cccc(S(=O)(=O)[O-])c4F)c4ccc([nH]4)c(-c4cccc(S(=O)(=O)[O-])c4F)c4nc(c(-c5cccc(S(=O)(=O)[O-])c5F)c5ccc2[nH]5)C=C4)C=C3)cc1
REMARK SMILES IDX 4 1 3 2 1 3 2 4 28 6 29 7 90 8 30 9 89 10 31 11 32 12 33 13
REMARK SMILES IDX 83 14 34 15 88 16 82 17 84 18 35 19 87 20 81 21 80 22 36 24
REMARK SMILES IDX 68 25 48 26 67 27 49 28 52 29 66 30 85 31 50 32 51 33 65 35
REMARK SMILES IDX 86 36 53 37 37 38 38 39 46 40 39 41 41 42 47 43 40 44 42 45
REMARK SMILES IDX 43 46 44 47 45 48 69 49 70 50 78 51 71 52 73 53 79 54 72 55
REMARK SMILES IDX 74 56 75 57 76 58 77 59 54 60 55 61 63 62 56 63 58 64 64 65
REMARK SMILES IDX 57 66 59 67 60 68 61 69 62 70 5 71 6 72 7 73 8 74 9 76 10 77
REMARK SMILES IDX 11 78 16 79 12 80 13 81 15 82 14 83 17 84 18 86 19 87 27 88
REMARK SMILES IDX 20 89 22 90 26 91 21 92 23 93 25 94 24 95
REMARK H PARENT 3 5 84 23 52 34 7 75 17 85
REMARK Flexibility Score: inf
ROOT
ATOM      1  C   UNL A   1      35.814  22.091  25.789  1.00  0.00     0.118 C 
ENDROOT
BRANCH   1   2
ATOM      2  N   UNL A   1      36.841  21.064  25.677  1.00  0.00    -0.352 N 
ATOM      3  O   UNL A   1      38.886  20.171  25.431  1.00  0.00    -0.269 OA
ATOM      4  C   UNL A   1      38.210  21.150  25.749  1.00  0.00     0.251 C 
ATOM      5  H   UNL A   1      36.496  20.155  25.524  1.00  0.00     0.163 HD
BRANCH   4   6
ATOM      6  C   UNL A   1      38.877  22.401  26.176  1.00  0.00     0.039 A 
ATOM      7  C   UNL A   1      38.376  23.651  25.809  1.00  0.00     0.014 A 
ATOM      8  C   UNL A   1      40.005  22.324  26.998  1.00  0.00     0.014 A 
ATOM      9  C   UNL A   1      39.085  24.806  26.122  1.00  0.00     0.010 A 
ATOM     10  C   UNL A   1      40.666  23.493  27.393  1.00  0.00     0.010 A 
ATOM     11  C   UNL A   1      40.233  24.744  26.928  1.00  0.00    -0.014 A 
BRANCH  11  12
ATOM     12  C   UNL A   1      40.924  25.999  27.323  1.00  0.00     0.031 A 
ATOM     13  C   UNL A   1      42.343  26.273  26.900  1.00  0.00     0.074 A 
ATOM     14  C   UNL A   1      40.259  26.901  28.072  1.00  0.00     0.049 A 
ATOM     15  N   UNL A   1      43.090  27.314  27.164  1.00  0.00    -0.248 NA
ATOM     16  C   UNL A   1      43.015  25.249  26.083  1.00  0.00     0.031 C 
ATOM     17  C   UNL A   1      38.891  26.732  28.569  1.00  0.00     0.029 A 
ATOM     18  N   UNL A   1      40.634  28.131  28.546  1.00  0.00    -0.354 N 
ATOM     19  C   UNL A   1      44.325  27.059  26.580  1.00  0.00     0.074 A 
ATOM     20  C   UNL A   1      44.233  25.759  25.953  1.00  0.00     0.031 C 
ATOM     21  C   UNL A   1      38.533  27.827  29.255  1.00  0.00     0.029 A 
ATOM     22  C   UNL A   1      39.662  28.751  29.296  1.00  0.00     0.049 A 
ATOM     23  H   UNL A   1      41.515  28.533  28.368  1.00  0.00     0.167 HD
ATOM     24  C   UNL A   1      45.427  27.847  26.553  1.00  0.00     0.034 A 
ATOM     25  C   UNL A   1      39.675  29.924  29.959  1.00  0.00     0.034 A 
ATOM     26  C   UNL A   1      45.499  29.158  27.141  1.00  0.00     0.049 A 
ATOM     27  C   UNL A   1      40.910  30.777  29.904  1.00  0.00     0.074 A 
ATOM     28  C   UNL A   1      46.555  30.054  27.111  1.00  0.00     0.029 A 
ATOM     29  N   UNL A   1      44.482  29.765  27.863  1.00  0.00    -0.354 N 
ATOM     30  N   UNL A   1      42.026  30.568  29.251  1.00  0.00    -0.248 NA
ATOM     31  C   UNL A   1      40.881  32.039  30.657  1.00  0.00     0.031 C 
ATOM     32  C   UNL A   1      46.183  31.193  27.831  1.00  0.00     0.029 A 
ATOM     33  C   UNL A   1      44.889  31.016  28.293  1.00  0.00     0.049 A 
ATOM     34  H   UNL A   1      43.602  29.364  28.044  1.00  0.00     0.167 HD
ATOM     35  C   UNL A   1      42.828  31.676  29.498  1.00  0.00     0.074 A 
ATOM     36  C   UNL A   1      42.055  32.570  30.337  1.00  0.00     0.031 C 
ATOM     37  C   UNL A   1      44.095  31.919  29.087  1.00  0.00     0.034 A 
BRANCH  24  38
ATOM     38  C   UNL A   1      46.644  27.346  25.820  1.00  0.00     0.023 A 
ATOM     39  C   UNL A   1      46.782  27.618  24.444  1.00  0.00     0.012 A 
ATOM     40  C   UNL A   1      47.701  26.719  26.510  1.00  0.00     0.148 A 
ATOM     41  C   UNL A   1      47.944  27.262  23.763  1.00  0.00     0.002 A 
ATOM     42  C   UNL A   1      48.873  26.402  25.833  1.00  0.00     0.091 A 
ATOM     43  F   UNL A   1      47.543  26.456  27.815  1.00  0.00    -0.205 F 
ATOM     44  C   UNL A   1      48.993  26.666  24.459  1.00  0.00     0.022 A 
BRANCH  42  45
ATOM     45  S   UNL A   1      50.313  25.705  26.651  1.00  0.00     0.127 S 
ATOM     46  O   UNL A   1      51.245  25.559  25.532  1.00  0.00    -0.237 OA
ATOM     47  O   UNL A   1      50.665  26.758  27.603  1.00  0.00    -0.237 OA
ATOM     48  O   UNL A   1      49.868  24.457  27.256  1.00  0.00    -0.744 OA
ENDBRANCH  42  45
ENDBRANCH  24  38
BRANCH  25  49
ATOM     49  C   UNL A   1      38.455  30.369  30.689  1.00  0.00     0.023 A 
ATOM     50  C   UNL A   1      38.340  30.102  32.066  1.00  0.00     0.012 A 
ATOM     51  C   UNL A   1      37.446  31.113  30.046  1.00  0.00     0.148 A 
ATOM     52  C   UNL A   1      37.234  30.555  32.787  1.00  0.00     0.002 A 
ATOM     53  C   UNL A   1      36.379  31.612  30.781  1.00  0.00     0.091 A 
ATOM     54  F   UNL A   1      37.566  31.339  28.730  1.00  0.00    -0.205 F 
ATOM     55  C   UNL A   1      36.262  31.322  32.149  1.00  0.00     0.022 A 
BRANCH  53  56
ATOM     56  S   UNL A   1      35.168  32.735  30.072  1.00  0.00     0.127 S 
ATOM     57  O   UNL A   1      34.301  33.001  31.217  1.00  0.00    -0.237 OA
ATOM     58  O   UNL A   1      36.005  33.861  29.657  1.00  0.00    -0.237 OA
ATOM     59  O   UNL A   1      34.559  32.005  28.968  1.00  0.00    -0.744 OA
ENDBRANCH  53  56
ENDBRANCH  25  49
BRANCH  37  60
ATOM     60  C   UNL A   1      44.741  33.205  29.525  1.00  0.00     0.023 A 
ATOM     61  C   UNL A   1      45.531  33.221  30.691  1.00  0.00     0.012 A 
ATOM     62  C   UNL A   1      44.651  34.367  28.734  1.00  0.00     0.148 A 
ATOM     63  C   UNL A   1      46.207  34.378  31.075  1.00  0.00     0.002 A 
ATOM     64  C   UNL A   1      45.365  35.503  29.097  1.00  0.00     0.091 A 
ATOM     65  F   UNL A   1      43.879  34.336  27.638  1.00  0.00    -0.205 F 
ATOM     66  C   UNL A   1      46.134  35.514  30.271  1.00  0.00     0.022 A 
BRANCH  64  67
ATOM     67  S   UNL A   1      45.409  36.979  28.073  1.00  0.00     0.127 S 
ATOM     68  O   UNL A   1      46.405  37.795  28.768  1.00  0.00    -0.237 OA
ATOM     69  O   UNL A   1      45.850  36.449  26.782  1.00  0.00    -0.237 OA
ATOM     70  O   UNL A   1      44.053  37.511  28.076  1.00  0.00    -0.744 OA
ENDBRANCH  64  67
ENDBRANCH  37  60
ENDBRANCH  11  12
ENDBRANCH   4   6
ENDBRANCH   1   2
BRANCH   1  71
ATOM     71  C   UNL A   1      34.709  21.718  26.768  1.00  0.00     0.042 C 
BRANCH  71  72
ATOM     72  C   UNL A   1      33.621  22.773  26.916  1.00  0.00     0.118 C 
BRANCH  72  73
ATOM     73  N   UNL A   1      32.278  22.227  26.760  1.00  0.00    -0.352 N 
ATOM     74  C   UNL A   1      31.431  22.262  25.677  1.00  0.00     0.256 C 
ATOM     75  H   UNL A   1      31.923  21.760  27.551  1.00  0.00     0.163 HD
ATOM     76  O   UNL A   1      30.285  21.828  25.787  1.00  0.00    -0.269 OA
BRANCH  74  77
ATOM     77  C   UNL A   1      31.863  22.872  24.403  1.00  0.00     0.098 A 
ATOM     78  C   UNL A   1      32.787  22.185  23.608  1.00  0.00     0.138 A 
ATOM     79  C   UNL A   1      31.332  24.112  23.982  1.00  0.00     0.050 A 
ATOM     80  F   UNL A   1      33.203  20.953  23.942  1.00  0.00    -0.206 F 
ATOM     81  C   UNL A   1      33.319  22.767  22.466  1.00  0.00     0.040 A 
ATOM     82  C   UNL A   1      31.938  24.708  22.863  1.00  0.00     0.027 A 
ATOM     83  C   UNL A   1      32.917  24.047  22.111  1.00  0.00     0.005 A 
BRANCH  79  84
ATOM     84  N   UNL A   1      30.288  24.721  24.669  1.00  0.00    -0.377 N 
ATOM     85  H   UNL A   1      29.407  24.286  24.607  1.00  0.00     0.161 HD
BRANCH  84  86
ATOM     86  C   UNL A   1      30.365  25.940  25.474  1.00  0.00     0.110 C 
ATOM     87  C   UNL A   1      31.695  25.970  26.254  1.00  0.00     0.030 C 
ATOM     88  C   UNL A   1      30.214  27.168  24.572  1.00  0.00    -0.023 A 
ATOM     89  C   UNL A   1      31.939  27.340  26.869  1.00  0.00     0.007 C 
ATOM     90  C   UNL A   1      31.030  28.310  24.730  1.00  0.00    -0.043 A 
ATOM     91  C   UNL A   1      29.203  27.199  23.592  1.00  0.00     0.006 A 
ATOM     92  C   UNL A   1      32.124  28.371  25.766  1.00  0.00     0.036 C 
ATOM     93  C   UNL A   1      30.865  29.412  23.875  1.00  0.00     0.004 A 
ATOM     94  C   UNL A   1      29.042  28.305  22.756  1.00  0.00     0.000 A 
ATOM     95  C   UNL A   1      29.878  29.408  22.892  1.00  0.00     0.000 A 
ENDBRANCH  84  86
ENDBRANCH  79  84
ENDBRANCH  74  77
ENDBRANCH  72  73
ENDBRANCH  71  72
ENDBRANCH   1  71
TORSDOF 15
ENDMDL
MODEL 2
REMARK VINA RESULT:     -12.7      4.666      9.762
REMARK SMILES O=C(NCCCNC(=O)c1c(F)cccc1N[C@H]1CCCc2ccccc21)c1ccc(-c2c3nc(c(-c4cccc(S(=O)(=O)[O-])c4F)c4ccc([nH]4)c(-c4cccc(S(=O)(=O)[O-])c4F)c4nc(c(-c5cccc(S(=O)(=O)[O-])c5F)c5ccc2[nH]5)C=C4)C=C3)cc1
REMARK SMILES IDX 4 1 3 2 1 3 2 4 28 6 29 7 90 8 30 9 89 10 31 11 32 12 33 13
REMARK SMILES IDX 83 14 34 15 88 16 82 17 84 18 35 19 87 20 81 21 80 22 36 24
REMARK SMILES IDX 68 25 48 26 67 27 49 28 52 29 66 30 85 31 50 32 51 33 65 35
REMARK SMILES IDX 86 36 53 37 37 38 38 39 46 40 39 41 41 42 47 43 40 44 42 45
REMARK SMILES IDX 43 46 44 47 45 48 69 49 70 50 78 51 71 52 73 53 79 54 72 55
REMARK SMILES IDX 74 56 75 57 76 58 77 59 54 60 55 61 63 62 56 63 58 64 64 65
REMARK SMILES IDX 57 66 59 67 60 68 61 69 62 70 5 71 6 72 7 73 8 74 9 76 10 77
REMARK SMILES IDX 11 78 16 79 12 80 13 81 15 82 14 83 17 84 18 86 19 87 27 88
REMARK SMILES IDX 20 89 22 90 26 91 21 92 23 93 25 94 24 95
REMARK H PARENT 3 5 84 23 52 34 7 75 17 85
REMARK Flexibility Score: inf
ROOT
ATOM      1  C   UNL A   1      32.926  29.171  25.312  1.00  0.00     0.118 C 
ENDROOT
BRANCH   1   2
ATOM      2  N   UNL A   1      32.500  30.475  25.804  1.00  0.00    -0.352 N 
ATOM      3  O   UNL A   1      32.335  32.234  27.187  1.00  0.00    -0.269 OA
ATOM      4  C   UNL A   1      32.982  31.250  26.829  1.00  0.00     0.251 C 
ATOM      5  H   UNL A   1      31.737  30.864  25.320  1.00  0.00     0.163 HD
BRANCH   4   6
ATOM      6  C   UNL A   1      34.246  30.906  27.520  1.00  0.00     0.039 A 
ATOM      7  C   UNL A   1      34.488  29.612  27.987  1.00  0.00     0.014 A 
ATOM      8  C   UNL A   1      35.230  31.888  27.667  1.00  0.00     0.014 A 
ATOM      9  C   UNL A   1      35.629  29.344  28.736  1.00  0.00     0.010 A 
ATOM     10  C   UNL A   1      36.421  31.592  28.338  1.00  0.00     0.010 A 
ATOM     11  C   UNL A   1      36.616  30.326  28.912  1.00  0.00    -0.014 A 
BRANCH  11  12
ATOM     12  C   UNL A   1      37.867  29.990  29.640  1.00  0.00     0.031 A 
ATOM     13  C   UNL A   1      38.135  30.530  31.020  1.00  0.00     0.074 A 
ATOM     14  C   UNL A   1      38.771  29.185  29.045  1.00  0.00     0.049 A 
ATOM     15  N   UNL A   1      39.177  30.336  31.788  1.00  0.00    -0.248 NA
ATOM     16  C   UNL A   1      37.109  31.402  31.615  1.00  0.00     0.031 C 
ATOM     17  C   UNL A   1      38.638  28.627  27.698  1.00  0.00     0.029 A 
ATOM     18  N   UNL A   1      39.974  28.698  29.488  1.00  0.00    -0.354 N 
ATOM     19  C   UNL A   1      38.951  31.086  32.936  1.00  0.00     0.074 A 
ATOM     20  C   UNL A   1      37.677  31.748  32.764  1.00  0.00     0.031 C 
ATOM     21  C   UNL A   1      39.701  27.854  27.434  1.00  0.00     0.029 A 
ATOM     22  C   UNL A   1      40.618  27.905  28.567  1.00  0.00     0.049 A 
ATOM     23  H   UNL A   1      40.342  28.897  30.380  1.00  0.00     0.167 HD
ATOM     24  C   UNL A   1      39.729  31.196  34.040  1.00  0.00     0.034 A 
ATOM     25  C   UNL A   1      41.820  27.298  28.616  1.00  0.00     0.034 A 
ATOM     26  C   UNL A   1      40.975  30.502  34.226  1.00  0.00     0.049 A 
ATOM     27  C   UNL A   1      42.655  27.434  29.857  1.00  0.00     0.074 A 
ATOM     28  C   UNL A   1      41.801  30.505  35.337  1.00  0.00     0.029 A 
ATOM     29  N   UNL A   1      41.578  29.682  33.283  1.00  0.00    -0.354 N 
ATOM     30  N   UNL A   1      42.371  28.055  30.975  1.00  0.00    -0.248 NA
ATOM     31  C   UNL A   1      43.965  26.768  29.854  1.00  0.00     0.031 C 
ATOM     32  C   UNL A   1      42.912  29.703  35.059  1.00  0.00     0.029 A 
ATOM     33  C   UNL A   1      42.769  29.184  33.782  1.00  0.00     0.049 A 
ATOM     34  H   UNL A   1      41.213  29.484  32.390  1.00  0.00     0.167 HD
ATOM     35  C   UNL A   1      43.457  27.843  31.816  1.00  0.00     0.074 A 
ATOM     36  C   UNL A   1      44.391  27.008  31.088  1.00  0.00     0.031 C 
ATOM     37  C   UNL A   1      43.669  28.315  33.068  1.00  0.00     0.034 A 
BRANCH  24  38
ATOM     38  C   UNL A   1      39.240  32.060  35.174  1.00  0.00     0.023 A 
ATOM     39  C   UNL A   1      38.364  31.512  36.132  1.00  0.00     0.012 A 
ATOM     40  C   UNL A   1      39.738  33.365  35.359  1.00  0.00     0.148 A 
ATOM     41  C   UNL A   1      37.980  32.252  37.249  1.00  0.00     0.002 A 
ATOM     42  C   UNL A   1      39.382  34.084  36.495  1.00  0.00     0.091 A 
ATOM     43  F   UNL A   1      40.559  33.873  34.428  1.00  0.00    -0.205 F 
ATOM     44  C   UNL A   1      38.498  33.531  37.436  1.00  0.00     0.022 A 
BRANCH  42  45
ATOM     45  S   UNL A   1      40.053  35.707  36.872  1.00  0.00     0.127 S 
ATOM     46  O   UNL A   1      39.596  36.489  35.723  1.00  0.00    -0.237 OA
ATOM     47  O   UNL A   1      39.385  36.031  38.133  1.00  0.00    -0.237 OA
ATOM     48  O   UNL A   1      41.496  35.534  36.972  1.00  0.00    -0.744 OA
ENDBRANCH  42  45
ENDBRANCH  24  38
BRANCH  25  49
ATOM     49  C   UNL A   1      42.273  26.471  27.462  1.00  0.00     0.023 A 
ATOM     50  C   UNL A   1      43.103  27.048  26.483  1.00  0.00     0.012 A 
ATOM     51  C   UNL A   1      41.943  25.105  27.366  1.00  0.00     0.148 A 
ATOM     52  C   UNL A   1      43.587  26.283  25.421  1.00  0.00     0.002 A 
ATOM     53  C   UNL A   1      42.477  24.334  26.340  1.00  0.00     0.091 A 
ATOM     54  F   UNL A   1      41.135  24.580  28.298  1.00  0.00    -0.205 F 
ATOM     55  C   UNL A   1      43.287  24.924  25.357  1.00  0.00     0.022 A 
BRANCH  53  56
ATOM     56  S   UNL A   1      42.267  22.551  26.272  1.00  0.00     0.127 S 
ATOM     57  O   UNL A   1      42.884  22.129  27.527  1.00  0.00    -0.237 OA
ATOM     58  O   UNL A   1      40.810  22.419  26.226  1.00  0.00    -0.237 OA
ATOM     59  O   UNL A   1      42.943  22.124  25.055  1.00  0.00    -0.744 OA
ENDBRANCH  53  56
ENDBRANCH  25  49
BRANCH  37  60
ATOM     60  C   UNL A   1      44.958  27.943  33.749  1.00  0.00     0.023 A 
ATOM     61  C   UNL A   1      46.065  28.810  33.659  1.00  0.00     0.012 A 
ATOM     62  C   UNL A   1      45.043  26.793  34.559  1.00  0.00     0.148 A 
ATOM     63  C   UNL A   1      47.243  28.530  34.347  1.00  0.00     0.002 A 
ATOM     64  C   UNL A   1      46.205  26.544  35.280  1.00  0.00     0.091 A 
ATOM     65  F   UNL A   1      43.985  25.972  34.617  1.00  0.00    -0.205 F 
ATOM     66  C   UNL A   1      47.309  27.405  35.167  1.00  0.00     0.022 A 
BRANCH  64  67
ATOM     67  S   UNL A   1      46.347  25.176  36.436  1.00  0.00     0.127 S 
ATOM     68  O   UNL A   1      46.310  24.022  35.538  1.00  0.00    -0.237 OA
ATOM     69  O   UNL A   1      47.648  25.426  37.055  1.00  0.00    -0.237 OA
ATOM     70  O   UNL A   1      45.213  25.299  37.343  1.00  0.00    -0.744 OA
ENDBRANCH  64  67
ENDBRANCH  37  60
ENDBRANCH  11  12
ENDBRANCH   4   6
ENDBRANCH   1   2
BRANCH   1  71
ATOM     71  C   UNL A   1      33.210  29.168  23.816  1.00  0.00     0.042 C 
BRANCH  71  72
ATOM     72  C   UNL A   1      33.614  27.809  23.257  1.00  0.00     0.118 C 
BRANCH  72  73
ATOM     73  N   UNL A   1      32.795  27.396  22.124  1.00  0.00    -0.352 N 
ATOM     74  C   UNL A   1      31.730  26.528  22.074  1.00  0.00     0.256 C 
ATOM     75  H   UNL A   1      33.042  27.802  21.261  1.00  0.00     0.163 HD
ATOM     76  O   UNL A   1      31.237  26.232  20.986  1.00  0.00    -0.269 OA
BRANCH  74  77
ATOM     77  C   UNL A   1      31.211  25.902  23.307  1.00  0.00     0.098 A 
ATOM     78  C   UNL A   1      30.458  26.680  24.192  1.00  0.00     0.138 A 
ATOM     79  C   UNL A   1      31.449  24.534  23.574  1.00  0.00     0.050 A 
ATOM     80  F   UNL A   1      30.126  27.945  23.887  1.00  0.00    -0.206 F 
ATOM     81  C   UNL A   1      30.053  26.176  25.420  1.00  0.00     0.040 A 
ATOM     82  C   UNL A   1      31.091  24.071  24.851  1.00  0.00     0.027 A 
ATOM     83  C   UNL A   1      30.400  24.877  25.763  1.00  0.00     0.005 A 
BRANCH  79  84
ATOM     84  N   UNL A   1      32.042  23.707  22.627  1.00  0.00    -0.377 N 
ATOM     85  H   UNL A   1      31.499  23.482  21.836  1.00  0.00     0.161 HD
BRANCH  84  86
ATOM     86  C   UNL A   1      33.389  23.136  22.684  1.00  0.00     0.110 C 
ATOM     87  C   UNL A   1      34.363  24.157  23.305  1.00  0.00     0.030 C 
ATOM     88  C   UNL A   1      33.364  21.827  23.477  1.00  0.00    -0.023 A 
ATOM     89  C   UNL A   1      35.695  23.506  23.645  1.00  0.00     0.007 C 
ATOM     90  C   UNL A   1      34.365  21.513  24.422  1.00  0.00    -0.043 A 
ATOM     91  C   UNL A   1      32.356  20.875  23.230  1.00  0.00     0.006 A 
ATOM     92  C   UNL A   1      35.493  22.465  24.736  1.00  0.00     0.036 C 
ATOM     93  C   UNL A   1      34.301  20.305  25.136  1.00  0.00     0.004 A 
ATOM     94  C   UNL A   1      32.310  19.673  23.938  1.00  0.00     0.000 A 
ATOM     95  C   UNL A   1      33.278  19.392  24.896  1.00  0.00     0.000 A 
ENDBRANCH  84  86
ENDBRANCH  79  84
ENDBRANCH  74  77
ENDBRANCH  72  73
ENDBRANCH  71  72
ENDBRANCH   1  71
TORSDOF 15
ENDMDL
MODEL 3
REMARK VINA RESULT:     -12.7      1.326      7.601
REMARK SMILES O=C(NCCCNC(=O)c1c(F)cccc1N[C@H]1CCCc2ccccc21)c1ccc(-c2c3nc(c(-c4cccc(S(=O)(=O)[O-])c4F)c4ccc([nH]4)c(-c4cccc(S(=O)(=O)[O-])c4F)c4nc(c(-c5cccc(S(=O)(=O)[O-])c5F)c5ccc2[nH]5)C=C4)C=C3)cc1
REMARK SMILES IDX 4 1 3 2 1 3 2 4 28 6 29 7 90 8 30 9 89 10 31 11 32 12 33 13
REMARK SMILES IDX 83 14 34 15 88 16 82 17 84 18 35 19 87 20 81 21 80 22 36 24
REMARK SMILES IDX 68 25 48 26 67 27 49 28 52 29 66 30 85 31 50 32 51 33 65 35
REMARK SMILES IDX 86 36 53 37 37 38 38 39 46 40 39 41 41 42 47 43 40 44 42 45
REMARK SMILES IDX 43 46 44 47 45 48 69 49 70 50 78 51 71 52 73 53 79 54 72 55
REMARK SMILES IDX 74 56 75 57 76 58 77 59 54 60 55 61 63 62 56 63 58 64 64 65
REMARK SMILES IDX 57 66 59 67 60 68 61 69 62 70 5 71 6 72 7 73 8 74 9 76 10 77
REMARK SMILES IDX 11 78 16 79 12 80 13 81 15 82 14 83 17 84 18 86 19 87 27 88
REMARK SMILES IDX 20 89 22 90 26 91 21 92 23 93 25 94 24 95
REMARK H PARENT 3 5 84 23 52 34 7 75 17 85
REMARK Flexibility Score: inf
ROOT
ATOM      1  C   UNL A   1      35.760  22.172  25.924  1.00  0.00     0.118 C 
ENDROOT
BRANCH   1   2
ATOM      2  N   UNL A   1      36.765  21.133  25.740  1.00  0.00    -0.352 N 
ATOM      3  O   UNL A   1      38.782  20.219  25.376  1.00  0.00    -0.269 OA
ATOM      4  C   UNL A   1      38.137  21.199  25.748  1.00  0.00     0.251 C 
ATOM      5  H   UNL A   1      36.399  20.233  25.582  1.00  0.00     0.163 HD
BRANCH   4   6
ATOM      6  C   UNL A   1      38.842  22.431  26.171  1.00  0.00     0.039 A 
ATOM      7  C   UNL A   1      38.367  23.695  25.817  1.00  0.00     0.014 A 
ATOM      8  C   UNL A   1      39.980  22.321  26.976  1.00  0.00     0.014 A 
ATOM      9  C   UNL A   1      39.111  24.830  26.125  1.00  0.00     0.010 A 
ATOM     10  C   UNL A   1      40.676  23.470  27.366  1.00  0.00     0.010 A 
ATOM     11  C   UNL A   1      40.268  24.734  26.913  1.00  0.00    -0.014 A 
BRANCH  11  12
ATOM     12  C   UNL A   1      40.997  25.969  27.304  1.00  0.00     0.031 A 
ATOM     13  C   UNL A   1      40.337  27.032  28.141  1.00  0.00     0.074 A 
ATOM     14  C   UNL A   1      42.273  26.128  26.897  1.00  0.00     0.049 A 
ATOM     15  N   UNL A   1      40.832  28.168  28.563  1.00  0.00    -0.248 NA
ATOM     16  C   UNL A   1      38.943  26.798  28.554  1.00  0.00     0.031 C 
ATOM     17  C   UNL A   1      43.009  25.182  26.056  1.00  0.00     0.029 A 
ATOM     18  N   UNL A   1      43.175  27.135  27.130  1.00  0.00    -0.354 N 
ATOM     19  C   UNL A   1      39.806  28.799  29.258  1.00  0.00     0.074 A 
ATOM     20  C   UNL A   1      38.655  27.925  29.194  1.00  0.00     0.031 C 
ATOM     21  C   UNL A   1      44.255  25.638  25.865  1.00  0.00     0.029 A 
ATOM     22  C   UNL A   1      44.391  26.934  26.521  1.00  0.00     0.049 A 
ATOM     23  H   UNL A   1      42.971  27.926  27.680  1.00  0.00     0.167 HD
ATOM     24  C   UNL A   1      39.830  29.988  29.904  1.00  0.00     0.034 A 
ATOM     25  C   UNL A   1      45.492  27.710  26.477  1.00  0.00     0.034 A 
ATOM     26  C   UNL A   1      40.990  30.834  30.001  1.00  0.00     0.049 A 
ATOM     27  C   UNL A   1      45.489  29.021  27.211  1.00  0.00     0.074 A 
ATOM     28  C   UNL A   1      41.125  32.029  30.688  1.00  0.00     0.029 A 
ATOM     29  N   UNL A   1      42.213  30.581  29.399  1.00  0.00    -0.354 N 
ATOM     30  N   UNL A   1      44.547  29.545  27.955  1.00  0.00    -0.248 NA
ATOM     31  C   UNL A   1      46.707  29.838  27.118  1.00  0.00     0.031 C 
ATOM     32  C   UNL A   1      42.423  32.507  30.484  1.00  0.00     0.029 A 
ATOM     33  C   UNL A   1      43.103  31.601  29.687  1.00  0.00     0.049 A 
ATOM     34  H   UNL A   1      42.418  29.792  28.846  1.00  0.00     0.167 HD
ATOM     35  C   UNL A   1      45.061  30.744  28.434  1.00  0.00     0.074 A 
ATOM     36  C   UNL A   1      46.411  30.853  27.920  1.00  0.00     0.031 C 
ATOM     37  C   UNL A   1      44.460  31.677  29.211  1.00  0.00     0.034 A 
BRANCH  24  38
ATOM     38  C   UNL A   1      38.580  30.440  30.613  1.00  0.00     0.023 A 
ATOM     39  C   UNL A   1      38.450  30.210  31.997  1.00  0.00     0.012 A 
ATOM     40  C   UNL A   1      37.597  31.195  29.942  1.00  0.00     0.148 A 
ATOM     41  C   UNL A   1      37.355  30.711  32.700  1.00  0.00     0.002 A 
ATOM     42  C   UNL A   1      36.528  31.724  30.657  1.00  0.00     0.091 A 
ATOM     43  F   UNL A   1      37.732  31.390  28.622  1.00  0.00    -0.205 F 
ATOM     44  C   UNL A   1      36.402  31.477  32.033  1.00  0.00     0.022 A 
BRANCH  42  45
ATOM     45  S   UNL A   1      35.289  32.789  29.910  1.00  0.00     0.127 S 
ATOM     46  O   UNL A   1      34.716  31.906  28.893  1.00  0.00    -0.237 OA
ATOM     47  O   UNL A   1      34.403  33.070  31.041  1.00  0.00    -0.237 OA
ATOM     48  O   UNL A   1      36.007  33.946  29.396  1.00  0.00    -0.744 OA
ENDBRANCH  42  45
ENDBRANCH  24  38
BRANCH  25  49
ATOM     49  C   UNL A   1      46.699  27.233  25.745  1.00  0.00     0.023 A 
ATOM     50  C   UNL A   1      47.502  26.230  26.319  1.00  0.00     0.012 A 
ATOM     51  C   UNL A   1      47.015  27.715  24.459  1.00  0.00     0.148 A 
ATOM     52  C   UNL A   1      48.607  25.725  25.632  1.00  0.00     0.002 A 
ATOM     53  C   UNL A   1      48.079  27.165  23.756  1.00  0.00     0.091 A 
ATOM     54  F   UNL A   1      46.249  28.684  23.939  1.00  0.00    -0.205 F 
ATOM     55  C   UNL A   1      48.886  26.181  24.346  1.00  0.00     0.022 A 
BRANCH  53  56
ATOM     56  S   UNL A   1      48.413  27.585  22.041  1.00  0.00     0.127 S 
ATOM     57  O   UNL A   1      48.674  26.271  21.458  1.00  0.00    -0.237 OA
ATOM     58  O   UNL A   1      47.153  28.203  21.629  1.00  0.00    -0.237 OA
ATOM     59  O   UNL A   1      49.544  28.502  22.076  1.00  0.00    -0.744 OA
ENDBRANCH  53  56
ENDBRANCH  25  49
BRANCH  37  60
ATOM     60  C   UNL A   1      45.251  32.907  29.566  1.00  0.00     0.023 A 
ATOM     61  C   UNL A   1      46.074  32.895  30.709  1.00  0.00     0.012 A 
ATOM     62  C   UNL A   1      45.261  34.032  28.718  1.00  0.00     0.148 A 
ATOM     63  C   UNL A   1      46.879  33.991  31.015  1.00  0.00     0.002 A 
ATOM     64  C   UNL A   1      46.101  35.102  29.004  1.00  0.00     0.091 A 
ATOM     65  F   UNL A   1      44.457  34.031  27.645  1.00  0.00    -0.205 F 
ATOM     66  C   UNL A   1      46.902  35.088  30.157  1.00  0.00     0.022 A 
BRANCH  64  67
ATOM     67  S   UNL A   1      46.270  36.513  27.904  1.00  0.00     0.127 S 
ATOM     68  O   UNL A   1      44.937  37.110  27.977  1.00  0.00    -0.237 OA
ATOM     69  O   UNL A   1      47.322  37.292  28.558  1.00  0.00    -0.237 OA
ATOM     70  O   UNL A   1      46.641  35.967  26.605  1.00  0.00    -0.744 OA
ENDBRANCH  64  67
ENDBRANCH  37  60
ENDBRANCH  11  12
ENDBRANCH   4   6
ENDBRANCH   1   2
BRANCH   1  71
ATOM     71  C   UNL A   1      34.662  21.766  26.898  1.00  0.00     0.042 C 
BRANCH  71  72
ATOM     72  C   UNL A   1      33.573  22.814  27.087  1.00  0.00     0.118 C 
BRANCH  72  73
ATOM     73  N   UNL A   1      32.229  22.266  26.948  1.00  0.00    -0.352 N 
ATOM     74  C   UNL A   1      31.389  22.253  25.860  1.00  0.00     0.256 C 
ATOM     75  H   UNL A   1      31.868  21.838  27.758  1.00  0.00     0.163 HD
ATOM     76  O   UNL A   1      30.241  21.828  25.983  1.00  0.00    -0.269 OA
BRANCH  74  77
ATOM     77  C   UNL A   1      31.831  22.800  24.561  1.00  0.00     0.098 A 
ATOM     78  C   UNL A   1      32.752  22.071  23.802  1.00  0.00     0.138 A 
ATOM     79  C   UNL A   1      31.312  24.025  24.082  1.00  0.00     0.050 A 
ATOM     80  F   UNL A   1      33.157  20.852  24.194  1.00  0.00    -0.206 F 
ATOM     81  C   UNL A   1      33.293  22.597  22.637  1.00  0.00     0.040 A 
ATOM     82  C   UNL A   1      31.927  24.565  22.940  1.00  0.00     0.027 A 
ATOM     83  C   UNL A   1      32.902  23.863  22.223  1.00  0.00     0.005 A 
BRANCH  79  84
ATOM     84  N   UNL A   1      30.270  24.672  24.737  1.00  0.00    -0.377 N 
ATOM     85  H   UNL A   1      29.380  24.258  24.666  1.00  0.00     0.161 HD
BRANCH  84  86
ATOM     86  C   UNL A   1      30.362  25.905  25.521  1.00  0.00     0.110 C 
ATOM     87  C   UNL A   1      31.698  25.939  26.288  1.00  0.00     0.030 C 
ATOM     88  C   UNL A   1      30.211  27.117  24.599  1.00  0.00    -0.023 A 
ATOM     89  C   UNL A   1      31.957  27.317  26.878  1.00  0.00     0.007 C 
ATOM     90  C   UNL A   1      31.035  28.256  24.730  1.00  0.00    -0.043 A 
ATOM     91  C   UNL A   1      29.192  27.139  23.627  1.00  0.00     0.006 A 
ATOM     92  C   UNL A   1      32.139  28.328  25.756  1.00  0.00     0.036 C 
ATOM     93  C   UNL A   1      30.871  29.345  23.858  1.00  0.00     0.004 A 
ATOM     94  C   UNL A   1      29.031  28.231  22.774  1.00  0.00     0.000 A 
ATOM     95  C   UNL A   1      29.875  29.331  22.884  1.00  0.00     0.000 A 
ENDBRANCH  84  86
ENDBRANCH  79  84
ENDBRANCH  74  77
ENDBRANCH  72  73
ENDBRANCH  71  72
ENDBRANCH   1  71
TORSDOF 15
ENDMDL
