MODEL 1
REMARK VINA RESULT:     -11.2      0.000      0.000
REMARK SMILES C/C(=N\Nc1nc(-c2ccc(Cl)cc2)cs1)c1nnn(-c2ccc(C(=O)NCCCNC(=O)c3ccc(-c4c5nc(c(-c6cccc(S(=O)(=O)[O-])c6F)c6ccc([nH]6)c(-c6cccc(S(=O)(=O)[O-])c6F)c6nc(c(-c7cccc(S(=O)(=O)[O-])c7F)c7ccc4[nH]7)C=C6)C=C5)cc3)cc2)c1C
REMARK SMILES IDX 28 1 27 2 25 3 26 4 24 6 21 7 22 8 98 9 23 10 97 11 20 12
REMARK SMILES IDX 17 13 18 14 99 15 19 16 100 17 2 18 1 19 3 20 4 21 5 23 6 24
REMARK SMILES IDX 16 25 7 26 15 27 8 28 9 29 14 30 10 31 13 32 11 33 12 34
REMARK SMILES IDX 29 35 30 36 31 37 32 38 33 40 34 41 35 42 96 43 36 44 95 45
REMARK SMILES IDX 37 46 38 47 39 48 89 49 40 50 94 51 88 52 90 53 41 54 93 55
REMARK SMILES IDX 87 56 86 57 42 59 74 60 54 61 73 62 55 63 58 64 72 65 91 66
REMARK SMILES IDX 56 67 57 68 71 70 92 71 59 72 43 73 44 74 52 75 45 76 47 77
REMARK SMILES IDX 53 78 46 79 48 80 49 81 50 82 51 83 75 84 76 85 84 86 77 87
REMARK SMILES IDX 79 88 85 89 78 90 80 91 81 92 82 93 83 94 60 95 61 96 69 97
REMARK SMILES IDX 62 98 64 99 70 100 63 101 65 102 66 103 67 104 68 105
REMARK H PARENT 27 5 4 22 31 39 90 58 58 69
REMARK Flexibility Score: inf
ROOT
ATOM      1  C   UNL A   1      35.967  34.065  32.914  1.00  0.00     0.118 C 
ENDROOT
BRANCH   1   2
ATOM      2  N   UNL A   1      36.259  32.944  33.797  1.00  0.00    -0.352 N 
ATOM      3  C   UNL A   1      37.442  32.413  34.256  1.00  0.00     0.251 C 
ATOM      4  O   UNL A   1      37.393  31.595  35.172  1.00  0.00    -0.269 OA
ATOM      5  H   UNL A   1      35.457  32.477  34.127  1.00  0.00     0.163 HD
BRANCH   3   6
ATOM      6  C   UNL A   1      38.775  32.843  33.751  1.00  0.00     0.039 A 
ATOM      7  C   UNL A   1      41.092  33.855  32.581  1.00  0.00     0.067 A 
ATOM      8  C   UNL A   1      40.385  34.660  33.473  1.00  0.00     0.029 A 
ATOM      9  C   UNL A   1      40.739  32.522  32.380  1.00  0.00     0.029 A 
ATOM     10  C   UNL A   1      39.210  34.151  34.040  1.00  0.00     0.016 A 
ATOM     11  C   UNL A   1      39.607  32.017  32.997  1.00  0.00     0.016 A 
BRANCH   7  12
ATOM     12  N   UNL A   1      42.048  34.413  31.721  1.00  0.00    -0.217 N 
ATOM     13  C   UNL A   1      43.051  35.303  30.013  1.00  0.00     0.132 A 
ATOM     14  N   UNL A   1      43.960  35.144  31.025  1.00  0.00    -0.128 NA
ATOM     15  C   UNL A   1      41.810  34.852  30.433  1.00  0.00     0.071 A 
ATOM     16  N   UNL A   1      43.311  34.690  32.094  1.00  0.00    -0.061 NA
ATOM     17  C   UNL A   1      40.461  34.931  29.808  1.00  0.00     0.069 C 
BRANCH  13  18
ATOM     18  C   UNL A   1      43.324  35.990  28.761  1.00  0.00     0.087 C 
ATOM     19  C   UNL A   1      43.318  35.099  27.545  1.00  0.00     0.071 C 
ATOM     20  N   UNL A   1      43.606  37.260  28.847  1.00  0.00    -0.176 NA
BRANCH  20  21
ATOM     21  N   UNL A   1      44.050  38.037  27.799  1.00  0.00    -0.252 N 
ATOM     22  H   UNL A   1      45.023  38.012  27.650  1.00  0.00     0.193 HD
BRANCH  21  23
ATOM     23  C   UNL A   1      43.365  38.830  26.938  1.00  0.00     0.203 A 
ATOM     24  N   UNL A   1      43.880  39.769  26.180  1.00  0.00    -0.219 NA
ATOM     25  S   UNL A   1      41.640  38.734  26.839  1.00  0.00    -0.103 S 
ATOM     26  C   UNL A   1      42.906  40.669  25.805  1.00  0.00     0.084 A 
ATOM     27  C   UNL A   1      41.613  40.277  26.076  1.00  0.00     0.097 A 
BRANCH  26  28
ATOM     28  C   UNL A   1      43.302  41.971  25.300  1.00  0.00     0.001 A 
ATOM     29  C   UNL A   1      42.777  42.429  24.085  1.00  0.00     0.012 A 
ATOM     30  C   UNL A   1      44.319  42.701  25.930  1.00  0.00     0.012 A 
ATOM     31  C   UNL A   1      43.240  43.620  23.522  1.00  0.00     0.021 A 
ATOM     32  C   UNL A   1      44.794  43.886  25.359  1.00  0.00     0.021 A 
ATOM     33  C   UNL A   1      44.247  44.343  24.160  1.00  0.00     0.041 A 
ATOM     34  Cl  UNL A   1      44.832  45.799  23.455  1.00  0.00    -0.084 Cl
ENDBRANCH  26  28
ENDBRANCH  21  23
ENDBRANCH  20  21
ENDBRANCH  13  18
ENDBRANCH   7  12
ENDBRANCH   3   6
ENDBRANCH   1   2
BRANCH   1  35
ATOM     35  C   UNL A   1      34.749  33.814  32.015  1.00  0.00     0.042 C 
BRANCH  35  36
ATOM     36  C   UNL A   1      34.718  32.402  31.470  1.00  0.00     0.118 C 
BRANCH  36  37
ATOM     37  N   UNL A   1      34.397  32.363  30.043  1.00  0.00    -0.352 N 
ATOM     38  C   UNL A   1      35.222  31.995  28.994  1.00  0.00     0.251 C 
ATOM     39  H   UNL A   1      33.482  32.631  29.798  1.00  0.00     0.163 HD
ATOM     40  O   UNL A   1      34.951  32.313  27.851  1.00  0.00    -0.269 OA
BRANCH  38  41
ATOM     41  C   UNL A   1      36.440  31.219  29.300  1.00  0.00     0.039 A 
ATOM     42  C   UNL A   1      36.420  29.824  29.314  1.00  0.00     0.014 A 
ATOM     43  C   UNL A   1      37.622  31.918  29.530  1.00  0.00     0.014 A 
ATOM     44  C   UNL A   1      37.622  29.142  29.487  1.00  0.00     0.010 A 
ATOM     45  C   UNL A   1      38.817  31.253  29.509  1.00  0.00     0.010 A 
ATOM     46  C   UNL A   1      38.821  29.867  29.561  1.00  0.00    -0.014 A 
BRANCH  46  47
ATOM     47  C   UNL A   1      40.105  29.183  29.596  1.00  0.00     0.031 A 
ATOM     48  C   UNL A   1      40.637  28.937  30.963  1.00  0.00     0.074 A 
ATOM     49  C   UNL A   1      40.666  28.623  28.501  1.00  0.00     0.049 A 
ATOM     50  N   UNL A   1      41.660  29.496  31.517  1.00  0.00    -0.248 NA
ATOM     51  C   UNL A   1      39.849  28.096  31.878  1.00  0.00     0.031 C 
ATOM     52  C   UNL A   1      40.093  28.482  27.155  1.00  0.00     0.029 A 
ATOM     53  N   UNL A   1      41.820  27.910  28.406  1.00  0.00    -0.354 N 
ATOM     54  C   UNL A   1      41.795  28.882  32.762  1.00  0.00     0.074 A 
ATOM     55  C   UNL A   1      40.547  28.212  33.010  1.00  0.00     0.031 C 
ATOM     56  C   UNL A   1      40.752  27.510  26.486  1.00  0.00     0.029 A 
ATOM     57  C   UNL A   1      41.895  27.101  27.278  1.00  0.00     0.049 A 
ATOM     58  H   UNL A   1      42.538  27.963  29.077  1.00  0.00     0.167 HD
ATOM     59  C   UNL A   1      43.014  28.757  33.356  1.00  0.00     0.034 A 
ATOM     60  C   UNL A   1      42.801  26.120  27.047  1.00  0.00     0.034 A 
ATOM     61  C   UNL A   1      43.993  29.608  32.722  1.00  0.00     0.049 A 
ATOM     62  C   UNL A   1      43.961  26.388  27.928  1.00  0.00     0.074 A 
ATOM     63  C   UNL A   1      44.089  30.961  32.459  1.00  0.00     0.029 A 
ATOM     64  N   UNL A   1      44.896  29.000  31.882  1.00  0.00    -0.354 N 
ATOM     65  N   UNL A   1      44.730  27.434  27.805  1.00  0.00    -0.248 NA
ATOM     66  C   UNL A   1      43.990  25.736  29.227  1.00  0.00     0.031 C 
ATOM     67  C   UNL A   1      44.648  31.036  31.150  1.00  0.00     0.029 A 
ATOM     68  C   UNL A   1      44.935  29.736  30.728  1.00  0.00     0.049 A 
ATOM     69  H   UNL A   1      45.418  28.188  32.075  1.00  0.00     0.167 HD
ATOM     70  C   UNL A   1      44.960  27.845  29.112  1.00  0.00     0.074 A 
ATOM     71  C   UNL A   1      44.571  26.703  29.942  1.00  0.00     0.031 C 
ATOM     72  C   UNL A   1      45.156  29.161  29.419  1.00  0.00     0.034 A 
BRANCH  59  73
ATOM     73  C   UNL A   1      43.444  27.606  34.245  1.00  0.00     0.023 A 
ATOM     74  C   UNL A   1      43.860  27.932  35.557  1.00  0.00     0.012 A 
ATOM     75  C   UNL A   1      43.732  26.299  33.793  1.00  0.00     0.148 A 
ATOM     76  C   UNL A   1      44.590  27.035  36.345  1.00  0.00     0.002 A 
ATOM     77  C   UNL A   1      44.386  25.383  34.609  1.00  0.00     0.091 A 
ATOM     78  F   UNL A   1      43.500  25.959  32.523  1.00  0.00    -0.205 F 
ATOM     79  C   UNL A   1      44.851  25.757  35.871  1.00  0.00     0.022 A 
BRANCH  77  80
ATOM     80  S   UNL A   1      44.704  23.698  34.066  1.00  0.00     0.127 S 
ATOM     81  O   UNL A   1      43.877  23.618  32.866  1.00  0.00    -0.237 OA
ATOM     82  O   UNL A   1      46.148  23.731  33.826  1.00  0.00    -0.237 OA
ATOM     83  O   UNL A   1      44.306  22.848  35.181  1.00  0.00    -0.744 OA
ENDBRANCH  77  80
ENDBRANCH  59  73
BRANCH  60  84
ATOM     84  C   UNL A   1      42.625  24.831  26.339  1.00  0.00     0.023 A 
ATOM     85  C   UNL A   1      43.605  24.397  25.426  1.00  0.00     0.012 A 
ATOM     86  C   UNL A   1      41.650  23.899  26.762  1.00  0.00     0.148 A 
ATOM     87  C   UNL A   1      43.634  23.072  24.973  1.00  0.00     0.002 A 
ATOM     88  C   UNL A   1      41.677  22.585  26.302  1.00  0.00     0.091 A 
ATOM     89  F   UNL A   1      40.755  24.274  27.685  1.00  0.00    -0.205 F 
ATOM     90  C   UNL A   1      42.677  22.164  25.418  1.00  0.00     0.022 A 
BRANCH  88  91
ATOM     91  S   UNL A   1      40.485  21.355  26.850  1.00  0.00     0.127 S 
ATOM     92  O   UNL A   1      40.908  20.170  26.102  1.00  0.00    -0.237 OA
ATOM     93  O   UNL A   1      40.748  21.299  28.285  1.00  0.00    -0.237 OA
ATOM     94  O   UNL A   1      39.179  21.873  26.465  1.00  0.00    -0.744 OA
ENDBRANCH  88  91
ENDBRANCH  60  84
BRANCH  72  95
ATOM     95  C   UNL A   1      45.364  30.144  28.292  1.00  0.00     0.023 A 
ATOM     96  C   UNL A   1      44.292  30.753  27.607  1.00  0.00     0.012 A 
ATOM     97  C   UNL A   1      46.669  30.606  28.054  1.00  0.00     0.148 A 
ATOM     98  C   UNL A   1      44.520  31.786  26.692  1.00  0.00     0.002 A 
ATOM     99  C   UNL A   1      46.888  31.664  27.181  1.00  0.00     0.091 A 
ATOM    100  F   UNL A   1      47.679  30.019  28.715  1.00  0.00    -0.205 F 
ATOM    101  C   UNL A   1      45.817  32.252  26.491  1.00  0.00     0.022 A 
BRANCH  99 102
ATOM    102  S   UNL A   1      48.517  32.389  26.981  1.00  0.00     0.127 S 
ATOM    103  O   UNL A   1      48.285  33.375  25.928  1.00  0.00    -0.237 OA
ATOM    104  O   UNL A   1      48.773  32.959  28.305  1.00  0.00    -0.237 OA
ATOM    105  O   UNL A   1      49.405  31.289  26.628  1.00  0.00    -0.744 OA
ENDBRANCH  99 102
ENDBRANCH  72  95
ENDBRANCH  46  47
ENDBRANCH  38  41
ENDBRANCH  36  37
ENDBRANCH  35  36
ENDBRANCH   1  35
TORSDOF 18
ENDMDL
MODEL 2
REMARK VINA RESULT:     -10.7      5.689      9.799
REMARK SMILES C/C(=N\Nc1nc(-c2ccc(Cl)cc2)cs1)c1nnn(-c2ccc(C(=O)NCCCNC(=O)c3ccc(-c4c5nc(c(-c6cccc(S(=O)(=O)[O-])c6F)c6ccc([nH]6)c(-c6cccc(S(=O)(=O)[O-])c6F)c6nc(c(-c7cccc(S(=O)(=O)[O-])c7F)c7ccc4[nH]7)C=C6)C=C5)cc3)cc2)c1C
REMARK SMILES IDX 28 1 27 2 25 3 26 4 24 6 21 7 22 8 98 9 23 10 97 11 20 12
REMARK SMILES IDX 17 13 18 14 99 15 19 16 100 17 2 18 1 19 3 20 4 21 5 23 6 24
REMARK SMILES IDX 16 25 7 26 15 27 8 28 9 29 14 30 10 31 13 32 11 33 12 34
REMARK SMILES IDX 29 35 30 36 31 37 32 38 33 40 34 41 35 42 96 43 36 44 95 45
REMARK SMILES IDX 37 46 38 47 39 48 89 49 40 50 94 51 88 52 90 53 41 54 93 55
REMARK SMILES IDX 87 56 86 57 42 59 74 60 54 61 73 62 55 63 58 64 72 65 91 66
REMARK SMILES IDX 56 67 57 68 71 70 92 71 59 72 43 73 44 74 52 75 45 76 47 77
REMARK SMILES IDX 53 78 46 79 48 80 49 81 50 82 51 83 75 84 76 85 84 86 77 87
REMARK SMILES IDX 79 88 85 89 78 90 80 91 81 92 82 93 83 94 60 95 61 96 69 97
REMARK SMILES IDX 62 98 64 99 70 100 63 101 65 102 66 103 67 104 68 105
REMARK H PARENT 27 5 4 22 31 39 90 58 58 69
REMARK Flexibility Score: inf
ROOT
ATOM      1  C   UNL A   1      34.039  22.076  23.888  1.00  0.00     0.118 C 
ENDROOT
BRANCH   1   2
ATOM      2  N   UNL A   1      32.696  22.559  23.603  1.00  0.00    -0.352 N 
ATOM      3  C   UNL A   1      32.107  23.795  23.748  1.00  0.00     0.251 C 
ATOM      4  O   UNL A   1      31.013  23.980  23.221  1.00  0.00    -0.269 OA
ATOM      5  H   UNL A   1      32.093  21.871  23.237  1.00  0.00     0.163 HD
BRANCH   3   6
ATOM      6  C   UNL A   1      32.770  24.932  24.444  1.00  0.00     0.039 A 
ATOM      7  C   UNL A   1      33.688  27.200  25.777  1.00  0.00     0.067 A 
ATOM      8  C   UNL A   1      33.051  26.201  26.513  1.00  0.00     0.029 A 
ATOM      9  C   UNL A   1      33.994  27.016  24.430  1.00  0.00     0.029 A 
ATOM     10  C   UNL A   1      32.574  25.075  25.831  1.00  0.00     0.016 A 
ATOM     11  C   UNL A   1      33.567  25.867  23.785  1.00  0.00     0.016 A 
BRANCH   7  12
ATOM     12  N   UNL A   1      33.862  28.481  26.317  1.00  0.00    -0.217 N 
ATOM     13  C   UNL A   1      33.557  30.532  26.963  1.00  0.00     0.132 A 
ATOM     14  N   UNL A   1      34.829  30.148  27.297  1.00  0.00    -0.128 NA
ATOM     15  C   UNL A   1      32.907  29.478  26.341  1.00  0.00     0.071 A 
ATOM     16  N   UNL A   1      34.967  28.863  26.983  1.00  0.00    -0.061 NA
ATOM     17  C   UNL A   1      31.490  29.295  25.922  1.00  0.00     0.069 C 
BRANCH  13  18
ATOM     18  C   UNL A   1      32.948  31.792  27.355  1.00  0.00     0.087 C 
ATOM     19  C   UNL A   1      31.635  32.089  26.676  1.00  0.00     0.071 C 
ATOM     20  N   UNL A   1      33.633  32.535  28.180  1.00  0.00    -0.176 NA
BRANCH  20  21
ATOM     21  N   UNL A   1      33.300  33.824  28.533  1.00  0.00    -0.252 N 
ATOM     22  H   UNL A   1      32.644  34.258  27.941  1.00  0.00     0.193 HD
BRANCH  21  23
ATOM     23  C   UNL A   1      33.728  34.594  29.565  1.00  0.00     0.203 A 
ATOM     24  N   UNL A   1      34.765  34.349  30.330  1.00  0.00    -0.219 NA
ATOM     25  S   UNL A   1      32.829  35.991  30.050  1.00  0.00    -0.103 S 
ATOM     26  C   UNL A   1      34.650  35.026  31.524  1.00  0.00     0.084 A 
ATOM     27  C   UNL A   1      33.650  35.974  31.564  1.00  0.00     0.097 A 
BRANCH  26  28
ATOM     28  C   UNL A   1      35.463  34.615  32.653  1.00  0.00     0.001 A 
ATOM     29  C   UNL A   1      34.849  34.316  33.875  1.00  0.00     0.012 A 
ATOM     30  C   UNL A   1      36.863  34.668  32.580  1.00  0.00     0.012 A 
ATOM     31  C   UNL A   1      35.623  34.041  35.005  1.00  0.00     0.021 A 
ATOM     32  C   UNL A   1      37.638  34.407  33.715  1.00  0.00     0.021 A 
ATOM     33  C   UNL A   1      37.014  34.089  34.920  1.00  0.00     0.041 A 
ATOM     34  Cl  UNL A   1      37.967  33.771  36.317  1.00  0.00    -0.084 Cl
ENDBRANCH  26  28
ENDBRANCH  21  23
ENDBRANCH  20  21
ENDBRANCH  13  18
ENDBRANCH   7  12
ENDBRANCH   3   6
ENDBRANCH   1   2
BRANCH   1  35
ATOM     35  C   UNL A   1      34.243  21.722  25.368  1.00  0.00     0.042 C 
BRANCH  35  36
ATOM     36  C   UNL A   1      35.693  21.828  25.791  1.00  0.00     0.118 C 
BRANCH  36  37
ATOM     37  N   UNL A   1      36.440  20.597  25.536  1.00  0.00    -0.352 N 
ATOM     38  C   UNL A   1      37.809  20.442  25.406  1.00  0.00     0.251 C 
ATOM     39  H   UNL A   1      35.903  19.777  25.445  1.00  0.00     0.163 HD
ATOM     40  O   UNL A   1      38.274  19.449  24.878  1.00  0.00    -0.269 OA
BRANCH  38  41
ATOM     41  C   UNL A   1      38.686  21.516  25.913  1.00  0.00     0.039 A 
ATOM     42  C   UNL A   1      38.364  22.860  25.719  1.00  0.00     0.014 A 
ATOM     43  C   UNL A   1      39.822  21.152  26.629  1.00  0.00     0.014 A 
ATOM     44  C   UNL A   1      39.160  23.830  26.322  1.00  0.00     0.010 A 
ATOM     45  C   UNL A   1      40.487  22.090  27.371  1.00  0.00     0.010 A 
ATOM     46  C   UNL A   1      40.209  23.433  27.167  1.00  0.00    -0.014 A 
BRANCH  46  47
ATOM     47  C   UNL A   1      40.968  24.417  27.925  1.00  0.00     0.031 A 
ATOM     48  C   UNL A   1      40.256  25.702  28.155  1.00  0.00     0.074 A 
ATOM     49  C   UNL A   1      42.126  24.120  28.555  1.00  0.00     0.049 A 
ATOM     50  N   UNL A   1      40.532  26.854  27.641  1.00  0.00    -0.248 NA
ATOM     51  C   UNL A   1      38.997  25.676  28.916  1.00  0.00     0.031 C 
ATOM     52  C   UNL A   1      42.770  22.807  28.706  1.00  0.00     0.029 A 
ATOM     53  N   UNL A   1      42.898  24.919  29.338  1.00  0.00    -0.354 N 
ATOM     54  C   UNL A   1      39.633  27.748  28.219  1.00  0.00     0.074 A 
ATOM     55  C   UNL A   1      38.594  26.944  28.804  1.00  0.00     0.031 C 
ATOM     56  C   UNL A   1      43.641  22.852  29.739  1.00  0.00     0.029 A 
ATOM     57  C   UNL A   1      43.752  24.225  30.188  1.00  0.00     0.049 A 
ATOM     58  H   UNL A   1      42.855  25.902  29.305  1.00  0.00     0.167 HD
ATOM     59  C   UNL A   1      39.961  29.059  28.397  1.00  0.00     0.034 A 
ATOM     60  C   UNL A   1      44.449  24.742  31.229  1.00  0.00     0.034 A 
ATOM     61  C   UNL A   1      41.130  29.412  27.628  1.00  0.00     0.049 A 
ATOM     62  C   UNL A   1      44.547  26.202  31.002  1.00  0.00     0.074 A 
ATOM     63  C   UNL A   1      41.480  29.346  26.293  1.00  0.00     0.029 A 
ATOM     64  N   UNL A   1      42.314  29.540  28.317  1.00  0.00    -0.354 N 
ATOM     65  N   UNL A   1      45.204  26.732  30.008  1.00  0.00    -0.248 NA
ATOM     66  C   UNL A   1      43.535  27.051  31.609  1.00  0.00     0.031 C 
ATOM     67  C   UNL A   1      42.842  28.924  26.296  1.00  0.00     0.029 A 
ATOM     68  C   UNL A   1      43.263  28.839  27.625  1.00  0.00     0.049 A 
ATOM     69  H   UNL A   1      42.452  30.043  29.152  1.00  0.00     0.167 HD
ATOM     70  C   UNL A   1      44.386  27.765  29.568  1.00  0.00     0.074 A 
ATOM     71  C   UNL A   1      43.430  27.980  30.655  1.00  0.00     0.031 C 
ATOM     72  C   UNL A   1      44.364  28.144  28.256  1.00  0.00     0.034 A 
BRANCH  59  73
ATOM     73  C   UNL A   1      39.488  29.935  29.540  1.00  0.00     0.023 A 
ATOM     74  C   UNL A   1      39.042  31.235  29.208  1.00  0.00     0.012 A 
ATOM     75  C   UNL A   1      39.721  29.673  30.909  1.00  0.00     0.148 A 
ATOM     76  C   UNL A   1      38.910  32.240  30.173  1.00  0.00     0.002 A 
ATOM     77  C   UNL A   1      39.510  30.651  31.875  1.00  0.00     0.091 A 
ATOM     78  F   UNL A   1      40.275  28.520  31.290  1.00  0.00    -0.205 F 
ATOM     79  C   UNL A   1      39.142  31.946  31.509  1.00  0.00     0.022 A 
BRANCH  77  80
ATOM     80  S   UNL A   1      39.744  30.311  33.625  1.00  0.00     0.127 S 
ATOM     81  O   UNL A   1      39.730  31.658  34.188  1.00  0.00    -0.237 OA
ATOM     82  O   UNL A   1      38.565  29.498  33.930  1.00  0.00    -0.237 OA
ATOM     83  O   UNL A   1      41.005  29.587  33.718  1.00  0.00    -0.744 OA
ENDBRANCH  77  80
ENDBRANCH  59  73
BRANCH  60  84
ATOM     84  C   UNL A   1      44.790  24.118  32.529  1.00  0.00     0.023 A 
ATOM     85  C   UNL A   1      44.016  23.047  33.013  1.00  0.00     0.012 A 
ATOM     86  C   UNL A   1      46.030  24.379  33.154  1.00  0.00     0.148 A 
ATOM     87  C   UNL A   1      44.474  22.241  34.064  1.00  0.00     0.002 A 
ATOM     88  C   UNL A   1      46.478  23.581  34.204  1.00  0.00     0.091 A 
ATOM     89  F   UNL A   1      46.812  25.348  32.660  1.00  0.00    -0.205 F 
ATOM     90  C   UNL A   1      45.708  22.502  34.653  1.00  0.00     0.022 A 
BRANCH  88  91
ATOM     91  S   UNL A   1      48.070  23.849  34.997  1.00  0.00     0.127 S 
ATOM     92  O   UNL A   1      47.995  22.938  36.140  1.00  0.00    -0.237 OA
ATOM     93  O   UNL A   1      49.001  23.441  33.949  1.00  0.00    -0.237 OA
ATOM     94  O   UNL A   1      48.099  25.261  35.357  1.00  0.00    -0.744 OA
ENDBRANCH  88  91
ENDBRANCH  60  84
BRANCH  72  95
ATOM     95  C   UNL A   1      45.420  27.595  27.326  1.00  0.00     0.023 A 
ATOM     96  C   UNL A   1      46.724  28.127  27.257  1.00  0.00     0.012 A 
ATOM     97  C   UNL A   1      45.143  26.393  26.652  1.00  0.00     0.148 A 
ATOM     98  C   UNL A   1      47.723  27.485  26.518  1.00  0.00     0.002 A 
ATOM     99  C   UNL A   1      46.149  25.732  25.959  1.00  0.00     0.091 A 
ATOM    100  F   UNL A   1      43.898  25.896  26.730  1.00  0.00    -0.205 F 
ATOM    101  C   UNL A   1      47.439  26.279  25.882  1.00  0.00     0.022 A 
BRANCH  99 102
ATOM    102  S   UNL A   1      45.876  24.115  25.231  1.00  0.00     0.127 S 
ATOM    103  O   UNL A   1      46.082  23.228  26.374  1.00  0.00    -0.237 OA
ATOM    104  O   UNL A   1      44.489  24.207  24.770  1.00  0.00    -0.237 OA
ATOM    105  O   UNL A   1      46.851  23.991  24.155  1.00  0.00    -0.744 OA
ENDBRANCH  99 102
ENDBRANCH  72  95
ENDBRANCH  46  47
ENDBRANCH  38  41
ENDBRANCH  36  37
ENDBRANCH  35  36
ENDBRANCH   1  35
TORSDOF 18
ENDMDL
MODEL 3
REMARK VINA RESULT:     -10.7      1.609      1.897
REMARK SMILES C/C(=N\Nc1nc(-c2ccc(Cl)cc2)cs1)c1nnn(-c2ccc(C(=O)NCCCNC(=O)c3ccc(-c4c5nc(c(-c6cccc(S(=O)(=O)[O-])c6F)c6ccc([nH]6)c(-c6cccc(S(=O)(=O)[O-])c6F)c6nc(c(-c7cccc(S(=O)(=O)[O-])c7F)c7ccc4[nH]7)C=C6)C=C5)cc3)cc2)c1C
REMARK SMILES IDX 28 1 27 2 25 3 26 4 24 6 21 7 22 8 98 9 23 10 97 11 20 12
REMARK SMILES IDX 17 13 18 14 99 15 19 16 100 17 2 18 1 19 3 20 4 21 5 23 6 24
REMARK SMILES IDX 16 25 7 26 15 27 8 28 9 29 14 30 10 31 13 32 11 33 12 34
REMARK SMILES IDX 29 35 30 36 31 37 32 38 33 40 34 41 35 42 96 43 36 44 95 45
REMARK SMILES IDX 37 46 38 47 39 48 89 49 40 50 94 51 88 52 90 53 41 54 93 55
REMARK SMILES IDX 87 56 86 57 42 59 74 60 54 61 73 62 55 63 58 64 72 65 91 66
REMARK SMILES IDX 56 67 57 68 71 70 92 71 59 72 43 73 44 74 52 75 45 76 47 77
REMARK SMILES IDX 53 78 46 79 48 80 49 81 50 82 51 83 75 84 76 85 84 86 77 87
REMARK SMILES IDX 79 88 85 89 78 90 80 91 81 92 82 93 83 94 60 95 61 96 69 97
REMARK SMILES IDX 62 98 64 99 70 100 63 101 65 102 66 103 67 104 68 105
REMARK H PARENT 27 5 4 22 31 39 90 58 58 69
REMARK Flexibility Score: inf
ROOT
ATOM      1  C   UNL A   1      35.718  33.061  33.470  1.00  0.00     0.118 C 
ENDROOT
BRANCH   1   2
ATOM      2  N   UNL A   1      36.444  31.886  33.930  1.00  0.00    -0.352 N 
ATOM      3  C   UNL A   1      37.787  31.589  33.976  1.00  0.00     0.251 C 
ATOM      4  O   UNL A   1      38.141  30.604  34.619  1.00  0.00    -0.269 OA
ATOM      5  H   UNL A   1      35.865  31.167  34.272  1.00  0.00     0.163 HD
BRANCH   3   6
ATOM      6  C   UNL A   1      38.830  32.450  33.352  1.00  0.00     0.039 A 
ATOM      7  C   UNL A   1      40.615  34.001  31.879  1.00  0.00     0.067 A 
ATOM      8  C   UNL A   1      39.355  34.522  32.169  1.00  0.00     0.029 A 
ATOM      9  C   UNL A   1      41.038  32.793  32.430  1.00  0.00     0.029 A 
ATOM     10  C   UNL A   1      38.457  33.727  32.892  1.00  0.00     0.016 A 
ATOM     11  C   UNL A   1      40.155  32.047  33.193  1.00  0.00     0.016 A 
BRANCH   7  12
ATOM     12  N   UNL A   1      41.411  34.576  30.879  1.00  0.00    -0.217 N 
ATOM     13  C   UNL A   1      42.121  35.447  29.021  1.00  0.00     0.132 A 
ATOM     14  N   UNL A   1      43.163  35.387  29.906  1.00  0.00    -0.128 NA
ATOM     15  C   UNL A   1      40.978  34.942  29.620  1.00  0.00     0.071 A 
ATOM     16  N   UNL A   1      42.692  34.944  31.068  1.00  0.00    -0.061 NA
ATOM     17  C   UNL A   1      39.556  34.913  29.179  1.00  0.00     0.069 C 
BRANCH  13  18
ATOM     18  C   UNL A   1      42.182  36.092  27.719  1.00  0.00     0.087 C 
ATOM     19  C   UNL A   1      42.898  35.294  26.659  1.00  0.00     0.071 C 
ATOM     20  N   UNL A   1      41.680  37.293  27.644  1.00  0.00    -0.176 NA
BRANCH  20  21
ATOM     21  N   UNL A   1      41.792  38.122  26.549  1.00  0.00    -0.252 N 
ATOM     22  H   UNL A   1      41.605  37.691  25.684  1.00  0.00     0.193 HD
BRANCH  21  23
ATOM     23  C   UNL A   1      42.120  39.436  26.468  1.00  0.00     0.203 A 
ATOM     24  N   UNL A   1      41.818  40.246  25.482  1.00  0.00    -0.219 NA
ATOM     25  S   UNL A   1      43.112  40.169  27.682  1.00  0.00    -0.103 S 
ATOM     26  C   UNL A   1      42.668  41.330  25.475  1.00  0.00     0.084 A 
ATOM     27  C   UNL A   1      43.453  41.463  26.599  1.00  0.00     0.097 A 
BRANCH  26  28
ATOM     28  C   UNL A   1      42.771  42.142  24.276  1.00  0.00     0.001 A 
ATOM     29  C   UNL A   1      41.742  42.106  23.327  1.00  0.00     0.012 A 
ATOM     30  C   UNL A   1      43.955  42.835  23.984  1.00  0.00     0.012 A 
ATOM     31  C   UNL A   1      41.880  42.781  22.112  1.00  0.00     0.021 A 
ATOM     32  C   UNL A   1      44.099  43.498  22.761  1.00  0.00     0.021 A 
ATOM     33  C   UNL A   1      43.058  43.473  21.834  1.00  0.00     0.041 A 
ATOM     34  Cl  UNL A   1      43.235  44.287  20.328  1.00  0.00    -0.084 Cl
ENDBRANCH  26  28
ENDBRANCH  21  23
ENDBRANCH  20  21
ENDBRANCH  13  18
ENDBRANCH   7  12
ENDBRANCH   3   6
ENDBRANCH   1   2
BRANCH   1  35
ATOM     35  C   UNL A   1      34.853  32.781  32.233  1.00  0.00     0.042 C 
BRANCH  35  36
ATOM     36  C   UNL A   1      35.432  31.685  31.363  1.00  0.00     0.118 C 
BRANCH  36  37
ATOM     37  N   UNL A   1      34.944  31.751  29.986  1.00  0.00    -0.352 N 
ATOM     38  C   UNL A   1      35.670  31.607  28.817  1.00  0.00     0.251 C 
ATOM     39  H   UNL A   1      33.980  31.918  29.876  1.00  0.00     0.163 HD
ATOM     40  O   UNL A   1      35.223  32.003  27.756  1.00  0.00    -0.269 OA
BRANCH  38  41
ATOM     41  C   UNL A   1      37.002  30.974  28.893  1.00  0.00     0.039 A 
ATOM     42  C   UNL A   1      38.104  31.673  29.388  1.00  0.00     0.014 A 
ATOM     43  C   UNL A   1      37.120  29.645  28.498  1.00  0.00     0.014 A 
ATOM     44  C   UNL A   1      39.307  30.992  29.552  1.00  0.00     0.010 A 
ATOM     45  C   UNL A   1      38.239  28.934  28.834  1.00  0.00     0.010 A 
ATOM     46  C   UNL A   1      39.359  29.613  29.293  1.00  0.00    -0.014 A 
BRANCH  46  47
ATOM     47  C   UNL A   1      40.557  28.843  29.591  1.00  0.00     0.031 A 
ATOM     48  C   UNL A   1      40.911  28.786  31.034  1.00  0.00     0.074 A 
ATOM     49  C   UNL A   1      41.175  28.066  28.673  1.00  0.00     0.049 A 
ATOM     50  N   UNL A   1      41.919  29.344  31.617  1.00  0.00    -0.248 NA
ATOM     51  C   UNL A   1      39.950  28.174  31.965  1.00  0.00     0.031 C 
ATOM     52  C   UNL A   1      40.739  27.751  27.305  1.00  0.00     0.029 A 
ATOM     53  N   UNL A   1      42.256  27.258  28.832  1.00  0.00    -0.354 N 
ATOM     54  C   UNL A   1      41.856  28.936  32.948  1.00  0.00     0.074 A 
ATOM     55  C   UNL A   1      40.529  28.419  33.142  1.00  0.00     0.031 C 
ATOM     56  C   UNL A   1      41.367  26.632  26.882  1.00  0.00     0.029 A 
ATOM     57  C   UNL A   1      42.372  26.269  27.861  1.00  0.00     0.049 A 
ATOM     58  H   UNL A   1      42.899  27.363  29.570  1.00  0.00     0.167 HD
ATOM     59  C   UNL A   1      42.986  28.814  33.700  1.00  0.00     0.034 A 
ATOM     60  C   UNL A   1      43.196  25.194  27.898  1.00  0.00     0.034 A 
ATOM     61  C   UNL A   1      44.107  29.466  33.066  1.00  0.00     0.049 A 
ATOM     62  C   UNL A   1      44.275  25.510  28.862  1.00  0.00     0.074 A 
ATOM     63  C   UNL A   1      44.364  30.745  32.610  1.00  0.00     0.029 A 
ATOM     64  N   UNL A   1      45.031  28.657  32.448  1.00  0.00    -0.354 N 
ATOM     65  N   UNL A   1      45.152  26.457  28.674  1.00  0.00    -0.248 NA
ATOM     66  C   UNL A   1      44.098  25.082  30.241  1.00  0.00     0.031 C 
ATOM     67  C   UNL A   1      45.066  30.557  31.383  1.00  0.00     0.029 A 
ATOM     68  C   UNL A   1      45.267  29.186  31.208  1.00  0.00     0.049 A 
ATOM     69  H   UNL A   1      45.446  27.849  32.826  1.00  0.00     0.167 HD
ATOM     70  C   UNL A   1      45.279  27.058  29.920  1.00  0.00     0.074 A 
ATOM     71  C   UNL A   1      44.692  26.104  30.862  1.00  0.00     0.031 C 
ATOM     72  C   UNL A   1      45.570  28.387  30.041  1.00  0.00     0.034 A 
BRANCH  59  73
ATOM     73  C   UNL A   1      43.201  27.796  34.802  1.00  0.00     0.023 A 
ATOM     74  C   UNL A   1      43.529  28.299  36.082  1.00  0.00     0.012 A 
ATOM     75  C   UNL A   1      43.382  26.409  34.599  1.00  0.00     0.148 A 
ATOM     76  C   UNL A   1      44.079  27.483  37.078  1.00  0.00     0.002 A 
ATOM     77  C   UNL A   1      43.852  25.587  35.616  1.00  0.00     0.091 A 
ATOM     78  F   UNL A   1      43.230  25.881  33.382  1.00  0.00    -0.205 F 
ATOM     79  C   UNL A   1      44.238  26.124  36.845  1.00  0.00     0.022 A 
BRANCH  77  80
ATOM     80  S   UNL A   1      44.027  23.812  35.388  1.00  0.00     0.127 S 
ATOM     81  O   UNL A   1      42.648  23.415  35.119  1.00  0.00    -0.237 OA
ATOM     82  O   UNL A   1      44.928  23.749  34.236  1.00  0.00    -0.237 OA
ATOM     83  O   UNL A   1      44.609  23.314  36.627  1.00  0.00    -0.744 OA
ENDBRANCH  77  80
ENDBRANCH  59  73
BRANCH  60  84
ATOM     84  C   UNL A   1      42.970  23.824  27.382  1.00  0.00     0.023 A 
ATOM     85  C   UNL A   1      41.708  23.220  27.535  1.00  0.00     0.012 A 
ATOM     86  C   UNL A   1      43.894  23.221  26.499  1.00  0.00     0.148 A 
ATOM     87  C   UNL A   1      41.363  22.073  26.808  1.00  0.00     0.002 A 
ATOM     88  C   UNL A   1      43.551  22.076  25.785  1.00  0.00     0.091 A 
ATOM     89  F   UNL A   1      45.072  23.823  26.287  1.00  0.00    -0.205 F 
ATOM     90  C   UNL A   1      42.280  21.507  25.927  1.00  0.00     0.022 A 
BRANCH  88  91
ATOM     91  S   UNL A   1      44.679  21.304  24.616  1.00  0.00     0.127 S 
ATOM     92  O   UNL A   1      44.560  22.187  23.454  1.00  0.00    -0.237 OA
ATOM     93  O   UNL A   1      45.953  21.393  25.323  1.00  0.00    -0.237 OA
ATOM     94  O   UNL A   1      44.164  19.958  24.401  1.00  0.00    -0.744 OA
ENDBRANCH  88  91
ENDBRANCH  60  84
BRANCH  72  95
ATOM     95  C   UNL A   1      45.995  29.150  28.809  1.00  0.00     0.023 A 
ATOM     96  C   UNL A   1      45.069  29.710  27.904  1.00  0.00     0.012 A 
ATOM     97  C   UNL A   1      47.356  29.471  28.670  1.00  0.00     0.148 A 
ATOM     98  C   UNL A   1      45.494  30.556  26.875  1.00  0.00     0.002 A 
ATOM     99  C   UNL A   1      47.769  30.350  27.677  1.00  0.00     0.091 A 
ATOM    100  F   UNL A   1      48.225  28.934  29.540  1.00  0.00    -0.205 F 
ATOM    101  C   UNL A   1      46.842  30.888  26.771  1.00  0.00     0.022 A 
BRANCH  99 102
ATOM    102  S   UNL A   1      49.469  30.914  27.576  1.00  0.00     0.127 S 
ATOM    103  O   UNL A   1      49.420  31.827  26.436  1.00  0.00    -0.237 OA
ATOM    104  O   UNL A   1      49.662  31.566  28.873  1.00  0.00    -0.237 OA
ATOM    105  O   UNL A   1      50.278  29.717  27.389  1.00  0.00    -0.744 OA
ENDBRANCH  99 102
ENDBRANCH  72  95
ENDBRANCH  46  47
ENDBRANCH  38  41
ENDBRANCH  36  37
ENDBRANCH  35  36
ENDBRANCH   1  35
TORSDOF 18
ENDMDL
