MODEL 1
REMARK VINA RESULT:     -12.6      0.000      0.000
REMARK SMILES Cc1cccc(CN(C)c2ccc(C(=O)NCCCNC(=O)c3ccc(-c4c5nc(c(-c6cccc(S(=O)(=O)[O-])c6F)c6ccc([nH]6)c(-c6cccc(S(=O)(=O)[O-])c6F)c6nc(c(-c7cccc(S(=O)(=O)[O-])c7F)c7ccc4[nH]7)C=C6)C=C5)cc3)cc2C)n1
REMARK SMILES IDX 18 1 17 2 16 3 14 4 15 5 13 7 10 8 11 9 87 10 12 11 86 12
REMARK SMILES IDX 88 13 8 14 9 15 7 16 6 17 1 18 2 19 3 20 89 21 4 22 5 23
REMARK SMILES IDX 19 24 20 25 21 26 22 28 23 29 24 30 85 31 25 32 84 33 26 34
REMARK SMILES IDX 27 35 28 36 78 37 29 38 83 39 77 40 79 41 30 42 82 43 76 44
REMARK SMILES IDX 75 45 31 47 63 48 43 49 62 50 44 51 47 52 61 53 80 54 45 55
REMARK SMILES IDX 46 56 60 58 81 59 48 60 32 61 33 62 41 63 34 64 36 65 42 66
REMARK SMILES IDX 35 67 37 68 38 69 39 70 40 71 64 72 65 73 73 74 66 75 68 76
REMARK SMILES IDX 74 77 67 78 69 79 70 80 71 81 72 82 49 83 50 84 58 85 51 86
REMARK SMILES IDX 53 87 59 88 52 89 54 90 55 91 56 92 57 93
REMARK H PARENT 16 6 20 27 79 46 47 57
REMARK Flexibility Score: inf
ROOT
ATOM      1  C   UNL A   1      32.300  30.733  26.664  1.00  0.00     0.042 C 
ENDROOT
BRANCH   1   2
ATOM      2  C   UNL A   1      31.668  29.537  25.954  1.00  0.00     0.118 C 
BRANCH   2   3
ATOM      3  N   UNL A   1      31.466  29.782  24.530  1.00  0.00    -0.352 N 
ATOM      4  C   UNL A   1      31.522  28.944  23.436  1.00  0.00     0.251 C 
ATOM      5  O   UNL A   1      31.138  29.380  22.351  1.00  0.00    -0.269 OA
ATOM      6  H   UNL A   1      31.250  30.717  24.310  1.00  0.00     0.163 HD
BRANCH   4   7
ATOM      7  C   UNL A   1      32.003  27.533  23.508  1.00  0.00     0.040 A 
ATOM      8  C   UNL A   1      32.850  24.802  23.648  1.00  0.00     0.040 A 
ATOM      9  C   UNL A   1      33.746  25.864  23.572  1.00  0.00     0.027 A 
ATOM     10  C   UNL A   1      31.486  25.123  23.518  1.00  0.00    -0.027 A 
ATOM     11  C   UNL A   1      33.339  27.188  23.520  1.00  0.00     0.016 A 
ATOM     12  C   UNL A   1      31.078  26.482  23.449  1.00  0.00     0.019 A 
ATOM     13  C   UNL A   1      30.431  24.065  23.349  1.00  0.00     0.046 C 
BRANCH   8  14
ATOM     14  N   UNL A   1      33.331  23.500  23.774  1.00  0.00    -0.368 N 
ATOM     15  C   UNL A   1      34.071  23.002  22.624  1.00  0.00     0.144 C 
BRANCH  14  16
ATOM     16  C   UNL A   1      33.691  22.965  25.112  1.00  0.00     0.172 C 
BRANCH  16  17
ATOM     17  C   UNL A   1      35.174  22.691  25.374  1.00  0.00     0.060 A 
ATOM     18  C   UNL A   1      37.495  19.868  24.878  1.00  0.00     0.067 C 
ATOM     19  C   UNL A   1      36.994  21.235  25.242  1.00  0.00     0.038 A 
ATOM     20  C   UNL A   1      37.892  22.265  25.496  1.00  0.00     0.023 A 
ATOM     21  N   UNL A   1      35.648  21.424  25.211  1.00  0.00    -0.256 NA
ATOM     22  C   UNL A   1      37.397  23.541  25.730  1.00  0.00     0.004 A 
ATOM     23  C   UNL A   1      36.024  23.763  25.663  1.00  0.00     0.026 A 
ENDBRANCH  16  17
ENDBRANCH  14  16
ENDBRANCH   8  14
ENDBRANCH   4   7
ENDBRANCH   2   3
ENDBRANCH   1   2
BRANCH   1  24
ATOM     24  C   UNL A   1      33.638  30.451  27.302  1.00  0.00     0.118 C 
BRANCH  24  25
ATOM     25  N   UNL A   1      34.381  31.642  27.667  1.00  0.00    -0.352 N 
ATOM     26  C   UNL A   1      35.604  31.738  28.312  1.00  0.00     0.251 C 
ATOM     27  H   UNL A   1      33.960  32.497  27.421  1.00  0.00     0.163 HD
ATOM     28  O   UNL A   1      35.981  32.832  28.695  1.00  0.00    -0.269 OA
BRANCH  26  29
ATOM     29  C   UNL A   1      36.485  30.541  28.381  1.00  0.00     0.039 A 
ATOM     30  C   UNL A   1      36.632  29.926  29.632  1.00  0.00     0.014 A 
ATOM     31  C   UNL A   1      37.340  30.204  27.337  1.00  0.00     0.014 A 
ATOM     32  C   UNL A   1      37.788  29.203  29.907  1.00  0.00     0.010 A 
ATOM     33  C   UNL A   1      38.535  29.595  27.637  1.00  0.00     0.010 A 
ATOM     34  C   UNL A   1      38.782  29.156  28.941  1.00  0.00    -0.014 A 
BRANCH  34  35
ATOM     35  C   UNL A   1      40.134  28.685  29.157  1.00  0.00     0.031 A 
ATOM     36  C   UNL A   1      40.430  27.254  28.984  1.00  0.00     0.074 A 
ATOM     37  C   UNL A   1      41.120  29.608  29.164  1.00  0.00     0.049 A 
ATOM     38  N   UNL A   1      41.602  26.746  29.137  1.00  0.00    -0.248 NA
ATOM     39  C   UNL A   1      39.408  26.266  28.640  1.00  0.00     0.031 C 
ATOM     40  C   UNL A   1      42.512  29.440  28.757  1.00  0.00     0.029 A 
ATOM     41  N   UNL A   1      41.088  30.874  29.739  1.00  0.00    -0.354 N 
ATOM     42  C   UNL A   1      41.559  25.492  28.581  1.00  0.00     0.074 A 
ATOM     43  C   UNL A   1      40.162  25.182  28.432  1.00  0.00     0.031 C 
ATOM     44  C   UNL A   1      43.244  30.442  29.272  1.00  0.00     0.029 A 
ATOM     45  C   UNL A   1      42.383  31.154  30.200  1.00  0.00     0.049 A 
ATOM     46  H   UNL A   1      40.303  31.464  29.809  1.00  0.00     0.167 HD
ATOM     47  C   UNL A   1      42.723  24.941  28.150  1.00  0.00     0.034 A 
ATOM     48  C   UNL A   1      42.621  31.245  31.545  1.00  0.00     0.034 A 
ATOM     49  C   UNL A   1      43.880  25.664  28.691  1.00  0.00     0.049 A 
ATOM     50  C   UNL A   1      43.576  30.193  32.085  1.00  0.00     0.074 A 
ATOM     51  C   UNL A   1      44.817  26.524  28.148  1.00  0.00     0.029 A 
ATOM     52  N   UNL A   1      44.023  25.752  30.074  1.00  0.00    -0.354 N 
ATOM     53  N   UNL A   1      43.994  29.156  31.412  1.00  0.00    -0.248 NA
ATOM     54  C   UNL A   1      44.151  30.240  33.427  1.00  0.00     0.031 C 
ATOM     55  C   UNL A   1      45.428  27.233  29.224  1.00  0.00     0.029 A 
ATOM     56  C   UNL A   1      44.905  26.762  30.418  1.00  0.00     0.049 A 
ATOM     57  H   UNL A   1      43.558  25.174  30.721  1.00  0.00     0.167 HD
ATOM     58  C   UNL A   1      44.747  28.341  32.218  1.00  0.00     0.074 A 
ATOM     59  C   UNL A   1      44.888  29.115  33.441  1.00  0.00     0.031 C 
ATOM     60  C   UNL A   1      45.134  27.084  31.828  1.00  0.00     0.034 A 
BRANCH  47  61
ATOM     61  C   UNL A   1      42.825  23.848  27.109  1.00  0.00     0.023 A 
ATOM     62  C   UNL A   1      43.408  24.188  25.871  1.00  0.00     0.012 A 
ATOM     63  C   UNL A   1      42.286  22.539  27.211  1.00  0.00     0.148 A 
ATOM     64  C   UNL A   1      43.466  23.284  24.802  1.00  0.00     0.002 A 
ATOM     65  C   UNL A   1      42.418  21.612  26.174  1.00  0.00     0.091 A 
ATOM     66  F   UNL A   1      41.534  22.199  28.264  1.00  0.00    -0.205 F 
ATOM     67  C   UNL A   1      42.993  21.988  24.959  1.00  0.00     0.022 A 
BRANCH  65  68
ATOM     68  S   UNL A   1      41.894  19.897  26.356  1.00  0.00     0.127 S 
ATOM     69  O   UNL A   1      42.482  19.264  25.177  1.00  0.00    -0.237 OA
ATOM     70  O   UNL A   1      42.509  19.510  27.626  1.00  0.00    -0.237 OA
ATOM     71  O   UNL A   1      40.435  19.927  26.390  1.00  0.00    -0.744 OA
ENDBRANCH  65  68
ENDBRANCH  47  61
BRANCH  48  72
ATOM     72  C   UNL A   1      41.460  31.846  32.280  1.00  0.00     0.023 A 
ATOM     73  C   UNL A   1      41.131  33.183  31.941  1.00  0.00     0.012 A 
ATOM     74  C   UNL A   1      40.484  31.047  32.905  1.00  0.00     0.148 A 
ATOM     75  C   UNL A   1      39.824  33.656  32.065  1.00  0.00     0.002 A 
ATOM     76  C   UNL A   1      39.184  31.536  33.045  1.00  0.00     0.091 A 
ATOM     77  F   UNL A   1      40.820  29.811  33.295  1.00  0.00    -0.205 F 
ATOM     78  C   UNL A   1      38.843  32.818  32.581  1.00  0.00     0.022 A 
BRANCH  76  79
ATOM     79  S   UNL A   1      37.849  30.528  33.709  1.00  0.00     0.127 S 
ATOM     80  O   UNL A   1      37.879  30.896  35.123  1.00  0.00    -0.237 OA
ATOM     81  O   UNL A   1      36.683  31.019  32.975  1.00  0.00    -0.237 OA
ATOM     82  O   UNL A   1      38.214  29.154  33.396  1.00  0.00    -0.744 OA
ENDBRANCH  76  79
ENDBRANCH  48  72
BRANCH  60  83
ATOM     83  C   UNL A   1      45.735  26.019  32.739  1.00  0.00     0.023 A 
ATOM     84  C   UNL A   1      47.125  25.867  32.917  1.00  0.00     0.012 A 
ATOM     85  C   UNL A   1      44.909  25.217  33.574  1.00  0.00     0.148 A 
ATOM     86  C   UNL A   1      47.669  24.934  33.809  1.00  0.00     0.002 A 
ATOM     87  C   UNL A   1      45.454  24.374  34.541  1.00  0.00     0.091 A 
ATOM     88  F   UNL A   1      43.576  25.246  33.425  1.00  0.00    -0.205 F 
ATOM     89  C   UNL A   1      46.835  24.203  34.639  1.00  0.00     0.022 A 
BRANCH  87  90
ATOM     90  S   UNL A   1      44.414  23.608  35.796  1.00  0.00     0.127 S 
ATOM     91  O   UNL A   1      43.933  24.767  36.542  1.00  0.00    -0.237 OA
ATOM     92  O   UNL A   1      43.392  22.934  34.994  1.00  0.00    -0.237 OA
ATOM     93  O   UNL A   1      45.299  22.699  36.513  1.00  0.00    -0.744 OA
ENDBRANCH  87  90
ENDBRANCH  60  83
ENDBRANCH  34  35
ENDBRANCH  26  29
ENDBRANCH  24  25
ENDBRANCH   1  24
TORSDOF 16
ENDMDL
MODEL 2
REMARK VINA RESULT:     -12.6      3.849      9.603
REMARK SMILES Cc1cccc(CN(C)c2ccc(C(=O)NCCCNC(=O)c3ccc(-c4c5nc(c(-c6cccc(S(=O)(=O)[O-])c6F)c6ccc([nH]6)c(-c6cccc(S(=O)(=O)[O-])c6F)c6nc(c(-c7cccc(S(=O)(=O)[O-])c7F)c7ccc4[nH]7)C=C6)C=C5)cc3)cc2C)n1
REMARK SMILES IDX 18 1 17 2 16 3 14 4 15 5 13 7 10 8 11 9 87 10 12 11 86 12
REMARK SMILES IDX 88 13 8 14 9 15 7 16 6 17 1 18 2 19 3 20 89 21 4 22 5 23
REMARK SMILES IDX 19 24 20 25 21 26 22 28 23 29 24 30 85 31 25 32 84 33 26 34
REMARK SMILES IDX 27 35 28 36 78 37 29 38 83 39 77 40 79 41 30 42 82 43 76 44
REMARK SMILES IDX 75 45 31 47 63 48 43 49 62 50 44 51 47 52 61 53 80 54 45 55
REMARK SMILES IDX 46 56 60 58 81 59 48 60 32 61 33 62 41 63 34 64 36 65 42 66
REMARK SMILES IDX 35 67 37 68 38 69 39 70 40 71 64 72 65 73 73 74 66 75 68 76
REMARK SMILES IDX 74 77 67 78 69 79 70 80 71 81 72 82 49 83 50 84 58 85 51 86
REMARK SMILES IDX 53 87 59 88 52 89 54 90 55 91 56 92 57 93
REMARK H PARENT 16 6 20 27 79 46 47 57
REMARK Flexibility Score: inf
ROOT
ATOM      1  C   UNL A   1      37.756  21.163  25.016  1.00  0.00     0.042 C 
ENDROOT
BRANCH   1   2
ATOM      2  C   UNL A   1      36.239  21.165  24.830  1.00  0.00     0.118 C 
BRANCH   2   3
ATOM      3  N   UNL A   1      35.526  21.311  26.094  1.00  0.00    -0.352 N 
ATOM      4  C   UNL A   1      34.459  22.105  26.460  1.00  0.00     0.251 C 
ATOM      5  O   UNL A   1      33.938  21.906  27.558  1.00  0.00    -0.269 OA
ATOM      6  H   UNL A   1      35.869  20.739  26.817  1.00  0.00     0.163 HD
BRANCH   4   7
ATOM      7  C   UNL A   1      33.894  23.175  25.586  1.00  0.00     0.040 A 
ATOM      8  C   UNL A   1      32.829  25.280  23.966  1.00  0.00     0.040 A 
ATOM      9  C   UNL A   1      32.838  23.950  23.558  1.00  0.00     0.027 A 
ATOM     10  C   UNL A   1      33.495  25.572  25.171  1.00  0.00    -0.027 A 
ATOM     11  C   UNL A   1      33.338  22.927  24.348  1.00  0.00     0.016 A 
ATOM     12  C   UNL A   1      34.019  24.518  25.966  1.00  0.00     0.019 A 
ATOM     13  C   UNL A   1      33.764  26.983  25.613  1.00  0.00     0.046 C 
BRANCH   8  14
ATOM     14  N   UNL A   1      32.241  26.248  23.153  1.00  0.00    -0.368 N 
ATOM     15  C   UNL A   1      32.810  26.360  21.818  1.00  0.00     0.144 C 
BRANCH  14  16
ATOM     16  C   UNL A   1      30.806  26.593  23.324  1.00  0.00     0.172 C 
BRANCH  16  17
ATOM     17  C   UNL A   1      30.439  28.078  23.282  1.00  0.00     0.060 A 
ATOM     18  C   UNL A   1      28.094  30.194  21.376  1.00  0.00     0.067 C 
ATOM     19  C   UNL A   1      29.134  29.792  22.381  1.00  0.00     0.038 A 
ATOM     20  C   UNL A   1      29.490  30.660  23.407  1.00  0.00     0.023 A 
ATOM     21  N   UNL A   1      29.620  28.525  22.288  1.00  0.00    -0.256 NA
ATOM     22  C   UNL A   1      30.379  30.220  24.379  1.00  0.00     0.004 A 
ATOM     23  C   UNL A   1      30.856  28.913  24.323  1.00  0.00     0.026 A 
ENDBRANCH  16  17
ENDBRANCH  14  16
ENDBRANCH   8  14
ENDBRANCH   4   7
ENDBRANCH   2   3
ENDBRANCH   1   2
BRANCH   1  24
ATOM     24  C   UNL A   1      38.291  22.316  25.828  1.00  0.00     0.118 C 
BRANCH  24  25
ATOM     25  N   UNL A   1      39.586  22.064  26.430  1.00  0.00    -0.352 N 
ATOM     26  C   UNL A   1      40.520  22.977  26.895  1.00  0.00     0.251 C 
ATOM     27  H   UNL A   1      39.835  21.116  26.522  1.00  0.00     0.163 HD
ATOM     28  O   UNL A   1      41.630  22.577  27.201  1.00  0.00    -0.269 OA
BRANCH  26  29
ATOM     29  C   UNL A   1      40.098  24.380  27.153  1.00  0.00     0.039 A 
ATOM     30  C   UNL A   1      40.704  25.382  26.385  1.00  0.00     0.014 A 
ATOM     31  C   UNL A   1      39.354  24.722  28.278  1.00  0.00     0.014 A 
ATOM     32  C   UNL A   1      40.798  26.673  26.895  1.00  0.00     0.010 A 
ATOM     33  C   UNL A   1      39.545  25.961  28.841  1.00  0.00     0.010 A 
ATOM     34  C   UNL A   1      40.326  26.911  28.176  1.00  0.00    -0.014 A 
BRANCH  34  35
ATOM     35  C   UNL A   1      40.583  28.108  28.952  1.00  0.00     0.031 A 
ATOM     36  C   UNL A   1      39.687  29.265  28.801  1.00  0.00     0.074 A 
ATOM     37  C   UNL A   1      41.405  27.993  30.017  1.00  0.00     0.049 A 
ATOM     38  N   UNL A   1      39.824  30.362  29.457  1.00  0.00    -0.248 NA
ATOM     39  C   UNL A   1      38.560  29.282  27.867  1.00  0.00     0.031 C 
ATOM     40  C   UNL A   1      41.380  28.760  31.259  1.00  0.00     0.029 A 
ATOM     41  N   UNL A   1      42.580  27.255  30.101  1.00  0.00    -0.354 N 
ATOM     42  C   UNL A   1      38.649  31.056  29.309  1.00  0.00     0.074 A 
ATOM     43  C   UNL A   1      37.969  30.433  28.204  1.00  0.00     0.031 C 
ATOM     44  C   UNL A   1      42.564  28.630  31.880  1.00  0.00     0.029 A 
ATOM     45  C   UNL A   1      43.452  27.957  30.949  1.00  0.00     0.049 A 
ATOM     46  H   UNL A   1      42.767  26.400  29.650  1.00  0.00     0.167 HD
ATOM     47  C   UNL A   1      38.316  31.966  30.260  1.00  0.00     0.034 A 
ATOM     48  C   UNL A   1      44.591  28.519  30.438  1.00  0.00     0.034 A 
ATOM     49  C   UNL A   1      39.471  32.292  31.104  1.00  0.00     0.049 A 
ATOM     50  C   UNL A   1      44.640  30.035  30.539  1.00  0.00     0.074 A 
ATOM     51  C   UNL A   1      39.826  31.994  32.407  1.00  0.00     0.029 A 
ATOM     52  N   UNL A   1      40.611  32.816  30.499  1.00  0.00    -0.354 N 
ATOM     53  N   UNL A   1      43.631  30.789  30.882  1.00  0.00    -0.248 NA
ATOM     54  C   UNL A   1      45.843  30.821  30.276  1.00  0.00     0.031 C 
ATOM     55  C   UNL A   1      41.229  32.216  32.535  1.00  0.00     0.029 A 
ATOM     56  C   UNL A   1      41.712  32.703  31.330  1.00  0.00     0.049 A 
ATOM     57  H   UNL A   1      40.632  33.214  29.598  1.00  0.00     0.167 HD
ATOM     58  C   UNL A   1      43.967  32.112  30.761  1.00  0.00     0.074 A 
ATOM     59  C   UNL A   1      45.391  32.073  30.466  1.00  0.00     0.031 C 
ATOM     60  C   UNL A   1      43.034  33.114  30.855  1.00  0.00     0.034 A 
BRANCH  47  61
ATOM     61  C   UNL A   1      36.909  32.445  30.539  1.00  0.00     0.023 A 
ATOM     62  C   UNL A   1      36.363  32.148  31.804  1.00  0.00     0.012 A 
ATOM     63  C   UNL A   1      36.034  33.066  29.608  1.00  0.00     0.148 A 
ATOM     64  C   UNL A   1      35.037  32.457  32.136  1.00  0.00     0.002 A 
ATOM     65  C   UNL A   1      34.739  33.449  29.968  1.00  0.00     0.091 A 
ATOM     66  F   UNL A   1      36.394  33.196  28.327  1.00  0.00    -0.205 F 
ATOM     67  C   UNL A   1      34.231  33.129  31.227  1.00  0.00     0.022 A 
BRANCH  65  68
ATOM     68  S   UNL A   1      33.681  34.393  28.854  1.00  0.00     0.127 S 
ATOM     69  O   UNL A   1      32.641  34.886  29.754  1.00  0.00    -0.237 OA
ATOM     70  O   UNL A   1      34.590  35.424  28.351  1.00  0.00    -0.237 OA
ATOM     71  O   UNL A   1      33.233  33.450  27.834  1.00  0.00    -0.744 OA
ENDBRANCH  65  68
ENDBRANCH  47  61
BRANCH  48  72
ATOM     72  C   UNL A   1      45.184  27.686  29.342  1.00  0.00     0.023 A 
ATOM     73  C   UNL A   1      45.634  26.393  29.713  1.00  0.00     0.012 A 
ATOM     74  C   UNL A   1      44.912  27.943  27.985  1.00  0.00     0.148 A 
ATOM     75  C   UNL A   1      45.650  25.344  28.793  1.00  0.00     0.002 A 
ATOM     76  C   UNL A   1      44.952  26.892  27.066  1.00  0.00     0.091 A 
ATOM     77  F   UNL A   1      44.563  29.184  27.624  1.00  0.00    -0.205 F 
ATOM     78  C   UNL A   1      45.271  25.587  27.478  1.00  0.00     0.022 A 
BRANCH  76  79
ATOM     79  S   UNL A   1      44.486  27.111  25.342  1.00  0.00     0.127 S 
ATOM     80  O   UNL A   1      44.109  25.751  24.964  1.00  0.00    -0.237 OA
ATOM     81  O   UNL A   1      43.369  28.052  25.431  1.00  0.00    -0.237 OA
ATOM     82  O   UNL A   1      45.670  27.653  24.690  1.00  0.00    -0.744 OA
ENDBRANCH  76  79
ENDBRANCH  48  72
BRANCH  60  83
ATOM     83  C   UNL A   1      43.260  34.574  30.476  1.00  0.00     0.023 A 
ATOM     84  C   UNL A   1      43.616  35.558  31.421  1.00  0.00     0.012 A 
ATOM     85  C   UNL A   1      43.267  34.987  29.116  1.00  0.00     0.148 A 
ATOM     86  C   UNL A   1      43.891  36.882  31.057  1.00  0.00     0.002 A 
ATOM     87  C   UNL A   1      43.653  36.275  28.748  1.00  0.00     0.091 A 
ATOM     88  F   UNL A   1      42.875  34.136  28.155  1.00  0.00    -0.205 F 
ATOM     89  C   UNL A   1      43.933  37.237  29.719  1.00  0.00     0.022 A 
BRANCH  87  90
ATOM     90  S   UNL A   1      43.963  36.694  27.025  1.00  0.00     0.127 S 
ATOM     91  O   UNL A   1      44.862  35.622  26.606  1.00  0.00    -0.237 OA
ATOM     92  O   UNL A   1      42.624  36.630  26.436  1.00  0.00    -0.237 OA
ATOM     93  O   UNL A   1      44.530  38.036  27.061  1.00  0.00    -0.744 OA
ENDBRANCH  87  90
ENDBRANCH  60  83
ENDBRANCH  34  35
ENDBRANCH  26  29
ENDBRANCH  24  25
ENDBRANCH   1  24
TORSDOF 16
ENDMDL
MODEL 3
REMARK VINA RESULT:     -12.2      3.905      9.539
REMARK SMILES Cc1cccc(CN(C)c2ccc(C(=O)NCCCNC(=O)c3ccc(-c4c5nc(c(-c6cccc(S(=O)(=O)[O-])c6F)c6ccc([nH]6)c(-c6cccc(S(=O)(=O)[O-])c6F)c6nc(c(-c7cccc(S(=O)(=O)[O-])c7F)c7ccc4[nH]7)C=C6)C=C5)cc3)cc2C)n1
REMARK SMILES IDX 18 1 17 2 16 3 14 4 15 5 13 7 10 8 11 9 87 10 12 11 86 12
REMARK SMILES IDX 88 13 8 14 9 15 7 16 6 17 1 18 2 19 3 20 89 21 4 22 5 23
REMARK SMILES IDX 19 24 20 25 21 26 22 28 23 29 24 30 85 31 25 32 84 33 26 34
REMARK SMILES IDX 27 35 28 36 78 37 29 38 83 39 77 40 79 41 30 42 82 43 76 44
REMARK SMILES IDX 75 45 31 47 63 48 43 49 62 50 44 51 47 52 61 53 80 54 45 55
REMARK SMILES IDX 46 56 60 58 81 59 48 60 32 61 33 62 41 63 34 64 36 65 42 66
REMARK SMILES IDX 35 67 37 68 38 69 39 70 40 71 64 72 65 73 73 74 66 75 68 76
REMARK SMILES IDX 74 77 67 78 69 79 70 80 71 81 72 82 49 83 50 84 58 85 51 86
REMARK SMILES IDX 53 87 59 88 52 89 54 90 55 91 56 92 57 93
REMARK H PARENT 16 6 20 27 79 46 47 57
REMARK Flexibility Score: inf
ROOT
ATOM      1  C   UNL A   1      37.736  21.315  25.031  1.00  0.00     0.042 C 
ENDROOT
BRANCH   1   2
ATOM      2  C   UNL A   1      36.255  21.381  24.658  1.00  0.00     0.118 C 
BRANCH   2   3
ATOM      3  N   UNL A   1      35.387  21.004  25.768  1.00  0.00    -0.352 N 
ATOM      4  C   UNL A   1      34.203  21.540  26.232  1.00  0.00     0.251 C 
ATOM      5  O   UNL A   1      33.583  20.916  27.093  1.00  0.00    -0.269 OA
ATOM      6  H   UNL A   1      35.703  20.224  26.278  1.00  0.00     0.163 HD
BRANCH   4   7
ATOM      7  C   UNL A   1      33.631  22.823  25.729  1.00  0.00     0.040 A 
ATOM      8  C   UNL A   1      32.544  25.258  24.690  1.00  0.00     0.040 A 
ATOM      9  C   UNL A   1      32.657  25.008  26.053  1.00  0.00     0.027 A 
ATOM     10  C   UNL A   1      32.869  24.194  23.827  1.00  0.00    -0.027 A 
ATOM     11  C   UNL A   1      33.198  23.837  26.559  1.00  0.00     0.016 A 
ATOM     12  C   UNL A   1      33.408  22.990  24.356  1.00  0.00     0.019 A 
ATOM     13  C   UNL A   1      32.576  24.243  22.354  1.00  0.00     0.046 C 
BRANCH   8  14
ATOM     14  N   UNL A   1      32.061  26.490  24.251  1.00  0.00    -0.368 N 
ATOM     15  C   UNL A   1      30.714  26.816  24.693  1.00  0.00     0.144 C 
BRANCH  14  16
ATOM     16  C   UNL A   1      33.000  27.614  24.007  1.00  0.00     0.172 C 
BRANCH  16  17
ATOM     17  C   UNL A   1      33.174  28.632  25.136  1.00  0.00     0.060 A 
ATOM     18  C   UNL A   1      31.309  31.548  26.412  1.00  0.00     0.067 C 
ATOM     19  C   UNL A   1      32.363  30.485  26.302  1.00  0.00     0.038 A 
ATOM     20  C   UNL A   1      33.248  30.265  27.353  1.00  0.00     0.023 A 
ATOM     21  N   UNL A   1      32.337  29.708  25.187  1.00  0.00    -0.256 NA
ATOM     22  C   UNL A   1      34.144  29.209  27.262  1.00  0.00     0.004 A 
ATOM     23  C   UNL A   1      34.106  28.377  26.146  1.00  0.00     0.026 A 
ENDBRANCH  16  17
ENDBRANCH  14  16
ENDBRANCH   8  14
ENDBRANCH   4   7
ENDBRANCH   2   3
ENDBRANCH   1   2
BRANCH   1  24
ATOM     24  C   UNL A   1      38.237  22.492  25.830  1.00  0.00     0.118 C 
BRANCH  24  25
ATOM     25  N   UNL A   1      39.344  22.179  26.712  1.00  0.00    -0.352 N 
ATOM     26  C   UNL A   1      40.195  23.047  27.379  1.00  0.00     0.251 C 
ATOM     27  H   UNL A   1      39.513  21.220  26.858  1.00  0.00     0.163 HD
ATOM     28  O   UNL A   1      41.182  22.592  27.931  1.00  0.00    -0.269 OA
BRANCH  26  29
ATOM     29  C   UNL A   1      39.801  24.473  27.535  1.00  0.00     0.039 A 
ATOM     30  C   UNL A   1      40.420  25.404  26.689  1.00  0.00     0.014 A 
ATOM     31  C   UNL A   1      39.074  24.913  28.636  1.00  0.00     0.014 A 
ATOM     32  C   UNL A   1      40.542  26.727  27.100  1.00  0.00     0.010 A 
ATOM     33  C   UNL A   1      39.293  26.186  29.103  1.00  0.00     0.010 A 
ATOM     34  C   UNL A   1      40.086  27.069  28.364  1.00  0.00    -0.014 A 
BRANCH  34  35
ATOM     35  C   UNL A   1      40.372  28.315  29.045  1.00  0.00     0.031 A 
ATOM     36  C   UNL A   1      39.476  29.464  28.842  1.00  0.00     0.074 A 
ATOM     37  C   UNL A   1      41.227  28.270  30.090  1.00  0.00     0.049 A 
ATOM     38  N   UNL A   1      39.638  30.604  29.416  1.00  0.00    -0.248 NA
ATOM     39  C   UNL A   1      38.321  29.424  27.945  1.00  0.00     0.031 C 
ATOM     40  C   UNL A   1      41.243  29.121  31.276  1.00  0.00     0.029 A 
ATOM     41  N   UNL A   1      42.401  27.532  30.189  1.00  0.00    -0.354 N 
ATOM     42  C   UNL A   1      38.462  31.293  29.256  1.00  0.00     0.074 A 
ATOM     43  C   UNL A   1      37.745  30.599  28.220  1.00  0.00     0.031 C 
ATOM     44  C   UNL A   1      42.446  29.026  31.867  1.00  0.00     0.029 A 
ATOM     45  C   UNL A   1      43.301  28.285  30.958  1.00  0.00     0.049 A 
ATOM     46  H   UNL A   1      42.570  26.646  29.793  1.00  0.00     0.167 HD
ATOM     47  C   UNL A   1      38.163  32.268  30.152  1.00  0.00     0.034 A 
ATOM     48  C   UNL A   1      44.426  28.803  30.374  1.00  0.00     0.034 A 
ATOM     49  C   UNL A   1      39.345  32.645  30.935  1.00  0.00     0.049 A 
ATOM     50  C   UNL A   1      44.484  30.322  30.368  1.00  0.00     0.074 A 
ATOM     51  C   UNL A   1      39.740  32.436  32.244  1.00  0.00     0.029 A 
ATOM     52  N   UNL A   1      40.468  33.119  30.260  1.00  0.00    -0.354 N 
ATOM     53  N   UNL A   1      43.490  31.105  30.689  1.00  0.00    -0.248 NA
ATOM     54  C   UNL A   1      45.682  31.081  30.014  1.00  0.00     0.031 C 
ATOM     55  C   UNL A   1      41.147  32.658  32.313  1.00  0.00     0.029 A 
ATOM     56  C   UNL A   1      41.594  33.057  31.063  1.00  0.00     0.049 A 
ATOM     57  H   UNL A   1      40.462  33.453  29.333  1.00  0.00     0.167 HD
ATOM     58  C   UNL A   1      43.827  32.414  30.465  1.00  0.00     0.074 A 
ATOM     59  C   UNL A   1      45.241  32.346  30.130  1.00  0.00     0.031 C 
ATOM     60  C   UNL A   1      42.902  33.426  30.518  1.00  0.00     0.034 A 
BRANCH  47  61
ATOM     61  C   UNL A   1      36.767  32.775  30.440  1.00  0.00     0.023 A 
ATOM     62  C   UNL A   1      36.196  32.425  31.681  1.00  0.00     0.012 A 
ATOM     63  C   UNL A   1      35.924  33.472  29.536  1.00  0.00     0.148 A 
ATOM     64  C   UNL A   1      34.876  32.756  32.013  1.00  0.00     0.002 A 
ATOM     65  C   UNL A   1      34.636  33.874  29.901  1.00  0.00     0.091 A 
ATOM     66  F   UNL A   1      36.304  33.660  28.268  1.00  0.00    -0.205 F 
ATOM     67  C   UNL A   1      34.102  33.502  31.134  1.00  0.00     0.022 A 
BRANCH  65  68
ATOM     68  S   UNL A   1      33.622  34.910  28.828  1.00  0.00     0.127 S 
ATOM     69  O   UNL A   1      33.067  33.937  27.889  1.00  0.00    -0.237 OA
ATOM     70  O   UNL A   1      32.649  35.477  29.763  1.00  0.00    -0.237 OA
ATOM     71  O   UNL A   1      34.530  35.894  28.249  1.00  0.00    -0.744 OA
ENDBRANCH  65  68
ENDBRANCH  47  61
BRANCH  48  72
ATOM     72  C   UNL A   1      44.981  27.892  29.321  1.00  0.00     0.023 A 
ATOM     73  C   UNL A   1      45.370  26.599  29.755  1.00  0.00     0.012 A 
ATOM     74  C   UNL A   1      44.724  28.097  27.952  1.00  0.00     0.148 A 
ATOM     75  C   UNL A   1      45.338  25.508  28.885  1.00  0.00     0.002 A 
ATOM     76  C   UNL A   1      44.715  27.003  27.084  1.00  0.00     0.091 A 
ATOM     77  F   UNL A   1      44.433  29.334  27.532  1.00  0.00    -0.205 F 
ATOM     78  C   UNL A   1      44.973  25.706  27.559  1.00  0.00     0.022 A 
BRANCH  76  79
ATOM     79  S   UNL A   1      44.262  27.162  25.350  1.00  0.00     0.127 S 
ATOM     80  O   UNL A   1      43.104  28.048  25.429  1.00  0.00    -0.237 OA
ATOM     81  O   UNL A   1      45.458  27.769  24.763  1.00  0.00    -0.237 OA
ATOM     82  O   UNL A   1      44.001  25.804  24.895  1.00  0.00    -0.744 OA
ENDBRANCH  76  79
ENDBRANCH  48  72
BRANCH  60  83
ATOM     83  C   UNL A   1      43.122  34.855  30.032  1.00  0.00     0.023 A 
ATOM     84  C   UNL A   1      42.599  35.332  28.814  1.00  0.00     0.012 A 
ATOM     85  C   UNL A   1      43.747  35.824  30.864  1.00  0.00     0.148 A 
ATOM     86  C   UNL A   1      42.745  36.664  28.406  1.00  0.00     0.002 A 
ATOM     87  C   UNL A   1      43.788  37.171  30.506  1.00  0.00     0.091 A 
ATOM     88  F   UNL A   1      44.333  35.446  32.010  1.00  0.00    -0.205 F 
ATOM     89  C   UNL A   1      43.319  37.590  29.261  1.00  0.00     0.022 A 
BRANCH  87  90
ATOM     90  S   UNL A   1      44.291  38.430  31.691  1.00  0.00     0.127 S 
ATOM     91  O   UNL A   1      43.473  38.099  32.854  1.00  0.00    -0.237 OA
ATOM     92  O   UNL A   1      45.720  38.159  31.856  1.00  0.00    -0.237 OA
ATOM     93  O   UNL A   1      44.001  39.699  31.036  1.00  0.00    -0.744 OA
ENDBRANCH  87  90
ENDBRANCH  60  83
ENDBRANCH  34  35
ENDBRANCH  26  29
ENDBRANCH  24  25
ENDBRANCH   1  24
TORSDOF 16
ENDMDL
