MODEL 1
REMARK VINA RESULT:     -11.4      0.000      0.000
REMARK SMILES O=C(NCCCNC(=O)[C@H](Cc1ccccc1)SCc1nccs1)c1ccc(-c2c3nc(c(-c4cccc(S(=O)(=O)[O-])c4F)c4ccc([nH]4)c(-c4cccc(S(=O)(=O)[O-])c4F)c4nc(c(-c5cccc(S(=O)(=O)[O-])c5F)c5ccc2[nH]5)C=C4)C=C3)cc1
REMARK SMILES IDX 5 1 4 2 3 3 1 4 2 5 25 7 26 8 87 9 27 10 86 11 28 12 29 13
REMARK SMILES IDX 30 14 80 15 31 16 85 17 79 18 81 19 32 20 84 21 78 22 77 23
REMARK SMILES IDX 33 25 65 26 45 27 64 28 46 29 49 30 63 31 82 32 47 33 48 34
REMARK SMILES IDX 62 36 83 37 50 38 34 39 35 40 43 41 36 42 38 43 44 44 37 45
REMARK SMILES IDX 39 46 40 47 41 48 42 49 66 50 67 51 75 52 68 53 70 54 76 55
REMARK SMILES IDX 69 56 71 57 72 58 73 59 74 60 51 61 52 62 60 63 53 64 55 65
REMARK SMILES IDX 61 66 54 67 56 68 57 69 58 70 59 71 6 72 7 73 8 74 9 76
REMARK SMILES IDX 10 77 18 78 19 79 20 80 21 81 24 82 22 83 23 84 11 85 12 86
REMARK SMILES IDX 13 87 17 88 14 89 16 90 15 91
REMARK H PARENT 3 6 81 24 49 35 7 75
REMARK Flexibility Score: inf
ROOT
ATOM      1  C   UNL A   1      31.343  31.806  26.368  1.00  0.00     0.042 C 
ENDROOT
BRANCH   1   2
ATOM      2  C   UNL A   1      32.654  32.368  26.883  1.00  0.00     0.118 C 
BRANCH   2   3
ATOM      3  N   UNL A   1      32.493  33.645  27.551  1.00  0.00    -0.352 N 
ATOM      4  O   UNL A   1      32.868  35.221  29.108  1.00  0.00    -0.269 OA
ATOM      5  C   UNL A   1      33.249  34.189  28.560  1.00  0.00     0.251 C 
ATOM      6  H   UNL A   1      31.740  34.197  27.239  1.00  0.00     0.163 HD
BRANCH   5   7
ATOM      7  C   UNL A   1      34.492  33.518  29.006  1.00  0.00     0.039 A 
ATOM      8  C   UNL A   1      35.752  34.063  28.733  1.00  0.00     0.014 A 
ATOM      9  C   UNL A   1      34.389  32.335  29.742  1.00  0.00     0.014 A 
ATOM     10  C   UNL A   1      36.906  33.377  29.106  1.00  0.00     0.010 A 
ATOM     11  C   UNL A   1      35.546  31.687  30.182  1.00  0.00     0.010 A 
ATOM     12  C   UNL A   1      36.813  32.199  29.863  1.00  0.00    -0.014 A 
BRANCH  12  13
ATOM     13  C   UNL A   1      38.032  31.591  30.457  1.00  0.00     0.031 A 
ATOM     14  C   UNL A   1      38.808  30.523  29.740  1.00  0.00     0.074 A 
ATOM     15  C   UNL A   1      38.371  31.953  31.710  1.00  0.00     0.049 A 
ATOM     16  N   UNL A   1      39.827  29.825  30.168  1.00  0.00    -0.248 NA
ATOM     17  C   UNL A   1      38.383  30.184  28.371  1.00  0.00     0.031 C 
ATOM     18  C   UNL A   1      37.650  32.937  32.524  1.00  0.00     0.029 A 
ATOM     19  N   UNL A   1      39.372  31.509  32.537  1.00  0.00    -0.354 N 
ATOM     20  C   UNL A   1      40.139  28.934  29.150  1.00  0.00     0.074 A 
ATOM     21  C   UNL A   1      39.206  29.187  28.072  1.00  0.00     0.031 C 
ATOM     22  C   UNL A   1      38.218  33.007  33.736  1.00  0.00     0.029 A 
ATOM     23  C   UNL A   1      39.305  32.039  33.805  1.00  0.00     0.049 A 
ATOM     24  H   UNL A   1      40.069  30.876  32.251  1.00  0.00     0.167 HD
ATOM     25  C   UNL A   1      41.116  27.998  29.120  1.00  0.00     0.034 A 
ATOM     26  C   UNL A   1      40.007  31.750  34.917  1.00  0.00     0.034 A 
ATOM     27  C   UNL A   1      42.066  27.786  30.181  1.00  0.00     0.049 A 
ATOM     28  C   UNL A   1      41.089  30.713  34.845  1.00  0.00     0.074 A 
ATOM     29  C   UNL A   1      43.173  26.954  30.190  1.00  0.00     0.029 A 
ATOM     30  N   UNL A   1      42.012  28.388  31.428  1.00  0.00    -0.354 N 
ATOM     31  N   UNL A   1      41.487  30.012  33.812  1.00  0.00    -0.248 NA
ATOM     32  C   UNL A   1      41.832  30.441  36.083  1.00  0.00     0.031 C 
ATOM     33  C   UNL A   1      43.769  27.030  31.453  1.00  0.00     0.029 A 
ATOM     34  C   UNL A   1      43.043  27.922  32.225  1.00  0.00     0.049 A 
ATOM     35  H   UNL A   1      41.338  29.050  31.707  1.00  0.00     0.167 HD
ATOM     36  C   UNL A   1      42.536  29.225  34.270  1.00  0.00     0.074 A 
ATOM     37  C   UNL A   1      42.733  29.561  35.666  1.00  0.00     0.031 C 
ATOM     38  C   UNL A   1      43.255  28.292  33.600  1.00  0.00     0.034 A 
BRANCH  25  39
ATOM     39  C   UNL A   1      41.254  27.142  27.889  1.00  0.00     0.023 A 
ATOM     40  C   UNL A   1      41.894  27.664  26.749  1.00  0.00     0.012 A 
ATOM     41  C   UNL A   1      40.863  25.788  27.905  1.00  0.00     0.148 A 
ATOM     42  C   UNL A   1      42.134  26.857  25.637  1.00  0.00     0.002 A 
ATOM     43  C   UNL A   1      41.134  24.981  26.806  1.00  0.00     0.091 A 
ATOM     44  F   UNL A   1      40.240  25.316  28.994  1.00  0.00    -0.205 F 
ATOM     45  C   UNL A   1      41.765  25.515  25.671  1.00  0.00     0.022 A 
BRANCH  43  46
ATOM     46  S   UNL A   1      40.761  23.222  26.777  1.00  0.00     0.127 S 
ATOM     47  O   UNL A   1      41.171  22.814  28.119  1.00  0.00    -0.237 OA
ATOM     48  O   UNL A   1      39.315  23.218  26.553  1.00  0.00    -0.237 OA
ATOM     49  O   UNL A   1      41.547  22.663  25.686  1.00  0.00    -0.744 OA
ENDBRANCH  43  46
ENDBRANCH  25  39
BRANCH  26  50
ATOM     50  C   UNL A   1      39.705  32.468  36.185  1.00  0.00     0.023 A 
ATOM     51  C   UNL A   1      40.367  33.676  36.472  1.00  0.00     0.012 A 
ATOM     52  C   UNL A   1      38.729  31.988  37.081  1.00  0.00     0.148 A 
ATOM     53  C   UNL A   1      40.077  34.383  37.639  1.00  0.00     0.002 A 
ATOM     54  C   UNL A   1      38.403  32.728  38.212  1.00  0.00     0.091 A 
ATOM     55  F   UNL A   1      38.124  30.824  36.804  1.00  0.00    -0.205 F 
ATOM     56  C   UNL A   1      39.087  33.918  38.502  1.00  0.00     0.022 A 
BRANCH  54  57
ATOM     57  S   UNL A   1      37.035  32.266  39.280  1.00  0.00     0.127 S 
ATOM     58  O   UNL A   1      35.902  32.893  38.605  1.00  0.00    -0.237 OA
ATOM     59  O   UNL A   1      37.063  30.805  39.209  1.00  0.00    -0.237 OA
ATOM     60  O   UNL A   1      37.379  32.802  40.591  1.00  0.00    -0.744 OA
ENDBRANCH  54  57
ENDBRANCH  26  50
BRANCH  38  61
ATOM     61  C   UNL A   1      44.326  27.564  34.365  1.00  0.00     0.023 A 
ATOM     62  C   UNL A   1      45.613  28.130  34.458  1.00  0.00     0.012 A 
ATOM     63  C   UNL A   1      44.044  26.365  35.048  1.00  0.00     0.148 A 
ATOM     64  C   UNL A   1      46.610  27.501  35.199  1.00  0.00     0.002 A 
ATOM     65  C   UNL A   1      45.031  25.767  35.822  1.00  0.00     0.091 A 
ATOM     66  F   UNL A   1      42.817  25.836  34.930  1.00  0.00    -0.205 F 
ATOM     67  C   UNL A   1      46.317  26.327  35.890  1.00  0.00     0.022 A 
BRANCH  65  68
ATOM     68  S   UNL A   1      44.723  24.302  36.814  1.00  0.00     0.127 S 
ATOM     69  O   UNL A   1      46.052  24.022  37.355  1.00  0.00    -0.237 OA
ATOM     70  O   UNL A   1      43.755  24.791  37.796  1.00  0.00    -0.237 OA
ATOM     71  O   UNL A   1      44.199  23.298  35.897  1.00  0.00    -0.744 OA
ENDBRANCH  65  68
ENDBRANCH  38  61
ENDBRANCH  12  13
ENDBRANCH   5   7
ENDBRANCH   2   3
ENDBRANCH   1   2
BRANCH   1  72
ATOM     72  C   UNL A   1      31.390  30.372  25.854  1.00  0.00     0.117 C 
BRANCH  72  73
ATOM     73  N   UNL A   1      30.862  30.173  24.514  1.00  0.00    -0.355 N 
ATOM     74  C   UNL A   1      30.689  29.118  23.676  1.00  0.00     0.233 C 
ATOM     75  H   UNL A   1      30.550  31.016  24.112  1.00  0.00     0.163 HD
ATOM     76  O   UNL A   1      30.005  29.347  22.668  1.00  0.00    -0.274 OA
BRANCH  74  77
ATOM     77  C   UNL A   1      31.252  27.711  23.894  1.00  0.00     0.140 C 
BRANCH  77  78
ATOM     78  S   UNL A   1      29.939  26.427  24.142  1.00  0.00    -0.141 SA
BRANCH  78  79
ATOM     79  C   UNL A   1      30.144  25.929  25.875  1.00  0.00     0.137 C 
BRANCH  79  80
ATOM     80  C   UNL A   1      30.906  24.646  26.062  1.00  0.00     0.102 A 
ATOM     81  N   UNL A   1      31.472  24.247  27.183  1.00  0.00    -0.249 NA
ATOM     82  S   UNL A   1      31.010  23.506  24.769  1.00  0.00    -0.126 S 
ATOM     83  C   UNL A   1      32.077  23.020  27.014  1.00  0.00     0.123 A 
ATOM     84  C   UNL A   1      31.917  22.451  25.771  1.00  0.00     0.087 A 
ENDBRANCH  79  80
ENDBRANCH  78  79
ENDBRANCH  77  78
BRANCH  77  85
ATOM     85  C   UNL A   1      32.578  27.390  23.177  1.00  0.00     0.060 C 
BRANCH  85  86
ATOM     86  C   UNL A   1      33.369  26.189  23.626  1.00  0.00    -0.046 A 
ATOM     87  C   UNL A   1      33.698  25.161  22.731  1.00  0.00     0.004 A 
ATOM     88  C   UNL A   1      33.826  26.102  24.950  1.00  0.00     0.004 A 
ATOM     89  C   UNL A   1      34.433  24.055  23.159  1.00  0.00     0.000 A 
ATOM     90  C   UNL A   1      34.577  25.006  25.371  1.00  0.00     0.000 A 
ATOM     91  C   UNL A   1      34.873  23.978  24.479  1.00  0.00     0.000 A 
ENDBRANCH  85  86
ENDBRANCH  77  85
ENDBRANCH  74  77
ENDBRANCH  72  73
ENDBRANCH   1  72
TORSDOF 18
ENDMDL
MODEL 2
REMARK VINA RESULT:     -11.3      1.870      2.894
REMARK SMILES O=C(NCCCNC(=O)[C@H](Cc1ccccc1)SCc1nccs1)c1ccc(-c2c3nc(c(-c4cccc(S(=O)(=O)[O-])c4F)c4ccc([nH]4)c(-c4cccc(S(=O)(=O)[O-])c4F)c4nc(c(-c5cccc(S(=O)(=O)[O-])c5F)c5ccc2[nH]5)C=C4)C=C3)cc1
REMARK SMILES IDX 5 1 4 2 3 3 1 4 2 5 25 7 26 8 87 9 27 10 86 11 28 12 29 13
REMARK SMILES IDX 30 14 80 15 31 16 85 17 79 18 81 19 32 20 84 21 78 22 77 23
REMARK SMILES IDX 33 25 65 26 45 27 64 28 46 29 49 30 63 31 82 32 47 33 48 34
REMARK SMILES IDX 62 36 83 37 50 38 34 39 35 40 43 41 36 42 38 43 44 44 37 45
REMARK SMILES IDX 39 46 40 47 41 48 42 49 66 50 67 51 75 52 68 53 70 54 76 55
REMARK SMILES IDX 69 56 71 57 72 58 73 59 74 60 51 61 52 62 60 63 53 64 55 65
REMARK SMILES IDX 61 66 54 67 56 68 57 69 58 70 59 71 6 72 7 73 8 74 9 76
REMARK SMILES IDX 10 77 18 78 19 79 20 80 21 81 24 82 22 83 23 84 11 85 12 86
REMARK SMILES IDX 13 87 17 88 14 89 16 90 15 91
REMARK H PARENT 3 6 81 24 49 35 7 75
REMARK Flexibility Score: inf
ROOT
ATOM      1  C   UNL A   1      31.702  31.181  26.737  1.00  0.00     0.042 C 
ENDROOT
BRANCH   1   2
ATOM      2  C   UNL A   1      32.914  31.940  27.242  1.00  0.00     0.118 C 
BRANCH   2   3
ATOM      3  N   UNL A   1      32.626  33.332  27.527  1.00  0.00    -0.352 N 
ATOM      4  O   UNL A   1      32.743  35.275  28.649  1.00  0.00    -0.269 OA
ATOM      5  C   UNL A   1      33.225  34.165  28.441  1.00  0.00     0.251 C 
ATOM      6  H   UNL A   1      31.903  33.735  26.994  1.00  0.00     0.163 HD
BRANCH   5   7
ATOM      7  C   UNL A   1      34.420  33.712  29.192  1.00  0.00     0.039 A 
ATOM      8  C   UNL A   1      34.320  32.766  30.218  1.00  0.00     0.014 A 
ATOM      9  C   UNL A   1      35.669  34.225  28.835  1.00  0.00     0.014 A 
ATOM     10  C   UNL A   1      35.449  32.409  30.952  1.00  0.00     0.010 A 
ATOM     11  C   UNL A   1      36.813  33.808  29.521  1.00  0.00     0.010 A 
ATOM     12  C   UNL A   1      36.711  32.902  30.589  1.00  0.00    -0.014 A 
BRANCH  12  13
ATOM     13  C   UNL A   1      37.940  32.350  31.215  1.00  0.00     0.031 A 
ATOM     14  C   UNL A   1      38.693  31.206  30.597  1.00  0.00     0.074 A 
ATOM     15  C   UNL A   1      38.312  32.841  32.414  1.00  0.00     0.049 A 
ATOM     16  N   UNL A   1      39.719  30.549  31.073  1.00  0.00    -0.248 NA
ATOM     17  C   UNL A   1      38.232  30.727  29.283  1.00  0.00     0.031 C 
ATOM     18  C   UNL A   1      37.618  33.911  33.136  1.00  0.00     0.029 A 
ATOM     19  N   UNL A   1      39.331  32.479  33.259  1.00  0.00    -0.354 N 
ATOM     20  C   UNL A   1      39.999  29.552  30.149  1.00  0.00     0.074 A 
ATOM     21  C   UNL A   1      39.042  29.696  29.072  1.00  0.00     0.031 C 
ATOM     22  C   UNL A   1      38.216  34.106  34.319  1.00  0.00     0.029 A 
ATOM     23  C   UNL A   1      39.298  33.141  34.464  1.00  0.00     0.049 A 
ATOM     24  H   UNL A   1      40.017  31.813  33.026  1.00  0.00     0.167 HD
ATOM     25  C   UNL A   1      40.971  28.610  30.195  1.00  0.00     0.034 A 
ATOM     26  C   UNL A   1      40.026  32.967  35.585  1.00  0.00     0.034 A 
ATOM     27  C   UNL A   1      41.946  28.504  31.250  1.00  0.00     0.049 A 
ATOM     28  C   UNL A   1      41.100  31.919  35.597  1.00  0.00     0.074 A 
ATOM     29  C   UNL A   1      43.047  27.669  31.320  1.00  0.00     0.029 A 
ATOM     30  N   UNL A   1      41.925  29.236  32.426  1.00  0.00    -0.354 N 
ATOM     31  N   UNL A   1      41.469  31.109  34.635  1.00  0.00    -0.248 NA
ATOM     32  C   UNL A   1      41.872  31.774  36.839  1.00  0.00     0.031 C 
ATOM     33  C   UNL A   1      43.675  27.874  32.553  1.00  0.00     0.029 A 
ATOM     34  C   UNL A   1      42.974  28.849  33.243  1.00  0.00     0.049 A 
ATOM     35  H   UNL A   1      41.262  29.929  32.649  1.00  0.00     0.167 HD
ATOM     36  C   UNL A   1      42.524  30.366  35.149  1.00  0.00     0.074 A 
ATOM     37  C   UNL A   1      42.757  30.847  36.496  1.00  0.00     0.031 C 
ATOM     38  C   UNL A   1      43.221  29.361  34.566  1.00  0.00     0.034 A 
BRANCH  25  39
ATOM     39  C   UNL A   1      41.074  27.627  29.060  1.00  0.00     0.023 A 
ATOM     40  C   UNL A   1      40.224  26.504  29.035  1.00  0.00     0.012 A 
ATOM     41  C   UNL A   1      41.920  27.879  27.962  1.00  0.00     0.148 A 
ATOM     42  C   UNL A   1      40.221  25.639  27.941  1.00  0.00     0.002 A 
ATOM     43  C   UNL A   1      41.889  27.032  26.860  1.00  0.00     0.091 A 
ATOM     44  F   UNL A   1      42.734  28.944  28.015  1.00  0.00    -0.205 F 
ATOM     45  C   UNL A   1      41.044  25.910  26.850  1.00  0.00     0.022 A 
BRANCH  43  46
ATOM     46  S   UNL A   1      42.860  27.331  25.377  1.00  0.00     0.127 S 
ATOM     47  O   UNL A   1      42.681  26.075  24.651  1.00  0.00    -0.237 OA
ATOM     48  O   UNL A   1      42.171  28.480  24.786  1.00  0.00    -0.237 OA
ATOM     49  O   UNL A   1      44.216  27.602  25.831  1.00  0.00    -0.744 OA
ENDBRANCH  43  46
ENDBRANCH  25  39
BRANCH  26  50
ATOM     50  C   UNL A   1      39.760  33.818  36.776  1.00  0.00     0.023 A 
ATOM     51  C   UNL A   1      40.103  35.182  36.744  1.00  0.00     0.012 A 
ATOM     52  C   UNL A   1      39.121  33.296  37.918  1.00  0.00     0.148 A 
ATOM     53  C   UNL A   1      39.833  36.006  37.836  1.00  0.00     0.002 A 
ATOM     54  C   UNL A   1      38.802  34.135  38.978  1.00  0.00     0.091 A 
ATOM     55  F   UNL A   1      38.821  31.989  37.941  1.00  0.00    -0.205 F 
ATOM     56  C   UNL A   1      39.172  35.488  38.947  1.00  0.00     0.022 A 
BRANCH  54  57
ATOM     57  S   UNL A   1      37.817  33.568  40.369  1.00  0.00     0.127 S 
ATOM     58  O   UNL A   1      36.625  33.051  39.702  1.00  0.00    -0.237 OA
ATOM     59  O   UNL A   1      38.679  32.549  40.967  1.00  0.00    -0.237 OA
ATOM     60  O   UNL A   1      37.626  34.747  41.205  1.00  0.00    -0.744 OA
ENDBRANCH  54  57
ENDBRANCH  26  50
BRANCH  38  61
ATOM     61  C   UNL A   1      44.307  28.710  35.378  1.00  0.00     0.023 A 
ATOM     62  C   UNL A   1      45.621  29.211  35.301  1.00  0.00     0.012 A 
ATOM     63  C   UNL A   1      44.016  27.657  36.267  1.00  0.00     0.148 A 
ATOM     64  C   UNL A   1      46.636  28.658  36.077  1.00  0.00     0.002 A 
ATOM     65  C   UNL A   1      45.025  27.139  37.071  1.00  0.00     0.091 A 
ATOM     66  F   UNL A   1      42.762  27.184  36.310  1.00  0.00    -0.205 F 
ATOM     67  C   UNL A   1      46.337  27.631  36.970  1.00  0.00     0.022 A 
BRANCH  65  68
ATOM     68  S   UNL A   1      44.717  25.876  38.310  1.00  0.00     0.127 S 
ATOM     69  O   UNL A   1      46.073  25.549  38.747  1.00  0.00    -0.237 OA
ATOM     70  O   UNL A   1      43.915  26.599  39.297  1.00  0.00    -0.237 OA
ATOM     71  O   UNL A   1      44.009  24.804  37.624  1.00  0.00    -0.744 OA
ENDBRANCH  65  68
ENDBRANCH  38  61
ENDBRANCH  12  13
ENDBRANCH   5   7
ENDBRANCH   2   3
ENDBRANCH   1   2
BRANCH   1  72
ATOM     72  C   UNL A   1      31.975  29.797  26.160  1.00  0.00     0.117 C 
BRANCH  72  73
ATOM     73  N   UNL A   1      32.711  29.779  24.906  1.00  0.00    -0.355 N 
ATOM     74  C   UNL A   1      32.971  28.865  23.936  1.00  0.00     0.233 C 
ATOM     75  H   UNL A   1      33.127  30.650  24.710  1.00  0.00     0.163 HD
ATOM     76  O   UNL A   1      33.490  29.317  22.905  1.00  0.00    -0.274 OA
BRANCH  74  77
ATOM     77  C   UNL A   1      32.661  27.368  24.022  1.00  0.00     0.140 C 
BRANCH  77  78
ATOM     78  S   UNL A   1      31.470  26.789  22.726  1.00  0.00    -0.141 SA
BRANCH  78  79
ATOM     79  C   UNL A   1      29.855  27.329  23.352  1.00  0.00     0.137 C 
BRANCH  79  80
ATOM     80  C   UNL A   1      29.336  28.588  22.713  1.00  0.00     0.102 A 
ATOM     81  N   UNL A   1      30.025  29.387  21.923  1.00  0.00    -0.249 NA
ATOM     82  S   UNL A   1      27.681  29.039  22.910  1.00  0.00    -0.126 S 
ATOM     83  C   UNL A   1      29.247  30.443  21.499  1.00  0.00     0.123 A 
ATOM     84  C   UNL A   1      27.937  30.415  21.920  1.00  0.00     0.087 A 
ENDBRANCH  79  80
ENDBRANCH  78  79
ENDBRANCH  77  78
BRANCH  77  85
ATOM     85  C   UNL A   1      33.799  26.467  24.541  1.00  0.00     0.060 C 
BRANCH  85  86
ATOM     86  C   UNL A   1      33.448  25.296  25.422  1.00  0.00    -0.046 A 
ATOM     87  C   UNL A   1      34.379  24.280  25.681  1.00  0.00     0.004 A 
ATOM     88  C   UNL A   1      32.187  25.227  26.032  1.00  0.00     0.004 A 
ATOM     89  C   UNL A   1      34.042  23.202  26.501  1.00  0.00     0.000 A 
ATOM     90  C   UNL A   1      31.860  24.160  26.867  1.00  0.00     0.000 A 
ATOM     91  C   UNL A   1      32.783  23.142  27.094  1.00  0.00     0.000 A 
ENDBRANCH  85  86
ENDBRANCH  77  85
ENDBRANCH  74  77
ENDBRANCH  72  73
ENDBRANCH   1  72
TORSDOF 18
ENDMDL
MODEL 3
REMARK VINA RESULT:     -11.3      1.984      2.957
REMARK SMILES O=C(NCCCNC(=O)[C@H](Cc1ccccc1)SCc1nccs1)c1ccc(-c2c3nc(c(-c4cccc(S(=O)(=O)[O-])c4F)c4ccc([nH]4)c(-c4cccc(S(=O)(=O)[O-])c4F)c4nc(c(-c5cccc(S(=O)(=O)[O-])c5F)c5ccc2[nH]5)C=C4)C=C3)cc1
REMARK SMILES IDX 5 1 4 2 3 3 1 4 2 5 25 7 26 8 87 9 27 10 86 11 28 12 29 13
REMARK SMILES IDX 30 14 80 15 31 16 85 17 79 18 81 19 32 20 84 21 78 22 77 23
REMARK SMILES IDX 33 25 65 26 45 27 64 28 46 29 49 30 63 31 82 32 47 33 48 34
REMARK SMILES IDX 62 36 83 37 50 38 34 39 35 40 43 41 36 42 38 43 44 44 37 45
REMARK SMILES IDX 39 46 40 47 41 48 42 49 66 50 67 51 75 52 68 53 70 54 76 55
REMARK SMILES IDX 69 56 71 57 72 58 73 59 74 60 51 61 52 62 60 63 53 64 55 65
REMARK SMILES IDX 61 66 54 67 56 68 57 69 58 70 59 71 6 72 7 73 8 74 9 76
REMARK SMILES IDX 10 77 18 78 19 79 20 80 21 81 24 82 22 83 23 84 11 85 12 86
REMARK SMILES IDX 13 87 17 88 14 89 16 90 15 91
REMARK H PARENT 3 6 81 24 49 35 7 75
REMARK Flexibility Score: inf
ROOT
ATOM      1  C   UNL A   1      31.749  28.774  26.443  1.00  0.00     0.042 C 
ENDROOT
BRANCH   1   2
ATOM      2  C   UNL A   1      32.763  29.788  25.950  1.00  0.00     0.118 C 
BRANCH   2   3
ATOM      3  N   UNL A   1      32.428  31.147  26.328  1.00  0.00    -0.352 N 
ATOM      4  O   UNL A   1      32.570  33.056  27.505  1.00  0.00    -0.269 OA
ATOM      5  C   UNL A   1      33.089  31.988  27.189  1.00  0.00     0.251 C 
ATOM      6  H   UNL A   1      31.616  31.516  25.912  1.00  0.00     0.163 HD
BRANCH   5   7
ATOM      7  C   UNL A   1      34.400  31.595  27.757  1.00  0.00     0.039 A 
ATOM      8  C   UNL A   1      35.444  32.518  27.888  1.00  0.00     0.014 A 
ATOM      9  C   UNL A   1      34.573  30.281  28.197  1.00  0.00     0.014 A 
ATOM     10  C   UNL A   1      36.687  32.106  28.363  1.00  0.00     0.010 A 
ATOM     11  C   UNL A   1      35.796  29.886  28.745  1.00  0.00     0.010 A 
ATOM     12  C   UNL A   1      36.865  30.793  28.827  1.00  0.00    -0.014 A 
BRANCH  12  13
ATOM     13  C   UNL A   1      38.109  30.413  29.543  1.00  0.00     0.031 A 
ATOM     14  C   UNL A   1      39.079  29.422  28.964  1.00  0.00     0.074 A 
ATOM     15  C   UNL A   1      38.300  30.907  30.783  1.00  0.00     0.049 A 
ATOM     16  N   UNL A   1      40.153  28.913  29.510  1.00  0.00    -0.248 NA
ATOM     17  C   UNL A   1      38.809  28.931  27.603  1.00  0.00     0.031 C 
ATOM     18  C   UNL A   1      37.390  31.829  31.469  1.00  0.00     0.029 A 
ATOM     19  N   UNL A   1      39.290  30.673  31.703  1.00  0.00    -0.354 N 
ATOM     20  C   UNL A   1      40.661  28.008  28.588  1.00  0.00     0.074 A 
ATOM     21  C   UNL A   1      39.784  28.046  27.436  1.00  0.00     0.031 C 
ATOM     22  C   UNL A   1      37.851  32.067  32.704  1.00  0.00     0.029 A 
ATOM     23  C   UNL A   1      39.055  31.275  32.918  1.00  0.00     0.049 A 
ATOM     24  H   UNL A   1      40.088  30.130  31.514  1.00  0.00     0.167 HD
ATOM     25  C   UNL A   1      41.761  27.225  28.694  1.00  0.00     0.034 A 
ATOM     26  C   UNL A   1      39.707  31.170  34.093  1.00  0.00     0.034 A 
ATOM     27  C   UNL A   1      42.650  27.229  29.827  1.00  0.00     0.049 A 
ATOM     28  C   UNL A   1      40.927  30.300  34.171  1.00  0.00     0.074 A 
ATOM     29  C   UNL A   1      43.859  26.570  29.971  1.00  0.00     0.029 A 
ATOM     30  N   UNL A   1      42.419  27.902  31.016  1.00  0.00    -0.354 N 
ATOM     31  N   UNL A   1      41.495  29.594  33.225  1.00  0.00    -0.248 NA
ATOM     32  C   UNL A   1      41.607  30.226  35.471  1.00  0.00     0.031 C 
ATOM     33  C   UNL A   1      44.343  26.821  31.259  1.00  0.00     0.029 A 
ATOM     34  C   UNL A   1      43.444  27.649  31.911  1.00  0.00     0.049 A 
ATOM     35  H   UNL A   1      41.639  28.476  31.198  1.00  0.00     0.167 HD
ATOM     36  C   UNL A   1      42.608  29.003  33.809  1.00  0.00     0.074 A 
ATOM     37  C   UNL A   1      42.651  29.460  35.184  1.00  0.00     0.031 C 
ATOM     38  C   UNL A   1      43.499  28.140  33.263  1.00  0.00     0.034 A 
BRANCH  25  39
ATOM     39  C   UNL A   1      42.108  26.315  27.547  1.00  0.00     0.023 A 
ATOM     40  C   UNL A   1      42.971  26.775  26.533  1.00  0.00     0.012 A 
ATOM     41  C   UNL A   1      41.683  24.972  27.538  1.00  0.00     0.148 A 
ATOM     42  C   UNL A   1      43.397  25.916  25.520  1.00  0.00     0.002 A 
ATOM     43  C   UNL A   1      42.137  24.112  26.543  1.00  0.00     0.091 A 
ATOM     44  F   UNL A   1      40.848  24.560  28.502  1.00  0.00    -0.205 F 
ATOM     45  C   UNL A   1      42.990  24.584  25.532  1.00  0.00     0.022 A 
BRANCH  43  46
ATOM     46  S   UNL A   1      41.727  22.363  26.509  1.00  0.00     0.127 S 
ATOM     47  O   UNL A   1      42.236  21.917  27.804  1.00  0.00    -0.237 OA
ATOM     48  O   UNL A   1      40.267  22.391  26.404  1.00  0.00    -0.237 OA
ATOM     49  O   UNL A   1      42.409  21.812  25.346  1.00  0.00    -0.744 OA
ENDBRANCH  43  46
ENDBRANCH  25  39
BRANCH  26  50
ATOM     50  C   UNL A   1      39.214  31.922  35.278  1.00  0.00     0.023 A 
ATOM     51  C   UNL A   1      38.339  31.295  36.183  1.00  0.00     0.012 A 
ATOM     52  C   UNL A   1      39.650  33.236  35.541  1.00  0.00     0.148 A 
ATOM     53  C   UNL A   1      37.890  31.969  37.319  1.00  0.00     0.002 A 
ATOM     54  C   UNL A   1      39.246  33.881  36.704  1.00  0.00     0.091 A 
ATOM     55  F   UNL A   1      40.466  33.828  34.657  1.00  0.00    -0.205 F 
ATOM     56  C   UNL A   1      38.353  33.255  37.587  1.00  0.00     0.022 A 
BRANCH  54  57
ATOM     57  S   UNL A   1      39.923  35.473  37.185  1.00  0.00     0.127 S 
ATOM     58  O   UNL A   1      39.519  36.322  36.069  1.00  0.00    -0.237 OA
ATOM     59  O   UNL A   1      39.229  35.739  38.445  1.00  0.00    -0.237 OA
ATOM     60  O   UNL A   1      41.356  35.246  37.336  1.00  0.00    -0.744 OA
ENDBRANCH  54  57
ENDBRANCH  26  50
BRANCH  38  61
ATOM     61  C   UNL A   1      44.602  27.632  34.149  1.00  0.00     0.023 A 
ATOM     62  C   UNL A   1      45.799  28.368  34.251  1.00  0.00     0.012 A 
ATOM     63  C   UNL A   1      44.430  26.474  34.932  1.00  0.00     0.148 A 
ATOM     64  C   UNL A   1      46.819  27.946  35.101  1.00  0.00     0.002 A 
ATOM     65  C   UNL A   1      45.434  26.084  35.810  1.00  0.00     0.091 A 
ATOM     66  F   UNL A   1      43.290  25.779  34.804  1.00  0.00    -0.205 F 
ATOM     67  C   UNL A   1      46.633  26.812  35.889  1.00  0.00     0.022 A 
BRANCH  65  68
ATOM     68  S   UNL A   1      45.250  24.688  36.925  1.00  0.00     0.127 S 
ATOM     69  O   UNL A   1      44.134  25.120  37.764  1.00  0.00    -0.237 OA
ATOM     70  O   UNL A   1      44.936  23.595  36.005  1.00  0.00    -0.237 OA
ATOM     71  O   UNL A   1      46.528  24.551  37.612  1.00  0.00    -0.744 OA
ENDBRANCH  65  68
ENDBRANCH  38  61
ENDBRANCH  12  13
ENDBRANCH   5   7
ENDBRANCH   2   3
ENDBRANCH   1   2
BRANCH   1  72
ATOM     72  C   UNL A   1      32.232  27.331  26.516  1.00  0.00     0.117 C 
BRANCH  72  73
ATOM     73  N   UNL A   1      31.196  26.339  26.755  1.00  0.00    -0.355 N 
ATOM     74  C   UNL A   1      30.361  25.591  25.989  1.00  0.00     0.233 C 
ATOM     75  H   UNL A   1      31.067  26.165  27.716  1.00  0.00     0.163 HD
ATOM     76  O   UNL A   1      29.747  24.697  26.589  1.00  0.00    -0.274 OA
BRANCH  74  77
ATOM     77  C   UNL A   1      30.147  25.763  24.482  1.00  0.00     0.140 C 
BRANCH  77  78
ATOM     78  S   UNL A   1      30.878  24.389  23.476  1.00  0.00    -0.141 SA
BRANCH  78  79
ATOM     79  C   UNL A   1      32.630  24.394  23.946  1.00  0.00     0.137 C 
BRANCH  79  80
ATOM     80  C   UNL A   1      33.088  23.138  24.635  1.00  0.00     0.102 A 
ATOM     81  N   UNL A   1      32.430  22.501  25.582  1.00  0.00    -0.249 NA
ATOM     82  S   UNL A   1      34.542  22.356  24.130  1.00  0.00    -0.126 S 
ATOM     83  C   UNL A   1      33.123  21.380  25.987  1.00  0.00     0.123 A 
ATOM     84  C   UNL A   1      34.287  21.127  25.298  1.00  0.00     0.087 A 
ENDBRANCH  79  80
ENDBRANCH  78  79
ENDBRANCH  77  78
BRANCH  77  85
ATOM     85  C   UNL A   1      28.852  26.482  24.057  1.00  0.00     0.060 C 
BRANCH  85  86
ATOM     86  C   UNL A   1      28.962  27.780  23.299  1.00  0.00    -0.046 A 
ATOM     87  C   UNL A   1      27.829  28.563  23.037  1.00  0.00     0.004 A 
ATOM     88  C   UNL A   1      30.216  28.244  22.877  1.00  0.00     0.004 A 
ATOM     89  C   UNL A   1      27.945  29.765  22.336  1.00  0.00     0.000 A 
ATOM     90  C   UNL A   1      30.333  29.454  22.194  1.00  0.00     0.000 A 
ATOM     91  C   UNL A   1      29.196  30.210  21.915  1.00  0.00     0.000 A 
ENDBRANCH  85  86
ENDBRANCH  77  85
ENDBRANCH  74  77
ENDBRANCH  72  73
ENDBRANCH   1  72
TORSDOF 18
ENDMDL
