MODEL 1
REMARK VINA RESULT:     -10.9      0.000      0.000
REMARK SMILES CCCCCC(=O)N1CCC[C@H](C(=O)NCCCNC(=O)c2ccc(-c3c4nc(c(-c5cccc(S(=O)(=O)[O-])c5F)c5ccc([nH]5)c(-c5cccc(S(=O)(=O)[O-])c5F)c5nc(c(-c6cccc(S(=O)(=O)[O-])c6F)c6ccc3[nH]6)C=C5)C=C4)cc2)C1
REMARK SMILES IDX 16 1 15 2 13 3 14 4 12 6 8 7 9 8 85 9 10 10 11 11 6 12 7 13
REMARK SMILES IDX 5 14 4 15 3 16 2 17 1 18 17 19 18 20 19 21 20 22 21 24 22 25
REMARK SMILES IDX 23 26 84 27 24 28 83 29 25 30 26 31 27 32 77 33 28 34 82 35
REMARK SMILES IDX 76 36 78 37 29 38 81 39 75 40 74 41 30 43 62 44 42 45 61 46
REMARK SMILES IDX 43 47 46 48 60 49 79 50 44 51 45 52 59 54 80 55 47 56 31 57
REMARK SMILES IDX 32 58 40 59 33 60 35 61 41 62 34 63 36 64 37 65 38 66 39 67
REMARK SMILES IDX 63 68 64 69 72 70 65 71 67 72 73 73 66 74 68 75 69 76 70 77
REMARK SMILES IDX 71 78 48 79 49 80 57 81 50 82 52 83 58 84 51 85 53 86 54 87
REMARK SMILES IDX 55 88 56 89
REMARK H PARENT 15 5 19 23 78 42 46 53
REMARK Flexibility Score: inf
ROOT
ATOM      1  C   UNL A   1      34.804  22.625  23.606  1.00  0.00     0.117 C 
ENDROOT
BRANCH   1   2
ATOM      2  N   UNL A   1      34.471  23.780  22.804  1.00  0.00    -0.356 N 
ATOM      3  C   UNL A   1      33.746  24.885  23.107  1.00  0.00     0.224 C 
ATOM      4  O   UNL A   1      33.716  25.779  22.254  1.00  0.00    -0.275 OA
ATOM      5  H   UNL A   1      34.828  23.761  21.887  1.00  0.00     0.163 HD
BRANCH   3   6
ATOM      6  C   UNL A   1      32.991  25.077  24.427  1.00  0.00     0.098 C 
ATOM      7  N   UNL A   1      31.521  27.135  24.674  1.00  0.00    -0.342 N 
ATOM      8  C   UNL A   1      32.239  27.505  25.898  1.00  0.00     0.119 C 
ATOM      9  C   UNL A   1      31.616  25.737  24.280  1.00  0.00     0.132 C 
ATOM     10  C   UNL A   1      33.695  27.058  25.902  1.00  0.00     0.022 C 
ATOM     11  C   UNL A   1      33.851  25.579  25.585  1.00  0.00     0.017 C 
BRANCH   7  12
ATOM     12  C   UNL A   1      30.876  28.134  23.968  1.00  0.00     0.222 C 
ATOM     13  O   UNL A   1      31.256  29.308  24.088  1.00  0.00    -0.275 OA
BRANCH  12  14
ATOM     14  C   UNL A   1      29.625  27.922  23.109  1.00  0.00     0.100 C 
BRANCH  14  15
ATOM     15  C   UNL A   1      28.525  28.919  22.764  1.00  0.00     0.010 C 
BRANCH  15  16
ATOM     16  C   UNL A   1      28.802  30.050  21.761  1.00  0.00     0.000 C 
BRANCH  16  17
ATOM     17  C   UNL A   1      28.557  31.481  22.235  1.00  0.00    -0.003 C 
ATOM     18  C   UNL A   1      27.722  31.532  23.501  1.00  0.00     0.004 C 
ENDBRANCH  16  17
ENDBRANCH  15  16
ENDBRANCH  14  15
ENDBRANCH  12  14
ENDBRANCH   7  12
ENDBRANCH   3   6
ENDBRANCH   1   2
BRANCH   1  19
ATOM     19  C   UNL A   1      36.285  22.516  23.910  1.00  0.00     0.042 C 
BRANCH  19  20
ATOM     20  C   UNL A   1      36.550  22.245  25.375  1.00  0.00     0.118 C 
BRANCH  20  21
ATOM     21  N   UNL A   1      37.559  21.206  25.579  1.00  0.00    -0.352 N 
ATOM     22  C   UNL A   1      38.860  21.304  26.015  1.00  0.00     0.251 C 
ATOM     23  H   UNL A   1      37.259  20.291  25.371  1.00  0.00     0.163 HD
ATOM     24  O   UNL A   1      39.590  20.324  25.991  1.00  0.00    -0.269 OA
BRANCH  22  25
ATOM     25  C   UNL A   1      39.376  22.609  26.485  1.00  0.00     0.039 A 
ATOM     26  C   UNL A   1      40.344  22.639  27.492  1.00  0.00     0.014 A 
ATOM     27  C   UNL A   1      38.929  23.794  25.907  1.00  0.00     0.014 A 
ATOM     28  C   UNL A   1      40.915  23.861  27.859  1.00  0.00     0.010 A 
ATOM     29  C   UNL A   1      39.594  24.980  26.171  1.00  0.00     0.010 A 
ATOM     30  C   UNL A   1      40.573  25.036  27.172  1.00  0.00    -0.014 A 
BRANCH  30  31
ATOM     31  C   UNL A   1      41.188  26.347  27.493  1.00  0.00     0.031 A 
ATOM     32  C   UNL A   1      42.602  26.631  27.059  1.00  0.00     0.074 A 
ATOM     33  C   UNL A   1      40.523  27.230  28.264  1.00  0.00     0.049 A 
ATOM     34  N   UNL A   1      43.358  27.663  27.325  1.00  0.00    -0.248 NA
ATOM     35  C   UNL A   1      43.276  25.591  26.260  1.00  0.00     0.031 C 
ATOM     36  C   UNL A   1      39.186  27.030  28.826  1.00  0.00     0.029 A 
ATOM     37  N   UNL A   1      40.895  28.467  28.727  1.00  0.00    -0.354 N 
ATOM     38  C   UNL A   1      44.603  27.371  26.780  1.00  0.00     0.074 A 
ATOM     39  C   UNL A   1      44.520  26.043  26.218  1.00  0.00     0.031 C 
ATOM     40  C   UNL A   1      38.840  28.115  29.538  1.00  0.00     0.029 A 
ATOM     41  C   UNL A   1      39.940  29.072  29.511  1.00  0.00     0.049 A 
ATOM     42  H   UNL A   1      41.763  28.882  28.519  1.00  0.00     0.167 HD
ATOM     43  C   UNL A   1      45.705  28.153  26.711  1.00  0.00     0.034 A 
ATOM     44  C   UNL A   1      39.952  30.266  30.134  1.00  0.00     0.034 A 
ATOM     45  C   UNL A   1      45.754  29.501  27.204  1.00  0.00     0.049 A 
ATOM     46  C   UNL A   1      41.160  31.151  29.980  1.00  0.00     0.074 A 
ATOM     47  C   UNL A   1      46.776  30.425  27.087  1.00  0.00     0.029 A 
ATOM     48  N   UNL A   1      44.729  30.120  27.903  1.00  0.00    -0.354 N 
ATOM     49  N   UNL A   1      42.272  30.924  29.323  1.00  0.00    -0.248 NA
ATOM     50  C   UNL A   1      41.103  32.470  30.625  1.00  0.00     0.031 C 
ATOM     51  C   UNL A   1      46.374  31.599  27.734  1.00  0.00     0.029 A 
ATOM     52  C   UNL A   1      45.094  31.413  28.233  1.00  0.00     0.049 A 
ATOM     53  H   UNL A   1      43.868  29.701  28.131  1.00  0.00     0.167 HD
ATOM     54  C   UNL A   1      43.031  32.080  29.443  1.00  0.00     0.074 A 
ATOM     55  C   UNL A   1      42.243  33.015  30.222  1.00  0.00     0.031 C 
ATOM     56  C   UNL A   1      44.273  32.343  28.965  1.00  0.00     0.034 A 
BRANCH  43  57
ATOM     57  C   UNL A   1      46.919  27.582  26.022  1.00  0.00     0.023 A 
ATOM     58  C   UNL A   1      47.072  27.747  24.629  1.00  0.00     0.012 A 
ATOM     59  C   UNL A   1      47.911  26.895  26.746  1.00  0.00     0.148 A 
ATOM     60  C   UNL A   1      48.162  27.191  23.961  1.00  0.00     0.002 A 
ATOM     61  C   UNL A   1      49.022  26.387  26.081  1.00  0.00     0.091 A 
ATOM     62  F   UNL A   1      47.741  26.724  28.066  1.00  0.00    -0.205 F 
ATOM     63  C   UNL A   1      49.141  26.520  24.688  1.00  0.00     0.022 A 
BRANCH  61  64
ATOM     64  S   UNL A   1      50.376  25.580  26.941  1.00  0.00     0.127 S 
ATOM     65  O   UNL A   1      51.273  25.250  25.836  1.00  0.00    -0.237 OA
ATOM     66  O   UNL A   1      50.860  26.644  27.822  1.00  0.00    -0.237 OA
ATOM     67  O   UNL A   1      49.786  24.444  27.635  1.00  0.00    -0.744 OA
ENDBRANCH  61  64
ENDBRANCH  43  57
BRANCH  44  68
ATOM     68  C   UNL A   1      38.741  30.731  30.869  1.00  0.00     0.023 A 
ATOM     69  C   UNL A   1      38.696  30.589  32.269  1.00  0.00     0.012 A 
ATOM     70  C   UNL A   1      37.668  31.356  30.207  1.00  0.00     0.148 A 
ATOM     71  C   UNL A   1      37.592  31.038  32.995  1.00  0.00     0.002 A 
ATOM     72  C   UNL A   1      36.595  31.848  30.942  1.00  0.00     0.091 A 
ATOM     73  F   UNL A   1      37.729  31.477  28.873  1.00  0.00    -0.205 F 
ATOM     74  C   UNL A   1      36.548  31.677  32.334  1.00  0.00     0.022 A 
BRANCH  72  75
ATOM     75  S   UNL A   1      35.263  32.795  30.195  1.00  0.00     0.127 S 
ATOM     76  O   UNL A   1      34.402  33.061  31.345  1.00  0.00    -0.237 OA
ATOM     77  O   UNL A   1      35.977  33.963  29.678  1.00  0.00    -0.237 OA
ATOM     78  O   UNL A   1      34.693  31.935  29.167  1.00  0.00    -0.744 OA
ENDBRANCH  72  75
ENDBRANCH  44  68
BRANCH  56  79
ATOM     79  C   UNL A   1      44.853  33.705  29.242  1.00  0.00     0.023 A 
ATOM     80  C   UNL A   1      45.612  33.917  30.409  1.00  0.00     0.012 A 
ATOM     81  C   UNL A   1      44.717  34.747  28.303  1.00  0.00     0.148 A 
ATOM     82  C   UNL A   1      46.202  35.157  30.653  1.00  0.00     0.002 A 
ATOM     83  C   UNL A   1      45.349  35.962  28.529  1.00  0.00     0.091 A 
ATOM     84  F   UNL A   1      43.974  34.528  27.208  1.00  0.00    -0.205 F 
ATOM     85  C   UNL A   1      46.083  36.173  29.708  1.00  0.00     0.022 A 
BRANCH  83  86
ATOM     86  S   UNL A   1      45.332  37.293  27.322  1.00  0.00     0.127 S 
ATOM     87  O   UNL A   1      46.115  38.323  28.002  1.00  0.00    -0.237 OA
ATOM     88  O   UNL A   1      45.997  36.679  26.173  1.00  0.00    -0.237 OA
ATOM     89  O   UNL A   1      43.927  37.617  27.104  1.00  0.00    -0.744 OA
ENDBRANCH  83  86
ENDBRANCH  56  79
ENDBRANCH  30  31
ENDBRANCH  22  25
ENDBRANCH  20  21
ENDBRANCH  19  20
ENDBRANCH   1  19
TORSDOF 18
ENDMDL
MODEL 2
REMARK VINA RESULT:     -10.7      1.016      8.026
REMARK SMILES CCCCCC(=O)N1CCC[C@H](C(=O)NCCCNC(=O)c2ccc(-c3c4nc(c(-c5cccc(S(=O)(=O)[O-])c5F)c5ccc([nH]5)c(-c5cccc(S(=O)(=O)[O-])c5F)c5nc(c(-c6cccc(S(=O)(=O)[O-])c6F)c6ccc3[nH]6)C=C5)C=C4)cc2)C1
REMARK SMILES IDX 16 1 15 2 13 3 14 4 12 6 8 7 9 8 85 9 10 10 11 11 6 12 7 13
REMARK SMILES IDX 5 14 4 15 3 16 2 17 1 18 17 19 18 20 19 21 20 22 21 24 22 25
REMARK SMILES IDX 23 26 84 27 24 28 83 29 25 30 26 31 27 32 77 33 28 34 82 35
REMARK SMILES IDX 76 36 78 37 29 38 81 39 75 40 74 41 30 43 62 44 42 45 61 46
REMARK SMILES IDX 43 47 46 48 60 49 79 50 44 51 45 52 59 54 80 55 47 56 31 57
REMARK SMILES IDX 32 58 40 59 33 60 35 61 41 62 34 63 36 64 37 65 38 66 39 67
REMARK SMILES IDX 63 68 64 69 72 70 65 71 67 72 73 73 66 74 68 75 69 76 70 77
REMARK SMILES IDX 71 78 48 79 49 80 57 81 50 82 52 83 58 84 51 85 53 86 54 87
REMARK SMILES IDX 55 88 56 89
REMARK H PARENT 15 5 19 23 78 42 46 53
REMARK Flexibility Score: inf
ROOT
ATOM      1  C   UNL A   1      34.250  23.320  23.946  1.00  0.00     0.117 C 
ENDROOT
BRANCH   1   2
ATOM      2  N   UNL A   1      33.982  24.187  22.821  1.00  0.00    -0.356 N 
ATOM      3  C   UNL A   1      33.665  25.505  22.780  1.00  0.00     0.224 C 
ATOM      4  O   UNL A   1      33.600  26.024  21.660  1.00  0.00    -0.275 OA
ATOM      5  H   UNL A   1      34.040  23.749  21.941  1.00  0.00     0.163 HD
BRANCH   3   6
ATOM      6  C   UNL A   1      33.399  26.360  24.023  1.00  0.00     0.098 C 
ATOM      7  N   UNL A   1      31.138  27.502  24.225  1.00  0.00    -0.342 N 
ATOM      8  C   UNL A   1      31.804  28.798  24.397  1.00  0.00     0.119 C 
ATOM      9  C   UNL A   1      31.948  26.328  24.515  1.00  0.00     0.132 C 
ATOM     10  C   UNL A   1      33.138  28.890  23.670  1.00  0.00     0.022 C 
ATOM     11  C   UNL A   1      34.066  27.733  24.006  1.00  0.00     0.017 C 
BRANCH   7  12
ATOM     12  C   UNL A   1      29.840  27.493  23.750  1.00  0.00     0.222 C 
ATOM     13  O   UNL A   1      29.128  26.495  23.936  1.00  0.00    -0.275 OA
BRANCH  12  14
ATOM     14  C   UNL A   1      29.221  28.602  22.891  1.00  0.00     0.100 C 
BRANCH  14  15
ATOM     15  C   UNL A   1      27.797  29.146  22.917  1.00  0.00     0.010 C 
BRANCH  15  16
ATOM     16  C   UNL A   1      27.556  30.664  22.879  1.00  0.00     0.000 C 
BRANCH  16  17
ATOM     17  C   UNL A   1      28.537  31.547  23.648  1.00  0.00    -0.003 C 
ATOM     18  C   UNL A   1      28.733  32.899  22.988  1.00  0.00     0.004 C 
ENDBRANCH  16  17
ENDBRANCH  15  16
ENDBRANCH  14  15
ENDBRANCH  12  14
ENDBRANCH   7  12
ENDBRANCH   3   6
ENDBRANCH   1   2
BRANCH   1  19
ATOM     19  C   UNL A   1      35.727  23.049  24.153  1.00  0.00     0.042 C 
BRANCH  19  20
ATOM     20  C   UNL A   1      36.010  22.420  25.500  1.00  0.00     0.118 C 
BRANCH  20  21
ATOM     21  N   UNL A   1      36.948  21.301  25.410  1.00  0.00    -0.352 N 
ATOM     22  C   UNL A   1      38.296  21.248  25.683  1.00  0.00     0.251 C 
ATOM     23  H   UNL A   1      36.551  20.452  25.107  1.00  0.00     0.163 HD
ATOM     24  O   UNL A   1      38.935  20.240  25.415  1.00  0.00    -0.269 OA
BRANCH  22  25
ATOM     25  C   UNL A   1      38.969  22.425  26.275  1.00  0.00     0.039 A 
ATOM     26  C   UNL A   1      40.020  22.232  27.174  1.00  0.00     0.014 A 
ATOM     27  C   UNL A   1      38.583  23.714  25.914  1.00  0.00     0.014 A 
ATOM     28  C   UNL A   1      40.731  23.338  27.647  1.00  0.00     0.010 A 
ATOM     29  C   UNL A   1      39.374  24.793  26.271  1.00  0.00     0.010 A 
ATOM     30  C   UNL A   1      40.439  24.624  27.167  1.00  0.00    -0.014 A 
BRANCH  30  31
ATOM     31  C   UNL A   1      41.197  25.822  27.603  1.00  0.00     0.031 A 
ATOM     32  C   UNL A   1      40.498  26.895  28.397  1.00  0.00     0.074 A 
ATOM     33  C   UNL A   1      42.470  25.998  27.196  1.00  0.00     0.049 A 
ATOM     34  N   UNL A   1      40.944  28.060  28.785  1.00  0.00    -0.248 NA
ATOM     35  C   UNL A   1      39.090  26.645  28.761  1.00  0.00     0.031 C 
ATOM     36  C   UNL A   1      43.225  25.077  26.345  1.00  0.00     0.029 A 
ATOM     37  N   UNL A   1      43.345  27.029  27.427  1.00  0.00    -0.354 N 
ATOM     38  C   UNL A   1      39.862  28.699  29.381  1.00  0.00     0.074 A 
ATOM     39  C   UNL A   1      38.725  27.818  29.254  1.00  0.00     0.031 C 
ATOM     40  C   UNL A   1      44.457  25.572  26.145  1.00  0.00     0.029 A 
ATOM     41  C   UNL A   1      44.569  26.858  26.823  1.00  0.00     0.049 A 
ATOM     42  H   UNL A   1      43.119  27.817  27.971  1.00  0.00     0.167 HD
ATOM     43  C   UNL A   1      39.826  29.892  30.018  1.00  0.00     0.034 A 
ATOM     44  C   UNL A   1      45.660  27.648  26.823  1.00  0.00     0.034 A 
ATOM     45  C   UNL A   1      40.980  30.726  30.208  1.00  0.00     0.049 A 
ATOM     46  C   UNL A   1      45.620  28.936  27.601  1.00  0.00     0.074 A 
ATOM     47  C   UNL A   1      41.086  31.898  30.934  1.00  0.00     0.029 A 
ATOM     48  N   UNL A   1      42.232  30.470  29.670  1.00  0.00    -0.354 N 
ATOM     49  N   UNL A   1      44.635  29.451  28.297  1.00  0.00    -0.248 NA
ATOM     50  C   UNL A   1      46.853  29.736  27.624  1.00  0.00     0.031 C 
ATOM     51  C   UNL A   1      42.402  32.360  30.819  1.00  0.00     0.029 A 
ATOM     52  C   UNL A   1      43.119  31.465  30.040  1.00  0.00     0.049 A 
ATOM     53  H   UNL A   1      42.456  29.694  29.107  1.00  0.00     0.167 HD
ATOM     54  C   UNL A   1      45.136  30.613  28.869  1.00  0.00     0.074 A 
ATOM     55  C   UNL A   1      46.521  30.717  28.452  1.00  0.00     0.031 C 
ATOM     56  C   UNL A   1      44.507  31.521  29.656  1.00  0.00     0.034 A 
BRANCH  43  57
ATOM     57  C   UNL A   1      38.507  30.325  30.608  1.00  0.00     0.023 A 
ATOM     58  C   UNL A   1      38.186  29.968  31.934  1.00  0.00     0.012 A 
ATOM     59  C   UNL A   1      37.592  31.090  29.860  1.00  0.00     0.148 A 
ATOM     60  C   UNL A   1      36.955  30.317  32.488  1.00  0.00     0.002 A 
ATOM     61  C   UNL A   1      36.387  31.478  30.436  1.00  0.00     0.091 A 
ATOM     62  F   UNL A   1      37.899  31.400  28.592  1.00  0.00    -0.205 F 
ATOM     63  C   UNL A   1      36.060  31.079  31.743  1.00  0.00     0.022 A 
BRANCH  61  64
ATOM     64  S   UNL A   1      35.206  32.530  29.586  1.00  0.00     0.127 S 
ATOM     65  O   UNL A   1      34.377  32.999  30.694  1.00  0.00    -0.237 OA
ATOM     66  O   UNL A   1      36.072  33.554  28.997  1.00  0.00    -0.237 OA
ATOM     67  O   UNL A   1      34.537  31.675  28.616  1.00  0.00    -0.744 OA
ENDBRANCH  61  64
ENDBRANCH  43  57
BRANCH  44  68
ATOM     68  C   UNL A   1      46.907  27.191  26.146  1.00  0.00     0.023 A 
ATOM     69  C   UNL A   1      47.100  27.501  24.786  1.00  0.00     0.012 A 
ATOM     70  C   UNL A   1      47.919  26.505  26.845  1.00  0.00     0.148 A 
ATOM     71  C   UNL A   1      48.266  27.116  24.126  1.00  0.00     0.002 A 
ATOM     72  C   UNL A   1      49.102  26.170  26.194  1.00  0.00     0.091 A 
ATOM     73  F   UNL A   1      47.714  26.216  28.137  1.00  0.00    -0.205 F 
ATOM     74  C   UNL A   1      49.271  26.460  24.832  1.00  0.00     0.022 A 
BRANCH  72  75
ATOM     75  S   UNL A   1      50.502  25.437  27.049  1.00  0.00     0.127 S 
ATOM     76  O   UNL A   1      49.885  24.288  27.705  1.00  0.00    -0.237 OA
ATOM     77  O   UNL A   1      51.393  25.107  25.936  1.00  0.00    -0.237 OA
ATOM     78  O   UNL A   1      51.009  26.473  27.939  1.00  0.00    -0.744 OA
ENDBRANCH  72  75
ENDBRANCH  44  68
BRANCH  56  79
ATOM     79  C   UNL A   1      45.311  32.695  30.147  1.00  0.00     0.023 A 
ATOM     80  C   UNL A   1      46.038  32.590  31.348  1.00  0.00     0.012 A 
ATOM     81  C   UNL A   1      45.414  33.868  29.373  1.00  0.00     0.148 A 
ATOM     82  C   UNL A   1      46.833  33.648  31.789  1.00  0.00     0.002 A 
ATOM     83  C   UNL A   1      46.247  34.897  29.793  1.00  0.00     0.091 A 
ATOM     84  F   UNL A   1      44.699  33.953  28.243  1.00  0.00    -0.205 F 
ATOM     85  C   UNL A   1      46.947  34.794  31.006  1.00  0.00     0.022 A 
BRANCH  83  86
ATOM     86  S   UNL A   1      46.532  36.367  28.801  1.00  0.00     0.127 S 
ATOM     87  O   UNL A   1      47.350  35.838  27.712  1.00  0.00    -0.237 OA
ATOM     88  O   UNL A   1      45.174  36.750  28.416  1.00  0.00    -0.237 OA
ATOM     89  O   UNL A   1      47.200  37.319  29.681  1.00  0.00    -0.744 OA
ENDBRANCH  83  86
ENDBRANCH  56  79
ENDBRANCH  30  31
ENDBRANCH  22  25
ENDBRANCH  20  21
ENDBRANCH  19  20
ENDBRANCH   1  19
TORSDOF 18
ENDMDL
MODEL 3
REMARK VINA RESULT:     -10.6      5.294     10.533
REMARK SMILES CCCCCC(=O)N1CCC[C@H](C(=O)NCCCNC(=O)c2ccc(-c3c4nc(c(-c5cccc(S(=O)(=O)[O-])c5F)c5ccc([nH]5)c(-c5cccc(S(=O)(=O)[O-])c5F)c5nc(c(-c6cccc(S(=O)(=O)[O-])c6F)c6ccc3[nH]6)C=C5)C=C4)cc2)C1
REMARK SMILES IDX 16 1 15 2 13 3 14 4 12 6 8 7 9 8 85 9 10 10 11 11 6 12 7 13
REMARK SMILES IDX 5 14 4 15 3 16 2 17 1 18 17 19 18 20 19 21 20 22 21 24 22 25
REMARK SMILES IDX 23 26 84 27 24 28 83 29 25 30 26 31 27 32 77 33 28 34 82 35
REMARK SMILES IDX 76 36 78 37 29 38 81 39 75 40 74 41 30 43 62 44 42 45 61 46
REMARK SMILES IDX 43 47 46 48 60 49 79 50 44 51 45 52 59 54 80 55 47 56 31 57
REMARK SMILES IDX 32 58 40 59 33 60 35 61 41 62 34 63 36 64 37 65 38 66 39 67
REMARK SMILES IDX 63 68 64 69 72 70 65 71 67 72 73 73 66 74 68 75 69 76 70 77
REMARK SMILES IDX 71 78 48 79 49 80 57 81 50 82 52 83 58 84 51 85 53 86 54 87
REMARK SMILES IDX 55 88 56 89
REMARK H PARENT 15 5 19 23 78 42 46 53
REMARK Flexibility Score: inf
ROOT
ATOM      1  C   UNL A   1      31.415  30.390  25.378  1.00  0.00     0.117 C 
ENDROOT
BRANCH   1   2
ATOM      2  N   UNL A   1      32.354  29.347  25.723  1.00  0.00    -0.356 N 
ATOM      3  C   UNL A   1      32.330  28.017  25.463  1.00  0.00     0.224 C 
ATOM      4  O   UNL A   1      33.334  27.371  25.784  1.00  0.00    -0.275 OA
ATOM      5  H   UNL A   1      33.140  29.653  26.232  1.00  0.00     0.163 HD
BRANCH   3   6
ATOM      6  C   UNL A   1      31.151  27.297  24.799  1.00  0.00     0.098 C 
ATOM      7  N   UNL A   1      30.643  24.916  25.525  1.00  0.00    -0.342 N 
ATOM      8  C   UNL A   1      30.732  24.467  24.131  1.00  0.00     0.119 C 
ATOM      9  C   UNL A   1      30.394  26.335  25.721  1.00  0.00     0.132 C 
ATOM     10  C   UNL A   1      31.703  25.290  23.295  1.00  0.00     0.022 C 
ATOM     11  C   UNL A   1      31.433  26.783  23.388  1.00  0.00     0.017 C 
BRANCH   7  12
ATOM     12  C   UNL A   1      30.862  23.986  26.524  1.00  0.00     0.222 C 
ATOM     13  O   UNL A   1      29.923  23.647  27.260  1.00  0.00    -0.275 OA
BRANCH  12  14
ATOM     14  C   UNL A   1      32.233  23.400  26.882  1.00  0.00     0.100 C 
BRANCH  14  15
ATOM     15  C   UNL A   1      33.366  22.984  25.951  1.00  0.00     0.010 C 
BRANCH  15  16
ATOM     16  C   UNL A   1      34.683  23.776  25.944  1.00  0.00     0.000 C 
BRANCH  16  17
ATOM     17  C   UNL A   1      35.138  24.362  24.610  1.00  0.00    -0.003 C 
ATOM     18  C   UNL A   1      35.661  23.298  23.662  1.00  0.00     0.004 C 
ENDBRANCH  16  17
ENDBRANCH  15  16
ENDBRANCH  14  15
ENDBRANCH  12  14
ENDBRANCH   7  12
ENDBRANCH   3   6
ENDBRANCH   1   2
BRANCH   1  19
ATOM     19  C   UNL A   1      31.301  31.466  26.441  1.00  0.00     0.042 C 
BRANCH  19  20
ATOM     20  C   UNL A   1      32.615  31.712  27.151  1.00  0.00     0.118 C 
BRANCH  20  21
ATOM     21  N   UNL A   1      32.835  33.126  27.446  1.00  0.00    -0.352 N 
ATOM     22  C   UNL A   1      33.852  33.741  28.142  1.00  0.00     0.251 C 
ATOM     23  H   UNL A   1      32.148  33.736  27.091  1.00  0.00     0.163 HD
ATOM     24  O   UNL A   1      33.785  34.935  28.396  1.00  0.00    -0.269 OA
BRANCH  22  25
ATOM     25  C   UNL A   1      35.008  32.942  28.603  1.00  0.00     0.039 A 
ATOM     26  C   UNL A   1      36.298  33.319  28.219  1.00  0.00     0.014 A 
ATOM     27  C   UNL A   1      34.819  31.844  29.439  1.00  0.00     0.014 A 
ATOM     28  C   UNL A   1      37.398  32.636  28.743  1.00  0.00     0.010 A 
ATOM     29  C   UNL A   1      35.909  31.262  30.065  1.00  0.00     0.010 A 
ATOM     30  C   UNL A   1      37.213  31.628  29.703  1.00  0.00    -0.014 A 
BRANCH  30  31
ATOM     31  C   UNL A   1      38.351  30.908  30.323  1.00  0.00     0.031 A 
ATOM     32  C   UNL A   1      38.800  31.282  31.712  1.00  0.00     0.074 A 
ATOM     33  C   UNL A   1      39.047  30.004  29.604  1.00  0.00     0.049 A 
ATOM     34  N   UNL A   1      39.830  30.854  32.392  1.00  0.00    -0.248 NA
ATOM     35  C   UNL A   1      38.013  32.316  32.411  1.00  0.00     0.031 C 
ATOM     36  C   UNL A   1      38.770  29.626  28.217  1.00  0.00     0.029 A 
ATOM     37  N   UNL A   1      40.148  29.256  29.938  1.00  0.00    -0.354 N 
ATOM     38  C   UNL A   1      39.847  31.603  33.563  1.00  0.00     0.074 A 
ATOM     39  C   UNL A   1      38.760  32.550  33.478  1.00  0.00     0.031 C 
ATOM     40  C   UNL A   1      39.661  28.701  27.827  1.00  0.00     0.029 A 
ATOM     41  C   UNL A   1      40.591  28.444  28.920  1.00  0.00     0.049 A 
ATOM     42  H   UNL A   1      40.580  29.298  30.821  1.00  0.00     0.167 HD
ATOM     43  C   UNL A   1      40.663  31.484  34.636  1.00  0.00     0.034 A 
ATOM     44  C   UNL A   1      41.628  27.586  28.878  1.00  0.00     0.034 A 
ATOM     45  C   UNL A   1      41.691  30.487  34.744  1.00  0.00     0.049 A 
ATOM     46  C   UNL A   1      42.477  27.416  30.110  1.00  0.00     0.074 A 
ATOM     47  C   UNL A   1      42.502  30.200  35.827  1.00  0.00     0.029 A 
ATOM     48  N   UNL A   1      42.045  29.609  33.731  1.00  0.00    -0.354 N 
ATOM     49  N   UNL A   1      42.379  28.018  31.270  1.00  0.00    -0.248 NA
ATOM     50  C   UNL A   1      43.559  26.423  30.038  1.00  0.00     0.031 C 
ATOM     51  C   UNL A   1      43.360  29.157  35.459  1.00  0.00     0.029 A 
ATOM     52  C   UNL A   1      43.068  28.782  34.157  1.00  0.00     0.049 A 
ATOM     53  H   UNL A   1      41.629  29.580  32.839  1.00  0.00     0.167 HD
ATOM     54  C   UNL A   1      43.359  27.455  32.078  1.00  0.00     0.074 A 
ATOM     55  C   UNL A   1      44.029  26.449  31.278  1.00  0.00     0.031 C 
ATOM     56  C   UNL A   1      43.686  27.752  33.360  1.00  0.00     0.034 A 
BRANCH  43  57
ATOM     57  C   UNL A   1      40.426  32.418  35.796  1.00  0.00     0.023 A 
ATOM     58  C   UNL A   1      41.247  33.554  35.955  1.00  0.00     0.012 A 
ATOM     59  C   UNL A   1      39.390  32.183  36.719  1.00  0.00     0.148 A 
ATOM     60  C   UNL A   1      41.078  34.410  37.043  1.00  0.00     0.002 A 
ATOM     61  C   UNL A   1      39.194  33.069  37.774  1.00  0.00     0.091 A 
ATOM     62  F   UNL A   1      38.633  31.086  36.570  1.00  0.00    -0.205 F 
ATOM     63  C   UNL A   1      40.046  34.171  37.946  1.00  0.00     0.022 A 
BRANCH  61  64
ATOM     64  S   UNL A   1      37.841  32.893  38.941  1.00  0.00     0.127 S 
ATOM     65  O   UNL A   1      38.220  31.673  39.651  1.00  0.00    -0.237 OA
ATOM     66  O   UNL A   1      37.954  34.119  39.733  1.00  0.00    -0.237 OA
ATOM     67  O   UNL A   1      36.630  32.803  38.137  1.00  0.00    -0.744 OA
ENDBRANCH  61  64
ENDBRANCH  43  57
BRANCH  44  68
ATOM     68  C   UNL A   1      41.852  26.752  27.663  1.00  0.00     0.023 A 
ATOM     69  C   UNL A   1      42.464  27.336  26.537  1.00  0.00     0.012 A 
ATOM     70  C   UNL A   1      41.517  25.385  27.631  1.00  0.00     0.148 A 
ATOM     71  C   UNL A   1      42.716  26.581  25.391  1.00  0.00     0.002 A 
ATOM     72  C   UNL A   1      41.819  24.626  26.506  1.00  0.00     0.091 A 
ATOM     73  F   UNL A   1      40.931  24.850  28.712  1.00  0.00    -0.205 F 
ATOM     74  C   UNL A   1      42.404  25.224  25.380  1.00  0.00     0.022 A 
BRANCH  72  75
ATOM     75  S   UNL A   1      41.570  22.847  26.443  1.00  0.00     0.127 S 
ATOM     76  O   UNL A   1      40.113  22.749  26.421  1.00  0.00    -0.237 OA
ATOM     77  O   UNL A   1      42.230  22.496  25.185  1.00  0.00    -0.237 OA
ATOM     78  O   UNL A   1      42.220  22.314  27.633  1.00  0.00    -0.744 OA
ENDBRANCH  72  75
ENDBRANCH  44  68
BRANCH  56  79
ATOM     79  C   UNL A   1      44.799  26.962  33.997  1.00  0.00     0.023 A 
ATOM     80  C   UNL A   1      46.119  27.449  33.945  1.00  0.00     0.012 A 
ATOM     81  C   UNL A   1      44.520  25.784  34.719  1.00  0.00     0.148 A 
ATOM     82  C   UNL A   1      47.153  26.758  34.577  1.00  0.00     0.002 A 
ATOM     83  C   UNL A   1      45.547  25.130  35.387  1.00  0.00     0.091 A 
ATOM     84  F   UNL A   1      43.259  25.330  34.739  1.00  0.00    -0.205 F 
ATOM     85  C   UNL A   1      46.865  25.608  35.308  1.00  0.00     0.022 A 
BRANCH  83  86
ATOM     86  S   UNL A   1      45.253  23.699  36.433  1.00  0.00     0.127 S 
ATOM     87  O   UNL A   1      44.599  24.305  37.591  1.00  0.00    -0.237 OA
ATOM     88  O   UNL A   1      44.377  22.878  35.597  1.00  0.00    -0.237 OA
ATOM     89  O   UNL A   1      46.564  23.115  36.688  1.00  0.00    -0.744 OA
ENDBRANCH  83  86
ENDBRANCH  56  79
ENDBRANCH  30  31
ENDBRANCH  22  25
ENDBRANCH  20  21
ENDBRANCH  19  20
ENDBRANCH   1  19
TORSDOF 18
ENDMDL
