MODEL 1
REMARK VINA RESULT:     -11.5      0.000      0.000
REMARK SMILES O=C(Cn1ccc2ccc(CO)cc21)NCCCNC(=O)c1ccc(-c2c3nc(c(-c4cccc(S(=O)(=O)[O-])c4F)c4ccc([nH]4)c(-c4cccc(S(=O)(=O)[O-])c4F)c4nc(c(-c5cccc(S(=O)(=O)[O-])c5F)c5ccc2[nH]5)C=C4)C=C3)cc1
REMARK SMILES IDX 17 1 16 2 15 3 1 4 2 5 3 7 4 8 5 9 14 10 6 11 7 12 13 13
REMARK SMILES IDX 8 14 10 15 9 16 11 17 12 18 18 20 19 21 20 22 21 24 22 25
REMARK SMILES IDX 23 26 84 27 24 28 83 29 25 30 26 31 27 32 77 33 28 34 82 35
REMARK SMILES IDX 76 36 78 37 29 38 81 39 75 40 74 41 30 43 62 44 42 45 61 46
REMARK SMILES IDX 43 47 46 48 60 49 79 50 44 51 45 52 59 54 80 55 47 56 31 57
REMARK SMILES IDX 32 58 40 59 33 60 35 61 41 62 34 63 36 64 37 65 38 66 39 67
REMARK SMILES IDX 63 68 64 69 72 70 65 71 67 72 73 73 66 74 68 75 69 76 70 77
REMARK SMILES IDX 71 78 48 79 49 80 57 81 50 82 52 83 58 84 51 85 53 86 54 87
REMARK SMILES IDX 55 88 56 89
REMARK H PARENT 15 6 12 19 19 23 78 42 46 53
REMARK Flexibility Score: inf
ROOT
ATOM      1  C   UNL A   1      38.386  20.535  25.056  1.00  0.00     0.042 C 
ENDROOT
BRANCH   1   2
ATOM      2  C   UNL A   1      38.439  21.860  25.818  1.00  0.00     0.117 C 
BRANCH   2   3
ATOM      3  N   UNL A   1      37.143  22.511  25.912  1.00  0.00    -0.354 N 
ATOM      4  O   UNL A   1      37.130  23.441  23.810  1.00  0.00    -0.273 OA
ATOM      5  C   UNL A   1      36.557  23.197  24.868  1.00  0.00     0.239 C 
ATOM      6  H   UNL A   1      36.658  22.462  26.767  1.00  0.00     0.163 HD
BRANCH   5   7
ATOM      7  C   UNL A   1      35.144  23.678  25.143  1.00  0.00     0.222 C 
BRANCH   7   8
ATOM      8  N   UNL A   1      34.156  23.326  24.122  1.00  0.00    -0.338 N 
ATOM      9  C   UNL A   1      33.622  24.171  23.180  1.00  0.00     0.087 A 
ATOM     10  C   UNL A   1      33.597  22.064  23.982  1.00  0.00     0.049 A 
ATOM     11  C   UNL A   1      32.775  23.444  22.378  1.00  0.00     0.028 A 
ATOM     12  C   UNL A   1      32.736  22.120  22.881  1.00  0.00    -0.000 A 
ATOM     13  C   UNL A   1      33.763  20.882  24.726  1.00  0.00     0.033 A 
ATOM     14  C   UNL A   1      32.028  20.965  22.503  1.00  0.00     0.011 A 
ATOM     15  C   UNL A   1      33.026  19.740  24.354  1.00  0.00    -0.021 A 
ATOM     16  C   UNL A   1      32.177  19.788  23.243  1.00  0.00     0.007 A 
BRANCH  15  17
ATOM     17  C   UNL A   1      33.152  18.469  25.153  1.00  0.00     0.191 C 
BRANCH  17  18
ATOM     18  O   UNL A   1      32.896  18.710  26.530  1.00  0.00    -0.392 OA
ATOM     19  H   UNL A   1      31.947  18.860  26.660  1.00  0.00     0.211 HD
ENDBRANCH  17  18
ENDBRANCH  15  17
ENDBRANCH   7   8
ENDBRANCH   5   7
ENDBRANCH   2   3
ENDBRANCH   1   2
BRANCH   1  20
ATOM     20  C   UNL A   1      38.920  19.338  25.841  1.00  0.00     0.118 C 
BRANCH  20  21
ATOM     21  N   UNL A   1      40.266  18.936  25.492  1.00  0.00    -0.352 N 
ATOM     22  C   UNL A   1      41.512  19.241  25.964  1.00  0.00     0.251 C 
ATOM     23  H   UNL A   1      40.290  18.296  24.743  1.00  0.00     0.163 HD
ATOM     24  O   UNL A   1      42.419  18.496  25.585  1.00  0.00    -0.269 OA
BRANCH  22  25
ATOM     25  C   UNL A   1      41.845  20.431  26.788  1.00  0.00     0.039 A 
ATOM     26  C   UNL A   1      41.319  20.725  28.048  1.00  0.00     0.014 A 
ATOM     27  C   UNL A   1      42.690  21.372  26.169  1.00  0.00     0.014 A 
ATOM     28  C   UNL A   1      41.517  21.977  28.614  1.00  0.00     0.010 A 
ATOM     29  C   UNL A   1      42.901  22.619  26.734  1.00  0.00     0.010 A 
ATOM     30  C   UNL A   1      42.253  22.937  27.924  1.00  0.00    -0.014 A 
BRANCH  30  31
ATOM     31  C   UNL A   1      42.405  24.257  28.519  1.00  0.00     0.031 A 
ATOM     32  C   UNL A   1      41.302  25.207  28.199  1.00  0.00     0.074 A 
ATOM     33  C   UNL A   1      43.396  24.524  29.396  1.00  0.00     0.049 A 
ATOM     34  N   UNL A   1      41.375  26.355  27.604  1.00  0.00    -0.248 NA
ATOM     35  C   UNL A   1      39.923  24.754  28.461  1.00  0.00     0.031 C 
ATOM     36  C   UNL A   1      44.356  23.578  29.974  1.00  0.00     0.029 A 
ATOM     37  N   UNL A   1      43.658  25.673  30.076  1.00  0.00    -0.354 N 
ATOM     38  C   UNL A   1      40.077  26.862  27.617  1.00  0.00     0.074 A 
ATOM     39  C   UNL A   1      39.208  25.778  27.997  1.00  0.00     0.031 C 
ATOM     40  C   UNL A   1      44.893  24.117  31.091  1.00  0.00     0.029 A 
ATOM     41  C   UNL A   1      44.415  25.480  31.232  1.00  0.00     0.049 A 
ATOM     42  H   UNL A   1      43.344  26.559  29.781  1.00  0.00     0.167 HD
ATOM     43  C   UNL A   1      39.809  28.194  27.551  1.00  0.00     0.034 A 
ATOM     44  C   UNL A   1      44.538  26.349  32.268  1.00  0.00     0.034 A 
ATOM     45  C   UNL A   1      40.928  28.960  27.090  1.00  0.00     0.049 A 
ATOM     46  C   UNL A   1      44.147  27.683  31.751  1.00  0.00     0.074 A 
ATOM     47  C   UNL A   1      41.664  29.002  25.924  1.00  0.00     0.029 A 
ATOM     48  N   UNL A   1      41.691  29.583  28.047  1.00  0.00    -0.354 N 
ATOM     49  N   UNL A   1      44.813  28.330  30.838  1.00  0.00    -0.248 NA
ATOM     50  C   UNL A   1      42.771  28.108  31.951  1.00  0.00     0.031 C 
ATOM     51  C   UNL A   1      43.009  29.207  26.351  1.00  0.00     0.029 A 
ATOM     52  C   UNL A   1      43.003  29.337  27.740  1.00  0.00     0.049 A 
ATOM     53  H   UNL A   1      41.357  30.107  28.811  1.00  0.00     0.167 HD
ATOM     54  C   UNL A   1      43.833  28.922  30.053  1.00  0.00     0.074 A 
ATOM     55  C   UNL A   1      42.605  28.833  30.841  1.00  0.00     0.031 C 
ATOM     56  C   UNL A   1      44.043  29.163  28.729  1.00  0.00     0.034 A 
BRANCH  43  57
ATOM     57  C   UNL A   1      38.629  28.825  28.234  1.00  0.00     0.023 A 
ATOM     58  C   UNL A   1      37.659  29.486  27.456  1.00  0.00     0.012 A 
ATOM     59  C   UNL A   1      38.569  28.995  29.637  1.00  0.00     0.148 A 
ATOM     60  C   UNL A   1      36.659  30.264  28.055  1.00  0.00     0.002 A 
ATOM     61  C   UNL A   1      37.531  29.701  30.229  1.00  0.00     0.091 A 
ATOM     62  F   UNL A   1      39.591  28.573  30.393  1.00  0.00    -0.205 F 
ATOM     63  C   UNL A   1      36.582  30.354  29.442  1.00  0.00     0.022 A 
BRANCH  61  64
ATOM     64  S   UNL A   1      37.369  29.803  32.015  1.00  0.00     0.127 S 
ATOM     65  O   UNL A   1      36.065  30.452  32.152  1.00  0.00    -0.237 OA
ATOM     66  O   UNL A   1      37.395  28.387  32.396  1.00  0.00    -0.237 OA
ATOM     67  O   UNL A   1      38.517  30.564  32.468  1.00  0.00    -0.744 OA
ENDBRANCH  61  64
ENDBRANCH  43  57
BRANCH  44  68
ATOM     68  C   UNL A   1      44.645  26.096  33.732  1.00  0.00     0.023 A 
ATOM     69  C   UNL A   1      45.914  26.180  34.348  1.00  0.00     0.012 A 
ATOM     70  C   UNL A   1      43.509  26.082  34.573  1.00  0.00     0.148 A 
ATOM     71  C   UNL A   1      46.044  26.312  35.737  1.00  0.00     0.002 A 
ATOM     72  C   UNL A   1      43.644  26.198  35.956  1.00  0.00     0.091 A 
ATOM     73  F   UNL A   1      42.290  26.056  34.022  1.00  0.00    -0.205 F 
ATOM     74  C   UNL A   1      44.908  26.334  36.539  1.00  0.00     0.022 A 
BRANCH  72  75
ATOM     75  S   UNL A   1      42.218  26.239  37.051  1.00  0.00     0.127 S 
ATOM     76  O   UNL A   1      41.617  24.924  36.821  1.00  0.00    -0.237 OA
ATOM     77  O   UNL A   1      42.844  26.405  38.359  1.00  0.00    -0.237 OA
ATOM     78  O   UNL A   1      41.400  27.355  36.591  1.00  0.00    -0.744 OA
ENDBRANCH  72  75
ENDBRANCH  44  68
BRANCH  56  79
ATOM     79  C   UNL A   1      45.439  28.985  28.189  1.00  0.00     0.023 A 
ATOM     80  C   UNL A   1      46.433  29.977  28.333  1.00  0.00     0.012 A 
ATOM     81  C   UNL A   1      45.804  27.713  27.724  1.00  0.00     0.148 A 
ATOM     82  C   UNL A   1      47.768  29.700  28.018  1.00  0.00     0.002 A 
ATOM     83  C   UNL A   1      47.135  27.430  27.448  1.00  0.00     0.091 A 
ATOM     84  F   UNL A   1      44.842  26.785  27.609  1.00  0.00    -0.205 F 
ATOM     85  C   UNL A   1      48.120  28.422  27.591  1.00  0.00     0.022 A 
BRANCH  83  86
ATOM     86  S   UNL A   1      47.676  25.779  27.005  1.00  0.00     0.127 S 
ATOM     87  O   UNL A   1      47.340  25.015  28.206  1.00  0.00    -0.237 OA
ATOM     88  O   UNL A   1      46.843  25.483  25.838  1.00  0.00    -0.237 OA
ATOM     89  O   UNL A   1      49.100  25.881  26.714  1.00  0.00    -0.744 OA
ENDBRANCH  83  86
ENDBRANCH  56  79
ENDBRANCH  30  31
ENDBRANCH  22  25
ENDBRANCH  20  21
ENDBRANCH   1  20
TORSDOF 16
ENDMDL
MODEL 2
REMARK VINA RESULT:     -11.1      4.139      8.630
REMARK SMILES O=C(Cn1ccc2ccc(CO)cc21)NCCCNC(=O)c1ccc(-c2c3nc(c(-c4cccc(S(=O)(=O)[O-])c4F)c4ccc([nH]4)c(-c4cccc(S(=O)(=O)[O-])c4F)c4nc(c(-c5cccc(S(=O)(=O)[O-])c5F)c5ccc2[nH]5)C=C4)C=C3)cc1
REMARK SMILES IDX 17 1 16 2 15 3 1 4 2 5 3 7 4 8 5 9 14 10 6 11 7 12 13 13
REMARK SMILES IDX 8 14 10 15 9 16 11 17 12 18 18 20 19 21 20 22 21 24 22 25
REMARK SMILES IDX 23 26 84 27 24 28 83 29 25 30 26 31 27 32 77 33 28 34 82 35
REMARK SMILES IDX 76 36 78 37 29 38 81 39 75 40 74 41 30 43 62 44 42 45 61 46
REMARK SMILES IDX 43 47 46 48 60 49 79 50 44 51 45 52 59 54 80 55 47 56 31 57
REMARK SMILES IDX 32 58 40 59 33 60 35 61 41 62 34 63 36 64 37 65 38 66 39 67
REMARK SMILES IDX 63 68 64 69 72 70 65 71 67 72 73 73 66 74 68 75 69 76 70 77
REMARK SMILES IDX 71 78 48 79 49 80 57 81 50 82 52 83 58 84 51 85 53 86 54 87
REMARK SMILES IDX 55 88 56 89
REMARK H PARENT 15 6 12 19 19 23 78 42 46 53
REMARK Flexibility Score: inf
ROOT
ATOM      1  C   UNL A   1      34.133  30.976  27.455  1.00  0.00     0.042 C 
ENDROOT
BRANCH   1   2
ATOM      2  C   UNL A   1      32.673  30.777  27.049  1.00  0.00     0.117 C 
BRANCH   2   3
ATOM      3  N   UNL A   1      32.528  30.188  25.728  1.00  0.00    -0.354 N 
ATOM      4  O   UNL A   1      32.905  28.005  26.338  1.00  0.00    -0.273 OA
ATOM      5  C   UNL A   1      32.587  28.831  25.488  1.00  0.00     0.239 C 
ATOM      6  H   UNL A   1      32.381  30.790  24.964  1.00  0.00     0.163 HD
BRANCH   5   7
ATOM      7  C   UNL A   1      32.271  28.428  24.058  1.00  0.00     0.222 C 
BRANCH   7   8
ATOM      8  N   UNL A   1      30.898  27.974  23.829  1.00  0.00    -0.338 N 
ATOM      9  C   UNL A   1      30.462  26.672  23.818  1.00  0.00     0.087 A 
ATOM     10  C   UNL A   1      29.833  28.821  23.561  1.00  0.00     0.049 A 
ATOM     11  C   UNL A   1      29.103  26.673  23.621  1.00  0.00     0.028 A 
ATOM     12  C   UNL A   1      28.694  28.018  23.440  1.00  0.00    -0.000 A 
ATOM     13  C   UNL A   1      29.766  30.218  23.406  1.00  0.00     0.033 A 
ATOM     14  C   UNL A   1      27.453  28.620  23.169  1.00  0.00     0.011 A 
ATOM     15  C   UNL A   1      28.521  30.806  23.106  1.00  0.00    -0.021 A 
ATOM     16  C   UNL A   1      27.378  30.007  23.002  1.00  0.00     0.007 A 
BRANCH  15  17
ATOM     17  C   UNL A   1      28.423  32.294  22.896  1.00  0.00     0.191 C 
BRANCH  17  18
ATOM     18  O   UNL A   1      29.620  32.943  23.303  1.00  0.00    -0.392 OA
ATOM     19  H   UNL A   1      30.375  32.544  22.845  1.00  0.00     0.211 HD
ENDBRANCH  17  18
ENDBRANCH  15  17
ENDBRANCH   7   8
ENDBRANCH   5   7
ENDBRANCH   2   3
ENDBRANCH   1   2
BRANCH   1  20
ATOM     20  C   UNL A   1      34.401  32.269  28.224  1.00  0.00     0.118 C 
BRANCH  20  21
ATOM     21  N   UNL A   1      34.485  32.115  29.661  1.00  0.00    -0.352 N 
ATOM     22  C   UNL A   1      35.469  31.734  30.529  1.00  0.00     0.251 C 
ATOM     23  H   UNL A   1      33.639  32.333  30.117  1.00  0.00     0.163 HD
ATOM     24  O   UNL A   1      35.248  31.975  31.719  1.00  0.00    -0.269 OA
BRANCH  22  25
ATOM     25  C   UNL A   1      36.693  30.980  30.155  1.00  0.00     0.039 A 
ATOM     26  C   UNL A   1      36.808  29.589  30.099  1.00  0.00     0.014 A 
ATOM     27  C   UNL A   1      37.841  31.766  29.943  1.00  0.00     0.014 A 
ATOM     28  C   UNL A   1      38.057  28.996  29.973  1.00  0.00     0.010 A 
ATOM     29  C   UNL A   1      39.088  31.180  29.805  1.00  0.00     0.010 A 
ATOM     30  C   UNL A   1      39.195  29.795  29.891  1.00  0.00    -0.014 A 
BRANCH  30  31
ATOM     31  C   UNL A   1      40.495  29.146  29.808  1.00  0.00     0.031 A 
ATOM     32  C   UNL A   1      41.166  28.939  31.123  1.00  0.00     0.074 A 
ATOM     33  C   UNL A   1      40.965  28.659  28.640  1.00  0.00     0.049 A 
ATOM     34  N   UNL A   1      42.314  29.384  31.521  1.00  0.00    -0.248 NA
ATOM     35  C   UNL A   1      40.391  28.254  32.175  1.00  0.00     0.031 C 
ATOM     36  C   UNL A   1      40.258  28.575  27.358  1.00  0.00     0.029 A 
ATOM     37  N   UNL A   1      42.124  27.990  28.389  1.00  0.00    -0.354 N 
ATOM     38  C   UNL A   1      42.498  28.849  32.795  1.00  0.00     0.074 A 
ATOM     39  C   UNL A   1      41.229  28.310  33.209  1.00  0.00     0.031 C 
ATOM     40  C   UNL A   1      40.877  27.671  26.567  1.00  0.00     0.029 A 
ATOM     41  C   UNL A   1      42.083  27.212  27.232  1.00  0.00     0.049 A 
ATOM     42  H   UNL A   1      42.918  28.050  28.970  1.00  0.00     0.167 HD
ATOM     43  C   UNL A   1      43.730  28.662  33.341  1.00  0.00     0.034 A 
ATOM     44  C   UNL A   1      42.927  26.196  26.914  1.00  0.00     0.034 A 
ATOM     45  C   UNL A   1      44.753  29.401  32.664  1.00  0.00     0.049 A 
ATOM     46  C   UNL A   1      44.144  26.383  27.741  1.00  0.00     0.074 A 
ATOM     47  C   UNL A   1      45.001  30.741  32.445  1.00  0.00     0.029 A 
ATOM     48  N   UNL A   1      45.511  28.717  31.747  1.00  0.00    -0.354 N 
ATOM     49  N   UNL A   1      44.957  27.393  27.618  1.00  0.00    -0.248 NA
ATOM     50  C   UNL A   1      44.224  25.656  28.997  1.00  0.00     0.031 C 
ATOM     51  C   UNL A   1      45.507  30.804  31.114  1.00  0.00     0.029 A 
ATOM     52  C   UNL A   1      45.593  29.499  30.625  1.00  0.00     0.049 A 
ATOM     53  H   UNL A   1      45.919  27.829  31.872  1.00  0.00     0.167 HD
ATOM     54  C   UNL A   1      45.321  27.701  28.921  1.00  0.00     0.074 A 
ATOM     55  C   UNL A   1      44.921  26.541  29.716  1.00  0.00     0.031 C 
ATOM     56  C   UNL A   1      45.642  28.976  29.279  1.00  0.00     0.034 A 
BRANCH  43  57
ATOM     57  C   UNL A   1      44.043  27.534  34.282  1.00  0.00     0.023 A 
ATOM     58  C   UNL A   1      44.651  27.821  35.519  1.00  0.00     0.012 A 
ATOM     59  C   UNL A   1      43.977  26.177  33.886  1.00  0.00     0.148 A 
ATOM     60  C   UNL A   1      45.150  26.798  36.336  1.00  0.00     0.002 A 
ATOM     61  C   UNL A   1      44.401  25.162  34.733  1.00  0.00     0.091 A 
ATOM     62  F   UNL A   1      43.614  25.877  32.633  1.00  0.00    -0.205 F 
ATOM     63  C   UNL A   1      45.006  25.467  35.953  1.00  0.00     0.022 A 
BRANCH  61  64
ATOM     64  S   UNL A   1      44.191  23.432  34.297  1.00  0.00     0.127 S 
ATOM     65  O   UNL A   1      42.734  23.307  34.295  1.00  0.00    -0.237 OA
ATOM     66  O   UNL A   1      44.815  23.384  32.970  1.00  0.00    -0.237 OA
ATOM     67  O   UNL A   1      44.900  22.685  35.317  1.00  0.00    -0.744 OA
ENDBRANCH  61  64
ENDBRANCH  43  57
BRANCH  44  68
ATOM     68  C   UNL A   1      42.665  24.908  26.216  1.00  0.00     0.023 A 
ATOM     69  C   UNL A   1      43.595  24.452  25.254  1.00  0.00     0.012 A 
ATOM     70  C   UNL A   1      41.704  23.985  26.685  1.00  0.00     0.148 A 
ATOM     71  C   UNL A   1      43.610  23.116  24.829  1.00  0.00     0.002 A 
ATOM     72  C   UNL A   1      41.712  22.661  26.249  1.00  0.00     0.091 A 
ATOM     73  F   UNL A   1      40.841  24.369  27.634  1.00  0.00    -0.205 F 
ATOM     74  C   UNL A   1      42.677  22.218  25.337  1.00  0.00     0.022 A 
BRANCH  72  75
ATOM     75  S   UNL A   1      40.539  21.446  26.868  1.00  0.00     0.127 S 
ATOM     76  O   UNL A   1      40.770  21.505  28.312  1.00  0.00    -0.237 OA
ATOM     77  O   UNL A   1      39.264  22.005  26.429  1.00  0.00    -0.237 OA
ATOM     78  O   UNL A   1      40.923  20.180  26.254  1.00  0.00    -0.744 OA
ENDBRANCH  72  75
ENDBRANCH  44  68
BRANCH  56  79
ATOM     79  C   UNL A   1      45.816  29.996  28.183  1.00  0.00     0.023 A 
ATOM     80  C   UNL A   1      44.717  30.635  27.569  1.00  0.00     0.012 A 
ATOM     81  C   UNL A   1      47.112  30.467  27.926  1.00  0.00     0.148 A 
ATOM     82  C   UNL A   1      44.912  31.726  26.716  1.00  0.00     0.002 A 
ATOM     83  C   UNL A   1      47.299  31.573  27.108  1.00  0.00     0.091 A 
ATOM     84  F   UNL A   1      48.137  29.850  28.533  1.00  0.00    -0.205 F 
ATOM     85  C   UNL A   1      46.202  32.204  26.498  1.00  0.00     0.022 A 
BRANCH  83  86
ATOM     86  S   UNL A   1      48.917  32.311  26.876  1.00  0.00     0.127 S 
ATOM     87  O   UNL A   1      48.646  33.328  25.861  1.00  0.00    -0.237 OA
ATOM     88  O   UNL A   1      49.210  32.840  28.210  1.00  0.00    -0.237 OA
ATOM     89  O   UNL A   1      49.800  31.233  26.452  1.00  0.00    -0.744 OA
ENDBRANCH  83  86
ENDBRANCH  56  79
ENDBRANCH  30  31
ENDBRANCH  22  25
ENDBRANCH  20  21
ENDBRANCH   1  20
TORSDOF 16
ENDMDL
MODEL 3
REMARK VINA RESULT:     -11.1      1.401      2.236
REMARK SMILES O=C(Cn1ccc2ccc(CO)cc21)NCCCNC(=O)c1ccc(-c2c3nc(c(-c4cccc(S(=O)(=O)[O-])c4F)c4ccc([nH]4)c(-c4cccc(S(=O)(=O)[O-])c4F)c4nc(c(-c5cccc(S(=O)(=O)[O-])c5F)c5ccc2[nH]5)C=C4)C=C3)cc1
REMARK SMILES IDX 17 1 16 2 15 3 1 4 2 5 3 7 4 8 5 9 14 10 6 11 7 12 13 13
REMARK SMILES IDX 8 14 10 15 9 16 11 17 12 18 18 20 19 21 20 22 21 24 22 25
REMARK SMILES IDX 23 26 84 27 24 28 83 29 25 30 26 31 27 32 77 33 28 34 82 35
REMARK SMILES IDX 76 36 78 37 29 38 81 39 75 40 74 41 30 43 62 44 42 45 61 46
REMARK SMILES IDX 43 47 46 48 60 49 79 50 44 51 45 52 59 54 80 55 47 56 31 57
REMARK SMILES IDX 32 58 40 59 33 60 35 61 41 62 34 63 36 64 37 65 38 66 39 67
REMARK SMILES IDX 63 68 64 69 72 70 65 71 67 72 73 73 66 74 68 75 69 76 70 77
REMARK SMILES IDX 71 78 48 79 49 80 57 81 50 82 52 83 58 84 51 85 53 86 54 87
REMARK SMILES IDX 55 88 56 89
REMARK H PARENT 15 6 12 19 19 23 78 42 46 53
REMARK Flexibility Score: inf
ROOT
ATOM      1  C   UNL A   1      38.153  20.698  24.964  1.00  0.00     0.042 C 
ENDROOT
BRANCH   1   2
ATOM      2  C   UNL A   1      38.227  22.017  25.732  1.00  0.00     0.117 C 
BRANCH   2   3
ATOM      3  N   UNL A   1      36.964  22.383  26.352  1.00  0.00    -0.354 N 
ATOM      4  O   UNL A   1      36.023  23.401  24.518  1.00  0.00    -0.273 OA
ATOM      5  C   UNL A   1      35.928  22.989  25.671  1.00  0.00     0.239 C 
ATOM      6  H   UNL A   1      36.842  22.190  27.309  1.00  0.00     0.163 HD
BRANCH   5   7
ATOM      7  C   UNL A   1      34.654  23.154  26.479  1.00  0.00     0.222 C 
BRANCH   7   8
ATOM      8  N   UNL A   1      33.433  23.322  25.688  1.00  0.00    -0.338 N 
ATOM      9  C   UNL A   1      32.916  22.423  24.788  1.00  0.00     0.087 A 
ATOM     10  C   UNL A   1      32.630  24.453  25.727  1.00  0.00     0.049 A 
ATOM     11  C   UNL A   1      31.737  22.932  24.299  1.00  0.00     0.028 A 
ATOM     12  C   UNL A   1      31.552  24.216  24.868  1.00  0.00    -0.000 A 
ATOM     13  C   UNL A   1      32.755  25.663  26.433  1.00  0.00     0.033 A 
ATOM     14  C   UNL A   1      30.565  25.206  24.714  1.00  0.00     0.011 A 
ATOM     15  C   UNL A   1      31.775  26.658  26.247  1.00  0.00    -0.021 A 
ATOM     16  C   UNL A   1      30.687  26.418  25.401  1.00  0.00     0.007 A 
BRANCH  15  17
ATOM     17  C   UNL A   1      31.900  27.981  26.957  1.00  0.00     0.191 C 
BRANCH  17  18
ATOM     18  O   UNL A   1      31.368  27.900  28.273  1.00  0.00    -0.392 OA
ATOM     19  H   UNL A   1      30.543  28.407  28.319  1.00  0.00     0.211 HD
ENDBRANCH  17  18
ENDBRANCH  15  17
ENDBRANCH   7   8
ENDBRANCH   5   7
ENDBRANCH   2   3
ENDBRANCH   1   2
BRANCH   1  20
ATOM     20  C   UNL A   1      38.590  19.475  25.770  1.00  0.00     0.118 C 
BRANCH  20  21
ATOM     21  N   UNL A   1      39.914  18.982  25.455  1.00  0.00    -0.352 N 
ATOM     22  C   UNL A   1      41.167  19.213  25.948  1.00  0.00     0.251 C 
ATOM     23  H   UNL A   1      39.910  18.331  24.715  1.00  0.00     0.163 HD
ATOM     24  O   UNL A   1      42.032  18.405  25.598  1.00  0.00    -0.269 OA
BRANCH  22  25
ATOM     25  C   UNL A   1      41.561  20.392  26.761  1.00  0.00     0.039 A 
ATOM     26  C   UNL A   1      41.091  20.693  28.042  1.00  0.00     0.014 A 
ATOM     27  C   UNL A   1      42.405  21.314  26.113  1.00  0.00     0.014 A 
ATOM     28  C   UNL A   1      41.341  21.938  28.603  1.00  0.00     0.010 A 
ATOM     29  C   UNL A   1      42.668  22.553  26.673  1.00  0.00     0.010 A 
ATOM     30  C   UNL A   1      42.074  22.882  27.887  1.00  0.00    -0.014 A 
BRANCH  30  31
ATOM     31  C   UNL A   1      42.281  24.196  28.480  1.00  0.00     0.031 A 
ATOM     32  C   UNL A   1      41.208  25.185  28.174  1.00  0.00     0.074 A 
ATOM     33  C   UNL A   1      43.293  24.427  29.343  1.00  0.00     0.049 A 
ATOM     34  N   UNL A   1      41.315  26.329  27.578  1.00  0.00    -0.248 NA
ATOM     35  C   UNL A   1      39.818  24.782  28.455  1.00  0.00     0.031 C 
ATOM     36  C   UNL A   1      44.225  23.447  29.910  1.00  0.00     0.029 A 
ATOM     37  N   UNL A   1      43.605  25.566  30.020  1.00  0.00    -0.354 N 
ATOM     38  C   UNL A   1      40.037  26.883  27.608  1.00  0.00     0.074 A 
ATOM     39  C   UNL A   1      39.135  25.832  28.000  1.00  0.00     0.031 C 
ATOM     40  C   UNL A   1      44.796  23.966  31.019  1.00  0.00     0.029 A 
ATOM     41  C   UNL A   1      44.370  25.346  31.166  1.00  0.00     0.049 A 
ATOM     42  H   UNL A   1      43.319  26.462  29.728  1.00  0.00     0.167 HD
ATOM     43  C   UNL A   1      39.816  28.224  27.544  1.00  0.00     0.034 A 
ATOM     44  C   UNL A   1      44.537  26.210  32.200  1.00  0.00     0.034 A 
ATOM     45  C   UNL A   1      40.955  28.949  27.069  1.00  0.00     0.049 A 
ATOM     46  C   UNL A   1      44.188  27.557  31.687  1.00  0.00     0.074 A 
ATOM     47  C   UNL A   1      41.677  28.964  25.893  1.00  0.00     0.029 A 
ATOM     48  N   UNL A   1      41.753  29.544  28.015  1.00  0.00    -0.354 N 
ATOM     49  N   UNL A   1      44.865  28.180  30.765  1.00  0.00    -0.248 NA
ATOM     50  C   UNL A   1      42.831  28.031  31.905  1.00  0.00     0.031 C 
ATOM     51  C   UNL A   1      43.034  29.121  26.302  1.00  0.00     0.029 A 
ATOM     52  C   UNL A   1      43.051  29.251  27.691  1.00  0.00     0.049 A 
ATOM     53  H   UNL A   1      41.448  30.080  28.783  1.00  0.00     0.167 HD
ATOM     54  C   UNL A   1      43.897  28.807  29.993  1.00  0.00     0.074 A 
ATOM     55  C   UNL A   1      42.677  28.762  30.798  1.00  0.00     0.031 C 
ATOM     56  C   UNL A   1      44.097  29.040  28.666  1.00  0.00     0.034 A 
BRANCH  43  57
ATOM     57  C   UNL A   1      38.669  28.897  28.243  1.00  0.00     0.023 A 
ATOM     58  C   UNL A   1      37.774  29.682  27.491  1.00  0.00     0.012 A 
ATOM     59  C   UNL A   1      38.583  28.976  29.653  1.00  0.00     0.148 A 
ATOM     60  C   UNL A   1      36.819  30.493  28.120  1.00  0.00     0.002 A 
ATOM     61  C   UNL A   1      37.585  29.718  30.269  1.00  0.00     0.091 A 
ATOM     62  F   UNL A   1      39.548  28.426  30.401  1.00  0.00    -0.205 F 
ATOM     63  C   UNL A   1      36.711  30.495  29.507  1.00  0.00     0.022 A 
BRANCH  61  64
ATOM     64  S   UNL A   1      37.382  29.712  32.053  1.00  0.00     0.127 S 
ATOM     65  O   UNL A   1      38.536  30.503  32.481  1.00  0.00    -0.237 OA
ATOM     66  O   UNL A   1      36.086  30.383  32.205  1.00  0.00    -0.237 OA
ATOM     67  O   UNL A   1      37.380  28.316  32.441  1.00  0.00    -0.744 OA
ENDBRANCH  61  64
ENDBRANCH  43  57
BRANCH  44  68
ATOM     68  C   UNL A   1      44.654  25.953  33.662  1.00  0.00     0.023 A 
ATOM     69  C   UNL A   1      45.932  26.007  34.264  1.00  0.00     0.012 A 
ATOM     70  C   UNL A   1      43.528  25.964  34.516  1.00  0.00     0.148 A 
ATOM     71  C   UNL A   1      46.080  26.134  35.652  1.00  0.00     0.002 A 
ATOM     72  C   UNL A   1      43.680  26.076  35.897  1.00  0.00     0.091 A 
ATOM     73  F   UNL A   1      42.303  25.967  33.978  1.00  0.00    -0.205 F 
ATOM     74  C   UNL A   1      44.954  26.182  36.467  1.00  0.00     0.022 A 
BRANCH  72  75
ATOM     75  S   UNL A   1      42.268  26.149  37.008  1.00  0.00     0.127 S 
ATOM     76  O   UNL A   1      42.899  26.493  38.284  1.00  0.00    -0.237 OA
ATOM     77  O   UNL A   1      41.468  27.215  36.413  1.00  0.00    -0.237 OA
ATOM     78  O   UNL A   1      41.675  24.817  36.978  1.00  0.00    -0.744 OA
ENDBRANCH  72  75
ENDBRANCH  44  68
BRANCH  56  79
ATOM     79  C   UNL A   1      45.479  28.811  28.108  1.00  0.00     0.023 A 
ATOM     80  C   UNL A   1      46.507  29.772  28.228  1.00  0.00     0.012 A 
ATOM     81  C   UNL A   1      45.796  27.524  27.650  1.00  0.00     0.148 A 
ATOM     82  C   UNL A   1      47.826  29.449  27.897  1.00  0.00     0.002 A 
ATOM     83  C   UNL A   1      47.113  27.196  27.358  1.00  0.00     0.091 A 
ATOM     84  F   UNL A   1      44.802  26.627  27.558  1.00  0.00    -0.205 F 
ATOM     85  C   UNL A   1      48.131  28.157  27.477  1.00  0.00     0.022 A 
BRANCH  83  86
ATOM     86  S   UNL A   1      47.594  25.524  26.924  1.00  0.00     0.127 S 
ATOM     87  O   UNL A   1      47.116  24.760  28.075  1.00  0.00    -0.237 OA
ATOM     88  O   UNL A   1      46.846  25.299  25.686  1.00  0.00    -0.237 OA
ATOM     89  O   UNL A   1      49.041  25.547  26.753  1.00  0.00    -0.744 OA
ENDBRANCH  83  86
ENDBRANCH  56  79
ENDBRANCH  30  31
ENDBRANCH  22  25
ENDBRANCH  20  21
ENDBRANCH   1  20
TORSDOF 16
ENDMDL
