MODEL 1
REMARK VINA RESULT:     -13.0      0.000      0.000
REMARK SMILES Cn1nnc2cc(C(=O)NC3(C(=O)NCCCNC(=O)c4ccc(-c5c6nc(c(-c7cccc(S(=O)(=O)[O-])c7F)c7ccc([nH]7)c(-c7cccc(S(=O)(=O)[O-])c7F)c7nc(c(-c8cccc(S(=O)(=O)[O-])c8F)c8ccc5[nH]8)C=C7)C=C6)cc4)CCCCC3)ccc21
REMARK SMILES IDX 16 1 15 2 14 3 12 4 13 5 11 7 84 8 88 9 85 10 87 11 86 12
REMARK SMILES IDX 10 13 8 14 9 15 7 17 1 18 2 19 3 20 91 21 4 22 5 23 90 24
REMARK SMILES IDX 6 25 89 26 17 27 18 28 19 29 20 31 21 32 22 33 83 34 23 35
REMARK SMILES IDX 82 36 24 37 25 38 26 39 76 40 27 41 81 42 75 43 77 44 28 45
REMARK SMILES IDX 80 46 74 47 73 48 29 50 61 51 41 52 60 53 42 54 45 55 59 56
REMARK SMILES IDX 78 57 43 58 44 59 58 61 79 62 46 63 30 64 31 65 39 66 32 67
REMARK SMILES IDX 34 68 40 69 33 70 35 71 36 72 37 73 38 74 62 75 63 76 71 77
REMARK SMILES IDX 64 78 66 79 72 80 65 81 67 82 68 83 69 84 70 85 47 86 48 87
REMARK SMILES IDX 56 88 49 89 51 90 57 91 50 92 52 93 53 94 54 95 55 96
REMARK H PARENT 14 6 10 16 18 30 77 49 45 60
REMARK Flexibility Score: inf
ROOT
ATOM      1  C   UNL A   1      38.145  21.094  25.269  1.00  0.00     0.042 C 
ENDROOT
BRANCH   1   2
ATOM      2  C   UNL A   1      36.844  21.761  24.847  1.00  0.00     0.117 C 
BRANCH   2   3
ATOM      3  N   UNL A   1      35.742  20.821  24.848  1.00  0.00    -0.354 N 
ATOM      4  C   UNL A   1      34.397  20.903  24.804  1.00  0.00     0.245 C 
ATOM      5  O   UNL A   1      33.871  19.774  24.792  1.00  0.00    -0.272 OA
ATOM      6  H   UNL A   1      36.054  19.888  24.892  1.00  0.00     0.163 HD
BRANCH   4   7
ATOM      7  C   UNL A   1      33.495  22.192  24.673  1.00  0.00     0.119 C 
ATOM      8  C   UNL A   1      32.308  21.820  23.746  1.00  0.00     0.038 C 
ATOM      9  C   UNL A   1      34.013  23.583  24.262  1.00  0.00     0.038 C 
ATOM     10  C   UNL A   1      32.621  21.930  22.259  1.00  0.00     0.003 C 
ATOM     11  C   UNL A   1      34.214  23.877  22.782  1.00  0.00     0.003 C 
ATOM     12  C   UNL A   1      33.145  23.305  21.863  1.00  0.00     0.000 C 
BRANCH   7  13
ATOM     13  N   UNL A   1      32.927  22.303  26.078  1.00  0.00    -0.338 N 
ATOM     14  C   UNL A   1      32.300  23.282  26.812  1.00  0.00     0.252 C 
ATOM     15  O   UNL A   1      32.034  23.032  27.991  1.00  0.00    -0.269 OA
ATOM     16  H   UNL A   1      33.035  21.468  26.589  1.00  0.00     0.164 HD
BRANCH  14  17
ATOM     17  C   UNL A   1      31.860  24.594  26.264  1.00  0.00     0.042 A 
ATOM     18  C   UNL A   1      30.971  29.100  23.715  1.00  0.00     0.176 C 
ATOM     19  N   UNL A   1      30.481  27.817  24.143  1.00  0.00    -0.248 N 
ATOM     20  N   UNL A   1      29.358  27.310  23.599  1.00  0.00    -0.066 NA
ATOM     21  C   UNL A   1      31.073  26.929  25.000  1.00  0.00     0.088 A 
ATOM     22  N   UNL A   1      29.247  26.052  24.013  1.00  0.00    -0.130 NA
ATOM     23  C   UNL A   1      30.305  25.782  24.840  1.00  0.00     0.113 A 
ATOM     24  C   UNL A   1      32.176  26.988  25.850  1.00  0.00     0.031 A 
ATOM     25  C   UNL A   1      30.697  24.593  25.471  1.00  0.00     0.046 A 
ATOM     26  C   UNL A   1      32.517  25.803  26.517  1.00  0.00     0.016 A 
ENDBRANCH  14  17
ENDBRANCH   7  13
ENDBRANCH   4   7
ENDBRANCH   2   3
ENDBRANCH   1   2
BRANCH   1  27
ATOM     27  C   UNL A   1      39.033  22.030  26.094  1.00  0.00     0.118 C 
BRANCH  27  28
ATOM     28  N   UNL A   1      40.320  21.463  26.472  1.00  0.00    -0.352 N 
ATOM     29  C   UNL A   1      41.464  22.094  26.925  1.00  0.00     0.251 C 
ATOM     30  H   UNL A   1      40.387  20.484  26.394  1.00  0.00     0.163 HD
ATOM     31  O   UNL A   1      42.461  21.448  27.184  1.00  0.00    -0.269 OA
BRANCH  29  32
ATOM     32  C   UNL A   1      41.458  23.567  27.044  1.00  0.00     0.039 A 
ATOM     33  C   UNL A   1      42.135  24.347  26.103  1.00  0.00     0.014 A 
ATOM     34  C   UNL A   1      40.851  24.153  28.158  1.00  0.00     0.014 A 
ATOM     35  C   UNL A   1      42.321  25.700  26.344  1.00  0.00     0.010 A 
ATOM     36  C   UNL A   1      41.006  25.521  28.380  1.00  0.00     0.010 A 
ATOM     37  C   UNL A   1      41.774  26.285  27.494  1.00  0.00    -0.014 A 
BRANCH  37  38
ATOM     38  C   UNL A   1      42.004  27.722  27.684  1.00  0.00     0.031 A 
ATOM     39  C   UNL A   1      40.771  28.552  27.703  1.00  0.00     0.074 A 
ATOM     40  C   UNL A   1      43.132  28.198  28.250  1.00  0.00     0.049 A 
ATOM     41  N   UNL A   1      40.083  28.731  28.789  1.00  0.00    -0.248 NA
ATOM     42  C   UNL A   1      40.098  29.011  26.489  1.00  0.00     0.031 C 
ATOM     43  C   UNL A   1      43.980  27.438  29.179  1.00  0.00     0.029 A 
ATOM     44  N   UNL A   1      43.631  29.477  28.302  1.00  0.00    -0.354 N 
ATOM     45  C   UNL A   1      38.852  29.229  28.412  1.00  0.00     0.074 A 
ATOM     46  C   UNL A   1      38.920  29.429  26.982  1.00  0.00     0.031 C 
ATOM     47  C   UNL A   1      44.766  28.305  29.849  1.00  0.00     0.029 A 
ATOM     48  C   UNL A   1      44.605  29.639  29.283  1.00  0.00     0.049 A 
ATOM     49  H   UNL A   1      43.330  30.203  27.709  1.00  0.00     0.167 HD
ATOM     50  C   UNL A   1      37.833  29.404  29.294  1.00  0.00     0.034 A 
ATOM     51  C   UNL A   1      44.873  30.797  29.946  1.00  0.00     0.034 A 
ATOM     52  C   UNL A   1      38.122  29.020  30.645  1.00  0.00     0.049 A 
ATOM     53  C   UNL A   1      43.585  31.020  30.698  1.00  0.00     0.074 A 
ATOM     54  C   UNL A   1      37.948  27.887  31.409  1.00  0.00     0.029 A 
ATOM     55  N   UNL A   1      38.888  29.861  31.415  1.00  0.00    -0.354 N 
ATOM     56  N   UNL A   1      43.231  30.387  31.787  1.00  0.00    -0.248 NA
ATOM     57  C   UNL A   1      42.488  31.705  30.013  1.00  0.00     0.031 C 
ATOM     58  C   UNL A   1      38.975  27.931  32.402  1.00  0.00     0.029 A 
ATOM     59  C   UNL A   1      39.732  29.078  32.165  1.00  0.00     0.049 A 
ATOM     60  H   UNL A   1      38.843  30.844  31.427  1.00  0.00     0.167 HD
ATOM     61  C   UNL A   1      41.837  30.326  31.741  1.00  0.00     0.074 A 
ATOM     62  C   UNL A   1      41.442  31.190  30.647  1.00  0.00     0.031 C 
ATOM     63  C   UNL A   1      41.097  29.442  32.471  1.00  0.00     0.034 A 
BRANCH  50  64
ATOM     64  C   UNL A   1      36.543  30.036  28.953  1.00  0.00     0.023 A 
ATOM     65  C   UNL A   1      35.711  29.347  28.050  1.00  0.00     0.012 A 
ATOM     66  C   UNL A   1      36.213  31.343  29.349  1.00  0.00     0.148 A 
ATOM     67  C   UNL A   1      34.581  29.962  27.517  1.00  0.00     0.002 A 
ATOM     68  C   UNL A   1      35.081  31.951  28.815  1.00  0.00     0.091 A 
ATOM     69  F   UNL A   1      37.030  31.981  30.201  1.00  0.00    -0.205 F 
ATOM     70  C   UNL A   1      34.270  31.265  27.893  1.00  0.00     0.022 A 
BRANCH  68  71
ATOM     71  S   UNL A   1      34.586  33.628  29.224  1.00  0.00     0.127 S 
ATOM     72  O   UNL A   1      35.821  34.374  28.996  1.00  0.00    -0.237 OA
ATOM     73  O   UNL A   1      33.530  33.882  28.242  1.00  0.00    -0.237 OA
ATOM     74  O   UNL A   1      34.123  33.581  30.605  1.00  0.00    -0.744 OA
ENDBRANCH  68  71
ENDBRANCH  50  64
BRANCH  51  75
ATOM     75  C   UNL A   1      45.561  31.835  29.105  1.00  0.00     0.023 A 
ATOM     76  C   UNL A   1      46.891  32.174  29.471  1.00  0.00     0.012 A 
ATOM     77  C   UNL A   1      45.011  32.501  27.996  1.00  0.00     0.148 A 
ATOM     78  C   UNL A   1      47.672  33.045  28.708  1.00  0.00     0.002 A 
ATOM     79  C   UNL A   1      45.808  33.330  27.206  1.00  0.00     0.091 A 
ATOM     80  F   UNL A   1      43.719  32.317  27.702  1.00  0.00    -0.205 F 
ATOM     81  C   UNL A   1      47.137  33.604  27.557  1.00  0.00     0.022 A 
BRANCH  79  82
ATOM     82  S   UNL A   1      45.220  34.036  25.658  1.00  0.00     0.127 S 
ATOM     83  O   UNL A   1      44.265  35.044  26.119  1.00  0.00    -0.237 OA
ATOM     84  O   UNL A   1      46.460  34.570  25.099  1.00  0.00    -0.237 OA
ATOM     85  O   UNL A   1      44.627  32.928  24.923  1.00  0.00    -0.744 OA
ENDBRANCH  79  82
ENDBRANCH  51  75
BRANCH  63  86
ATOM     86  C   UNL A   1      41.834  28.661  33.512  1.00  0.00     0.023 A 
ATOM     87  C   UNL A   1      41.661  29.025  34.859  1.00  0.00     0.012 A 
ATOM     88  C   UNL A   1      42.611  27.529  33.191  1.00  0.00     0.148 A 
ATOM     89  C   UNL A   1      42.230  28.264  35.877  1.00  0.00     0.002 A 
ATOM     90  C   UNL A   1      43.164  26.764  34.212  1.00  0.00     0.091 A 
ATOM     91  F   UNL A   1      42.757  27.186  31.902  1.00  0.00    -0.205 F 
ATOM     92  C   UNL A   1      42.973  27.130  35.556  1.00  0.00     0.022 A 
BRANCH  90  93
ATOM     93  S   UNL A   1      44.116  25.274  33.892  1.00  0.00     0.127 S 
ATOM     94  O   UNL A   1      45.382  25.556  34.572  1.00  0.00    -0.237 OA
ATOM     95  O   UNL A   1      43.298  24.247  34.536  1.00  0.00    -0.237 OA
ATOM     96  O   UNL A   1      44.233  25.168  32.442  1.00  0.00    -0.744 OA
ENDBRANCH  90  93
ENDBRANCH  63  86
ENDBRANCH  37  38
ENDBRANCH  29  32
ENDBRANCH  27  28
ENDBRANCH   1  27
TORSDOF 15
ENDMDL
MODEL 2
REMARK VINA RESULT:     -13.0      2.480      8.452
REMARK SMILES Cn1nnc2cc(C(=O)NC3(C(=O)NCCCNC(=O)c4ccc(-c5c6nc(c(-c7cccc(S(=O)(=O)[O-])c7F)c7ccc([nH]7)c(-c7cccc(S(=O)(=O)[O-])c7F)c7nc(c(-c8cccc(S(=O)(=O)[O-])c8F)c8ccc5[nH]8)C=C7)C=C6)cc4)CCCCC3)ccc21
REMARK SMILES IDX 16 1 15 2 14 3 12 4 13 5 11 7 84 8 88 9 85 10 87 11 86 12
REMARK SMILES IDX 10 13 8 14 9 15 7 17 1 18 2 19 3 20 91 21 4 22 5 23 90 24
REMARK SMILES IDX 6 25 89 26 17 27 18 28 19 29 20 31 21 32 22 33 83 34 23 35
REMARK SMILES IDX 82 36 24 37 25 38 26 39 76 40 27 41 81 42 75 43 77 44 28 45
REMARK SMILES IDX 80 46 74 47 73 48 29 50 61 51 41 52 60 53 42 54 45 55 59 56
REMARK SMILES IDX 78 57 43 58 44 59 58 61 79 62 46 63 30 64 31 65 39 66 32 67
REMARK SMILES IDX 34 68 40 69 33 70 35 71 36 72 37 73 38 74 62 75 63 76 71 77
REMARK SMILES IDX 64 78 66 79 72 80 65 81 67 82 68 83 69 84 70 85 47 86 48 87
REMARK SMILES IDX 56 88 49 89 51 90 57 91 50 92 52 93 53 94 54 95 55 96
REMARK H PARENT 14 6 10 16 18 30 77 49 45 60
REMARK Flexibility Score: inf
ROOT
ATOM      1  C   UNL A   1      33.969  29.964  26.253  1.00  0.00     0.042 C 
ENDROOT
BRANCH   1   2
ATOM      2  C   UNL A   1      32.471  29.932  25.983  1.00  0.00     0.117 C 
BRANCH   2   3
ATOM      3  N   UNL A   1      32.190  29.780  24.571  1.00  0.00    -0.354 N 
ATOM      4  C   UNL A   1      32.146  28.755  23.696  1.00  0.00     0.245 C 
ATOM      5  O   UNL A   1      31.810  29.140  22.559  1.00  0.00    -0.272 OA
ATOM      6  H   UNL A   1      31.979  30.641  24.143  1.00  0.00     0.163 HD
BRANCH   4   7
ATOM      7  C   UNL A   1      32.362  27.216  23.973  1.00  0.00     0.119 C 
ATOM      8  C   UNL A   1      30.974  26.624  24.335  1.00  0.00     0.038 C 
ATOM      9  C   UNL A   1      33.403  26.642  24.951  1.00  0.00     0.038 C 
ATOM     10  C   UNL A   1      30.586  26.797  25.798  1.00  0.00     0.003 C 
ATOM     11  C   UNL A   1      33.068  26.608  26.435  1.00  0.00     0.003 C 
ATOM     12  C   UNL A   1      31.627  26.239  26.759  1.00  0.00     0.000 C 
BRANCH   7  13
ATOM     13  N   UNL A   1      32.699  26.707  22.582  1.00  0.00    -0.338 N 
ATOM     14  C   UNL A   1      33.071  25.500  22.038  1.00  0.00     0.252 C 
ATOM     15  O   UNL A   1      33.345  25.473  20.836  1.00  0.00    -0.269 OA
ATOM     16  H   UNL A   1      32.636  27.416  21.902  1.00  0.00     0.164 HD
BRANCH  14  17
ATOM     17  C   UNL A   1      33.101  24.214  22.786  1.00  0.00     0.042 A 
ATOM     18  C   UNL A   1      33.159  19.285  24.602  1.00  0.00     0.176 C 
ATOM     19  N   UNL A   1      33.825  20.555  24.483  1.00  0.00    -0.248 N 
ATOM     20  N   UNL A   1      35.135  20.658  24.777  1.00  0.00    -0.066 NA
ATOM     21  C   UNL A   1      33.324  21.729  23.988  1.00  0.00     0.088 A 
ATOM     22  N   UNL A   1      35.536  21.865  24.391  1.00  0.00    -0.130 NA
ATOM     23  C   UNL A   1      34.455  22.525  23.870  1.00  0.00     0.113 A 
ATOM     24  C   UNL A   1      32.052  22.161  23.616  1.00  0.00     0.031 A 
ATOM     25  C   UNL A   1      34.356  23.783  23.258  1.00  0.00     0.046 A 
ATOM     26  C   UNL A   1      31.965  23.445  23.060  1.00  0.00     0.016 A 
ENDBRANCH  14  17
ENDBRANCH   7  13
ENDBRANCH   4   7
ENDBRANCH   2   3
ENDBRANCH   1   2
BRANCH   1  27
ATOM     27  C   UNL A   1      34.291  30.428  27.676  1.00  0.00     0.118 C 
BRANCH  27  28
ATOM     28  N   UNL A   1      34.320  31.874  27.848  1.00  0.00    -0.352 N 
ATOM     29  C   UNL A   1      35.226  32.664  28.532  1.00  0.00     0.251 C 
ATOM     30  H   UNL A   1      33.585  32.364  27.412  1.00  0.00     0.163 HD
ATOM     31  O   UNL A   1      35.080  33.870  28.575  1.00  0.00    -0.269 OA
BRANCH  29  32
ATOM     32  C   UNL A   1      36.345  32.005  29.239  1.00  0.00     0.039 A 
ATOM     33  C   UNL A   1      37.543  31.750  28.566  1.00  0.00     0.014 A 
ATOM     34  C   UNL A   1      36.148  31.560  30.549  1.00  0.00     0.014 A 
ATOM     35  C   UNL A   1      38.496  30.933  29.156  1.00  0.00     0.010 A 
ATOM     36  C   UNL A   1      37.124  30.770  31.156  1.00  0.00     0.010 A 
ATOM     37  C   UNL A   1      38.279  30.425  30.444  1.00  0.00    -0.014 A 
BRANCH  37  38
ATOM     38  C   UNL A   1      39.330  29.572  31.010  1.00  0.00     0.031 A 
ATOM     39  C   UNL A   1      39.466  28.241  30.363  1.00  0.00     0.074 A 
ATOM     40  C   UNL A   1      40.368  30.080  31.705  1.00  0.00     0.049 A 
ATOM     41  N   UNL A   1      40.190  28.067  29.300  1.00  0.00    -0.248 NA
ATOM     42  C   UNL A   1      38.618  27.098  30.699  1.00  0.00     0.031 C 
ATOM     43  C   UNL A   1      40.876  31.451  31.556  1.00  0.00     0.029 A 
ATOM     44  N   UNL A   1      41.302  29.456  32.497  1.00  0.00    -0.354 N 
ATOM     45  C   UNL A   1      39.834  26.848  28.761  1.00  0.00     0.074 A 
ATOM     46  C   UNL A   1      38.888  26.261  29.684  1.00  0.00     0.031 C 
ATOM     47  C   UNL A   1      42.121  31.506  32.072  1.00  0.00     0.029 A 
ATOM     48  C   UNL A   1      42.425  30.243  32.734  1.00  0.00     0.049 A 
ATOM     49  H   UNL A   1      41.188  28.547  32.857  1.00  0.00     0.167 HD
ATOM     50  C   UNL A   1      40.303  26.413  27.562  1.00  0.00     0.034 A 
ATOM     51  C   UNL A   1      43.681  29.775  32.966  1.00  0.00     0.034 A 
ATOM     52  C   UNL A   1      41.185  27.319  26.887  1.00  0.00     0.049 A 
ATOM     53  C   UNL A   1      44.002  29.102  31.655  1.00  0.00     0.074 A 
ATOM     54  C   UNL A   1      41.050  28.303  25.933  1.00  0.00     0.029 A 
ATOM     55  N   UNL A   1      42.484  27.414  27.323  1.00  0.00    -0.354 N 
ATOM     56  N   UNL A   1      44.352  29.723  30.557  1.00  0.00    -0.248 NA
ATOM     57  C   UNL A   1      43.561  27.721  31.455  1.00  0.00     0.031 C 
ATOM     58  C   UNL A   1      42.129  29.212  26.162  1.00  0.00     0.029 A 
ATOM     59  C   UNL A   1      42.842  28.739  27.262  1.00  0.00     0.049 A 
ATOM     60  H   UNL A   1      43.054  26.671  27.625  1.00  0.00     0.167 HD
ATOM     61  C   UNL A   1      43.871  28.927  29.515  1.00  0.00     0.074 A 
ATOM     62  C   UNL A   1      43.432  27.693  30.134  1.00  0.00     0.031 C 
ATOM     63  C   UNL A   1      43.689  29.383  28.242  1.00  0.00     0.034 A 
BRANCH  50  64
ATOM     64  C   UNL A   1      40.035  25.072  27.005  1.00  0.00     0.023 A 
ATOM     65  C   UNL A   1      38.702  24.777  26.658  1.00  0.00     0.012 A 
ATOM     66  C   UNL A   1      41.004  24.055  26.982  1.00  0.00     0.148 A 
ATOM     67  C   UNL A   1      38.327  23.479  26.324  1.00  0.00     0.002 A 
ATOM     68  C   UNL A   1      40.623  22.760  26.645  1.00  0.00     0.091 A 
ATOM     69  F   UNL A   1      42.263  24.361  27.329  1.00  0.00    -0.205 F 
ATOM     70  C   UNL A   1      39.284  22.469  26.325  1.00  0.00     0.022 A 
BRANCH  68  71
ATOM     71  S   UNL A   1      41.771  21.379  26.616  1.00  0.00     0.127 S 
ATOM     72  O   UNL A   1      42.613  21.708  25.469  1.00  0.00    -0.237 OA
ATOM     73  O   UNL A   1      42.432  21.507  27.916  1.00  0.00    -0.237 OA
ATOM     74  O   UNL A   1      40.951  20.182  26.475  1.00  0.00    -0.744 OA
ENDBRANCH  68  71
ENDBRANCH  50  64
BRANCH  51  75
ATOM     75  C   UNL A   1      43.855  29.139  34.317  1.00  0.00     0.023 A 
ATOM     76  C   UNL A   1      44.829  29.715  35.174  1.00  0.00     0.012 A 
ATOM     77  C   UNL A   1      43.146  28.028  34.806  1.00  0.00     0.148 A 
ATOM     78  C   UNL A   1      45.011  29.282  36.489  1.00  0.00     0.002 A 
ATOM     79  C   UNL A   1      43.290  27.630  36.136  1.00  0.00     0.091 A 
ATOM     80  F   UNL A   1      42.321  27.368  33.985  1.00  0.00    -0.205 F 
ATOM     81  C   UNL A   1      44.220  28.254  36.980  1.00  0.00     0.022 A 
BRANCH  79  82
ATOM     82  S   UNL A   1      42.255  26.357  36.875  1.00  0.00     0.127 S 
ATOM     83  O   UNL A   1      42.569  25.186  36.057  1.00  0.00    -0.237 OA
ATOM     84  O   UNL A   1      42.782  26.317  38.238  1.00  0.00    -0.237 OA
ATOM     85  O   UNL A   1      40.887  26.841  36.747  1.00  0.00    -0.744 OA
ENDBRANCH  79  82
ENDBRANCH  51  75
BRANCH  63  86
ATOM     86  C   UNL A   1      44.237  30.741  27.939  1.00  0.00     0.023 A 
ATOM     87  C   UNL A   1      45.387  30.826  27.135  1.00  0.00     0.012 A 
ATOM     88  C   UNL A   1      43.587  31.921  28.353  1.00  0.00     0.148 A 
ATOM     89  C   UNL A   1      45.875  32.065  26.726  1.00  0.00     0.002 A 
ATOM     90  C   UNL A   1      44.070  33.155  27.929  1.00  0.00     0.091 A 
ATOM     91  F   UNL A   1      42.483  31.825  29.109  1.00  0.00    -0.205 F 
ATOM     92  C   UNL A   1      45.214  33.228  27.114  1.00  0.00     0.022 A 
BRANCH  90  93
ATOM     93  S   UNL A   1      43.268  34.704  28.361  1.00  0.00     0.127 S 
ATOM     94  O   UNL A   1      44.266  35.349  29.216  1.00  0.00    -0.237 OA
ATOM     95  O   UNL A   1      43.095  35.331  27.051  1.00  0.00    -0.237 OA
ATOM     96  O   UNL A   1      42.035  34.346  29.054  1.00  0.00    -0.744 OA
ENDBRANCH  90  93
ENDBRANCH  63  86
ENDBRANCH  37  38
ENDBRANCH  29  32
ENDBRANCH  27  28
ENDBRANCH   1  27
TORSDOF 15
ENDMDL
MODEL 3
REMARK VINA RESULT:     -12.7      1.843      2.342
REMARK SMILES Cn1nnc2cc(C(=O)NC3(C(=O)NCCCNC(=O)c4ccc(-c5c6nc(c(-c7cccc(S(=O)(=O)[O-])c7F)c7ccc([nH]7)c(-c7cccc(S(=O)(=O)[O-])c7F)c7nc(c(-c8cccc(S(=O)(=O)[O-])c8F)c8ccc5[nH]8)C=C7)C=C6)cc4)CCCCC3)ccc21
REMARK SMILES IDX 16 1 15 2 14 3 12 4 13 5 11 7 84 8 88 9 85 10 87 11 86 12
REMARK SMILES IDX 10 13 8 14 9 15 7 17 1 18 2 19 3 20 91 21 4 22 5 23 90 24
REMARK SMILES IDX 6 25 89 26 17 27 18 28 19 29 20 31 21 32 22 33 83 34 23 35
REMARK SMILES IDX 82 36 24 37 25 38 26 39 76 40 27 41 81 42 75 43 77 44 28 45
REMARK SMILES IDX 80 46 74 47 73 48 29 50 61 51 41 52 60 53 42 54 45 55 59 56
REMARK SMILES IDX 78 57 43 58 44 59 58 61 79 62 46 63 30 64 31 65 39 66 32 67
REMARK SMILES IDX 34 68 40 69 33 70 35 71 36 72 37 73 38 74 62 75 63 76 71 77
REMARK SMILES IDX 64 78 66 79 72 80 65 81 67 82 68 83 69 84 70 85 47 86 48 87
REMARK SMILES IDX 56 88 49 89 51 90 57 91 50 92 52 93 53 94 54 95 55 96
REMARK H PARENT 14 6 10 16 18 30 77 49 45 60
REMARK Flexibility Score: inf
ROOT
ATOM      1  C   UNL A   1      36.569  22.894  24.030  1.00  0.00     0.042 C 
ENDROOT
BRANCH   1   2
ATOM      2  C   UNL A   1      35.200  22.230  23.984  1.00  0.00     0.117 C 
BRANCH   2   3
ATOM      3  N   UNL A   1      34.672  22.014  25.315  1.00  0.00    -0.354 N 
ATOM      4  C   UNL A   1      33.456  21.784  25.850  1.00  0.00     0.245 C 
ATOM      5  O   UNL A   1      33.522  21.624  27.084  1.00  0.00    -0.272 OA
ATOM      6  H   UNL A   1      35.377  22.042  26.001  1.00  0.00     0.163 HD
BRANCH   4   7
ATOM      7  C   UNL A   1      32.072  21.609  25.109  1.00  0.00     0.119 C 
ATOM      8  C   UNL A   1      31.881  20.090  24.863  1.00  0.00     0.038 C 
ATOM      9  C   UNL A   1      31.666  22.362  23.828  1.00  0.00     0.038 C 
ATOM     10  C   UNL A   1      32.578  19.569  23.612  1.00  0.00     0.003 C 
ATOM     11  C   UNL A   1      32.167  21.843  22.488  1.00  0.00     0.003 C 
ATOM     12  C   UNL A   1      32.181  20.327  22.351  1.00  0.00     0.000 C 
BRANCH   7  13
ATOM     13  N   UNL A   1      31.095  21.995  26.205  1.00  0.00    -0.338 N 
ATOM     14  C   UNL A   1      30.622  23.174  26.734  1.00  0.00     0.252 C 
ATOM     15  O   UNL A   1      29.863  23.102  27.704  1.00  0.00    -0.269 OA
ATOM     16  H   UNL A   1      30.703  21.207  26.647  1.00  0.00     0.164 HD
BRANCH  14  17
ATOM     17  C   UNL A   1      30.911  24.522  26.175  1.00  0.00     0.042 A 
ATOM     18  C   UNL A   1      31.393  29.588  24.872  1.00  0.00     0.176 C 
ATOM     19  N   UNL A   1      32.024  28.366  25.298  1.00  0.00    -0.248 N 
ATOM     20  N   UNL A   1      33.281  28.391  25.780  1.00  0.00    -0.066 NA
ATOM     21  C   UNL A   1      31.472  27.117  25.388  1.00  0.00     0.088 A 
ATOM     22  N   UNL A   1      33.539  27.188  26.281  1.00  0.00    -0.130 NA
ATOM     23  C   UNL A   1      32.434  26.402  26.089  1.00  0.00     0.113 A 
ATOM     24  C   UNL A   1      30.265  26.557  24.974  1.00  0.00     0.031 A 
ATOM     25  C   UNL A   1      32.160  25.089  26.497  1.00  0.00     0.046 A 
ATOM     26  C   UNL A   1      30.034  25.225  25.342  1.00  0.00     0.016 A 
ENDBRANCH  14  17
ENDBRANCH   7  13
ENDBRANCH   4   7
ENDBRANCH   2   3
ENDBRANCH   1   2
BRANCH   1  27
ATOM     27  C   UNL A   1      37.048  23.134  25.464  1.00  0.00     0.118 C 
BRANCH  27  28
ATOM     28  N   UNL A   1      38.134  22.263  25.892  1.00  0.00    -0.352 N 
ATOM     29  C   UNL A   1      39.332  22.581  26.503  1.00  0.00     0.251 C 
ATOM     30  H   UNL A   1      37.993  21.303  25.722  1.00  0.00     0.163 HD
ATOM     31  O   UNL A   1      40.132  21.708  26.781  1.00  0.00    -0.269 OA
BRANCH  29  32
ATOM     32  C   UNL A   1      39.634  24.004  26.769  1.00  0.00     0.039 A 
ATOM     33  C   UNL A   1      40.341  24.755  25.827  1.00  0.00     0.014 A 
ATOM     34  C   UNL A   1      39.287  24.549  28.008  1.00  0.00     0.014 A 
ATOM     35  C   UNL A   1      40.820  26.010  26.176  1.00  0.00     0.010 A 
ATOM     36  C   UNL A   1      39.736  25.826  28.343  1.00  0.00     0.010 A 
ATOM     37  C   UNL A   1      40.534  26.539  27.441  1.00  0.00    -0.014 A 
BRANCH  37  38
ATOM     38  C   UNL A   1      41.066  27.873  27.742  1.00  0.00     0.031 A 
ATOM     39  C   UNL A   1      40.048  28.865  28.177  1.00  0.00     0.074 A 
ATOM     40  C   UNL A   1      42.363  28.073  28.055  1.00  0.00     0.049 A 
ATOM     41  N   UNL A   1      39.675  28.964  29.417  1.00  0.00    -0.248 NA
ATOM     42  C   UNL A   1      39.212  29.614  27.242  1.00  0.00     0.031 C 
ATOM     43  C   UNL A   1      43.245  27.051  28.635  1.00  0.00     0.029 A 
ATOM     44  N   UNL A   1      43.091  29.236  28.135  1.00  0.00    -0.354 N 
ATOM     45  C   UNL A   1      38.506  29.697  29.431  1.00  0.00     0.074 A 
ATOM     46  C   UNL A   1      38.278  30.118  28.066  1.00  0.00     0.031 C 
ATOM     47  C   UNL A   1      44.312  27.667  29.184  1.00  0.00     0.029 A 
ATOM     48  C   UNL A   1      44.277  29.085  28.846  1.00  0.00     0.049 A 
ATOM     49  H   UNL A   1      42.803  30.087  27.732  1.00  0.00     0.167 HD
ATOM     50  C   UNL A   1      37.769  29.876  30.558  1.00  0.00     0.034 A 
ATOM     51  C   UNL A   1      44.902  30.064  29.556  1.00  0.00     0.034 A 
ATOM     52  C   UNL A   1      38.284  29.235  31.733  1.00  0.00     0.049 A 
ATOM     53  C   UNL A   1      43.888  30.351  30.634  1.00  0.00     0.074 A 
ATOM     54  C   UNL A   1      38.083  28.031  32.370  1.00  0.00     0.029 A 
ATOM     55  N   UNL A   1      39.351  29.812  32.379  1.00  0.00    -0.354 N 
ATOM     56  N   UNL A   1      43.682  29.608  31.691  1.00  0.00    -0.248 NA
ATOM     57  C   UNL A   1      42.810  31.297  30.341  1.00  0.00     0.031 C 
ATOM     58  C   UNL A   1      39.300  27.755  33.066  1.00  0.00     0.029 A 
ATOM     59  C   UNL A   1      40.183  28.797  32.786  1.00  0.00     0.049 A 
ATOM     60  H   UNL A   1      39.494  30.775  32.523  1.00  0.00     0.167 HD
ATOM     61  C   UNL A   1      42.329  29.766  31.995  1.00  0.00     0.074 A 
ATOM     62  C   UNL A   1      41.861  30.849  31.153  1.00  0.00     0.031 C 
ATOM     63  C   UNL A   1      41.625  28.895  32.776  1.00  0.00     0.034 A 
BRANCH  50  64
ATOM     64  C   UNL A   1      36.577  30.743  30.639  1.00  0.00     0.023 A 
ATOM     65  C   UNL A   1      35.884  30.992  29.439  1.00  0.00     0.012 A 
ATOM     66  C   UNL A   1      36.232  31.447  31.804  1.00  0.00     0.148 A 
ATOM     67  C   UNL A   1      34.880  31.956  29.387  1.00  0.00     0.002 A 
ATOM     68  C   UNL A   1      35.226  32.408  31.746  1.00  0.00     0.091 A 
ATOM     69  F   UNL A   1      36.916  31.199  32.931  1.00  0.00    -0.205 F 
ATOM     70  C   UNL A   1      34.557  32.669  30.537  1.00  0.00     0.022 A 
BRANCH  68  71
ATOM     71  S   UNL A   1      34.728  33.390  33.165  1.00  0.00     0.127 S 
ATOM     72  O   UNL A   1      33.296  33.113  33.239  1.00  0.00    -0.237 OA
ATOM     73  O   UNL A   1      35.522  32.794  34.241  1.00  0.00    -0.237 OA
ATOM     74  O   UNL A   1      35.089  34.765  32.844  1.00  0.00    -0.744 OA
ENDBRANCH  68  71
ENDBRANCH  50  64
BRANCH  51  75
ATOM     75  C   UNL A   1      45.560  31.111  28.701  1.00  0.00     0.023 A 
ATOM     76  C   UNL A   1      46.965  31.261  28.843  1.00  0.00     0.012 A 
ATOM     77  C   UNL A   1      44.914  31.954  27.781  1.00  0.00     0.148 A 
ATOM     78  C   UNL A   1      47.706  32.123  28.032  1.00  0.00     0.002 A 
ATOM     79  C   UNL A   1      45.660  32.777  26.936  1.00  0.00     0.091 A 
ATOM     80  F   UNL A   1      43.578  31.945  27.716  1.00  0.00    -0.205 F 
ATOM     81  C   UNL A   1      47.054  32.864  27.057  1.00  0.00     0.022 A 
BRANCH  79  82
ATOM     82  S   UNL A   1      44.906  33.713  25.597  1.00  0.00     0.127 S 
ATOM     83  O   UNL A   1      44.298  32.660  24.784  1.00  0.00    -0.237 OA
ATOM     84  O   UNL A   1      43.959  34.549  26.333  1.00  0.00    -0.237 OA
ATOM     85  O   UNL A   1      46.000  34.426  24.952  1.00  0.00    -0.744 OA
ENDBRANCH  79  82
ENDBRANCH  51  75
BRANCH  63  86
ATOM     86  C   UNL A   1      42.423  27.851  33.490  1.00  0.00     0.023 A 
ATOM     87  C   UNL A   1      43.276  27.033  32.728  1.00  0.00     0.012 A 
ATOM     88  C   UNL A   1      42.412  27.729  34.894  1.00  0.00     0.148 A 
ATOM     89  C   UNL A   1      44.126  26.122  33.351  1.00  0.00     0.002 A 
ATOM     90  C   UNL A   1      43.275  26.829  35.511  1.00  0.00     0.091 A 
ATOM     91  F   UNL A   1      41.602  28.525  35.609  1.00  0.00    -0.205 F 
ATOM     92  C   UNL A   1      44.133  26.026  34.740  1.00  0.00     0.022 A 
BRANCH  90  93
ATOM     93  S   UNL A   1      43.368  26.655  37.297  1.00  0.00     0.127 S 
ATOM     94  O   UNL A   1      43.789  27.991  37.724  1.00  0.00    -0.237 OA
ATOM     95  O   UNL A   1      41.988  26.315  37.641  1.00  0.00    -0.237 OA
ATOM     96  O   UNL A   1      44.356  25.613  37.555  1.00  0.00    -0.744 OA
ENDBRANCH  90  93
ENDBRANCH  63  86
ENDBRANCH  37  38
ENDBRANCH  29  32
ENDBRANCH  27  28
ENDBRANCH   1  27
TORSDOF 15
ENDMDL
