MODEL 1
REMARK VINA RESULT:     -11.0      0.000      0.000
REMARK SMILES CCCc1nnc(SCC(=O)NCCCNC(=O)c2ccc(-c3c4nc(c(-c5cccc(S(=O)(=O)[O-])c5F)c5ccc([nH]5)c(-c5cccc(S(=O)(=O)[O-])c5F)c5nc(c(-c6cccc(S(=O)(=O)[O-])c6F)c6ccc3[nH]6)C=C5)C=C4)cc2)n1C[C@H]1CCCO1
REMARK SMILES IDX 13 1 12 2 10 3 11 4 9 6 8 7 7 8 4 9 5 10 82 11 6 12 3 13
REMARK SMILES IDX 2 14 1 15 83 16 84 17 85 18 88 19 86 20 87 21 14 22 15 23
REMARK SMILES IDX 16 24 17 25 18 27 19 28 20 29 81 30 21 31 80 32 22 33 23 34
REMARK SMILES IDX 24 35 74 36 25 37 79 38 73 39 75 40 26 41 78 42 72 43 71 44
REMARK SMILES IDX 27 46 59 47 39 48 58 49 40 50 43 51 57 52 76 53 41 54 42 55
REMARK SMILES IDX 56 57 77 58 44 59 28 60 29 61 37 62 30 63 32 64 38 65 31 66
REMARK SMILES IDX 33 67 34 68 35 69 36 70 60 71 61 72 69 73 62 74 64 75 70 76
REMARK SMILES IDX 63 77 65 78 66 79 67 80 68 81 45 82 46 83 54 84 47 85 49 86
REMARK SMILES IDX 55 87 48 88 50 89 51 90 52 91 53 92
REMARK H PARENT 12 5 16 26 75 45 43 56
REMARK Flexibility Score: inf
ROOT
ATOM      1  C   UNL A   1      32.700  29.739  25.863  1.00  0.00     0.117 C 
ENDROOT
BRANCH   1   2
ATOM      2  N   UNL A   1      33.566  29.420  24.746  1.00  0.00    -0.355 N 
ATOM      3  C   UNL A   1      33.224  29.005  23.500  1.00  0.00     0.230 C 
ATOM      4  O   UNL A   1      34.101  29.011  22.634  1.00  0.00    -0.274 OA
ATOM      5  H   UNL A   1      34.530  29.519  24.913  1.00  0.00     0.163 HD
BRANCH   3   6
ATOM      6  C   UNL A   1      31.790  28.688  23.159  1.00  0.00     0.178 C 
BRANCH   6   7
ATOM      7  S   UNL A   1      31.469  27.038  22.584  1.00  0.00    -0.076 SA
BRANCH   7   8
ATOM      8  C   UNL A   1      32.737  25.931  22.970  1.00  0.00     0.191 A 
ATOM      9  C   UNL A   1      34.117  24.425  23.775  1.00  0.00     0.133 A 
ATOM     10  N   UNL A   1      34.390  24.601  22.499  1.00  0.00    -0.134 NA
ATOM     11  N   UNL A   1      33.159  25.361  24.151  1.00  0.00    -0.303 N 
ATOM     12  N   UNL A   1      33.523  25.521  21.997  1.00  0.00    -0.123 NA
BRANCH   9  13
ATOM     13  C   UNL A   1      34.778  23.401  24.647  1.00  0.00     0.077 C 
BRANCH  13  14
ATOM     14  C   UNL A   1      34.363  21.961  24.319  1.00  0.00     0.005 C 
ATOM     15  C   UNL A   1      34.654  20.961  25.433  1.00  0.00     0.004 C 
ENDBRANCH  13  14
ENDBRANCH   9  13
BRANCH  11  16
ATOM     16  C   UNL A   1      32.712  25.599  25.501  1.00  0.00     0.158 C 
BRANCH  16  17
ATOM     17  C   UNL A   1      31.410  24.892  25.949  1.00  0.00     0.138 C 
ATOM     18  C   UNL A   1      30.818  23.780  25.087  1.00  0.00     0.036 C 
ATOM     19  O   UNL A   1      31.620  24.302  27.247  1.00  0.00    -0.376 OA
ATOM     20  C   UNL A   1      31.083  22.477  25.814  1.00  0.00     0.031 C 
ATOM     21  C   UNL A   1      31.669  22.879  27.147  1.00  0.00     0.160 C 
ENDBRANCH  16  17
ENDBRANCH  11  16
ENDBRANCH   7   8
ENDBRANCH   6   7
ENDBRANCH   3   6
ENDBRANCH   1   2
BRANCH   1  22
ATOM     22  C   UNL A   1      33.389  29.638  27.222  1.00  0.00     0.042 C 
BRANCH  22  23
ATOM     23  C   UNL A   1      34.582  30.564  27.341  1.00  0.00     0.118 C 
BRANCH  23  24
ATOM     24  N   UNL A   1      34.355  31.656  28.291  1.00  0.00    -0.352 N 
ATOM     25  C   UNL A   1      34.997  31.880  29.486  1.00  0.00     0.251 C 
ATOM     26  H   UNL A   1      33.658  32.307  28.044  1.00  0.00     0.163 HD
ATOM     27  O   UNL A   1      34.515  32.650  30.322  1.00  0.00    -0.269 OA
BRANCH  25  28
ATOM     28  C   UNL A   1      36.266  31.189  29.745  1.00  0.00     0.039 A 
ATOM     29  C   UNL A   1      36.306  29.824  30.039  1.00  0.00     0.014 A 
ATOM     30  C   UNL A   1      37.437  31.935  29.633  1.00  0.00     0.014 A 
ATOM     31  C   UNL A   1      37.547  29.208  30.154  1.00  0.00     0.010 A 
ATOM     32  C   UNL A   1      38.641  31.295  29.554  1.00  0.00     0.010 A 
ATOM     33  C   UNL A   1      38.708  29.952  29.895  1.00  0.00    -0.014 A 
BRANCH  33  34
ATOM     34  C   UNL A   1      40.018  29.319  29.853  1.00  0.00     0.031 A 
ATOM     35  C   UNL A   1      40.610  29.104  31.196  1.00  0.00     0.074 A 
ATOM     36  C   UNL A   1      40.524  28.783  28.722  1.00  0.00     0.049 A 
ATOM     37  N   UNL A   1      41.574  29.774  31.737  1.00  0.00    -0.248 NA
ATOM     38  C   UNL A   1      39.929  28.189  32.125  1.00  0.00     0.031 C 
ATOM     39  C   UNL A   1      39.868  28.651  27.411  1.00  0.00     0.029 A 
ATOM     40  N   UNL A   1      41.684  28.098  28.540  1.00  0.00    -0.354 N 
ATOM     41  C   UNL A   1      41.807  29.151  32.962  1.00  0.00     0.074 A 
ATOM     42  C   UNL A   1      40.616  28.401  33.250  1.00  0.00     0.031 C 
ATOM     43  C   UNL A   1      40.512  27.717  26.677  1.00  0.00     0.029 A 
ATOM     44  C   UNL A   1      41.715  27.326  27.382  1.00  0.00     0.049 A 
ATOM     45  H   UNL A   1      42.437  28.146  29.172  1.00  0.00     0.167 HD
ATOM     46  C   UNL A   1      43.075  29.044  33.450  1.00  0.00     0.034 A 
ATOM     47  C   UNL A   1      42.646  26.396  27.055  1.00  0.00     0.034 A 
ATOM     48  C   UNL A   1      43.975  29.911  32.719  1.00  0.00     0.049 A 
ATOM     49  C   UNL A   1      43.851  26.698  27.859  1.00  0.00     0.074 A 
ATOM     50  C   UNL A   1      44.042  31.263  32.447  1.00  0.00     0.029 A 
ATOM     51  N   UNL A   1      44.781  29.295  31.793  1.00  0.00    -0.354 N 
ATOM     52  N   UNL A   1      44.559  27.784  27.709  1.00  0.00    -0.248 NA
ATOM     53  C   UNL A   1      44.012  26.014  29.130  1.00  0.00     0.031 C 
ATOM     54  C   UNL A   1      44.520  31.345  31.105  1.00  0.00     0.029 A 
ATOM     55  C   UNL A   1      44.793  30.051  30.655  1.00  0.00     0.049 A 
ATOM     56  H   UNL A   1      45.268  28.450  31.925  1.00  0.00     0.167 HD
ATOM     57  C   UNL A   1      44.856  28.174  29.008  1.00  0.00     0.074 A 
ATOM     58  C   UNL A   1      44.611  26.985  29.824  1.00  0.00     0.031 C 
ATOM     59  C   UNL A   1      44.974  29.497  29.330  1.00  0.00     0.034 A 
BRANCH  46  60
ATOM     60  C   UNL A   1      43.623  27.863  34.237  1.00  0.00     0.023 A 
ATOM     61  C   UNL A   1      44.319  28.174  35.431  1.00  0.00     0.012 A 
ATOM     62  C   UNL A   1      43.774  26.545  33.746  1.00  0.00     0.148 A 
ATOM     63  C   UNL A   1      45.204  27.271  36.029  1.00  0.00     0.002 A 
ATOM     64  C   UNL A   1      44.605  25.628  34.382  1.00  0.00     0.091 A 
ATOM     65  F   UNL A   1      43.210  26.180  32.596  1.00  0.00    -0.205 F 
ATOM     66  C   UNL A   1      45.353  25.998  35.500  1.00  0.00     0.022 A 
BRANCH  64  67
ATOM     67  S   UNL A   1      44.816  23.953  33.760  1.00  0.00     0.127 S 
ATOM     68  O   UNL A   1      43.556  23.335  34.162  1.00  0.00    -0.237 OA
ATOM     69  O   UNL A   1      44.962  24.189  32.324  1.00  0.00    -0.237 OA
ATOM     70  O   UNL A   1      46.015  23.438  34.407  1.00  0.00    -0.744 OA
ENDBRANCH  64  67
ENDBRANCH  46  60
BRANCH  47  71
ATOM     71  C   UNL A   1      42.512  25.131  26.296  1.00  0.00     0.023 A 
ATOM     72  C   UNL A   1      43.499  24.778  25.354  1.00  0.00     0.012 A 
ATOM     73  C   UNL A   1      41.593  24.137  26.702  1.00  0.00     0.148 A 
ATOM     74  C   UNL A   1      43.600  23.469  24.869  1.00  0.00     0.002 A 
ATOM     75  C   UNL A   1      41.696  22.835  26.217  1.00  0.00     0.091 A 
ATOM     76  F   UNL A   1      40.678  24.445  27.631  1.00  0.00    -0.205 F 
ATOM     77  C   UNL A   1      42.708  22.495  25.310  1.00  0.00     0.022 A 
BRANCH  75  78
ATOM     78  S   UNL A   1      40.606  21.512  26.765  1.00  0.00     0.127 S 
ATOM     79  O   UNL A   1      40.813  21.531  28.214  1.00  0.00    -0.237 OA
ATOM     80  O   UNL A   1      39.299  21.992  26.329  1.00  0.00    -0.237 OA
ATOM     81  O   UNL A   1      41.078  20.298  26.109  1.00  0.00    -0.744 OA
ENDBRANCH  75  78
ENDBRANCH  47  71
BRANCH  59  82
ATOM     82  C   UNL A   1      45.080  30.492  28.204  1.00  0.00     0.023 A 
ATOM     83  C   UNL A   1      43.958  30.996  27.514  1.00  0.00     0.012 A 
ATOM     84  C   UNL A   1      46.341  31.056  27.949  1.00  0.00     0.148 A 
ATOM     85  C   UNL A   1      44.096  32.025  26.578  1.00  0.00     0.002 A 
ATOM     86  C   UNL A   1      46.468  32.110  27.054  1.00  0.00     0.091 A 
ATOM     87  F   UNL A   1      47.398  30.566  28.615  1.00  0.00    -0.205 F 
ATOM     88  C   UNL A   1      45.348  32.592  26.358  1.00  0.00     0.022 A 
BRANCH  86  89
ATOM     89  S   UNL A   1      48.032  32.956  26.826  1.00  0.00     0.127 S 
ATOM     90  O   UNL A   1      48.273  33.514  28.155  1.00  0.00    -0.237 OA
ATOM     91  O   UNL A   1      48.929  31.864  26.448  1.00  0.00    -0.237 OA
ATOM     92  O   UNL A   1      47.809  33.935  25.768  1.00  0.00    -0.744 OA
ENDBRANCH  86  89
ENDBRANCH  59  82
ENDBRANCH  33  34
ENDBRANCH  25  28
ENDBRANCH  23  24
ENDBRANCH  22  23
ENDBRANCH   1  22
TORSDOF 19
ENDMDL
MODEL 2
REMARK VINA RESULT:     -11.0      2.824      7.688
REMARK SMILES CCCc1nnc(SCC(=O)NCCCNC(=O)c2ccc(-c3c4nc(c(-c5cccc(S(=O)(=O)[O-])c5F)c5ccc([nH]5)c(-c5cccc(S(=O)(=O)[O-])c5F)c5nc(c(-c6cccc(S(=O)(=O)[O-])c6F)c6ccc3[nH]6)C=C5)C=C4)cc2)n1C[C@H]1CCCO1
REMARK SMILES IDX 13 1 12 2 10 3 11 4 9 6 8 7 7 8 4 9 5 10 82 11 6 12 3 13
REMARK SMILES IDX 2 14 1 15 83 16 84 17 85 18 88 19 86 20 87 21 14 22 15 23
REMARK SMILES IDX 16 24 17 25 18 27 19 28 20 29 81 30 21 31 80 32 22 33 23 34
REMARK SMILES IDX 24 35 74 36 25 37 79 38 73 39 75 40 26 41 78 42 72 43 71 44
REMARK SMILES IDX 27 46 59 47 39 48 58 49 40 50 43 51 57 52 76 53 41 54 42 55
REMARK SMILES IDX 56 57 77 58 44 59 28 60 29 61 37 62 30 63 32 64 38 65 31 66
REMARK SMILES IDX 33 67 34 68 35 69 36 70 60 71 61 72 69 73 62 74 64 75 70 76
REMARK SMILES IDX 63 77 65 78 66 79 67 80 68 81 45 82 46 83 54 84 47 85 49 86
REMARK SMILES IDX 55 87 48 88 50 89 51 90 52 91 53 92
REMARK H PARENT 12 5 16 26 75 45 43 56
REMARK Flexibility Score: inf
ROOT
ATOM      1  C   UNL A   1      36.785  20.855  24.866  1.00  0.00     0.117 C 
ENDROOT
BRANCH   1   2
ATOM      2  N   UNL A   1      35.452  20.321  25.052  1.00  0.00    -0.355 N 
ATOM      3  C   UNL A   1      34.262  20.969  24.981  1.00  0.00     0.230 C 
ATOM      4  O   UNL A   1      33.237  20.284  24.944  1.00  0.00    -0.274 OA
ATOM      5  H   UNL A   1      35.402  19.360  25.256  1.00  0.00     0.163 HD
BRANCH   3   6
ATOM      6  C   UNL A   1      34.207  22.466  24.807  1.00  0.00     0.178 C 
BRANCH   6   7
ATOM      7  S   UNL A   1      33.498  23.051  23.286  1.00  0.00    -0.076 SA
BRANCH   7   8
ATOM      8  C   UNL A   1      32.308  24.280  23.526  1.00  0.00     0.191 A 
ATOM      9  C   UNL A   1      31.086  26.093  23.715  1.00  0.00     0.133 A 
ATOM     10  N   UNL A   1      30.280  25.059  23.591  1.00  0.00    -0.134 NA
ATOM     11  N   UNL A   1      32.391  25.622  23.821  1.00  0.00    -0.303 N 
ATOM     12  N   UNL A   1      31.039  23.938  23.457  1.00  0.00    -0.123 NA
BRANCH   9  13
ATOM     13  C   UNL A   1      30.628  27.519  23.765  1.00  0.00     0.077 C 
BRANCH  13  14
ATOM     14  C   UNL A   1      29.213  27.725  23.211  1.00  0.00     0.005 C 
ATOM     15  C   UNL A   1      29.006  29.067  22.517  1.00  0.00     0.004 C 
ENDBRANCH  13  14
ENDBRANCH   9  13
BRANCH  11  16
ATOM     16  C   UNL A   1      33.545  26.430  24.127  1.00  0.00     0.158 C 
BRANCH  16  17
ATOM     17  C   UNL A   1      33.855  26.681  25.622  1.00  0.00     0.138 C 
ATOM     18  C   UNL A   1      33.990  28.111  26.138  1.00  0.00     0.036 C 
ATOM     19  O   UNL A   1      32.818  26.080  26.423  1.00  0.00    -0.376 OA
ATOM     20  C   UNL A   1      32.745  28.402  26.949  1.00  0.00     0.031 C 
ATOM     21  C   UNL A   1      32.004  27.088  27.022  1.00  0.00     0.160 C 
ENDBRANCH  16  17
ENDBRANCH  11  16
ENDBRANCH   7   8
ENDBRANCH   6   7
ENDBRANCH   3   6
ENDBRANCH   1   2
BRANCH   1  22
ATOM     22  C   UNL A   1      37.883  19.795  24.920  1.00  0.00     0.042 C 
BRANCH  22  23
ATOM     23  C   UNL A   1      39.027  20.187  25.833  1.00  0.00     0.118 C 
BRANCH  23  24
ATOM     24  N   UNL A   1      40.162  19.265  25.743  1.00  0.00    -0.352 N 
ATOM     25  C   UNL A   1      41.497  19.557  25.889  1.00  0.00     0.251 C 
ATOM     26  H   UNL A   1      39.941  18.324  25.555  1.00  0.00     0.163 HD
ATOM     27  O   UNL A   1      42.359  18.763  25.498  1.00  0.00    -0.269 OA
BRANCH  25  28
ATOM     28  C   UNL A   1      41.878  20.827  26.519  1.00  0.00     0.039 A 
ATOM     29  C   UNL A   1      42.340  21.906  25.763  1.00  0.00     0.014 A 
ATOM     30  C   UNL A   1      41.708  20.936  27.897  1.00  0.00     0.014 A 
ATOM     31  C   UNL A   1      42.568  23.117  26.407  1.00  0.00     0.010 A 
ATOM     32  C   UNL A   1      41.744  22.166  28.488  1.00  0.00     0.010 A 
ATOM     33  C   UNL A   1      42.252  23.238  27.769  1.00  0.00    -0.014 A 
BRANCH  33  34
ATOM     34  C   UNL A   1      42.328  24.521  28.451  1.00  0.00     0.031 A 
ATOM     35  C   UNL A   1      41.135  25.376  28.232  1.00  0.00     0.074 A 
ATOM     36  C   UNL A   1      43.281  24.795  29.368  1.00  0.00     0.049 A 
ATOM     37  N   UNL A   1      41.055  26.420  27.474  1.00  0.00    -0.248 NA
ATOM     38  C   UNL A   1      39.835  24.909  28.737  1.00  0.00     0.031 C 
ATOM     39  C   UNL A   1      44.312  23.890  29.898  1.00  0.00     0.029 A 
ATOM     40  N   UNL A   1      43.439  25.903  30.138  1.00  0.00    -0.354 N 
ATOM     41  C   UNL A   1      39.762  26.904  27.657  1.00  0.00     0.074 A 
ATOM     42  C   UNL A   1      39.008  25.806  28.197  1.00  0.00     0.031 C 
ATOM     43  C   UNL A   1      44.792  24.384  31.061  1.00  0.00     0.029 A 
ATOM     44  C   UNL A   1      44.244  25.711  31.258  1.00  0.00     0.049 A 
ATOM     45  H   UNL A   1      43.021  26.768  29.922  1.00  0.00     0.167 HD
ATOM     46  C   UNL A   1      39.523  28.246  27.664  1.00  0.00     0.034 A 
ATOM     47  C   UNL A   1      44.406  26.569  32.295  1.00  0.00     0.034 A 
ATOM     48  C   UNL A   1      40.667  28.967  27.149  1.00  0.00     0.049 A 
ATOM     49  C   UNL A   1      44.006  27.907  31.807  1.00  0.00     0.074 A 
ATOM     50  C   UNL A   1      41.395  28.960  25.976  1.00  0.00     0.029 A 
ATOM     51  N   UNL A   1      41.464  29.578  28.088  1.00  0.00    -0.354 N 
ATOM     52  N   UNL A   1      44.653  28.556  30.879  1.00  0.00    -0.248 NA
ATOM     53  C   UNL A   1      42.634  28.332  32.028  1.00  0.00     0.031 C 
ATOM     54  C   UNL A   1      42.750  29.155  26.381  1.00  0.00     0.029 A 
ATOM     55  C   UNL A   1      42.772  29.350  27.764  1.00  0.00     0.049 A 
ATOM     56  H   UNL A   1      41.146  30.093  28.864  1.00  0.00     0.167 HD
ATOM     57  C   UNL A   1      43.652  29.104  30.088  1.00  0.00     0.074 A 
ATOM     58  C   UNL A   1      42.446  29.045  30.915  1.00  0.00     0.031 C 
ATOM     59  C   UNL A   1      43.833  29.266  28.744  1.00  0.00     0.034 A 
BRANCH  46  60
ATOM     60  C   UNL A   1      38.501  28.958  28.538  1.00  0.00     0.023 A 
ATOM     61  C   UNL A   1      37.767  30.000  27.921  1.00  0.00     0.012 A 
ATOM     62  C   UNL A   1      38.435  28.893  29.949  1.00  0.00     0.148 A 
ATOM     63  C   UNL A   1      37.112  30.987  28.666  1.00  0.00     0.002 A 
ATOM     64  C   UNL A   1      37.728  29.839  30.684  1.00  0.00     0.091 A 
ATOM     65  F   UNL A   1      39.145  27.987  30.621  1.00  0.00    -0.205 F 
ATOM     66  C   UNL A   1      37.099  30.910  30.050  1.00  0.00     0.022 A 
BRANCH  64  67
ATOM     67  S   UNL A   1      37.649  29.775  32.481  1.00  0.00     0.127 S 
ATOM     68  O   UNL A   1      38.996  30.204  32.843  1.00  0.00    -0.237 OA
ATOM     69  O   UNL A   1      36.591  30.746  32.762  1.00  0.00    -0.237 OA
ATOM     70  O   UNL A   1      37.304  28.400  32.814  1.00  0.00    -0.744 OA
ENDBRANCH  64  67
ENDBRANCH  46  60
BRANCH  47  71
ATOM     71  C   UNL A   1      44.642  26.301  33.732  1.00  0.00     0.023 A 
ATOM     72  C   UNL A   1      45.935  26.477  34.268  1.00  0.00     0.012 A 
ATOM     73  C   UNL A   1      43.560  26.169  34.632  1.00  0.00     0.148 A 
ATOM     74  C   UNL A   1      46.137  26.567  35.650  1.00  0.00     0.002 A 
ATOM     75  C   UNL A   1      43.766  26.259  36.007  1.00  0.00     0.091 A 
ATOM     76  F   UNL A   1      42.321  26.048  34.137  1.00  0.00    -0.205 F 
ATOM     77  C   UNL A   1      45.053  26.471  36.518  1.00  0.00     0.022 A 
BRANCH  75  78
ATOM     78  S   UNL A   1      42.413  26.182  37.191  1.00  0.00     0.127 S 
ATOM     79  O   UNL A   1      43.124  26.282  38.467  1.00  0.00    -0.237 OA
ATOM     80  O   UNL A   1      41.628  27.360  36.837  1.00  0.00    -0.237 OA
ATOM     81  O   UNL A   1      41.753  24.901  36.973  1.00  0.00    -0.744 OA
ENDBRANCH  75  78
ENDBRANCH  47  71
BRANCH  59  82
ATOM     82  C   UNL A   1      45.231  29.129  28.197  1.00  0.00     0.023 A 
ATOM     83  C   UNL A   1      45.731  27.925  27.659  1.00  0.00     0.012 A 
ATOM     84  C   UNL A   1      46.000  30.298  28.074  1.00  0.00     0.148 A 
ATOM     85  C   UNL A   1      46.980  27.886  27.032  1.00  0.00     0.002 A 
ATOM     86  C   UNL A   1      47.219  30.266  27.409  1.00  0.00     0.091 A 
ATOM     87  F   UNL A   1      45.508  31.435  28.590  1.00  0.00    -0.205 F 
ATOM     88  C   UNL A   1      47.718  29.059  26.894  1.00  0.00     0.022 A 
BRANCH  86  89
ATOM     89  S   UNL A   1      48.148  31.766  27.095  1.00  0.00     0.127 S 
ATOM     90  O   UNL A   1      49.368  31.246  26.481  1.00  0.00    -0.237 OA
ATOM     91  O   UNL A   1      47.267  32.497  26.183  1.00  0.00    -0.237 OA
ATOM     92  O   UNL A   1      48.325  32.409  28.392  1.00  0.00    -0.744 OA
ENDBRANCH  86  89
ENDBRANCH  59  82
ENDBRANCH  33  34
ENDBRANCH  25  28
ENDBRANCH  23  24
ENDBRANCH  22  23
ENDBRANCH   1  22
TORSDOF 19
ENDMDL
MODEL 3
REMARK VINA RESULT:     -10.8      1.226      2.080
REMARK SMILES CCCc1nnc(SCC(=O)NCCCNC(=O)c2ccc(-c3c4nc(c(-c5cccc(S(=O)(=O)[O-])c5F)c5ccc([nH]5)c(-c5cccc(S(=O)(=O)[O-])c5F)c5nc(c(-c6cccc(S(=O)(=O)[O-])c6F)c6ccc3[nH]6)C=C5)C=C4)cc2)n1C[C@H]1CCCO1
REMARK SMILES IDX 13 1 12 2 10 3 11 4 9 6 8 7 7 8 4 9 5 10 82 11 6 12 3 13
REMARK SMILES IDX 2 14 1 15 83 16 84 17 85 18 88 19 86 20 87 21 14 22 15 23
REMARK SMILES IDX 16 24 17 25 18 27 19 28 20 29 81 30 21 31 80 32 22 33 23 34
REMARK SMILES IDX 24 35 74 36 25 37 79 38 73 39 75 40 26 41 78 42 72 43 71 44
REMARK SMILES IDX 27 46 59 47 39 48 58 49 40 50 43 51 57 52 76 53 41 54 42 55
REMARK SMILES IDX 56 57 77 58 44 59 28 60 29 61 37 62 30 63 32 64 38 65 31 66
REMARK SMILES IDX 33 67 34 68 35 69 36 70 60 71 61 72 69 73 62 74 64 75 70 76
REMARK SMILES IDX 63 77 65 78 66 79 67 80 68 81 45 82 46 83 54 84 47 85 49 86
REMARK SMILES IDX 55 87 48 88 50 89 51 90 52 91 53 92
REMARK H PARENT 12 5 16 26 75 45 43 56
REMARK Flexibility Score: inf
ROOT
ATOM      1  C   UNL A   1      33.833  30.080  27.234  1.00  0.00     0.117 C 
ENDROOT
BRANCH   1   2
ATOM      2  N   UNL A   1      33.846  29.700  25.837  1.00  0.00    -0.355 N 
ATOM      3  C   UNL A   1      33.568  28.492  25.285  1.00  0.00     0.230 C 
ATOM      4  O   UNL A   1      33.415  28.442  24.062  1.00  0.00    -0.274 OA
ATOM      5  H   UNL A   1      34.089  30.413  25.203  1.00  0.00     0.163 HD
BRANCH   3   6
ATOM      6  C   UNL A   1      33.314  27.286  26.154  1.00  0.00     0.178 C 
BRANCH   6   7
ATOM      7  S   UNL A   1      31.782  26.430  25.875  1.00  0.00    -0.076 SA
BRANCH   7   8
ATOM      8  C   UNL A   1      31.917  24.721  26.083  1.00  0.00     0.191 A 
ATOM      9  C   UNL A   1      32.396  22.579  26.090  1.00  0.00     0.133 A 
ATOM     10  N   UNL A   1      31.727  22.859  27.189  1.00  0.00    -0.134 NA
ATOM     11  N   UNL A   1      32.417  23.715  25.286  1.00  0.00    -0.303 N 
ATOM     12  N   UNL A   1      31.446  24.191  27.192  1.00  0.00    -0.123 NA
BRANCH   9  13
ATOM     13  C   UNL A   1      32.988  21.237  25.781  1.00  0.00     0.077 C 
BRANCH  13  14
ATOM     14  C   UNL A   1      32.233  20.475  24.685  1.00  0.00     0.005 C 
ATOM     15  C   UNL A   1      32.957  19.229  24.183  1.00  0.00     0.004 C 
ENDBRANCH  13  14
ENDBRANCH   9  13
BRANCH  11  16
ATOM     16  C   UNL A   1      32.914  23.769  23.934  1.00  0.00     0.158 C 
BRANCH  16  17
ATOM     17  C   UNL A   1      34.390  24.192  23.742  1.00  0.00     0.138 C 
ATOM     18  C   UNL A   1      35.279  24.418  24.962  1.00  0.00     0.036 C 
ATOM     19  O   UNL A   1      35.065  23.191  22.954  1.00  0.00    -0.376 OA
ATOM     20  C   UNL A   1      36.234  23.244  25.028  1.00  0.00     0.031 C 
ATOM     21  C   UNL A   1      35.988  22.460  23.761  1.00  0.00     0.160 C 
ENDBRANCH  16  17
ENDBRANCH  11  16
ENDBRANCH   7   8
ENDBRANCH   6   7
ENDBRANCH   3   6
ENDBRANCH   1   2
BRANCH   1  22
ATOM     22  C   UNL A   1      33.422  31.531  27.471  1.00  0.00     0.042 C 
BRANCH  22  23
ATOM     23  C   UNL A   1      34.551  32.374  28.027  1.00  0.00     0.118 C 
BRANCH  23  24
ATOM     24  N   UNL A   1      34.409  32.632  29.462  1.00  0.00    -0.352 N 
ATOM     25  C   UNL A   1      35.170  32.126  30.489  1.00  0.00     0.251 C 
ATOM     26  H   UNL A   1      33.680  33.241  29.722  1.00  0.00     0.163 HD
ATOM     27  O   UNL A   1      34.767  32.181  31.655  1.00  0.00    -0.269 OA
BRANCH  25  28
ATOM     28  C   UNL A   1      36.470  31.523  30.173  1.00  0.00     0.039 A 
ATOM     29  C   UNL A   1      37.608  32.308  29.970  1.00  0.00     0.014 A 
ATOM     30  C   UNL A   1      36.542  30.132  30.137  1.00  0.00     0.014 A 
ATOM     31  C   UNL A   1      38.830  31.670  29.794  1.00  0.00     0.010 A 
ATOM     32  C   UNL A   1      37.760  29.517  30.160  1.00  0.00     0.010 A 
ATOM     33  C   UNL A   1      38.896  30.273  29.906  1.00  0.00    -0.014 A 
BRANCH  33  34
ATOM     34  C   UNL A   1      40.170  29.571  29.882  1.00  0.00     0.031 A 
ATOM     35  C   UNL A   1      40.732  29.324  31.233  1.00  0.00     0.074 A 
ATOM     36  C   UNL A   1      40.663  29.008  28.757  1.00  0.00     0.049 A 
ATOM     37  N   UNL A   1      41.722  29.941  31.788  1.00  0.00    -0.248 NA
ATOM     38  C   UNL A   1      39.989  28.447  32.151  1.00  0.00     0.031 C 
ATOM     39  C   UNL A   1      40.019  28.912  27.437  1.00  0.00     0.029 A 
ATOM     40  N   UNL A   1      41.787  28.263  28.590  1.00  0.00    -0.354 N 
ATOM     41  C   UNL A   1      41.904  29.306  33.015  1.00  0.00     0.074 A 
ATOM     42  C   UNL A   1      40.671  28.621  33.285  1.00  0.00     0.031 C 
ATOM     43  C   UNL A   1      40.622  27.946  26.711  1.00  0.00     0.029 A 
ATOM     44  C   UNL A   1      41.793  27.490  27.432  1.00  0.00     0.049 A 
ATOM     45  H   UNL A   1      42.533  28.270  29.233  1.00  0.00     0.167 HD
ATOM     46  C   UNL A   1      43.158  29.132  33.521  1.00  0.00     0.034 A 
ATOM     47  C   UNL A   1      42.677  26.512  27.117  1.00  0.00     0.034 A 
ATOM     48  C   UNL A   1      44.113  29.950  32.803  1.00  0.00     0.049 A 
ATOM     49  C   UNL A   1      43.885  26.750  27.938  1.00  0.00     0.074 A 
ATOM     50  C   UNL A   1      44.257  31.296  32.533  1.00  0.00     0.029 A 
ATOM     51  N   UNL A   1      44.898  29.291  31.887  1.00  0.00    -0.354 N 
ATOM     52  N   UNL A   1      44.652  27.795  27.799  1.00  0.00    -0.248 NA
ATOM     53  C   UNL A   1      43.992  26.057  29.210  1.00  0.00     0.031 C 
ATOM     54  C   UNL A   1      44.757  31.353  31.198  1.00  0.00     0.029 A 
ATOM     55  C   UNL A   1      44.967  30.046  30.750  1.00  0.00     0.049 A 
ATOM     56  H   UNL A   1      45.337  28.421  32.025  1.00  0.00     0.167 HD
ATOM     57  C   UNL A   1      44.952  28.169  29.103  1.00  0.00     0.074 A 
ATOM     58  C   UNL A   1      44.632  26.994  29.914  1.00  0.00     0.031 C 
ATOM     59  C   UNL A   1      45.136  29.483  29.428  1.00  0.00     0.034 A 
BRANCH  46  60
ATOM     60  C   UNL A   1      43.631  27.922  34.314  1.00  0.00     0.023 A 
ATOM     61  C   UNL A   1      44.327  28.196  35.517  1.00  0.00     0.012 A 
ATOM     62  C   UNL A   1      43.717  26.598  33.824  1.00  0.00     0.148 A 
ATOM     63  C   UNL A   1      45.154  27.247  36.126  1.00  0.00     0.002 A 
ATOM     64  C   UNL A   1      44.489  25.638  34.470  1.00  0.00     0.091 A 
ATOM     65  F   UNL A   1      43.150  26.265  32.666  1.00  0.00    -0.205 F 
ATOM     66  C   UNL A   1      45.241  25.967  35.598  1.00  0.00     0.022 A 
BRANCH  64  67
ATOM     67  S   UNL A   1      44.617  23.954  33.850  1.00  0.00     0.127 S 
ATOM     68  O   UNL A   1      45.100  24.183  32.492  1.00  0.00    -0.237 OA
ATOM     69  O   UNL A   1      45.598  23.377  34.769  1.00  0.00    -0.237 OA
ATOM     70  O   UNL A   1      43.281  23.385  33.966  1.00  0.00    -0.744 OA
ENDBRANCH  64  67
ENDBRANCH  46  60
BRANCH  47  71
ATOM     71  C   UNL A   1      42.486  25.256  26.355  1.00  0.00     0.023 A 
ATOM     72  C   UNL A   1      43.401  24.915  25.338  1.00  0.00     0.012 A 
ATOM     73  C   UNL A   1      41.598  24.257  26.816  1.00  0.00     0.148 A 
ATOM     74  C   UNL A   1      43.464  23.611  24.832  1.00  0.00     0.002 A 
ATOM     75  C   UNL A   1      41.665  22.962  26.309  1.00  0.00     0.091 A 
ATOM     76  F   UNL A   1      40.755  24.555  27.814  1.00  0.00    -0.205 F 
ATOM     77  C   UNL A   1      42.606  22.633  25.326  1.00  0.00     0.022 A 
BRANCH  75  78
ATOM     78  S   UNL A   1      40.617  21.632  26.920  1.00  0.00     0.127 S 
ATOM     79  O   UNL A   1      39.287  22.083  26.508  1.00  0.00    -0.237 OA
ATOM     80  O   UNL A   1      41.125  20.479  26.185  1.00  0.00    -0.237 OA
ATOM     81  O   UNL A   1      40.813  21.590  28.365  1.00  0.00    -0.744 OA
ENDBRANCH  75  78
ENDBRANCH  47  71
BRANCH  59  82
ATOM     82  C   UNL A   1      45.311  30.472  28.304  1.00  0.00     0.023 A 
ATOM     83  C   UNL A   1      44.227  31.100  27.656  1.00  0.00     0.012 A 
ATOM     84  C   UNL A   1      46.616  30.900  28.010  1.00  0.00     0.148 A 
ATOM     85  C   UNL A   1      44.443  32.117  26.721  1.00  0.00     0.002 A 
ATOM     86  C   UNL A   1      46.825  31.942  27.117  1.00  0.00     0.091 A 
ATOM     87  F   UNL A   1      47.636  30.294  28.637  1.00  0.00    -0.205 F 
ATOM     88  C   UNL A   1      45.741  32.548  26.462  1.00  0.00     0.022 A 
BRANCH  86  89
ATOM     89  S   UNL A   1      48.462  32.618  26.841  1.00  0.00     0.127 S 
ATOM     90  O   UNL A   1      48.223  33.561  25.750  1.00  0.00    -0.237 OA
ATOM     91  O   UNL A   1      48.768  33.239  28.131  1.00  0.00    -0.237 OA
ATOM     92  O   UNL A   1      49.317  31.483  26.512  1.00  0.00    -0.744 OA
ENDBRANCH  86  89
ENDBRANCH  59  82
ENDBRANCH  33  34
ENDBRANCH  25  28
ENDBRANCH  23  24
ENDBRANCH  22  23
ENDBRANCH   1  22
TORSDOF 19
ENDMDL
