MODEL 1
REMARK VINA RESULT:     -11.4      0.000      0.000
REMARK SMILES CC[C@H]1CO[C@@H](C)CN1c1cccc(F)c1C(=O)NCCCNC(=O)c1ccc(-c2c3nc(c(-c4cccc(S(=O)(=O)[O-])c4F)c4ccc([nH]4)c(-c4cccc(S(=O)(=O)[O-])c4F)c4nc(c(-c5cccc(S(=O)(=O)[O-])c5F)c5ccc2[nH]5)C=C4)C=C3)cc1
REMARK SMILES IDX 21 1 20 2 19 3 17 4 18 5 16 7 10 8 11 9 12 10 14 11 13 12
REMARK SMILES IDX 15 13 9 14 3 15 4 16 5 17 8 18 6 19 7 20 2 21 1 22 22 23
REMARK SMILES IDX 23 24 24 25 25 27 26 28 27 29 88 30 28 31 87 32 29 33 30 34
REMARK SMILES IDX 31 35 81 36 32 37 86 38 80 39 82 40 33 41 85 42 79 43 78 44
REMARK SMILES IDX 34 46 66 47 46 48 65 49 47 50 50 51 64 52 83 53 48 54 49 55
REMARK SMILES IDX 63 57 84 58 51 59 35 60 36 61 44 62 37 63 39 64 45 65 38 66
REMARK SMILES IDX 40 67 41 68 42 69 43 70 67 71 68 72 76 73 69 74 71 75 77 76
REMARK SMILES IDX 70 77 72 78 73 79 74 80 75 81 52 82 53 83 61 84 54 85 56 86
REMARK SMILES IDX 62 87 55 88 57 89 58 90 59 91 60 92
REMARK H PARENT 19 6 23 26 82 45 50 56
REMARK Flexibility Score: inf
ROOT
ATOM      1  C   UNL A   1      33.347  27.854  27.069  1.00  0.00     0.042 C 
ENDROOT
BRANCH   1   2
ATOM      2  C   UNL A   1      31.819  27.966  27.169  1.00  0.00     0.118 C 
BRANCH   2   3
ATOM      3  N   UNL A   1      31.183  26.718  26.790  1.00  0.00    -0.352 N 
ATOM      4  C   UNL A   1      30.732  26.381  25.535  1.00  0.00     0.256 C 
ATOM      5  O   UNL A   1      29.582  25.955  25.447  1.00  0.00    -0.269 OA
ATOM      6  H   UNL A   1      31.061  26.048  27.501  1.00  0.00     0.163 HD
BRANCH   4   7
ATOM      7  C   UNL A   1      31.597  26.456  24.333  1.00  0.00     0.098 A 
ATOM      8  C   UNL A   1      32.310  25.318  23.853  1.00  0.00     0.053 A 
ATOM      9  C   UNL A   1      32.954  25.445  22.604  1.00  0.00     0.027 A 
ATOM     10  C   UNL A   1      33.000  26.654  21.908  1.00  0.00     0.005 A 
ATOM     11  C   UNL A   1      31.630  27.653  23.606  1.00  0.00     0.138 A 
ATOM     12  C   UNL A   1      32.353  27.766  22.424  1.00  0.00     0.040 A 
ATOM     13  F   UNL A   1      30.963  28.737  24.018  1.00  0.00    -0.206 F 
BRANCH   8  14
ATOM     14  N   UNL A   1      32.445  24.135  24.576  1.00  0.00    -0.363 N 
ATOM     15  C   UNL A   1      33.743  23.562  25.035  1.00  0.00     0.108 C 
ATOM     16  C   UNL A   1      33.470  22.650  26.265  1.00  0.00     0.185 C 
ATOM     17  O   UNL A   1      32.483  21.639  26.007  1.00  0.00    -0.375 OA
ATOM     18  C   UNL A   1      31.465  23.057  24.282  1.00  0.00     0.148 C 
ATOM     19  C   UNL A   1      31.234  22.197  25.542  1.00  0.00     0.134 C 
ATOM     20  C   UNL A   1      30.510  22.926  26.674  1.00  0.00     0.040 C 
BRANCH  15  21
ATOM     21  C   UNL A   1      34.869  24.556  25.377  1.00  0.00     0.024 C 
ATOM     22  C   UNL A   1      36.203  23.960  25.797  1.00  0.00     0.006 C 
ENDBRANCH  15  21
ENDBRANCH   8  14
ENDBRANCH   4   7
ENDBRANCH   2   3
ENDBRANCH   1   2
BRANCH   1  23
ATOM     23  C   UNL A   1      34.008  28.927  26.200  1.00  0.00     0.118 C 
BRANCH  23  24
ATOM     24  N   UNL A   1      33.796  30.267  26.729  1.00  0.00    -0.352 N 
ATOM     25  C   UNL A   1      34.490  30.948  27.700  1.00  0.00     0.251 C 
ATOM     26  H   UNL A   1      33.042  30.758  26.331  1.00  0.00     0.163 HD
ATOM     27  O   UNL A   1      34.008  31.978  28.165  1.00  0.00    -0.269 OA
BRANCH  25  28
ATOM     28  C   UNL A   1      35.800  30.460  28.194  1.00  0.00     0.039 A 
ATOM     29  C   UNL A   1      35.835  29.705  29.372  1.00  0.00     0.014 A 
ATOM     30  C   UNL A   1      36.994  30.790  27.548  1.00  0.00     0.014 A 
ATOM     31  C   UNL A   1      37.057  29.245  29.873  1.00  0.00     0.010 A 
ATOM     32  C   UNL A   1      38.207  30.281  28.017  1.00  0.00     0.010 A 
ATOM     33  C   UNL A   1      38.255  29.508  29.187  1.00  0.00    -0.014 A 
BRANCH  33  34
ATOM     34  C   UNL A   1      39.556  28.969  29.668  1.00  0.00     0.031 A 
ATOM     35  C   UNL A   1      40.303  29.653  30.782  1.00  0.00     0.074 A 
ATOM     36  C   UNL A   1      40.106  27.906  29.047  1.00  0.00     0.049 A 
ATOM     37  N   UNL A   1      41.478  29.367  31.283  1.00  0.00    -0.248 NA
ATOM     38  C   UNL A   1      39.659  30.823  31.403  1.00  0.00     0.031 C 
ATOM     39  C   UNL A   1      39.515  27.196  27.911  1.00  0.00     0.029 A 
ATOM     40  N   UNL A   1      41.297  27.256  29.262  1.00  0.00    -0.354 N 
ATOM     41  C   UNL A   1      41.730  30.337  32.246  1.00  0.00     0.074 A 
ATOM     42  C   UNL A   1      40.595  31.234  32.247  1.00  0.00     0.031 C 
ATOM     43  C   UNL A   1      40.343  26.211  27.529  1.00  0.00     0.029 A 
ATOM     44  C   UNL A   1      41.537  26.234  28.370  1.00  0.00     0.049 A 
ATOM     45  H   UNL A   1      41.919  27.496  29.986  1.00  0.00     0.167 HD
ATOM     46  C   UNL A   1      42.795  30.453  33.074  1.00  0.00     0.034 A 
ATOM     47  C   UNL A   1      42.599  25.415  28.236  1.00  0.00     0.034 A 
ATOM     48  C   UNL A   1      43.896  29.528  33.110  1.00  0.00     0.049 A 
ATOM     49  C   UNL A   1      43.748  25.537  29.200  1.00  0.00     0.074 A 
ATOM     50  C   UNL A   1      44.977  29.516  33.974  1.00  0.00     0.029 A 
ATOM     51  N   UNL A   1      44.059  28.454  32.251  1.00  0.00    -0.354 N 
ATOM     52  N   UNL A   1      43.898  26.372  30.199  1.00  0.00    -0.248 NA
ATOM     53  C   UNL A   1      44.859  24.586  29.043  1.00  0.00     0.031 C 
ATOM     54  C   UNL A   1      45.803  28.444  33.626  1.00  0.00     0.029 A 
ATOM     55  C   UNL A   1      45.225  27.774  32.559  1.00  0.00     0.049 A 
ATOM     56  H   UNL A   1      43.437  28.210  31.526  1.00  0.00     0.167 HD
ATOM     57  C   UNL A   1      45.099  26.028  30.809  1.00  0.00     0.074 A 
ATOM     58  C   UNL A   1      45.629  24.895  30.078  1.00  0.00     0.031 C 
ATOM     59  C   UNL A   1      45.714  26.612  31.866  1.00  0.00     0.034 A 
BRANCH  46  60
ATOM     60  C   UNL A   1      42.804  31.583  34.073  1.00  0.00     0.023 A 
ATOM     61  C   UNL A   1      43.347  32.829  33.699  1.00  0.00     0.012 A 
ATOM     62  C   UNL A   1      42.174  31.452  35.326  1.00  0.00     0.148 A 
ATOM     63  C   UNL A   1      43.281  33.921  34.562  1.00  0.00     0.002 A 
ATOM     64  C   UNL A   1      42.073  32.556  36.164  1.00  0.00     0.091 A 
ATOM     65  F   UNL A   1      41.674  30.255  35.668  1.00  0.00    -0.205 F 
ATOM     66  C   UNL A   1      42.633  33.788  35.787  1.00  0.00     0.022 A 
BRANCH  64  67
ATOM     67  S   UNL A   1      41.186  32.518  37.726  1.00  0.00     0.127 S 
ATOM     68  O   UNL A   1      42.021  31.614  38.517  1.00  0.00    -0.237 OA
ATOM     69  O   UNL A   1      41.240  33.919  38.144  1.00  0.00    -0.237 OA
ATOM     70  O   UNL A   1      39.852  32.022  37.422  1.00  0.00    -0.744 OA
ENDBRANCH  64  67
ENDBRANCH  46  60
BRANCH  47  71
ATOM     71  C   UNL A   1      42.583  24.354  27.187  1.00  0.00     0.023 A 
ATOM     72  C   UNL A   1      43.247  24.583  25.967  1.00  0.00     0.012 A 
ATOM     73  C   UNL A   1      41.967  23.107  27.411  1.00  0.00     0.148 A 
ATOM     74  C   UNL A   1      43.281  23.597  24.979  1.00  0.00     0.002 A 
ATOM     75  C   UNL A   1      42.055  22.109  26.446  1.00  0.00     0.091 A 
ATOM     76  F   UNL A   1      41.327  22.913  28.572  1.00  0.00    -0.205 F 
ATOM     77  C   UNL A   1      42.698  22.357  25.224  1.00  0.00     0.022 A 
BRANCH  75  78
ATOM     78  S   UNL A   1      41.460  20.438  26.731  1.00  0.00     0.127 S 
ATOM     79  O   UNL A   1      40.021  20.649  26.859  1.00  0.00    -0.237 OA
ATOM     80  O   UNL A   1      41.876  19.754  25.507  1.00  0.00    -0.237 OA
ATOM     81  O   UNL A   1      42.143  19.978  27.934  1.00  0.00    -0.744 OA
ENDBRANCH  75  78
ENDBRANCH  47  71
BRANCH  59  82
ATOM     82  C   UNL A   1      47.025  26.035  32.334  1.00  0.00     0.023 A 
ATOM     83  C   UNL A   1      47.041  25.140  33.422  1.00  0.00     0.012 A 
ATOM     84  C   UNL A   1      48.215  26.279  31.620  1.00  0.00     0.148 A 
ATOM     85  C   UNL A   1      48.225  24.510  33.802  1.00  0.00     0.002 A 
ATOM     86  C   UNL A   1      49.381  25.610  31.975  1.00  0.00     0.091 A 
ATOM     87  F   UNL A   1      48.180  27.147  30.599  1.00  0.00    -0.205 F 
ATOM     88  C   UNL A   1      49.390  24.732  33.071  1.00  0.00     0.022 A 
BRANCH  86  89
ATOM     89  S   UNL A   1      50.902  25.755  31.029  1.00  0.00     0.127 S 
ATOM     90  O   UNL A   1      51.801  24.876  31.775  1.00  0.00    -0.237 OA
ATOM     91  O   UNL A   1      50.501  25.246  29.717  1.00  0.00    -0.237 OA
ATOM     92  O   UNL A   1      51.254  27.168  31.046  1.00  0.00    -0.744 OA
ENDBRANCH  86  89
ENDBRANCH  59  82
ENDBRANCH  33  34
ENDBRANCH  25  28
ENDBRANCH  23  24
ENDBRANCH   1  23
TORSDOF 15
ENDMDL
MODEL 2
REMARK VINA RESULT:     -11.3      5.021      8.349
REMARK SMILES CC[C@H]1CO[C@@H](C)CN1c1cccc(F)c1C(=O)NCCCNC(=O)c1ccc(-c2c3nc(c(-c4cccc(S(=O)(=O)[O-])c4F)c4ccc([nH]4)c(-c4cccc(S(=O)(=O)[O-])c4F)c4nc(c(-c5cccc(S(=O)(=O)[O-])c5F)c5ccc2[nH]5)C=C4)C=C3)cc1
REMARK SMILES IDX 21 1 20 2 19 3 17 4 18 5 16 7 10 8 11 9 12 10 14 11 13 12
REMARK SMILES IDX 15 13 9 14 3 15 4 16 5 17 8 18 6 19 7 20 2 21 1 22 22 23
REMARK SMILES IDX 23 24 24 25 25 27 26 28 27 29 88 30 28 31 87 32 29 33 30 34
REMARK SMILES IDX 31 35 81 36 32 37 86 38 80 39 82 40 33 41 85 42 79 43 78 44
REMARK SMILES IDX 34 46 66 47 46 48 65 49 47 50 50 51 64 52 83 53 48 54 49 55
REMARK SMILES IDX 63 57 84 58 51 59 35 60 36 61 44 62 37 63 39 64 45 65 38 66
REMARK SMILES IDX 40 67 41 68 42 69 43 70 67 71 68 72 76 73 69 74 71 75 77 76
REMARK SMILES IDX 70 77 72 78 73 79 74 80 75 81 52 82 53 83 61 84 54 85 56 86
REMARK SMILES IDX 62 87 55 88 57 89 58 90 59 91 60 92
REMARK H PARENT 19 6 23 26 82 45 50 56
REMARK Flexibility Score: inf
ROOT
ATOM      1  C   UNL A   1      37.915  19.796  24.830  1.00  0.00     0.042 C 
ENDROOT
BRANCH   1   2
ATOM      2  C   UNL A   1      36.703  20.728  24.686  1.00  0.00     0.118 C 
BRANCH   2   3
ATOM      3  N   UNL A   1      35.721  20.462  25.719  1.00  0.00    -0.352 N 
ATOM      4  C   UNL A   1      34.400  20.849  25.710  1.00  0.00     0.256 C 
ATOM      5  O   UNL A   1      33.977  21.426  26.710  1.00  0.00    -0.269 OA
ATOM      6  H   UNL A   1      36.029  19.955  26.505  1.00  0.00     0.163 HD
BRANCH   4   7
ATOM      7  C   UNL A   1      33.490  20.539  24.582  1.00  0.00     0.098 A 
ATOM      8  C   UNL A   1      32.945  21.566  23.757  1.00  0.00     0.053 A 
ATOM      9  C   UNL A   1      32.243  21.158  22.603  1.00  0.00     0.027 A 
ATOM     10  C   UNL A   1      31.985  19.815  22.323  1.00  0.00     0.005 A 
ATOM     11  C   UNL A   1      33.246  19.196  24.269  1.00  0.00     0.138 A 
ATOM     12  C   UNL A   1      32.471  18.833  23.173  1.00  0.00     0.040 A 
ATOM     13  F   UNL A   1      33.752  18.204  25.012  1.00  0.00    -0.206 F 
BRANCH   8  14
ATOM     14  N   UNL A   1      33.021  22.923  24.067  1.00  0.00    -0.363 N 
ATOM     15  C   UNL A   1      31.870  23.759  24.514  1.00  0.00     0.108 C 
ATOM     16  C   UNL A   1      32.426  24.967  25.321  1.00  0.00     0.185 C 
ATOM     17  O   UNL A   1      33.406  25.725  24.595  1.00  0.00    -0.375 OA
ATOM     18  C   UNL A   1      33.992  23.732  23.287  1.00  0.00     0.148 C 
ATOM     19  C   UNL A   1      34.509  24.907  24.145  1.00  0.00     0.134 C 
ATOM     20  C   UNL A   1      35.387  24.483  25.322  1.00  0.00     0.040 C 
BRANCH  15  21
ATOM     21  C   UNL A   1      30.770  23.060  25.336  1.00  0.00     0.024 C 
ATOM     22  C   UNL A   1      30.873  23.171  26.849  1.00  0.00     0.006 C 
ENDBRANCH  15  21
ENDBRANCH   8  14
ENDBRANCH   4   7
ENDBRANCH   2   3
ENDBRANCH   1   2
BRANCH   1  23
ATOM     23  C   UNL A   1      38.865  20.159  25.973  1.00  0.00     0.118 C 
BRANCH  23  24
ATOM     24  N   UNL A   1      40.018  19.271  26.031  1.00  0.00    -0.352 N 
ATOM     25  C   UNL A   1      41.354  19.573  26.123  1.00  0.00     0.251 C 
ATOM     26  H   UNL A   1      39.806  18.311  25.999  1.00  0.00     0.163 HD
ATOM     27  O   UNL A   1      42.181  18.685  25.923  1.00  0.00    -0.269 OA
BRANCH  25  28
ATOM     28  C   UNL A   1      41.813  20.944  26.453  1.00  0.00     0.039 A 
ATOM     29  C   UNL A   1      41.952  21.874  25.417  1.00  0.00     0.014 A 
ATOM     30  C   UNL A   1      42.166  21.303  27.757  1.00  0.00     0.014 A 
ATOM     31  C   UNL A   1      42.399  23.170  25.694  1.00  0.00     0.010 A 
ATOM     32  C   UNL A   1      42.555  22.613  28.041  1.00  0.00     0.010 A 
ATOM     33  C   UNL A   1      42.683  23.561  27.014  1.00  0.00    -0.014 A 
BRANCH  33  34
ATOM     34  C   UNL A   1      43.093  24.954  27.336  1.00  0.00     0.031 A 
ATOM     35  C   UNL A   1      42.125  25.906  27.988  1.00  0.00     0.074 A 
ATOM     36  C   UNL A   1      44.314  25.390  26.968  1.00  0.00     0.049 A 
ATOM     37  N   UNL A   1      42.283  27.173  28.278  1.00  0.00    -0.248 NA
ATOM     38  C   UNL A   1      40.798  25.375  28.343  1.00  0.00     0.031 C 
ATOM     39  C   UNL A   1      45.320  24.587  26.269  1.00  0.00     0.029 A 
ATOM     40  N   UNL A   1      44.909  26.621  27.104  1.00  0.00    -0.354 N 
ATOM     41  C   UNL A   1      41.072  27.597  28.812  1.00  0.00     0.074 A 
ATOM     42  C   UNL A   1      40.179  26.460  28.788  1.00  0.00     0.031 C 
ATOM     43  C   UNL A   1      46.404  25.344  26.037  1.00  0.00     0.029 A 
ATOM     44  C   UNL A   1      46.164  26.693  26.542  1.00  0.00     0.049 A 
ATOM     45  H   UNL A   1      44.479  27.380  27.560  1.00  0.00     0.167 HD
ATOM     46  C   UNL A   1      40.744  28.816  29.305  1.00  0.00     0.034 A 
ATOM     47  C   UNL A   1      47.022  27.728  26.435  1.00  0.00     0.034 A 
ATOM     48  C   UNL A   1      41.652  29.929  29.379  1.00  0.00     0.049 A 
ATOM     49  C   UNL A   1      46.649  29.057  27.033  1.00  0.00     0.074 A 
ATOM     50  C   UNL A   1      41.435  31.174  29.942  1.00  0.00     0.029 A 
ATOM     51  N   UNL A   1      42.944  29.935  28.881  1.00  0.00    -0.354 N 
ATOM     52  N   UNL A   1      45.552  29.395  27.665  1.00  0.00    -0.248 NA
ATOM     53  C   UNL A   1      47.641  30.139  26.936  1.00  0.00     0.031 C 
ATOM     54  C   UNL A   1      42.590  31.940  29.768  1.00  0.00     0.029 A 
ATOM     55  C   UNL A   1      43.537  31.163  29.118  1.00  0.00     0.049 A 
ATOM     56  H   UNL A   1      43.378  29.176  28.425  1.00  0.00     0.167 HD
ATOM     57  C   UNL A   1      45.733  30.714  28.068  1.00  0.00     0.074 A 
ATOM     58  C   UNL A   1      47.055  31.108  27.625  1.00  0.00     0.031 C 
ATOM     59  C   UNL A   1      44.873  31.528  28.728  1.00  0.00     0.034 A 
BRANCH  46  60
ATOM     60  C   UNL A   1      39.362  29.006  29.876  1.00  0.00     0.023 A 
ATOM     61  C   UNL A   1      39.084  28.539  31.177  1.00  0.00     0.012 A 
ATOM     62  C   UNL A   1      38.383  29.744  29.183  1.00  0.00     0.148 A 
ATOM     63  C   UNL A   1      37.849  28.786  31.772  1.00  0.00     0.002 A 
ATOM     64  C   UNL A   1      37.168  30.024  29.799  1.00  0.00     0.091 A 
ATOM     65  F   UNL A   1      38.662  30.168  27.942  1.00  0.00    -0.205 F 
ATOM     66  C   UNL A   1      36.897  29.539  31.089  1.00  0.00     0.022 A 
BRANCH  64  67
ATOM     67  S   UNL A   1      35.906  31.055  29.043  1.00  0.00     0.127 S 
ATOM     68  O   UNL A   1      35.194  30.088  28.209  1.00  0.00    -0.237 OA
ATOM     69  O   UNL A   1      35.155  31.525  30.208  1.00  0.00    -0.237 OA
ATOM     70  O   UNL A   1      36.617  32.097  28.315  1.00  0.00    -0.744 OA
ENDBRANCH  64  67
ENDBRANCH  46  60
BRANCH  47  71
ATOM     71  C   UNL A   1      48.354  27.516  25.797  1.00  0.00     0.023 A 
ATOM     72  C   UNL A   1      49.448  27.135  26.598  1.00  0.00     0.012 A 
ATOM     73  C   UNL A   1      48.530  27.633  24.404  1.00  0.00     0.148 A 
ATOM     74  C   UNL A   1      50.698  26.894  26.027  1.00  0.00     0.002 A 
ATOM     75  C   UNL A   1      49.764  27.335  23.835  1.00  0.00     0.091 A 
ATOM     76  F   UNL A   1      47.482  28.012  23.660  1.00  0.00    -0.205 F 
ATOM     77  C   UNL A   1      50.853  26.980  24.646  1.00  0.00     0.022 A 
BRANCH  75  78
ATOM     78  S   UNL A   1      50.018  27.280  22.058  1.00  0.00     0.127 S 
ATOM     79  O   UNL A   1      49.848  28.681  21.687  1.00  0.00    -0.237 OA
ATOM     80  O   UNL A   1      51.389  26.779  21.962  1.00  0.00    -0.237 OA
ATOM     81  O   UNL A   1      49.009  26.361  21.546  1.00  0.00    -0.744 OA
ENDBRANCH  75  78
ENDBRANCH  47  71
BRANCH  59  82
ATOM     82  C   UNL A   1      45.323  32.930  29.048  1.00  0.00     0.023 A 
ATOM     83  C   UNL A   1      46.003  33.182  30.255  1.00  0.00     0.012 A 
ATOM     84  C   UNL A   1      45.187  33.963  28.100  1.00  0.00     0.148 A 
ATOM     85  C   UNL A   1      46.525  34.447  30.522  1.00  0.00     0.002 A 
ATOM     86  C   UNL A   1      45.752  35.209  28.352  1.00  0.00     0.091 A 
ATOM     87  F   UNL A   1      44.522  33.705  26.965  1.00  0.00    -0.205 F 
ATOM     88  C   UNL A   1      46.414  35.454  29.566  1.00  0.00     0.022 A 
BRANCH  86  89
ATOM     89  S   UNL A   1      45.747  36.533  27.139  1.00  0.00     0.127 S 
ATOM     90  O   UNL A   1      44.319  36.827  27.024  1.00  0.00    -0.237 OA
ATOM     91  O   UNL A   1      46.530  37.571  27.810  1.00  0.00    -0.237 OA
ATOM     92  O   UNL A   1      46.370  35.986  25.942  1.00  0.00    -0.744 OA
ENDBRANCH  86  89
ENDBRANCH  59  82
ENDBRANCH  33  34
ENDBRANCH  25  28
ENDBRANCH  23  24
ENDBRANCH   1  23
TORSDOF 15
ENDMDL
MODEL 3
REMARK VINA RESULT:     -11.3      1.289      1.694
REMARK SMILES CC[C@H]1CO[C@@H](C)CN1c1cccc(F)c1C(=O)NCCCNC(=O)c1ccc(-c2c3nc(c(-c4cccc(S(=O)(=O)[O-])c4F)c4ccc([nH]4)c(-c4cccc(S(=O)(=O)[O-])c4F)c4nc(c(-c5cccc(S(=O)(=O)[O-])c5F)c5ccc2[nH]5)C=C4)C=C3)cc1
REMARK SMILES IDX 21 1 20 2 19 3 17 4 18 5 16 7 10 8 11 9 12 10 14 11 13 12
REMARK SMILES IDX 15 13 9 14 3 15 4 16 5 17 8 18 6 19 7 20 2 21 1 22 22 23
REMARK SMILES IDX 23 24 24 25 25 27 26 28 27 29 88 30 28 31 87 32 29 33 30 34
REMARK SMILES IDX 31 35 81 36 32 37 86 38 80 39 82 40 33 41 85 42 79 43 78 44
REMARK SMILES IDX 34 46 66 47 46 48 65 49 47 50 50 51 64 52 83 53 48 54 49 55
REMARK SMILES IDX 63 57 84 58 51 59 35 60 36 61 44 62 37 63 39 64 45 65 38 66
REMARK SMILES IDX 40 67 41 68 42 69 43 70 67 71 68 72 76 73 69 74 71 75 77 76
REMARK SMILES IDX 70 77 72 78 73 79 74 80 75 81 52 82 53 83 61 84 54 85 56 86
REMARK SMILES IDX 62 87 55 88 57 89 58 90 59 91 60 92
REMARK H PARENT 19 6 23 26 82 45 50 56
REMARK Flexibility Score: inf
ROOT
ATOM      1  C   UNL A   1      33.284  28.022  27.120  1.00  0.00     0.042 C 
ENDROOT
BRANCH   1   2
ATOM      2  C   UNL A   1      31.752  28.082  27.214  1.00  0.00     0.118 C 
BRANCH   2   3
ATOM      3  N   UNL A   1      31.164  26.798  26.884  1.00  0.00    -0.352 N 
ATOM      4  C   UNL A   1      30.677  26.415  25.655  1.00  0.00     0.256 C 
ATOM      5  O   UNL A   1      29.547  25.932  25.625  1.00  0.00    -0.269 OA
ATOM      6  H   UNL A   1      31.106  26.136  27.611  1.00  0.00     0.163 HD
BRANCH   4   7
ATOM      7  C   UNL A   1      31.486  26.510  24.416  1.00  0.00     0.098 A 
ATOM      8  C   UNL A   1      32.189  25.384  23.895  1.00  0.00     0.053 A 
ATOM      9  C   UNL A   1      32.774  25.528  22.619  1.00  0.00     0.027 A 
ATOM     10  C   UNL A   1      32.774  26.743  21.931  1.00  0.00     0.005 A 
ATOM     11  C   UNL A   1      31.471  27.712  23.698  1.00  0.00     0.138 A 
ATOM     12  C   UNL A   1      32.137  27.843  22.485  1.00  0.00     0.040 A 
ATOM     13  F   UNL A   1      30.810  28.785  24.148  1.00  0.00    -0.206 F 
BRANCH   8  14
ATOM     14  N   UNL A   1      32.371  24.197  24.602  1.00  0.00    -0.363 N 
ATOM     15  C   UNL A   1      33.697  23.626  24.978  1.00  0.00     0.108 C 
ATOM     16  C   UNL A   1      33.501  22.707  26.217  1.00  0.00     0.185 C 
ATOM     17  O   UNL A   1      32.504  21.693  26.014  1.00  0.00    -0.375 OA
ATOM     18  C   UNL A   1      31.378  23.118  24.362  1.00  0.00     0.148 C 
ATOM     19  C   UNL A   1      31.227  22.250  25.629  1.00  0.00     0.134 C 
ATOM     20  C   UNL A   1      30.571  22.970  26.806  1.00  0.00     0.040 C 
BRANCH  15  21
ATOM     21  C   UNL A   1      34.838  24.622  25.257  1.00  0.00     0.024 C 
ATOM     22  C   UNL A   1      36.098  24.057  25.893  1.00  0.00     0.006 C 
ENDBRANCH  15  21
ENDBRANCH   8  14
ENDBRANCH   4   7
ENDBRANCH   2   3
ENDBRANCH   1   2
BRANCH   1  23
ATOM     23  C   UNL A   1      33.906  29.071  26.195  1.00  0.00     0.118 C 
BRANCH  23  24
ATOM     24  N   UNL A   1      33.786  30.418  26.735  1.00  0.00    -0.352 N 
ATOM     25  C   UNL A   1      34.530  31.045  27.705  1.00  0.00     0.251 C 
ATOM     26  H   UNL A   1      33.063  30.961  26.346  1.00  0.00     0.163 HD
ATOM     27  O   UNL A   1      34.120  32.101  28.181  1.00  0.00    -0.269 OA
BRANCH  25  28
ATOM     28  C   UNL A   1      35.808  30.468  28.186  1.00  0.00     0.039 A 
ATOM     29  C   UNL A   1      36.960  30.650  27.412  1.00  0.00     0.014 A 
ATOM     30  C   UNL A   1      35.872  29.701  29.352  1.00  0.00     0.014 A 
ATOM     31  C   UNL A   1      38.178  30.104  27.830  1.00  0.00     0.010 A 
ATOM     32  C   UNL A   1      37.100  29.207  29.798  1.00  0.00     0.010 A 
ATOM     33  C   UNL A   1      38.266  29.396  29.040  1.00  0.00    -0.014 A 
BRANCH  33  34
ATOM     34  C   UNL A   1      39.566  28.867  29.535  1.00  0.00     0.031 A 
ATOM     35  C   UNL A   1      40.304  29.566  30.647  1.00  0.00     0.074 A 
ATOM     36  C   UNL A   1      40.124  27.801  28.928  1.00  0.00     0.049 A 
ATOM     37  N   UNL A   1      41.477  29.290  31.158  1.00  0.00    -0.248 NA
ATOM     38  C   UNL A   1      39.650  30.739  31.253  1.00  0.00     0.031 C 
ATOM     39  C   UNL A   1      39.544  27.077  27.795  1.00  0.00     0.029 A 
ATOM     40  N   UNL A   1      41.317  27.158  29.156  1.00  0.00    -0.354 N 
ATOM     41  C   UNL A   1      41.718  30.271  32.113  1.00  0.00     0.074 A 
ATOM     42  C   UNL A   1      40.579  31.163  32.098  1.00  0.00     0.031 C 
ATOM     43  C   UNL A   1      40.379  26.092  27.428  1.00  0.00     0.029 A 
ATOM     44  C   UNL A   1      41.567  26.129  28.276  1.00  0.00     0.049 A 
ATOM     45  H   UNL A   1      41.933  27.409  29.881  1.00  0.00     0.167 HD
ATOM     46  C   UNL A   1      42.778  30.400  32.946  1.00  0.00     0.034 A 
ATOM     47  C   UNL A   1      42.634  25.313  28.156  1.00  0.00     0.034 A 
ATOM     48  C   UNL A   1      43.882  29.479  32.998  1.00  0.00     0.049 A 
ATOM     49  C   UNL A   1      43.776  25.450  29.126  1.00  0.00     0.074 A 
ATOM     50  C   UNL A   1      44.958  29.480  33.869  1.00  0.00     0.029 A 
ATOM     51  N   UNL A   1      44.055  28.398  32.150  1.00  0.00    -0.354 N 
ATOM     52  N   UNL A   1      43.916  26.295  30.118  1.00  0.00    -0.248 NA
ATOM     53  C   UNL A   1      44.892  24.502  28.986  1.00  0.00     0.031 C 
ATOM     54  C   UNL A   1      45.791  28.409  33.536  1.00  0.00     0.029 A 
ATOM     55  C   UNL A   1      45.222  27.726  32.473  1.00  0.00     0.049 A 
ATOM     56  H   UNL A   1      43.439  28.144  31.424  1.00  0.00     0.167 HD
ATOM     57  C   UNL A   1      45.115  25.962  30.738  1.00  0.00     0.074 A 
ATOM     58  C   UNL A   1      45.655  24.825  30.022  1.00  0.00     0.031 C 
ATOM     59  C   UNL A   1      45.721  26.559  31.794  1.00  0.00     0.034 A 
BRANCH  46  60
ATOM     60  C   UNL A   1      42.775  31.539  33.934  1.00  0.00     0.023 A 
ATOM     61  C   UNL A   1      43.285  32.792  33.540  1.00  0.00     0.012 A 
ATOM     62  C   UNL A   1      42.166  31.406  35.197  1.00  0.00     0.148 A 
ATOM     63  C   UNL A   1      43.207  33.891  34.394  1.00  0.00     0.002 A 
ATOM     64  C   UNL A   1      42.052  32.516  36.026  1.00  0.00     0.091 A 
ATOM     65  F   UNL A   1      41.697  30.202  35.557  1.00  0.00    -0.205 F 
ATOM     66  C   UNL A   1      42.579  33.757  35.629  1.00  0.00     0.022 A 
BRANCH  64  67
ATOM     67  S   UNL A   1      41.188  32.474  37.600  1.00  0.00     0.127 S 
ATOM     68  O   UNL A   1      41.193  33.886  37.979  1.00  0.00    -0.237 OA
ATOM     69  O   UNL A   1      39.876  31.951  37.217  1.00  0.00    -0.237 OA
ATOM     70  O   UNL A   1      41.966  31.597  38.465  1.00  0.00    -0.744 OA
ENDBRANCH  64  67
ENDBRANCH  46  60
BRANCH  47  71
ATOM     71  C   UNL A   1      42.629  24.242  27.118  1.00  0.00     0.023 A 
ATOM     72  C   UNL A   1      43.309  24.457  25.904  1.00  0.00     0.012 A 
ATOM     73  C   UNL A   1      42.007  22.999  27.346  1.00  0.00     0.148 A 
ATOM     74  C   UNL A   1      43.355  23.462  24.927  1.00  0.00     0.002 A 
ATOM     75  C   UNL A   1      42.105  21.991  26.392  1.00  0.00     0.091 A 
ATOM     76  F   UNL A   1      41.351  22.818  28.500  1.00  0.00    -0.205 F 
ATOM     77  C   UNL A   1      42.765  22.226  25.176  1.00  0.00     0.022 A 
BRANCH  75  78
ATOM     78  S   UNL A   1      41.502  20.324  26.685  1.00  0.00     0.127 S 
ATOM     79  O   UNL A   1      42.239  19.945  27.886  1.00  0.00    -0.237 OA
ATOM     80  O   UNL A   1      40.070  20.550  26.885  1.00  0.00    -0.237 OA
ATOM     81  O   UNL A   1      41.825  19.573  25.478  1.00  0.00    -0.744 OA
ENDBRANCH  75  78
ENDBRANCH  47  71
BRANCH  59  82
ATOM     82  C   UNL A   1      47.032  25.993  32.276  1.00  0.00     0.023 A 
ATOM     83  C   UNL A   1      48.240  26.536  31.797  1.00  0.00     0.012 A 
ATOM     84  C   UNL A   1      47.064  25.018  33.292  1.00  0.00     0.148 A 
ATOM     85  C   UNL A   1      49.462  26.103  32.311  1.00  0.00     0.002 A 
ATOM     86  C   UNL A   1      48.284  24.626  33.833  1.00  0.00     0.091 A 
ATOM     87  F   UNL A   1      45.902  24.503  33.721  1.00  0.00    -0.205 F 
ATOM     88  C   UNL A   1      49.483  25.162  33.338  1.00  0.00     0.022 A 
BRANCH  86  89
ATOM     89  S   UNL A   1      48.403  23.497  35.225  1.00  0.00     0.127 S 
ATOM     90  O   UNL A   1      47.858  24.308  36.314  1.00  0.00    -0.237 OA
ATOM     91  O   UNL A   1      47.545  22.390  34.802  1.00  0.00    -0.237 OA
ATOM     92  O   UNL A   1      49.813  23.155  35.347  1.00  0.00    -0.744 OA
ENDBRANCH  86  89
ENDBRANCH  59  82
ENDBRANCH  33  34
ENDBRANCH  25  28
ENDBRANCH  23  24
ENDBRANCH   1  23
TORSDOF 15
ENDMDL
