MODEL 1
REMARK VINA RESULT:     -14.4      0.000      0.000
REMARK SMILES COc1ccc2c(c1OC)C(=O)O[C@@H]2Nc1nonc1C(=O)NCCCNC(=O)c1ccc(-c2c3nc(c(-c4cccc(S(=O)(=O)[O-])c4F)c4ccc([nH]4)c(-c4cccc(S(=O)(=O)[O-])c4F)c4nc(c(-c5cccc(S(=O)(=O)[O-])c5F)c5ccc2[nH]5)C=C4)C=C3)cc1
REMARK SMILES IDX 25 1 24 2 23 3 21 4 22 5 20 7 16 8 17 9 18 10 19 11 15 12
REMARK SMILES IDX 14 14 3 15 4 16 8 17 5 18 7 19 6 20 11 21 12 22 13 23 2 24
REMARK SMILES IDX 1 25 9 26 10 27 26 28 27 29 28 30 29 32 30 33 31 34 92 35
REMARK SMILES IDX 32 36 91 37 33 38 34 39 35 40 85 41 36 42 90 43 84 44 86 45
REMARK SMILES IDX 37 46 89 47 83 48 82 49 38 51 70 52 50 53 69 54 51 55 54 56
REMARK SMILES IDX 68 57 87 58 52 59 53 60 67 62 88 63 55 64 39 65 40 66 48 67
REMARK SMILES IDX 41 68 43 69 49 70 42 71 44 72 45 73 46 74 47 75 71 76 72 77
REMARK SMILES IDX 80 78 73 79 75 80 81 81 74 82 76 83 77 84 78 85 79 86 56 87
REMARK SMILES IDX 57 88 65 89 58 90 60 91 66 92 59 93 61 94 62 95 63 96 64 97
REMARK H PARENT 23 6 15 13 27 31 86 50 54 61
REMARK Flexibility Score: inf
ROOT
ATOM      1  C   UNL A   1      33.195  29.003  24.962  1.00  0.00     0.042 C 
ENDROOT
BRANCH   1   2
ATOM      2  C   UNL A   1      33.325  28.982  23.430  1.00  0.00     0.118 C 
BRANCH   2   3
ATOM      3  N   UNL A   1      33.346  27.659  22.829  1.00  0.00    -0.350 N 
ATOM      4  C   UNL A   1      32.301  26.786  22.627  1.00  0.00     0.277 C 
ATOM      5  O   UNL A   1      32.541  25.671  22.165  1.00  0.00    -0.267 OA
ATOM      6  H   UNL A   1      34.228  27.345  22.525  1.00  0.00     0.163 HD
BRANCH   4   7
ATOM      7  C   UNL A   1      30.972  27.196  23.017  1.00  0.00     0.216 A 
ATOM      8  C   UNL A   1      30.145  26.779  24.089  1.00  0.00     0.207 A 
ATOM      9  N   UNL A   1      28.914  27.249  23.865  1.00  0.00    -0.031 NA
ATOM     10  O   UNL A   1      28.988  28.004  22.710  1.00  0.00    -0.242 OA
ATOM     11  N   UNL A   1      30.274  28.006  22.204  1.00  0.00    -0.042 NA
BRANCH   8  12
ATOM     12  N   UNL A   1      30.350  25.823  25.029  1.00  0.00    -0.326 N 
ATOM     13  H   UNL A   1      29.701  25.085  24.977  1.00  0.00     0.166 HD
BRANCH  12  14
ATOM     14  C   UNL A   1      31.319  25.654  26.099  1.00  0.00     0.307 C 
ATOM     15  C   UNL A   1      34.894  22.430  24.591  1.00  0.00     0.161 A 
ATOM     16  C   UNL A   1      35.433  24.125  24.991  1.00  0.00     0.051 A 
ATOM     17  C   UNL A   1      33.058  21.984  24.909  1.00  0.00     0.175 A 
ATOM     18  C   UNL A   1      34.264  25.322  25.603  1.00  0.00     0.014 A 
ATOM     19  C   UNL A   1      31.994  23.294  25.581  1.00  0.00     0.114 A 
ATOM     20  C   UNL A   1      32.574  24.896  25.803  1.00  0.00     0.032 A 
ATOM     21  C   UNL A   1      30.721  23.358  26.311  1.00  0.00     0.344 C 
ATOM     22  O   UNL A   1      29.892  22.493  26.491  1.00  0.00    -0.246 OA
ATOM     23  O   UNL A   1      30.650  24.624  26.880  1.00  0.00    -0.434 OA
BRANCH  15  24
ATOM     24  O   UNL A   1      35.992  21.713  24.149  1.00  0.00    -0.493 OA
ATOM     25  C   UNL A   1      36.688  20.970  25.184  1.00  0.00     0.278 C 
ENDBRANCH  15  24
BRANCH  17  26
ATOM     26  O   UNL A   1      32.445  20.744  25.118  1.00  0.00    -0.492 OA
ATOM     27  C   UNL A   1      33.361  19.600  25.181  1.00  0.00     0.278 C 
ENDBRANCH  17  26
ENDBRANCH  12  14
ENDBRANCH   8  12
ENDBRANCH   4   7
ENDBRANCH   2   3
ENDBRANCH   1   2
BRANCH   1  28
ATOM     28  C   UNL A   1      31.821  29.857  25.566  1.00  0.00     0.118 C 
BRANCH  28  29
ATOM     29  N   UNL A   1      31.611  31.779  26.391  1.00  0.00    -0.352 N 
ATOM     30  C   UNL A   1      32.594  32.839  27.314  1.00  0.00     0.251 C 
ATOM     31  H   UNL A   1      30.727  32.170  26.200  1.00  0.00     0.163 HD
ATOM     32  O   UNL A   1      32.050  33.931  27.532  1.00  0.00    -0.269 OA
BRANCH  30  33
ATOM     33  C   UNL A   1      34.231  32.578  27.998  1.00  0.00     0.039 A 
ATOM     34  C   UNL A   1      35.239  33.557  28.009  1.00  0.00     0.014 A 
ATOM     35  C   UNL A   1      34.705  31.414  28.701  1.00  0.00     0.014 A 
ATOM     36  C   UNL A   1      36.552  33.322  28.634  1.00  0.00     0.010 A 
ATOM     37  C   UNL A   1      35.960  31.116  29.190  1.00  0.00     0.010 A 
ATOM     38  C   UNL A   1      36.924  32.080  29.199  1.00  0.00    -0.014 A 
BRANCH  38  39
ATOM     39  C   UNL A   1      38.156  31.579  29.891  1.00  0.00     0.031 A 
ATOM     40  C   UNL A   1      38.857  30.336  29.364  1.00  0.00     0.074 A 
ATOM     41  C   UNL A   1      38.318  31.862  31.209  1.00  0.00     0.049 A 
ATOM     42  N   UNL A   1      39.885  29.686  29.850  1.00  0.00    -0.248 NA
ATOM     43  C   UNL A   1      38.279  29.708  28.160  1.00  0.00     0.031 C 
ATOM     44  C   UNL A   1      37.453  32.757  31.989  1.00  0.00     0.029 A 
ATOM     45  N   UNL A   1      39.178  31.345  32.156  1.00  0.00    -0.354 N 
ATOM     46  C   UNL A   1      40.107  28.609  28.994  1.00  0.00     0.074 A 
ATOM     47  C   UNL A   1      39.057  28.646  27.999  1.00  0.00     0.031 C 
ATOM     48  C   UNL A   1      37.821  32.722  33.282  1.00  0.00     0.029 A 
ATOM     49  C   UNL A   1      38.965  31.830  33.431  1.00  0.00     0.049 A 
ATOM     50  H   UNL A   1      39.880  30.691  31.942  1.00  0.00     0.167 HD
ATOM     51  C   UNL A   1      41.114  27.698  29.014  1.00  0.00     0.034 A 
ATOM     52  C   UNL A   1      39.636  31.611  34.583  1.00  0.00     0.034 A 
ATOM     53  C   UNL A   1      42.106  27.643  30.057  1.00  0.00     0.049 A 
ATOM     54  C   UNL A   1      40.849  30.718  34.552  1.00  0.00     0.074 A 
ATOM     55  C   UNL A   1      43.273  26.901  30.110  1.00  0.00     0.029 A 
ATOM     56  N   UNL A   1      42.014  28.329  31.258  1.00  0.00    -0.354 N 
ATOM     57  N   UNL A   1      41.290  29.966  33.574  1.00  0.00    -0.248 NA
ATOM     58  C   UNL A   1      41.698  30.693  35.755  1.00  0.00     0.031 C 
ATOM     59  C   UNL A   1      43.871  27.117  31.358  1.00  0.00     0.029 A 
ATOM     60  C   UNL A   1      43.098  28.024  32.064  1.00  0.00     0.049 A 
ATOM     61  H   UNL A   1      41.285  28.944  31.503  1.00  0.00     0.167 HD
ATOM     62  C   UNL A   1      42.489  29.421  34.018  1.00  0.00     0.074 A 
ATOM     63  C   UNL A   1      42.711  29.934  35.355  1.00  0.00     0.031 C 
ATOM     64  C   UNL A   1      43.330  28.573  33.375  1.00  0.00     0.034 A 
BRANCH  51  65
ATOM     65  C   UNL A   1      41.274  26.772  27.826  1.00  0.00     0.023 A 
ATOM     66  C   UNL A   1      41.955  27.254  26.687  1.00  0.00     0.012 A 
ATOM     67  C   UNL A   1      40.882  25.418  27.860  1.00  0.00     0.148 A 
ATOM     68  C   UNL A   1      42.208  26.425  25.593  1.00  0.00     0.002 A 
ATOM     69  C   UNL A   1      41.174  24.585  26.780  1.00  0.00     0.091 A 
ATOM     70  F   UNL A   1      40.236  24.965  28.944  1.00  0.00    -0.205 F 
ATOM     71  C   UNL A   1      41.826  25.091  25.644  1.00  0.00     0.022 A 
BRANCH  69  72
ATOM     72  S   UNL A   1      40.801  22.826  26.767  1.00  0.00     0.127 S 
ATOM     73  O   UNL A   1      41.231  22.422  28.105  1.00  0.00    -0.237 OA
ATOM     74  O   UNL A   1      39.350  22.820  26.569  1.00  0.00    -0.237 OA
ATOM     75  O   UNL A   1      41.568  22.257  25.669  1.00  0.00    -0.744 OA
ENDBRANCH  69  72
ENDBRANCH  51  65
BRANCH  52  76
ATOM     76  C   UNL A   1      39.290  32.391  35.810  1.00  0.00     0.023 A 
ATOM     77  C   UNL A   1      39.802  33.698  35.949  1.00  0.00     0.012 A 
ATOM     78  C   UNL A   1      38.433  31.886  36.805  1.00  0.00     0.148 A 
ATOM     79  C   UNL A   1      39.495  34.475  37.068  1.00  0.00     0.002 A 
ATOM     80  C   UNL A   1      38.090  32.684  37.895  1.00  0.00     0.091 A 
ATOM     81  F   UNL A   1      37.959  30.640  36.663  1.00  0.00    -0.205 F 
ATOM     82  C   UNL A   1      38.632  33.972  38.035  1.00  0.00     0.022 A 
BRANCH  80  83
ATOM     83  S   UNL A   1      36.889  32.175  39.131  1.00  0.00     0.127 S 
ATOM     84  O   UNL A   1      37.371  32.869  40.322  1.00  0.00    -0.237 OA
ATOM     85  O   UNL A   1      35.641  32.701  38.574  1.00  0.00    -0.237 OA
ATOM     86  O   UNL A   1      36.962  30.721  39.174  1.00  0.00    -0.744 OA
ENDBRANCH  80  83
ENDBRANCH  52  76
BRANCH  64  87
ATOM     87  C   UNL A   1      44.600  28.173  34.078  1.00  0.00     0.023 A 
ATOM     88  C   UNL A   1      45.754  28.972  33.968  1.00  0.00     0.012 A 
ATOM     89  C   UNL A   1      44.613  27.047  34.925  1.00  0.00     0.148 A 
ATOM     90  C   UNL A   1      46.912  28.641  34.670  1.00  0.00     0.002 A 
ATOM     91  C   UNL A   1      45.753  26.753  35.662  1.00  0.00     0.091 A 
ATOM     92  F   UNL A   1      43.508  26.291  35.000  1.00  0.00    -0.205 F 
ATOM     93  C   UNL A   1      46.907  27.542  35.526  1.00  0.00     0.022 A 
BRANCH  91  94
ATOM     94  S   UNL A   1      45.809  25.420  36.863  1.00  0.00     0.127 S 
ATOM     95  O   UNL A   1      45.754  24.240  36.001  1.00  0.00    -0.237 OA
ATOM     96  O   UNL A   1      47.101  25.644  37.511  1.00  0.00    -0.237 OA
ATOM     97  O   UNL A   1      44.653  25.607  37.731  1.00  0.00    -0.744 OA
ENDBRANCH  91  94
ENDBRANCH  64  87
ENDBRANCH  38  39
ENDBRANCH  30  33
ENDBRANCH  28  29
ENDBRANCH   1  28
TORSDOF 17
ENDMDL
MODEL 2
REMARK VINA RESULT:     -14.2      4.522     10.682
REMARK SMILES COc1ccc2c(c1OC)C(=O)O[C@@H]2Nc1nonc1C(=O)NCCCNC(=O)c1ccc(-c2c3nc(c(-c4cccc(S(=O)(=O)[O-])c4F)c4ccc([nH]4)c(-c4cccc(S(=O)(=O)[O-])c4F)c4nc(c(-c5cccc(S(=O)(=O)[O-])c5F)c5ccc2[nH]5)C=C4)C=C3)cc1
REMARK SMILES IDX 25 1 24 2 23 3 21 4 22 5 20 7 16 8 17 9 18 10 19 11 15 12
REMARK SMILES IDX 14 14 3 15 4 16 8 17 5 18 7 19 6 20 11 21 12 22 13 23 2 24
REMARK SMILES IDX 1 25 9 26 10 27 26 28 27 29 28 30 29 32 30 33 31 34 92 35
REMARK SMILES IDX 32 36 91 37 33 38 34 39 35 40 85 41 36 42 90 43 84 44 86 45
REMARK SMILES IDX 37 46 89 47 83 48 82 49 38 51 70 52 50 53 69 54 51 55 54 56
REMARK SMILES IDX 68 57 87 58 52 59 53 60 67 62 88 63 55 64 39 65 40 66 48 67
REMARK SMILES IDX 41 68 43 69 49 70 42 71 44 72 45 73 46 74 47 75 71 76 72 77
REMARK SMILES IDX 80 78 73 79 75 80 81 81 74 82 76 83 77 84 78 85 79 86 56 87
REMARK SMILES IDX 57 88 65 89 58 90 60 91 66 92 59 93 61 94 62 95 63 96 64 97
REMARK H PARENT 23 6 15 13 27 31 86 50 54 61
REMARK Flexibility Score: inf
ROOT
ATOM      1  C   UNL A   1      34.097  36.364  28.355  1.00  0.00     0.042 C 
ENDROOT
BRANCH   1   2
ATOM      2  C   UNL A   1      33.065  36.631  29.463  1.00  0.00     0.118 C 
BRANCH   2   3
ATOM      3  N   UNL A   1      33.454  37.629  30.444  1.00  0.00    -0.350 N 
ATOM      4  C   UNL A   1      33.341  37.583  31.815  1.00  0.00     0.277 C 
ATOM      5  O   UNL A   1      33.663  38.572  32.471  1.00  0.00    -0.267 OA
ATOM      6  H   UNL A   1      33.854  38.451  30.078  1.00  0.00     0.163 HD
BRANCH   4   7
ATOM      7  C   UNL A   1      32.795  36.392  32.424  1.00  0.00     0.216 A 
ATOM      8  C   UNL A   1      33.431  35.257  32.985  1.00  0.00     0.207 A 
ATOM      9  N   UNL A   1      32.501  34.314  33.170  1.00  0.00    -0.031 NA
ATOM     10  O   UNL A   1      31.295  34.876  32.794  1.00  0.00    -0.242 OA
ATOM     11  N   UNL A   1      31.470  36.179  32.370  1.00  0.00    -0.042 NA
BRANCH   8  12
ATOM     12  N   UNL A   1      34.747  34.940  33.058  1.00  0.00    -0.326 N 
ATOM     13  H   UNL A   1      35.325  35.585  32.590  1.00  0.00     0.166 HD
BRANCH  12  14
ATOM     14  C   UNL A   1      35.490  33.855  33.676  1.00  0.00     0.307 C 
ATOM     15  C   UNL A   1      40.429  34.670  33.047  1.00  0.00     0.161 A 
ATOM     16  C   UNL A   1      39.818  34.618  34.763  1.00  0.00     0.051 A 
ATOM     17  C   UNL A   1      39.181  34.274  31.648  1.00  0.00     0.175 A 
ATOM     18  C   UNL A   1      38.105  34.265  35.101  1.00  0.00     0.014 A 
ATOM     19  C   UNL A   1      37.478  33.884  32.146  1.00  0.00     0.114 A 
ATOM     20  C   UNL A   1      36.977  33.989  33.786  1.00  0.00     0.032 A 
ATOM     21  C   UNL A   1      36.331  33.185  31.551  1.00  0.00     0.344 C 
ATOM     22  O   UNL A   1      36.152  32.838  30.405  1.00  0.00    -0.246 OA
ATOM     23  O   UNL A   1      35.462  32.884  32.592  1.00  0.00    -0.434 OA
BRANCH  15  24
ATOM     24  O   UNL A   1      41.783  34.955  33.071  1.00  0.00    -0.493 OA
ATOM     25  C   UNL A   1      42.499  34.600  31.859  1.00  0.00     0.278 C 
ENDBRANCH  15  24
BRANCH  17  26
ATOM     26  O   UNL A   1      39.391  33.820  30.341  1.00  0.00    -0.492 OA
ATOM     27  C   UNL A   1      39.438  34.870  29.317  1.00  0.00     0.278 C 
ENDBRANCH  17  26
ENDBRANCH  12  14
ENDBRANCH   8  12
ENDBRANCH   4   7
ENDBRANCH   2   3
ENDBRANCH   1   2
BRANCH   1  28
ATOM     28  C   UNL A   1      34.679  34.740  28.276  1.00  0.00     0.118 C 
BRANCH  28  29
ATOM     29  N   UNL A   1      33.739  32.933  27.754  1.00  0.00    -0.352 N 
ATOM     30  C   UNL A   1      34.152  31.269  27.807  1.00  0.00     0.251 C 
ATOM     31  H   UNL A   1      32.837  33.077  27.388  1.00  0.00     0.163 HD
ATOM     32  O   UNL A   1      33.228  30.533  27.433  1.00  0.00    -0.269 OA
BRANCH  30  33
ATOM     33  C   UNL A   1      35.689  30.485  28.293  1.00  0.00     0.039 A 
ATOM     34  C   UNL A   1      36.898  30.630  27.590  1.00  0.00     0.014 A 
ATOM     35  C   UNL A   1      35.933  29.708  29.481  1.00  0.00     0.014 A 
ATOM     36  C   UNL A   1      38.154  30.017  28.057  1.00  0.00     0.010 A 
ATOM     37  C   UNL A   1      37.060  29.022  29.884  1.00  0.00     0.010 A 
ATOM     38  C   UNL A   1      38.225  29.180  29.195  1.00  0.00    -0.014 A 
BRANCH  38  39
ATOM     39  C   UNL A   1      39.340  28.451  29.882  1.00  0.00     0.031 A 
ATOM     40  C   UNL A   1      40.127  29.151  30.980  1.00  0.00     0.074 A 
ATOM     41  C   UNL A   1      39.978  27.460  29.207  1.00  0.00     0.049 A 
ATOM     42  N   UNL A   1      41.175  28.740  31.650  1.00  0.00    -0.248 NA
ATOM     43  C   UNL A   1      39.710  30.524  31.323  1.00  0.00     0.031 C 
ATOM     44  C   UNL A   1      39.563  26.931  27.901  1.00  0.00     0.029 A 
ATOM     45  N   UNL A   1      41.164  26.803  29.454  1.00  0.00    -0.354 N 
ATOM     46  C   UNL A   1      41.513  29.775  32.519  1.00  0.00     0.074 A 
ATOM     47  C   UNL A   1      40.606  30.866  32.240  1.00  0.00     0.031 C 
ATOM     48  C   UNL A   1      40.476  26.045  27.465  1.00  0.00     0.029 A 
ATOM     49  C   UNL A   1      41.528  25.910  28.467  1.00  0.00     0.049 A 
ATOM     50  H   UNL A   1      41.703  26.955  30.263  1.00  0.00     0.167 HD
ATOM     51  C   UNL A   1      42.465  29.796  33.488  1.00  0.00     0.034 A 
ATOM     52  C   UNL A   1      42.570  25.053  28.389  1.00  0.00     0.034 A 
ATOM     53  C   UNL A   1      43.400  28.721  33.697  1.00  0.00     0.049 A 
ATOM     54  C   UNL A   1      43.531  24.980  29.547  1.00  0.00     0.074 A 
ATOM     55  C   UNL A   1      44.288  28.531  34.743  1.00  0.00     0.029 A 
ATOM     56  N   UNL A   1      43.599  27.675  32.810  1.00  0.00    -0.354 N 
ATOM     57  N   UNL A   1      43.607  25.756  30.601  1.00  0.00    -0.248 NA
ATOM     58  C   UNL A   1      44.504  23.876  29.546  1.00  0.00     0.031 C 
ATOM     59  C   UNL A   1      45.044  27.385  34.469  1.00  0.00     0.029 A 
ATOM     60  C   UNL A   1      44.599  26.840  33.276  1.00  0.00     0.049 A 
ATOM     61  H   UNL A   1      43.102  27.546  31.970  1.00  0.00     0.167 HD
ATOM     62  C   UNL A   1      44.595  25.209  31.411  1.00  0.00     0.074 A 
ATOM     63  C   UNL A   1      45.087  24.029  30.729  1.00  0.00     0.031 C 
ATOM     64  C   UNL A   1      45.051  25.645  32.611  1.00  0.00     0.034 A 
BRANCH  51  65
ATOM     65  C   UNL A   1      42.472  30.951  34.469  1.00  0.00     0.023 A 
ATOM     66  C   UNL A   1      41.489  30.975  35.482  1.00  0.00     0.012 A 
ATOM     67  C   UNL A   1      43.487  31.929  34.485  1.00  0.00     0.148 A 
ATOM     68  C   UNL A   1      41.490  31.965  36.465  1.00  0.00     0.002 A 
ATOM     69  C   UNL A   1      43.506  32.891  35.494  1.00  0.00     0.091 A 
ATOM     70  F   UNL A   1      44.419  31.902  33.521  1.00  0.00    -0.205 F 
ATOM     71  C   UNL A   1      42.503  32.916  36.476  1.00  0.00     0.022 A 
BRANCH  69  72
ATOM     72  S   UNL A   1      44.809  34.121  35.656  1.00  0.00     0.127 S 
ATOM     73  O   UNL A   1      44.663  34.871  34.408  1.00  0.00    -0.237 OA
ATOM     74  O   UNL A   1      44.395  34.852  36.855  1.00  0.00    -0.237 OA
ATOM     75  O   UNL A   1      46.053  33.378  35.793  1.00  0.00    -0.744 OA
ENDBRANCH  69  72
ENDBRANCH  51  65
BRANCH  52  76
ATOM     76  C   UNL A   1      42.649  24.071  27.265  1.00  0.00     0.023 A 
ATOM     77  C   UNL A   1      43.354  24.433  26.097  1.00  0.00     0.012 A 
ATOM     78  C   UNL A   1      42.090  22.783  27.350  1.00  0.00     0.148 A 
ATOM     79  C   UNL A   1      43.472  23.547  25.025  1.00  0.00     0.002 A 
ATOM     80  C   UNL A   1      42.254  21.885  26.298  1.00  0.00     0.091 A 
ATOM     81  F   UNL A   1      41.418  22.456  28.464  1.00  0.00    -0.205 F 
ATOM     82  C   UNL A   1      42.932  22.270  25.130  1.00  0.00     0.022 A 
BRANCH  80  83
ATOM     83  S   UNL A   1      41.701  20.176  26.386  1.00  0.00     0.127 S 
ATOM     84  O   UNL A   1      40.258  20.319  26.219  1.00  0.00    -0.237 OA
ATOM     85  O   UNL A   1      42.397  19.576  25.246  1.00  0.00    -0.237 OA
ATOM     86  O   UNL A   1      42.143  19.687  27.684  1.00  0.00    -0.744 OA
ENDBRANCH  80  83
ENDBRANCH  52  76
BRANCH  64  87
ATOM     87  C   UNL A   1      46.108  24.825  33.303  1.00  0.00     0.023 A 
ATOM     88  C   UNL A   1      47.463  25.199  33.221  1.00  0.00     0.012 A 
ATOM     89  C   UNL A   1      45.736  23.735  34.115  1.00  0.00     0.148 A 
ATOM     90  C   UNL A   1      48.437  24.482  33.914  1.00  0.00     0.002 A 
ATOM     91  C   UNL A   1      46.705  23.058  34.844  1.00  0.00     0.091 A 
ATOM     92  F   UNL A   1      44.442  23.386  34.163  1.00  0.00    -0.205 F 
ATOM     93  C   UNL A   1      48.056  23.422  34.735  1.00  0.00     0.022 A 
BRANCH  91  94
ATOM     94  S   UNL A   1      46.300  21.747  36.003  1.00  0.00     0.127 S 
ATOM     95  O   UNL A   1      45.453  22.451  36.964  1.00  0.00    -0.237 OA
ATOM     96  O   UNL A   1      45.594  20.791  35.150  1.00  0.00    -0.237 OA
ATOM     97  O   UNL A   1      47.570  21.267  36.532  1.00  0.00    -0.744 OA
ENDBRANCH  91  94
ENDBRANCH  64  87
ENDBRANCH  38  39
ENDBRANCH  30  33
ENDBRANCH  28  29
ENDBRANCH   1  28
TORSDOF 17
ENDMDL
MODEL 3
REMARK VINA RESULT:     -14.1      1.091      2.216
REMARK SMILES COc1ccc2c(c1OC)C(=O)O[C@@H]2Nc1nonc1C(=O)NCCCNC(=O)c1ccc(-c2c3nc(c(-c4cccc(S(=O)(=O)[O-])c4F)c4ccc([nH]4)c(-c4cccc(S(=O)(=O)[O-])c4F)c4nc(c(-c5cccc(S(=O)(=O)[O-])c5F)c5ccc2[nH]5)C=C4)C=C3)cc1
REMARK SMILES IDX 25 1 24 2 23 3 21 4 22 5 20 7 16 8 17 9 18 10 19 11 15 12
REMARK SMILES IDX 14 14 3 15 4 16 8 17 5 18 7 19 6 20 11 21 12 22 13 23 2 24
REMARK SMILES IDX 1 25 9 26 10 27 26 28 27 29 28 30 29 32 30 33 31 34 92 35
REMARK SMILES IDX 32 36 91 37 33 38 34 39 35 40 85 41 36 42 90 43 84 44 86 45
REMARK SMILES IDX 37 46 89 47 83 48 82 49 38 51 70 52 50 53 69 54 51 55 54 56
REMARK SMILES IDX 68 57 87 58 52 59 53 60 67 62 88 63 55 64 39 65 40 66 48 67
REMARK SMILES IDX 41 68 43 69 49 70 42 71 44 72 45 73 46 74 47 75 71 76 72 77
REMARK SMILES IDX 80 78 73 79 75 80 81 81 74 82 76 83 77 84 78 85 79 86 56 87
REMARK SMILES IDX 57 88 65 89 58 90 60 91 66 92 59 93 61 94 62 95 63 96 64 97
REMARK H PARENT 23 6 15 13 27 31 86 50 54 61
REMARK Flexibility Score: inf
ROOT
ATOM      1  C   UNL A   1      32.275  28.912  27.020  1.00  0.00     0.042 C 
ENDROOT
BRANCH   1   2
ATOM      2  C   UNL A   1      32.196  27.682  26.099  1.00  0.00     0.118 C 
BRANCH   2   3
ATOM      3  N   UNL A   1      31.133  26.743  26.411  1.00  0.00    -0.350 N 
ATOM      4  C   UNL A   1      30.243  26.132  25.557  1.00  0.00     0.277 C 
ATOM      5  O   UNL A   1      29.360  25.419  26.031  1.00  0.00    -0.267 OA
ATOM      6  H   UNL A   1      31.036  26.512  27.363  1.00  0.00     0.163 HD
BRANCH   4   7
ATOM      7  C   UNL A   1      30.349  26.397  24.141  1.00  0.00     0.216 A 
ATOM      8  C   UNL A   1      31.111  25.764  23.128  1.00  0.00     0.207 A 
ATOM      9  N   UNL A   1      31.076  26.541  22.041  1.00  0.00    -0.031 NA
ATOM     10  O   UNL A   1      30.251  27.607  22.349  1.00  0.00    -0.242 OA
ATOM     11  N   UNL A   1      29.766  27.497  23.638  1.00  0.00    -0.042 NA
BRANCH   8  12
ATOM     12  N   UNL A   1      32.010  24.752  23.216  1.00  0.00    -0.326 N 
ATOM     13  H   UNL A   1      32.289  24.564  24.140  1.00  0.00     0.166 HD
BRANCH  12  14
ATOM     14  C   UNL A   1      32.651  23.887  22.240  1.00  0.00     0.307 C 
ATOM     15  C   UNL A   1      33.347  19.328  24.286  1.00  0.00     0.161 A 
ATOM     16  C   UNL A   1      32.267  19.413  22.821  1.00  0.00     0.051 A 
ATOM     17  C   UNL A   1      34.229  20.939  24.834  1.00  0.00     0.175 A 
ATOM     18  C   UNL A   1      32.012  20.961  21.977  1.00  0.00     0.014 A 
ATOM     19  C   UNL A   1      33.911  22.431  23.848  1.00  0.00     0.114 A 
ATOM     20  C   UNL A   1      32.774  22.430  22.560  1.00  0.00     0.032 A 
ATOM     21  C   UNL A   1      34.583  23.717  23.622  1.00  0.00     0.344 C 
ATOM     22  O   UNL A   1      35.490  24.231  24.239  1.00  0.00    -0.246 OA
ATOM     23  O   UNL A   1      34.043  24.252  22.459  1.00  0.00    -0.434 OA
BRANCH  15  24
ATOM     24  O   UNL A   1      33.375  18.019  24.736  1.00  0.00    -0.493 OA
ATOM     25  C   UNL A   1      32.648  17.787  25.971  1.00  0.00     0.278 C 
ENDBRANCH  15  24
BRANCH  17  26
ATOM     26  O   UNL A   1      35.390  21.129  25.592  1.00  0.00    -0.492 OA
ATOM     27  C   UNL A   1      36.594  20.484  25.057  1.00  0.00     0.278 C 
ENDBRANCH  17  26
ENDBRANCH  12  14
ENDBRANCH   8  12
ENDBRANCH   4   7
ENDBRANCH   2   3
ENDBRANCH   1   2
BRANCH   1  28
ATOM     28  C   UNL A   1      31.562  30.348  26.379  1.00  0.00     0.118 C 
BRANCH  28  29
ATOM     29  N   UNL A   1      31.638  32.355  27.002  1.00  0.00    -0.352 N 
ATOM     30  C   UNL A   1      32.807  33.375  27.735  1.00  0.00     0.251 C 
ATOM     31  H   UNL A   1      30.792  32.829  26.830  1.00  0.00     0.163 HD
ATOM     32  O   UNL A   1      32.410  34.541  27.869  1.00  0.00    -0.269 OA
BRANCH  30  33
ATOM     33  C   UNL A   1      34.454  32.987  28.329  1.00  0.00     0.039 A 
ATOM     34  C   UNL A   1      35.587  33.777  28.065  1.00  0.00     0.014 A 
ATOM     35  C   UNL A   1      34.830  31.915  29.213  1.00  0.00     0.014 A 
ATOM     36  C   UNL A   1      36.912  33.455  28.622  1.00  0.00     0.010 A 
ATOM     37  C   UNL A   1      36.075  31.516  29.654  1.00  0.00     0.010 A 
ATOM     38  C   UNL A   1      37.162  32.297  29.395  1.00  0.00    -0.014 A 
BRANCH  38  39
ATOM     39  C   UNL A   1      38.376  31.742  30.076  1.00  0.00     0.031 A 
ATOM     40  C   UNL A   1      39.033  30.485  29.529  1.00  0.00     0.074 A 
ATOM     41  C   UNL A   1      38.550  32.000  31.398  1.00  0.00     0.049 A 
ATOM     42  N   UNL A   1      40.038  29.792  30.003  1.00  0.00    -0.248 NA
ATOM     43  C   UNL A   1      38.432  29.896  28.318  1.00  0.00     0.031 C 
ATOM     44  C   UNL A   1      37.718  32.913  32.194  1.00  0.00     0.029 A 
ATOM     45  N   UNL A   1      39.392  31.440  32.336  1.00  0.00    -0.354 N 
ATOM     46  C   UNL A   1      40.221  28.721  29.131  1.00  0.00     0.074 A 
ATOM     47  C   UNL A   1      39.172  28.809  28.138  1.00  0.00     0.031 C 
ATOM     48  C   UNL A   1      38.086  32.845  33.485  1.00  0.00     0.029 A 
ATOM     49  C   UNL A   1      39.199  31.912  33.618  1.00  0.00     0.049 A 
ATOM     50  H   UNL A   1      40.071  30.764  32.111  1.00  0.00     0.167 HD
ATOM     51  C   UNL A   1      41.196  27.775  29.135  1.00  0.00     0.034 A 
ATOM     52  C   UNL A   1      39.863  31.652  34.766  1.00  0.00     0.034 A 
ATOM     53  C   UNL A   1      42.187  27.670  30.175  1.00  0.00     0.049 A 
ATOM     54  C   UNL A   1      41.045  30.718  34.719  1.00  0.00     0.074 A 
ATOM     55  C   UNL A   1      43.327  26.887  30.215  1.00  0.00     0.029 A 
ATOM     56  N   UNL A   1      42.121  28.340  31.387  1.00  0.00    -0.354 N 
ATOM     57  N   UNL A   1      41.458  29.966  33.728  1.00  0.00    -0.248 NA
ATOM     58  C   UNL A   1      41.894  30.645  35.919  1.00  0.00     0.031 C 
ATOM     59  C   UNL A   1      43.934  27.064  31.464  1.00  0.00     0.029 A 
ATOM     60  C   UNL A   1      43.194  27.986  32.185  1.00  0.00     0.049 A 
ATOM     61  H   UNL A   1      41.414  28.976  31.642  1.00  0.00     0.167 HD
ATOM     62  C   UNL A   1      42.638  29.373  34.162  1.00  0.00     0.074 A 
ATOM     63  C   UNL A   1      42.879  29.858  35.506  1.00  0.00     0.031 C 
ATOM     64  C   UNL A   1      43.448  28.507  33.504  1.00  0.00     0.034 A 
BRANCH  51  65
ATOM     65  C   UNL A   1      41.322  26.862  27.933  1.00  0.00     0.023 A 
ATOM     66  C   UNL A   1      42.055  27.320  26.816  1.00  0.00     0.012 A 
ATOM     67  C   UNL A   1      40.845  25.535  27.933  1.00  0.00     0.148 A 
ATOM     68  C   UNL A   1      42.278  26.497  25.713  1.00  0.00     0.002 A 
ATOM     69  C   UNL A   1      41.106  24.705  26.844  1.00  0.00     0.091 A 
ATOM     70  F   UNL A   1      40.150  25.104  28.996  1.00  0.00    -0.205 F 
ATOM     71  C   UNL A   1      41.812  25.188  25.730  1.00  0.00     0.022 A 
BRANCH  69  72
ATOM     72  S   UNL A   1      40.623  22.973  26.789  1.00  0.00     0.127 S 
ATOM     73  O   UNL A   1      39.188  23.076  26.522  1.00  0.00    -0.237 OA
ATOM     74  O   UNL A   1      41.414  22.468  25.666  1.00  0.00    -0.237 OA
ATOM     75  O   UNL A   1      40.975  22.413  28.086  1.00  0.00    -0.744 OA
ENDBRANCH  69  72
ENDBRANCH  51  65
BRANCH  52  76
ATOM     76  C   UNL A   1      39.547  32.425  36.005  1.00  0.00     0.023 A 
ATOM     77  C   UNL A   1      40.194  33.661  36.218  1.00  0.00     0.012 A 
ATOM     78  C   UNL A   1      38.591  31.988  36.940  1.00  0.00     0.148 A 
ATOM     79  C   UNL A   1      39.921  34.430  37.350  1.00  0.00     0.002 A 
ATOM     80  C   UNL A   1      38.286  32.783  38.043  1.00  0.00     0.091 A 
ATOM     81  F   UNL A   1      37.988  30.809  36.728  1.00  0.00    -0.205 F 
ATOM     82  C   UNL A   1      38.960  33.996  38.257  1.00  0.00     0.022 A 
BRANCH  80  83
ATOM     83  S   UNL A   1      36.976  32.372  39.203  1.00  0.00     0.127 S 
ATOM     84  O   UNL A   1      37.229  30.956  39.452  1.00  0.00    -0.237 OA
ATOM     85  O   UNL A   1      37.279  33.259  40.328  1.00  0.00    -0.237 OA
ATOM     86  O   UNL A   1      35.730  32.681  38.514  1.00  0.00    -0.744 OA
ENDBRANCH  80  83
ENDBRANCH  52  76
BRANCH  64  87
ATOM     87  C   UNL A   1      44.704  28.052  34.198  1.00  0.00     0.023 A 
ATOM     88  C   UNL A   1      45.880  28.821  34.114  1.00  0.00     0.012 A 
ATOM     89  C   UNL A   1      44.684  26.903  35.014  1.00  0.00     0.148 A 
ATOM     90  C   UNL A   1      47.026  28.439  34.809  1.00  0.00     0.002 A 
ATOM     91  C   UNL A   1      45.813  26.557  35.744  1.00  0.00     0.091 A 
ATOM     92  F   UNL A   1      43.558  26.175  35.065  1.00  0.00    -0.205 F 
ATOM     93  C   UNL A   1      46.988  27.316  35.634  1.00  0.00     0.022 A 
BRANCH  91  94
ATOM     94  S   UNL A   1      45.828  25.189  36.908  1.00  0.00     0.127 S 
ATOM     95  O   UNL A   1      44.625  25.455  37.696  1.00  0.00    -0.237 OA
ATOM     96  O   UNL A   1      45.733  24.030  36.021  1.00  0.00    -0.237 OA
ATOM     97  O   UNL A   1      47.083  25.293  37.640  1.00  0.00    -0.744 OA
ENDBRANCH  91  94
ENDBRANCH  64  87
ENDBRANCH  38  39
ENDBRANCH  30  33
ENDBRANCH  28  29
ENDBRANCH   1  28
TORSDOF 17
ENDMDL
