MODEL 1
REMARK VINA RESULT:     -11.7      0.000      0.000
REMARK SMILES Cc1cccc(N2C(=O)/C(=C/c3cccn3-c3cccc(C(=O)NCCCNC(=O)c4ccc(-c5c6nc(c(-c7cccc(S(=O)(=O)[O-])c7F)c7ccc([nH]7)c(-c7cccc(S(=O)(=O)[O-])c7F)c7nc(c(-c8cccc(S(=O)(=O)[O-])c8F)c8ccc5[nH]8)C=C7)C=C6)cc4)c3)C(O)=NC2=S)c1C
REMARK SMILES IDX 26 1 25 2 24 3 22 4 23 5 21 7 17 8 18 9 94 10 19 11 20 12
REMARK SMILES IDX 16 13 12 14 13 15 14 16 15 17 11 18 7 19 8 20 98 21 9 22
REMARK SMILES IDX 10 23 97 24 99 25 95 26 6 27 1 28 2 29 3 30 100 31 4 32
REMARK SMILES IDX 101 33 5 34 96 35 27 37 28 38 29 39 30 41 31 42 32 43 93 44
REMARK SMILES IDX 33 45 92 46 34 47 35 48 36 49 86 50 37 51 91 52 85 53 87 54
REMARK SMILES IDX 38 55 90 56 84 57 83 58 39 60 71 61 51 62 70 63 52 64 55 65
REMARK SMILES IDX 69 66 88 67 53 68 54 69 68 71 89 72 56 73 40 74 41 75 49 76
REMARK SMILES IDX 42 77 44 78 50 79 43 80 45 81 46 82 47 83 48 84 72 85 73 86
REMARK SMILES IDX 81 87 74 88 76 89 82 90 75 91 77 92 78 93 79 94 80 95 57 96
REMARK SMILES IDX 58 97 66 98 59 99 61 100 67 101 60 102 62 103 63 104 64 105
REMARK SMILES IDX 65 106
REMARK H PARENT 24 6 96 36 28 40 87 59 55 70
REMARK Flexibility Score: inf
ROOT
ATOM      1  C   UNL A   1      35.991  33.027  29.739  1.00  0.00     0.042 C 
ENDROOT
BRANCH   1   2
ATOM      2  C   UNL A   1      34.732  32.449  30.395  1.00  0.00     0.118 C 
BRANCH   2   3
ATOM      3  N   UNL A   1      34.619  32.736  31.812  1.00  0.00    -0.352 N 
ATOM      4  C   UNL A   1      35.419  32.587  32.915  1.00  0.00     0.251 C 
ATOM      5  O   UNL A   1      35.022  33.106  33.960  1.00  0.00    -0.269 OA
ATOM      6  H   UNL A   1      33.750  33.140  32.038  1.00  0.00     0.163 HD
BRANCH   4   7
ATOM      7  C   UNL A   1      36.703  31.828  32.959  1.00  0.00     0.041 A 
ATOM      8  C   UNL A   1      39.134  31.625  32.978  1.00  0.00     0.046 A 
ATOM      9  C   UNL A   1      39.035  30.235  32.861  1.00  0.00     0.026 A 
ATOM     10  C   UNL A   1      37.969  32.403  33.030  1.00  0.00     0.040 A 
ATOM     11  C   UNL A   1      37.776  29.636  32.830  1.00  0.00     0.003 A 
ATOM     12  C   UNL A   1      36.624  30.427  32.878  1.00  0.00     0.014 A 
BRANCH   8  13
ATOM     13  N   UNL A   1      40.403  32.275  32.907  1.00  0.00    -0.317 N 
ATOM     14  C   UNL A   1      41.687  31.749  33.131  1.00  0.00     0.047 A 
ATOM     15  C   UNL A   1      42.578  32.812  33.139  1.00  0.00     0.028 A 
ATOM     16  C   UNL A   1      41.848  34.001  32.954  1.00  0.00     0.020 A 
ATOM     17  C   UNL A   1      40.535  33.645  32.765  1.00  0.00     0.092 A 
BRANCH  14  18
ATOM     18  C   UNL A   1      41.923  30.346  33.218  1.00  0.00     0.046 C 
ATOM     19  N   UNL A   1      42.788  27.484  35.328  1.00  0.00    -0.251 N 
ATOM     20  C   UNL A   1      42.397  28.170  34.173  1.00  0.00     0.270 C 
ATOM     21  C   UNL A   1      43.062  28.138  36.546  1.00  0.00     0.210 C 
ATOM     22  O   UNL A   1      42.275  27.655  33.060  1.00  0.00    -0.268 OA
ATOM     23  C   UNL A   1      42.141  29.640  34.351  1.00  0.00     0.104 C 
ATOM     24  N   UNL A   1      42.534  29.389  36.742  1.00  0.00    -0.184 NA
ATOM     25  S   UNL A   1      44.055  27.497  37.769  1.00  0.00    -0.038 S 
ATOM     26  C   UNL A   1      42.124  30.082  35.748  1.00  0.00     0.226 C 
BRANCH  19  27
ATOM     27  C   UNL A   1      43.025  26.071  35.195  1.00  0.00     0.055 A 
ATOM     28  C   UNL A   1      45.754  23.540  34.232  1.00  0.00     0.044 C 
ATOM     29  C   UNL A   1      44.445  24.163  34.641  1.00  0.00    -0.046 A 
ATOM     30  C   UNL A   1      43.342  23.317  34.845  1.00  0.00     0.004 A 
ATOM     31  C   UNL A   1      44.298  25.560  34.831  1.00  0.00    -0.024 A 
ATOM     32  C   UNL A   1      42.108  23.826  35.240  1.00  0.00     0.002 A 
ATOM     33  C   UNL A   1      45.481  26.488  34.684  1.00  0.00     0.047 C 
ATOM     34  C   UNL A   1      41.951  25.196  35.420  1.00  0.00     0.027 A 
ENDBRANCH  19  27
BRANCH  26  35
ATOM     35  O   UNL A   1      41.578  31.265  36.057  1.00  0.00    -0.493 OA
ATOM     36  H   UNL A   1      41.064  31.356  36.834  1.00  0.00     0.295 HD
ENDBRANCH  26  35
ENDBRANCH  14  18
ENDBRANCH   8  13
ENDBRANCH   4   7
ENDBRANCH   2   3
ENDBRANCH   1   2
BRANCH   1  37
ATOM     37  C   UNL A   1      36.167  32.484  28.321  1.00  0.00     0.118 C 
BRANCH  37  38
ATOM     38  N   UNL A   1      35.396  31.256  28.144  1.00  0.00    -0.352 N 
ATOM     39  C   UNL A   1      35.799  29.947  28.014  1.00  0.00     0.251 C 
ATOM     40  H   UNL A   1      34.420  31.387  28.113  1.00  0.00     0.163 HD
ATOM     41  O   UNL A   1      34.977  29.098  27.715  1.00  0.00    -0.269 OA
BRANCH  39  42
ATOM     42  C   UNL A   1      37.214  29.565  28.186  1.00  0.00     0.039 A 
ATOM     43  C   UNL A   1      37.582  28.993  29.412  1.00  0.00     0.014 A 
ATOM     44  C   UNL A   1      38.167  29.787  27.190  1.00  0.00     0.014 A 
ATOM     45  C   UNL A   1      38.889  28.571  29.607  1.00  0.00     0.010 A 
ATOM     46  C   UNL A   1      39.454  29.311  27.356  1.00  0.00     0.010 A 
ATOM     47  C   UNL A   1      39.811  28.703  28.561  1.00  0.00    -0.014 A 
BRANCH  47  48
ATOM     48  C   UNL A   1      41.145  28.088  28.698  1.00  0.00     0.031 A 
ATOM     49  C   UNL A   1      41.098  26.591  28.257  1.00  0.00     0.074 A 
ATOM     50  C   UNL A   1      42.114  28.931  29.178  1.00  0.00     0.049 A 
ATOM     51  N   UNL A   1      41.654  25.525  28.762  1.00  0.00    -0.248 NA
ATOM     52  C   UNL A   1      40.166  26.216  27.152  1.00  0.00     0.031 C 
ATOM     53  C   UNL A   1      41.933  30.379  29.471  1.00  0.00     0.029 A 
ATOM     54  N   UNL A   1      43.439  28.777  29.509  1.00  0.00    -0.354 N 
ATOM     55  C   UNL A   1      41.326  24.431  27.906  1.00  0.00     0.074 A 
ATOM     56  C   UNL A   1      40.286  24.891  27.041  1.00  0.00     0.031 C 
ATOM     57  C   UNL A   1      43.055  30.925  29.991  1.00  0.00     0.029 A 
ATOM     58  C   UNL A   1      44.069  29.901  30.108  1.00  0.00     0.049 A 
ATOM     59  H   UNL A   1      43.924  27.936  29.341  1.00  0.00     0.167 HD
ATOM     60  C   UNL A   1      42.065  23.279  27.835  1.00  0.00     0.034 A 
ATOM     61  C   UNL A   1      45.290  29.965  30.731  1.00  0.00     0.034 A 
ATOM     62  C   UNL A   1      43.212  23.423  28.665  1.00  0.00     0.049 A 
ATOM     63  C   UNL A   1      45.809  28.600  30.614  1.00  0.00     0.074 A 
ATOM     64  C   UNL A   1      43.531  23.163  29.968  1.00  0.00     0.029 A 
ATOM     65  N   UNL A   1      44.245  24.107  28.077  1.00  0.00    -0.354 N 
ATOM     66  N   UNL A   1      46.265  28.069  29.523  1.00  0.00    -0.248 NA
ATOM     67  C   UNL A   1      45.591  27.697  31.743  1.00  0.00     0.031 C 
ATOM     68  C   UNL A   1      44.679  23.949  30.216  1.00  0.00     0.029 A 
ATOM     69  C   UNL A   1      44.974  24.697  29.072  1.00  0.00     0.049 A 
ATOM     70  H   UNL A   1      44.428  24.163  27.110  1.00  0.00     0.167 HD
ATOM     71  C   UNL A   1      46.074  26.723  29.732  1.00  0.00     0.074 A 
ATOM     72  C   UNL A   1      45.915  26.550  31.161  1.00  0.00     0.031 C 
ATOM     73  C   UNL A   1      45.667  25.912  28.721  1.00  0.00     0.034 A 
BRANCH  60  74
ATOM     74  C   UNL A   1      42.131  22.073  26.897  1.00  0.00     0.023 A 
ATOM     75  C   UNL A   1      41.105  21.097  27.100  1.00  0.00     0.012 A 
ATOM     76  C   UNL A   1      43.230  21.673  26.117  1.00  0.00     0.148 A 
ATOM     77  C   UNL A   1      41.232  19.765  26.711  1.00  0.00     0.002 A 
ATOM     78  C   UNL A   1      43.324  20.343  25.672  1.00  0.00     0.091 A 
ATOM     79  F   UNL A   1      44.212  22.544  25.869  1.00  0.00    -0.205 F 
ATOM     80  C   UNL A   1      42.357  19.383  26.010  1.00  0.00     0.022 A 
BRANCH  78  81
ATOM     81  S   UNL A   1      44.675  19.733  24.651  1.00  0.00     0.127 S 
ATOM     82  O   UNL A   1      44.493  20.491  23.417  1.00  0.00    -0.237 OA
ATOM     83  O   UNL A   1      45.849  20.130  25.435  1.00  0.00    -0.237 OA
ATOM     84  O   UNL A   1      44.482  18.292  24.563  1.00  0.00    -0.744 OA
ENDBRANCH  78  81
ENDBRANCH  60  74
BRANCH  61  85
ATOM     85  C   UNL A   1      46.046  30.929  31.621  1.00  0.00     0.023 A 
ATOM     86  C   UNL A   1      46.908  31.929  31.149  1.00  0.00     0.012 A 
ATOM     87  C   UNL A   1      45.857  30.893  33.039  1.00  0.00     0.148 A 
ATOM     88  C   UNL A   1      47.458  32.893  32.022  1.00  0.00     0.002 A 
ATOM     89  C   UNL A   1      46.304  31.907  33.881  1.00  0.00     0.091 A 
ATOM     90  F   UNL A   1      45.261  29.836  33.602  1.00  0.00    -0.205 F 
ATOM     91  C   UNL A   1      47.119  32.912  33.375  1.00  0.00     0.022 A 
BRANCH  89  92
ATOM     92  S   UNL A   1      45.736  32.050  35.590  1.00  0.00     0.127 S 
ATOM     93  O   UNL A   1      44.364  32.526  35.424  1.00  0.00    -0.237 OA
ATOM     94  O   UNL A   1      45.853  30.668  36.055  1.00  0.00    -0.237 OA
ATOM     95  O   UNL A   1      46.642  32.983  36.247  1.00  0.00    -0.744 OA
ENDBRANCH  89  92
ENDBRANCH  61  85
BRANCH  73  96
ATOM     96  C   UNL A   1      45.690  26.575  27.328  1.00  0.00     0.023 A 
ATOM     97  C   UNL A   1      44.470  27.026  26.798  1.00  0.00     0.012 A 
ATOM     98  C   UNL A   1      46.822  26.646  26.470  1.00  0.00     0.148 A 
ATOM     99  C   UNL A   1      44.375  27.510  25.487  1.00  0.00     0.002 A 
ATOM    100  C   UNL A   1      46.727  27.110  25.153  1.00  0.00     0.091 A 
ATOM    101  F   UNL A   1      48.003  26.271  26.949  1.00  0.00    -0.205 F 
ATOM    102  C   UNL A   1      45.497  27.549  24.664  1.00  0.00     0.022 A 
BRANCH 100 103
ATOM    103  S   UNL A   1      48.106  27.114  23.978  1.00  0.00     0.127 S 
ATOM    104  O   UNL A   1      47.565  27.885  22.856  1.00  0.00    -0.237 OA
ATOM    105  O   UNL A   1      49.152  27.803  24.727  1.00  0.00    -0.237 OA
ATOM    106  O   UNL A   1      48.385  25.719  23.653  1.00  0.00    -0.744 OA
ENDBRANCH 100 103
ENDBRANCH  73  96
ENDBRANCH  47  48
ENDBRANCH  39  42
ENDBRANCH  37  38
ENDBRANCH   1  37
TORSDOF 17
ENDMDL
MODEL 2
REMARK VINA RESULT:     -11.5      3.654     10.190
REMARK SMILES Cc1cccc(N2C(=O)/C(=C/c3cccn3-c3cccc(C(=O)NCCCNC(=O)c4ccc(-c5c6nc(c(-c7cccc(S(=O)(=O)[O-])c7F)c7ccc([nH]7)c(-c7cccc(S(=O)(=O)[O-])c7F)c7nc(c(-c8cccc(S(=O)(=O)[O-])c8F)c8ccc5[nH]8)C=C7)C=C6)cc4)c3)C(O)=NC2=S)c1C
REMARK SMILES IDX 26 1 25 2 24 3 22 4 23 5 21 7 17 8 18 9 94 10 19 11 20 12
REMARK SMILES IDX 16 13 12 14 13 15 14 16 15 17 11 18 7 19 8 20 98 21 9 22
REMARK SMILES IDX 10 23 97 24 99 25 95 26 6 27 1 28 2 29 3 30 100 31 4 32
REMARK SMILES IDX 101 33 5 34 96 35 27 37 28 38 29 39 30 41 31 42 32 43 93 44
REMARK SMILES IDX 33 45 92 46 34 47 35 48 36 49 86 50 37 51 91 52 85 53 87 54
REMARK SMILES IDX 38 55 90 56 84 57 83 58 39 60 71 61 51 62 70 63 52 64 55 65
REMARK SMILES IDX 69 66 88 67 53 68 54 69 68 71 89 72 56 73 40 74 41 75 49 76
REMARK SMILES IDX 42 77 44 78 50 79 43 80 45 81 46 82 47 83 48 84 72 85 73 86
REMARK SMILES IDX 81 87 74 88 76 89 82 90 75 91 77 92 78 93 79 94 80 95 57 96
REMARK SMILES IDX 58 97 66 98 59 99 61 100 67 101 60 102 62 103 63 104 64 105
REMARK SMILES IDX 65 106
REMARK H PARENT 24 6 96 36 28 40 87 59 55 70
REMARK Flexibility Score: inf
ROOT
ATOM      1  C   UNL A   1      42.483  23.545  28.758  1.00  0.00     0.042 C 
ENDROOT
BRANCH   1   2
ATOM      2  C   UNL A   1      43.163  24.766  29.388  1.00  0.00     0.118 C 
BRANCH   2   3
ATOM      3  N   UNL A   1      44.576  24.881  29.077  1.00  0.00    -0.352 N 
ATOM      4  C   UNL A   1      45.707  25.246  29.758  1.00  0.00     0.251 C 
ATOM      5  O   UNL A   1      46.782  25.065  29.181  1.00  0.00    -0.269 OA
ATOM      6  H   UNL A   1      44.769  24.635  28.144  1.00  0.00     0.163 HD
BRANCH   4   7
ATOM      7  C   UNL A   1      45.742  25.867  31.114  1.00  0.00     0.041 A 
ATOM      8  C   UNL A   1      44.872  26.304  33.351  1.00  0.00     0.046 A 
ATOM      9  C   UNL A   1      45.864  27.266  33.566  1.00  0.00     0.026 A 
ATOM     10  C   UNL A   1      44.826  25.615  32.132  1.00  0.00     0.040 A 
ATOM     11  C   UNL A   1      46.817  27.504  32.576  1.00  0.00     0.003 A 
ATOM     12  C   UNL A   1      46.753  26.811  31.363  1.00  0.00     0.014 A 
BRANCH   8  13
ATOM     13  N   UNL A   1      43.824  26.114  34.300  1.00  0.00    -0.317 N 
ATOM     14  C   UNL A   1      43.738  25.197  35.362  1.00  0.00     0.047 A 
ATOM     15  C   UNL A   1      42.449  25.262  35.868  1.00  0.00     0.028 A 
ATOM     16  C   UNL A   1      41.721  26.193  35.103  1.00  0.00     0.020 A 
ATOM     17  C   UNL A   1      42.592  26.735  34.189  1.00  0.00     0.092 A 
BRANCH  14  18
ATOM     18  C   UNL A   1      44.871  24.459  35.814  1.00  0.00     0.046 C 
ATOM     19  N   UNL A   1      46.582  21.229  35.996  1.00  0.00    -0.251 N 
ATOM     20  C   UNL A   1      46.394  22.606  36.157  1.00  0.00     0.270 C 
ATOM     21  C   UNL A   1      45.610  20.393  35.411  1.00  0.00     0.210 C 
ATOM     22  O   UNL A   1      47.158  23.349  36.777  1.00  0.00    -0.268 OA
ATOM     23  C   UNL A   1      45.149  23.167  35.530  1.00  0.00     0.104 C 
ATOM     24  N   UNL A   1      44.663  20.967  34.602  1.00  0.00    -0.184 NA
ATOM     25  S   UNL A   1      45.503  18.718  35.691  1.00  0.00    -0.038 S 
ATOM     26  C   UNL A   1      44.440  22.225  34.658  1.00  0.00     0.226 C 
BRANCH  19  27
ATOM     27  C   UNL A   1      47.773  20.665  36.570  1.00  0.00     0.055 A 
ATOM     28  C   UNL A   1      51.323  19.509  35.645  1.00  0.00     0.044 C 
ATOM     29  C   UNL A   1      50.055  19.808  36.402  1.00  0.00    -0.046 A 
ATOM     30  C   UNL A   1      49.992  19.451  37.760  1.00  0.00     0.004 A 
ATOM     31  C   UNL A   1      48.941  20.438  35.794  1.00  0.00    -0.024 A 
ATOM     32  C   UNL A   1      48.857  19.713  38.520  1.00  0.00     0.002 A 
ATOM     33  C   UNL A   1      49.002  20.894  34.355  1.00  0.00     0.047 C 
ATOM     34  C   UNL A   1      47.754  20.323  37.931  1.00  0.00     0.027 A 
ENDBRANCH  19  27
BRANCH  26  35
ATOM     35  O   UNL A   1      43.534  22.689  33.789  1.00  0.00    -0.493 OA
ATOM     36  H   UNL A   1      42.624  22.682  34.011  1.00  0.00     0.295 HD
ENDBRANCH  26  35
ENDBRANCH  14  18
ENDBRANCH   8  13
ENDBRANCH   4   7
ENDBRANCH   2   3
ENDBRANCH   1   2
BRANCH   1  37
ATOM     37  C   UNL A   1      42.475  23.651  27.233  1.00  0.00     0.118 C 
BRANCH  37  38
ATOM     38  N   UNL A   1      41.143  23.360  26.707  1.00  0.00    -0.352 N 
ATOM     39  C   UNL A   1      39.961  24.057  26.807  1.00  0.00     0.251 C 
ATOM     40  H   UNL A   1      41.081  22.523  26.194  1.00  0.00     0.163 HD
ATOM     41  O   UNL A   1      38.929  23.537  26.417  1.00  0.00    -0.269 OA
BRANCH  39  42
ATOM     42  C   UNL A   1      39.917  25.400  27.416  1.00  0.00     0.039 A 
ATOM     43  C   UNL A   1      39.327  25.513  28.683  1.00  0.00     0.014 A 
ATOM     44  C   UNL A   1      40.408  26.528  26.757  1.00  0.00     0.014 A 
ATOM     45  C   UNL A   1      39.304  26.745  29.321  1.00  0.00     0.010 A 
ATOM     46  C   UNL A   1      40.444  27.744  27.414  1.00  0.00     0.010 A 
ATOM     47  C   UNL A   1      39.894  27.848  28.694  1.00  0.00    -0.014 A 
BRANCH  47  48
ATOM     48  C   UNL A   1      40.038  29.110  29.445  1.00  0.00     0.031 A 
ATOM     49  C   UNL A   1      38.796  30.025  29.207  1.00  0.00     0.074 A 
ATOM     50  C   UNL A   1      41.200  29.214  30.166  1.00  0.00     0.049 A 
ATOM     51  N   UNL A   1      38.697  31.313  29.018  1.00  0.00    -0.248 NA
ATOM     52  C   UNL A   1      37.469  29.369  29.015  1.00  0.00     0.031 C 
ATOM     53  C   UNL A   1      42.233  28.150  30.300  1.00  0.00     0.029 A 
ATOM     54  N   UNL A   1      41.763  30.202  30.939  1.00  0.00    -0.354 N 
ATOM     55  C   UNL A   1      37.307  31.620  28.926  1.00  0.00     0.074 A 
ATOM     56  C   UNL A   1      36.625  30.374  28.768  1.00  0.00     0.031 C 
ATOM     57  C   UNL A   1      43.294  28.575  31.023  1.00  0.00     0.029 A 
ATOM     58  C   UNL A   1      43.077  29.949  31.418  1.00  0.00     0.049 A 
ATOM     59  H   UNL A   1      41.283  31.035  31.149  1.00  0.00     0.167 HD
ATOM     60  C   UNL A   1      36.789  32.863  29.179  1.00  0.00     0.034 A 
ATOM     61  C   UNL A   1      43.952  30.823  32.011  1.00  0.00     0.034 A 
ATOM     62  C   UNL A   1      37.842  33.712  29.623  1.00  0.00     0.049 A 
ATOM     63  C   UNL A   1      43.203  32.083  32.059  1.00  0.00     0.074 A 
ATOM     64  C   UNL A   1      38.741  34.561  29.041  1.00  0.00     0.029 A 
ATOM     65  N   UNL A   1      38.143  33.579  30.954  1.00  0.00    -0.354 N 
ATOM     66  N   UNL A   1      42.223  32.334  32.869  1.00  0.00    -0.248 NA
ATOM     67  C   UNL A   1      43.420  33.036  30.973  1.00  0.00     0.031 C 
ATOM     68  C   UNL A   1      39.755  34.724  30.013  1.00  0.00     0.029 A 
ATOM     69  C   UNL A   1      39.457  33.922  31.120  1.00  0.00     0.049 A 
ATOM     70  H   UNL A   1      37.524  33.289  31.663  1.00  0.00     0.167 HD
ATOM     71  C   UNL A   1      41.505  33.295  32.195  1.00  0.00     0.074 A 
ATOM     72  C   UNL A   1      42.402  33.854  31.204  1.00  0.00     0.031 C 
ATOM     73  C   UNL A   1      40.148  33.292  32.217  1.00  0.00     0.034 A 
BRANCH  60  74
ATOM     74  C   UNL A   1      35.393  33.447  29.400  1.00  0.00     0.023 A 
ATOM     75  C   UNL A   1      34.655  33.708  28.203  1.00  0.00     0.012 A 
ATOM     76  C   UNL A   1      34.905  34.040  30.578  1.00  0.00     0.148 A 
ATOM     77  C   UNL A   1      33.611  34.630  28.136  1.00  0.00     0.002 A 
ATOM     78  C   UNL A   1      33.812  34.921  30.516  1.00  0.00     0.091 A 
ATOM     79  F   UNL A   1      35.534  33.817  31.735  1.00  0.00    -0.205 F 
ATOM     80  C   UNL A   1      33.201  35.253  29.295  1.00  0.00     0.022 A 
BRANCH  78  81
ATOM     81  S   UNL A   1      33.096  35.715  31.964  1.00  0.00     0.127 S 
ATOM     82  O   UNL A   1      32.599  34.572  32.725  1.00  0.00    -0.237 OA
ATOM     83  O   UNL A   1      34.264  36.373  32.556  1.00  0.00    -0.237 OA
ATOM     84  O   UNL A   1      32.094  36.639  31.450  1.00  0.00    -0.744 OA
ENDBRANCH  78  81
ENDBRANCH  60  74
BRANCH  61  85
ATOM     85  C   UNL A   1      45.422  30.868  32.371  1.00  0.00     0.023 A 
ATOM     86  C   UNL A   1      46.463  30.924  31.435  1.00  0.00     0.012 A 
ATOM     87  C   UNL A   1      45.821  30.915  33.745  1.00  0.00     0.148 A 
ATOM     88  C   UNL A   1      47.802  31.122  31.839  1.00  0.00     0.002 A 
ATOM     89  C   UNL A   1      47.120  31.224  34.137  1.00  0.00     0.091 A 
ATOM     90  F   UNL A   1      44.937  30.619  34.703  1.00  0.00    -0.205 F 
ATOM     91  C   UNL A   1      48.124  31.321  33.181  1.00  0.00     0.022 A 
BRANCH  89  92
ATOM     92  S   UNL A   1      47.525  31.657  35.844  1.00  0.00     0.127 S 
ATOM     93  O   UNL A   1      46.559  32.715  36.135  1.00  0.00    -0.237 OA
ATOM     94  O   UNL A   1      47.276  30.392  36.535  1.00  0.00    -0.237 OA
ATOM     95  O   UNL A   1      48.920  32.076  35.841  1.00  0.00    -0.744 OA
ENDBRANCH  89  92
ENDBRANCH  61  85
BRANCH  73  96
ATOM     96  C   UNL A   1      39.531  32.307  33.233  1.00  0.00     0.023 A 
ATOM     97  C   UNL A   1      39.100  31.059  32.754  1.00  0.00     0.012 A 
ATOM     98  C   UNL A   1      39.235  32.606  34.591  1.00  0.00     0.148 A 
ATOM     99  C   UNL A   1      38.403  30.162  33.573  1.00  0.00     0.002 A 
ATOM    100  C   UNL A   1      38.522  31.720  35.407  1.00  0.00     0.091 A 
ATOM    101  F   UNL A   1      39.666  33.757  35.094  1.00  0.00    -0.205 F 
ATOM    102  C   UNL A   1      38.110  30.490  34.895  1.00  0.00     0.022 A 
BRANCH 100 103
ATOM    103  S   UNL A   1      38.013  32.093  37.106  1.00  0.00     0.127 S 
ATOM    104  O   UNL A   1      37.418  30.828  37.544  1.00  0.00    -0.237 OA
ATOM    105  O   UNL A   1      39.284  32.410  37.749  1.00  0.00    -0.237 OA
ATOM    106  O   UNL A   1      37.060  33.195  37.027  1.00  0.00    -0.744 OA
ENDBRANCH 100 103
ENDBRANCH  73  96
ENDBRANCH  47  48
ENDBRANCH  39  42
ENDBRANCH  37  38
ENDBRANCH   1  37
TORSDOF 17
ENDMDL
MODEL 3
REMARK VINA RESULT:     -11.2      3.915     10.401
REMARK SMILES Cc1cccc(N2C(=O)/C(=C/c3cccn3-c3cccc(C(=O)NCCCNC(=O)c4ccc(-c5c6nc(c(-c7cccc(S(=O)(=O)[O-])c7F)c7ccc([nH]7)c(-c7cccc(S(=O)(=O)[O-])c7F)c7nc(c(-c8cccc(S(=O)(=O)[O-])c8F)c8ccc5[nH]8)C=C7)C=C6)cc4)c3)C(O)=NC2=S)c1C
REMARK SMILES IDX 26 1 25 2 24 3 22 4 23 5 21 7 17 8 18 9 94 10 19 11 20 12
REMARK SMILES IDX 16 13 12 14 13 15 14 16 15 17 11 18 7 19 8 20 98 21 9 22
REMARK SMILES IDX 10 23 97 24 99 25 95 26 6 27 1 28 2 29 3 30 100 31 4 32
REMARK SMILES IDX 101 33 5 34 96 35 27 37 28 38 29 39 30 41 31 42 32 43 93 44
REMARK SMILES IDX 33 45 92 46 34 47 35 48 36 49 86 50 37 51 91 52 85 53 87 54
REMARK SMILES IDX 38 55 90 56 84 57 83 58 39 60 71 61 51 62 70 63 52 64 55 65
REMARK SMILES IDX 69 66 88 67 53 68 54 69 68 71 89 72 56 73 40 74 41 75 49 76
REMARK SMILES IDX 42 77 44 78 50 79 43 80 45 81 46 82 47 83 48 84 72 85 73 86
REMARK SMILES IDX 81 87 74 88 76 89 82 90 75 91 77 92 78 93 79 94 80 95 57 96
REMARK SMILES IDX 58 97 66 98 59 99 61 100 67 101 60 102 62 103 63 104 64 105
REMARK SMILES IDX 65 106
REMARK H PARENT 24 6 96 36 28 40 87 59 55 70
REMARK Flexibility Score: inf
ROOT
ATOM      1  C   UNL A   1      42.442  23.032  28.773  1.00  0.00     0.042 C 
ENDROOT
BRANCH   1   2
ATOM      2  C   UNL A   1      43.850  23.200  29.353  1.00  0.00     0.118 C 
BRANCH   2   3
ATOM      3  N   UNL A   1      44.600  24.300  28.773  1.00  0.00    -0.352 N 
ATOM      4  C   UNL A   1      45.394  25.310  29.250  1.00  0.00     0.251 C 
ATOM      5  O   UNL A   1      45.999  25.980  28.410  1.00  0.00    -0.269 OA
ATOM      6  H   UNL A   1      44.517  24.326  27.793  1.00  0.00     0.163 HD
BRANCH   4   7
ATOM      7  C   UNL A   1      45.558  25.680  30.686  1.00  0.00     0.041 A 
ATOM      8  C   UNL A   1      44.961  25.622  33.050  1.00  0.00     0.046 A 
ATOM      9  C   UNL A   1      45.893  26.627  33.327  1.00  0.00     0.026 A 
ATOM     10  C   UNL A   1      44.808  25.159  31.737  1.00  0.00     0.040 A 
ATOM     11  C   UNL A   1      46.685  27.133  32.296  1.00  0.00     0.003 A 
ATOM     12  C   UNL A   1      46.516  26.663  30.990  1.00  0.00     0.014 A 
BRANCH   8  13
ATOM     13  N   UNL A   1      44.066  25.159  34.062  1.00  0.00    -0.317 N 
ATOM     14  C   UNL A   1      44.046  23.928  34.739  1.00  0.00     0.047 A 
ATOM     15  C   UNL A   1      42.874  23.877  35.477  1.00  0.00     0.028 A 
ATOM     16  C   UNL A   1      42.147  25.057  35.235  1.00  0.00     0.020 A 
ATOM     17  C   UNL A   1      42.915  25.844  34.411  1.00  0.00     0.092 A 
BRANCH  14  18
ATOM     18  C   UNL A   1      45.142  23.018  34.681  1.00  0.00     0.046 C 
ATOM     19  N   UNL A   1      48.633  22.327  35.533  1.00  0.00    -0.251 N 
ATOM     20  C   UNL A   1      47.346  22.079  35.044  1.00  0.00     0.270 C 
ATOM     21  C   UNL A   1      49.009  23.565  36.091  1.00  0.00     0.210 C 
ATOM     22  O   UNL A   1      47.012  21.061  34.434  1.00  0.00    -0.268 OA
ATOM     23  C   UNL A   1      46.341  23.170  35.287  1.00  0.00     0.104 C 
ATOM     24  N   UNL A   1      48.020  24.392  36.561  1.00  0.00    -0.184 NA
ATOM     25  S   UNL A   1      50.613  24.127  36.166  1.00  0.00    -0.038 S 
ATOM     26  C   UNL A   1      46.807  24.225  36.191  1.00  0.00     0.226 C 
BRANCH  19  27
ATOM     27  C   UNL A   1      49.614  21.295  35.332  1.00  0.00     0.055 A 
ATOM     28  C   UNL A   1      51.483  18.495  37.190  1.00  0.00     0.044 C 
ATOM     29  C   UNL A   1      51.013  19.460  36.133  1.00  0.00    -0.046 A 
ATOM     30  C   UNL A   1      51.619  19.404  34.866  1.00  0.00     0.004 A 
ATOM     31  C   UNL A   1      49.985  20.405  36.374  1.00  0.00    -0.024 A 
ATOM     32  C   UNL A   1      51.220  20.256  33.841  1.00  0.00     0.002 A 
ATOM     33  C   UNL A   1      49.269  20.444  37.704  1.00  0.00     0.047 C 
ATOM     34  C   UNL A   1      50.218  21.193  34.069  1.00  0.00     0.027 A 
ENDBRANCH  19  27
BRANCH  26  35
ATOM     35  O   UNL A   1      45.915  25.052  36.751  1.00  0.00    -0.493 OA
ATOM     36  H   UNL A   1      45.329  25.545  36.211  1.00  0.00     0.295 HD
ENDBRANCH  26  35
ENDBRANCH  14  18
ENDBRANCH   8  13
ENDBRANCH   4   7
ENDBRANCH   2   3
ENDBRANCH   1   2
BRANCH   1  37
ATOM     37  C   UNL A   1      42.380  23.539  27.333  1.00  0.00     0.118 C 
BRANCH  37  38
ATOM     38  N   UNL A   1      41.062  23.282  26.756  1.00  0.00    -0.352 N 
ATOM     39  C   UNL A   1      39.893  24.005  26.819  1.00  0.00     0.251 C 
ATOM     40  H   UNL A   1      41.000  22.450  26.233  1.00  0.00     0.163 HD
ATOM     41  O   UNL A   1      38.865  23.511  26.387  1.00  0.00    -0.269 OA
BRANCH  39  42
ATOM     42  C   UNL A   1      39.857  25.344  27.437  1.00  0.00     0.039 A 
ATOM     43  C   UNL A   1      39.318  25.443  28.728  1.00  0.00     0.014 A 
ATOM     44  C   UNL A   1      40.306  26.482  26.766  1.00  0.00     0.014 A 
ATOM     45  C   UNL A   1      39.306  26.671  29.374  1.00  0.00     0.010 A 
ATOM     46  C   UNL A   1      40.354  27.695  27.428  1.00  0.00     0.010 A 
ATOM     47  C   UNL A   1      39.856  27.785  28.730  1.00  0.00    -0.014 A 
BRANCH  47  48
ATOM     48  C   UNL A   1      40.014  29.044  29.482  1.00  0.00     0.031 A 
ATOM     49  C   UNL A   1      38.791  29.981  29.233  1.00  0.00     0.074 A 
ATOM     50  C   UNL A   1      41.172  29.129  30.213  1.00  0.00     0.049 A 
ATOM     51  N   UNL A   1      38.715  31.269  29.042  1.00  0.00    -0.248 NA
ATOM     52  C   UNL A   1      37.455  29.347  29.029  1.00  0.00     0.031 C 
ATOM     53  C   UNL A   1      42.185  28.047  30.357  1.00  0.00     0.029 A 
ATOM     54  N   UNL A   1      41.745  30.107  30.991  1.00  0.00    -0.354 N 
ATOM     55  C   UNL A   1      37.332  31.600  28.938  1.00  0.00     0.074 A 
ATOM     56  C   UNL A   1      36.630  30.366  28.774  1.00  0.00     0.031 C 
ATOM     57  C   UNL A   1      43.246  28.454  31.089  1.00  0.00     0.029 A 
ATOM     58  C   UNL A   1      43.049  29.832  31.482  1.00  0.00     0.049 A 
ATOM     59  H   UNL A   1      41.277  30.948  31.197  1.00  0.00     0.167 HD
ATOM     60  C   UNL A   1      36.833  32.852  29.186  1.00  0.00     0.034 A 
ATOM     61  C   UNL A   1      43.935  30.691  32.083  1.00  0.00     0.034 A 
ATOM     62  C   UNL A   1      37.896  33.683  29.639  1.00  0.00     0.049 A 
ATOM     63  C   UNL A   1      43.207  31.963  32.124  1.00  0.00     0.074 A 
ATOM     64  C   UNL A   1      38.814  34.516  29.066  1.00  0.00     0.029 A 
ATOM     65  N   UNL A   1      38.183  33.546  30.973  1.00  0.00    -0.354 N 
ATOM     66  N   UNL A   1      42.224  32.231  32.925  1.00  0.00    -0.248 NA
ATOM     67  C   UNL A   1      43.450  32.913  31.039  1.00  0.00     0.031 C 
ATOM     68  C   UNL A   1      39.822  34.663  30.046  1.00  0.00     0.029 A 
ATOM     69  C   UNL A   1      39.501  33.866  31.150  1.00  0.00     0.049 A 
ATOM     70  H   UNL A   1      37.553  33.266  31.676  1.00  0.00     0.167 HD
ATOM     71  C   UNL A   1      41.529  33.204  32.245  1.00  0.00     0.074 A 
ATOM     72  C   UNL A   1      42.443  33.748  31.261  1.00  0.00     0.031 C 
ATOM     73  C   UNL A   1      40.171  33.225  32.254  1.00  0.00     0.034 A 
BRANCH  60  74
ATOM     74  C   UNL A   1      35.445  33.460  29.394  1.00  0.00     0.023 A 
ATOM     75  C   UNL A   1      34.736  33.764  28.190  1.00  0.00     0.012 A 
ATOM     76  C   UNL A   1      34.947  34.035  30.576  1.00  0.00     0.148 A 
ATOM     77  C   UNL A   1      33.713  34.709  28.125  1.00  0.00     0.002 A 
ATOM     78  C   UNL A   1      33.873  34.940  30.515  1.00  0.00     0.091 A 
ATOM     79  F   UNL A   1      35.549  33.772  31.740  1.00  0.00    -0.205 F 
ATOM     80  C   UNL A   1      33.293  35.314  29.291  1.00  0.00     0.022 A 
BRANCH  78  81
ATOM     81  S   UNL A   1      33.145  35.715  31.967  1.00  0.00     0.127 S 
ATOM     82  O   UNL A   1      34.291  36.405  32.552  1.00  0.00    -0.237 OA
ATOM     83  O   UNL A   1      32.147  36.605  31.367  1.00  0.00    -0.237 OA
ATOM     84  O   UNL A   1      32.574  34.627  32.749  1.00  0.00    -0.744 OA
ENDBRANCH  78  81
ENDBRANCH  60  74
BRANCH  61  85
ATOM     85  C   UNL A   1      45.402  30.710  32.456  1.00  0.00     0.023 A 
ATOM     86  C   UNL A   1      45.882  30.668  33.772  1.00  0.00     0.012 A 
ATOM     87  C   UNL A   1      46.401  30.714  31.431  1.00  0.00     0.148 A 
ATOM     88  C   UNL A   1      47.261  30.530  34.044  1.00  0.00     0.002 A 
ATOM     89  C   UNL A   1      47.744  30.463  31.694  1.00  0.00     0.091 A 
ATOM     90  F   UNL A   1      46.058  31.002  30.171  1.00  0.00    -0.205 F 
ATOM     91  C   UNL A   1      48.185  30.379  33.010  1.00  0.00     0.022 A 
BRANCH  89  92
ATOM     92  S   UNL A   1      48.922  30.090  30.376  1.00  0.00     0.127 S 
ATOM     93  O   UNL A   1      49.865  29.195  31.044  1.00  0.00    -0.237 OA
ATOM     94  O   UNL A   1      48.060  29.446  29.385  1.00  0.00    -0.237 OA
ATOM     95  O   UNL A   1      49.477  31.368  29.948  1.00  0.00    -0.744 OA
ENDBRANCH  89  92
ENDBRANCH  61  85
BRANCH  73  96
ATOM     96  C   UNL A   1      39.529  32.250  33.264  1.00  0.00     0.023 A 
ATOM     97  C   UNL A   1      39.060  31.019  32.778  1.00  0.00     0.012 A 
ATOM     98  C   UNL A   1      39.245  32.548  34.626  1.00  0.00     0.148 A 
ATOM     99  C   UNL A   1      38.339  30.136  33.593  1.00  0.00     0.002 A 
ATOM    100  C   UNL A   1      38.508  31.678  35.437  1.00  0.00     0.091 A 
ATOM    101  F   UNL A   1      39.711  33.683  35.136  1.00  0.00    -0.205 F 
ATOM    102  C   UNL A   1      38.059  30.463  34.917  1.00  0.00     0.022 A 
BRANCH 100 103
ATOM    103  S   UNL A   1      38.015  32.053  37.140  1.00  0.00     0.127 S 
ATOM    104  O   UNL A   1      37.048  33.139  36.959  1.00  0.00    -0.237 OA
ATOM    105  O   UNL A   1      37.422  30.792  37.577  1.00  0.00    -0.237 OA
ATOM    106  O   UNL A   1      39.225  32.455  37.849  1.00  0.00    -0.744 OA
ENDBRANCH 100 103
ENDBRANCH  73  96
ENDBRANCH  47  48
ENDBRANCH  39  42
ENDBRANCH  37  38
ENDBRANCH   1  37
TORSDOF 17
ENDMDL
