MODEL 1
REMARK VINA RESULT:     -12.2      0.000      0.000
REMARK SMILES CO[C@@H]1C[C@@H](C(=O)NCCCNC(=O)c2ccc(-c3c4nc(c(-c5cccc(S(=O)(=O)[O-])c5F)c5ccc([nH]5)c(-c5cccc(S(=O)(=O)[O-])c5F)c5nc(c(-c6cccc(S(=O)(=O)[O-])c6F)c6ccc3[nH]6)C=C5)C=C4)cc2)N(S(=O)(=O)c2ccc(Cl)cc2F)C1
REMARK SMILES IDX 10 1 9 2 8 3 6 4 7 5 5 7 3 8 4 9 90 10 78 11 2 12 1 13 79 14
REMARK SMILES IDX 80 15 81 16 82 17 83 18 88 19 84 20 87 21 89 22 85 23 86 24
REMARK SMILES IDX 11 25 12 26 13 27 14 29 15 30 16 31 77 32 17 33 76 34 18 35
REMARK SMILES IDX 19 36 20 37 70 38 21 39 75 40 69 41 71 42 22 43 74 44 68 45
REMARK SMILES IDX 67 46 23 48 55 49 35 50 54 51 36 52 39 53 53 54 72 55 37 56
REMARK SMILES IDX 38 57 52 59 73 60 40 61 24 62 25 63 33 64 26 65 28 66 34 67
REMARK SMILES IDX 27 68 29 69 30 70 31 71 32 72 56 73 57 74 65 75 58 76 60 77
REMARK SMILES IDX 66 78 59 79 61 80 62 81 63 82 64 83 41 84 42 85 50 86 43 87
REMARK SMILES IDX 45 88 51 89 44 90 46 91 47 92 48 93 49 94
REMARK H PARENT 8 6 12 28 71 47 39 58
REMARK Flexibility Score: inf
ROOT
ATOM      1  C   UNL A   1      37.075  22.131  24.405  1.00  0.00     0.042 C 
ENDROOT
BRANCH   1   2
ATOM      2  C   UNL A   1      36.066  23.254  24.492  1.00  0.00     0.117 C 
BRANCH   2   3
ATOM      3  N   UNL A   1      35.391  23.543  23.232  1.00  0.00    -0.355 N 
ATOM      4  C   UNL A   1      34.114  23.143  22.892  1.00  0.00     0.238 C 
ATOM      5  O   UNL A   1      33.669  23.401  21.778  1.00  0.00    -0.273 OA
ATOM      6  H   UNL A   1      35.889  24.069  22.565  1.00  0.00     0.163 HD
BRANCH   4   7
ATOM      7  C   UNL A   1      33.392  22.317  23.921  1.00  0.00     0.165 C 
ATOM      8  C   UNL A   1      32.197  20.575  24.876  1.00  0.00     0.135 C 
ATOM      9  C   UNL A   1      32.457  21.201  23.498  1.00  0.00     0.064 C 
ATOM     10  C   UNL A   1      32.162  21.795  25.847  1.00  0.00     0.135 C 
ATOM     11  N   UNL A   1      32.682  22.982  25.060  1.00  0.00    -0.183 NA
BRANCH   8  12
ATOM     12  O   UNL A   1      33.232  19.591  25.032  1.00  0.00    -0.380 OA
ATOM     13  C   UNL A   1      32.866  18.237  25.219  1.00  0.00     0.195 C 
ENDBRANCH   8  12
BRANCH  11  14
ATOM     14  S   UNL A   1      31.433  24.133  24.773  1.00  0.00     0.246 S 
ATOM     15  O   UNL A   1      31.098  24.104  23.368  1.00  0.00    -0.207 OA
ATOM     16  O   UNL A   1      30.400  23.816  25.743  1.00  0.00    -0.207 OA
BRANCH  14  17
ATOM     17  C   UNL A   1      32.024  25.743  25.191  1.00  0.00     0.118 A 
ATOM     18  C   UNL A   1      33.331  25.919  25.665  1.00  0.00     0.026 A 
ATOM     19  C   UNL A   1      31.157  26.828  25.171  1.00  0.00     0.144 A 
ATOM     20  C   UNL A   1      33.781  27.200  26.006  1.00  0.00     0.022 A 
ATOM     21  C   UNL A   1      31.612  28.112  25.465  1.00  0.00     0.061 A 
ATOM     22  F   UNL A   1      29.871  26.678  24.831  1.00  0.00    -0.205 F 
ATOM     23  C   UNL A   1      32.931  28.296  25.868  1.00  0.00     0.044 A 
ATOM     24  Cl  UNL A   1      33.511  29.879  26.197  1.00  0.00    -0.084 Cl
ENDBRANCH  14  17
ENDBRANCH  11  14
ENDBRANCH   4   7
ENDBRANCH   2   3
ENDBRANCH   1   2
BRANCH   1  25
ATOM     25  C   UNL A   1      37.459  21.554  25.753  1.00  0.00     0.118 C 
BRANCH  25  26
ATOM     26  N   UNL A   1      38.723  20.826  25.735  1.00  0.00    -0.352 N 
ATOM     27  C   UNL A   1      39.959  21.182  26.223  1.00  0.00     0.251 C 
ATOM     28  H   UNL A   1      38.685  19.940  25.308  1.00  0.00     0.163 HD
ATOM     29  O   UNL A   1      40.912  20.420  26.097  1.00  0.00    -0.269 OA
BRANCH  27  30
ATOM     30  C   UNL A   1      40.131  22.518  26.823  1.00  0.00     0.039 A 
ATOM     31  C   UNL A   1      41.001  22.661  27.904  1.00  0.00     0.014 A 
ATOM     32  C   UNL A   1      39.550  23.636  26.225  1.00  0.00     0.014 A 
ATOM     33  C   UNL A   1      41.381  23.941  28.310  1.00  0.00     0.010 A 
ATOM     34  C   UNL A   1      40.033  24.898  26.541  1.00  0.00     0.010 A 
ATOM     35  C   UNL A   1      40.953  25.067  27.588  1.00  0.00    -0.014 A 
BRANCH  35  36
ATOM     36  C   UNL A   1      41.460  26.429  27.897  1.00  0.00     0.031 A 
ATOM     37  C   UNL A   1      42.881  26.792  27.557  1.00  0.00     0.074 A 
ATOM     38  C   UNL A   1      40.680  27.300  28.572  1.00  0.00     0.049 A 
ATOM     39  N   UNL A   1      43.534  27.893  27.817  1.00  0.00    -0.248 NA
ATOM     40  C   UNL A   1      43.690  25.769  26.869  1.00  0.00     0.031 C 
ATOM     41  C   UNL A   1      39.319  27.033  29.047  1.00  0.00     0.029 A 
ATOM     42  N   UNL A   1      40.929  28.581  28.999  1.00  0.00    -0.354 N 
ATOM     43  C   UNL A   1      44.832  27.677  27.371  1.00  0.00     0.074 A 
ATOM     44  C   UNL A   1      44.890  26.325  26.866  1.00  0.00     0.031 C 
ATOM     45  C   UNL A   1      38.851  28.118  29.685  1.00  0.00     0.029 A 
ATOM     46  C   UNL A   1      39.886  29.146  29.697  1.00  0.00     0.049 A 
ATOM     47  H   UNL A   1      41.775  29.052  28.822  1.00  0.00     0.167 HD
ATOM     48  C   UNL A   1      45.875  28.538  27.350  1.00  0.00     0.034 A 
ATOM     49  C   UNL A   1      39.778  30.355  30.285  1.00  0.00     0.034 A 
ATOM     50  C   UNL A   1      45.794  29.903  27.789  1.00  0.00     0.049 A 
ATOM     51  C   UNL A   1      40.932  31.316  30.184  1.00  0.00     0.074 A 
ATOM     52  C   UNL A   1      46.760  30.889  27.707  1.00  0.00     0.029 A 
ATOM     53  N   UNL A   1      44.685  30.474  28.391  1.00  0.00    -0.354 N 
ATOM     54  N   UNL A   1      42.095  31.149  29.603  1.00  0.00    -0.248 NA
ATOM     55  C   UNL A   1      40.748  32.645  30.784  1.00  0.00     0.031 C 
ATOM     56  C   UNL A   1      46.242  32.052  28.284  1.00  0.00     0.029 A 
ATOM     57  C   UNL A   1      44.944  31.797  28.696  1.00  0.00     0.049 A 
ATOM     58  H   UNL A   1      43.839  30.006  28.575  1.00  0.00     0.167 HD
ATOM     59  C   UNL A   1      42.765  32.361  29.734  1.00  0.00     0.074 A 
ATOM     60  C   UNL A   1      41.868  33.260  30.428  1.00  0.00     0.031 C 
ATOM     61  C   UNL A   1      44.015  32.694  29.332  1.00  0.00     0.034 A 
BRANCH  48  62
ATOM     62  C   UNL A   1      47.178  28.051  26.774  1.00  0.00     0.023 A 
ATOM     63  C   UNL A   1      48.201  27.610  27.640  1.00  0.00     0.012 A 
ATOM     64  C   UNL A   1      47.365  27.965  25.381  1.00  0.00     0.148 A 
ATOM     65  C   UNL A   1      49.401  27.120  27.128  1.00  0.00     0.002 A 
ATOM     66  C   UNL A   1      48.544  27.429  24.879  1.00  0.00     0.091 A 
ATOM     67  F   UNL A   1      46.388  28.410  24.577  1.00  0.00    -0.205 F 
ATOM     68  C   UNL A   1      49.568  27.018  25.749  1.00  0.00     0.022 A 
BRANCH  66  69
ATOM     69  S   UNL A   1      48.825  27.177  23.123  1.00  0.00     0.127 S 
ATOM     70  O   UNL A   1      48.157  28.344  22.548  1.00  0.00    -0.237 OA
ATOM     71  O   UNL A   1      50.286  27.210  23.041  1.00  0.00    -0.237 OA
ATOM     72  O   UNL A   1      48.223  25.893  22.798  1.00  0.00    -0.744 OA
ENDBRANCH  66  69
ENDBRANCH  48  62
BRANCH  49  73
ATOM     73  C   UNL A   1      38.513  30.754  30.969  1.00  0.00     0.023 A 
ATOM     74  C   UNL A   1      38.340  30.459  32.337  1.00  0.00     0.012 A 
ATOM     75  C   UNL A   1      37.483  31.422  30.279  1.00  0.00     0.148 A 
ATOM     76  C   UNL A   1      37.150  30.781  32.990  1.00  0.00     0.002 A 
ATOM     77  C   UNL A   1      36.324  31.793  30.951  1.00  0.00     0.091 A 
ATOM     78  F   UNL A   1      37.658  31.685  28.976  1.00  0.00    -0.205 F 
ATOM     79  C   UNL A   1      36.146  31.455  32.301  1.00  0.00     0.022 A 
BRANCH  77  80
ATOM     80  S   UNL A   1      35.040  32.782  30.176  1.00  0.00     0.127 S 
ATOM     81  O   UNL A   1      34.127  33.017  31.290  1.00  0.00    -0.237 OA
ATOM     82  O   UNL A   1      35.788  33.959  29.732  1.00  0.00    -0.237 OA
ATOM     83  O   UNL A   1      34.522  31.962  29.089  1.00  0.00    -0.744 OA
ENDBRANCH  77  80
ENDBRANCH  49  73
BRANCH  61  84
ATOM     84  C   UNL A   1      44.480  34.104  29.587  1.00  0.00     0.023 A 
ATOM     85  C   UNL A   1      45.080  34.434  30.818  1.00  0.00     0.012 A 
ATOM     86  C   UNL A   1      44.396  35.077  28.572  1.00  0.00     0.148 A 
ATOM     87  C   UNL A   1      45.561  35.722  31.046  1.00  0.00     0.002 A 
ATOM     88  C   UNL A   1      44.924  36.343  28.788  1.00  0.00     0.091 A 
ATOM     89  F   UNL A   1      43.805  34.746  27.415  1.00  0.00    -0.205 F 
ATOM     90  C   UNL A   1      45.495  36.671  30.029  1.00  0.00     0.022 A 
BRANCH  88  91
ATOM     91  S   UNL A   1      44.975  37.596  27.503  1.00  0.00     0.127 S 
ATOM     92  O   UNL A   1      45.534  38.739  28.222  1.00  0.00    -0.237 OA
ATOM     93  O   UNL A   1      45.874  36.994  26.519  1.00  0.00    -0.237 OA
ATOM     94  O   UNL A   1      43.601  37.758  27.045  1.00  0.00    -0.744 OA
ENDBRANCH  88  91
ENDBRANCH  61  84
ENDBRANCH  35  36
ENDBRANCH  27  30
ENDBRANCH  25  26
ENDBRANCH   1  25
TORSDOF 16
ENDMDL
MODEL 2
REMARK VINA RESULT:     -12.1      2.272      3.580
REMARK SMILES CO[C@@H]1C[C@@H](C(=O)NCCCNC(=O)c2ccc(-c3c4nc(c(-c5cccc(S(=O)(=O)[O-])c5F)c5ccc([nH]5)c(-c5cccc(S(=O)(=O)[O-])c5F)c5nc(c(-c6cccc(S(=O)(=O)[O-])c6F)c6ccc3[nH]6)C=C5)C=C4)cc2)N(S(=O)(=O)c2ccc(Cl)cc2F)C1
REMARK SMILES IDX 10 1 9 2 8 3 6 4 7 5 5 7 3 8 4 9 90 10 78 11 2 12 1 13 79 14
REMARK SMILES IDX 80 15 81 16 82 17 83 18 88 19 84 20 87 21 89 22 85 23 86 24
REMARK SMILES IDX 11 25 12 26 13 27 14 29 15 30 16 31 77 32 17 33 76 34 18 35
REMARK SMILES IDX 19 36 20 37 70 38 21 39 75 40 69 41 71 42 22 43 74 44 68 45
REMARK SMILES IDX 67 46 23 48 55 49 35 50 54 51 36 52 39 53 53 54 72 55 37 56
REMARK SMILES IDX 38 57 52 59 73 60 40 61 24 62 25 63 33 64 26 65 28 66 34 67
REMARK SMILES IDX 27 68 29 69 30 70 31 71 32 72 56 73 57 74 65 75 58 76 60 77
REMARK SMILES IDX 66 78 59 79 61 80 62 81 63 82 64 83 41 84 42 85 50 86 43 87
REMARK SMILES IDX 45 88 51 89 44 90 46 91 47 92 48 93 49 94
REMARK H PARENT 8 6 12 28 71 47 39 58
REMARK Flexibility Score: inf
ROOT
ATOM      1  C   UNL A   1      36.289  21.191  25.476  1.00  0.00     0.042 C 
ENDROOT
BRANCH   1   2
ATOM      2  C   UNL A   1      35.733  22.493  26.007  1.00  0.00     0.117 C 
BRANCH   2   3
ATOM      3  N   UNL A   1      34.761  22.328  27.081  1.00  0.00    -0.355 N 
ATOM      4  C   UNL A   1      33.555  22.992  27.185  1.00  0.00     0.238 C 
ATOM      5  O   UNL A   1      32.839  22.812  28.165  1.00  0.00    -0.273 OA
ATOM      6  H   UNL A   1      34.984  21.689  27.796  1.00  0.00     0.163 HD
BRANCH   4   7
ATOM      7  C   UNL A   1      33.258  23.983  26.092  1.00  0.00     0.165 C 
ATOM      8  C   UNL A   1      32.555  25.923  25.036  1.00  0.00     0.135 C 
ATOM      9  C   UNL A   1      32.318  25.147  26.339  1.00  0.00     0.064 C 
ATOM     10  C   UNL A   1      32.744  24.811  23.960  1.00  0.00     0.135 C 
ATOM     11  N   UNL A   1      32.902  23.506  24.718  1.00  0.00    -0.183 NA
BRANCH   8  12
ATOM     12  O   UNL A   1      33.652  26.802  25.328  1.00  0.00    -0.380 OA
ATOM     13  C   UNL A   1      33.621  27.561  26.522  1.00  0.00     0.195 C 
ENDBRANCH   8  12
BRANCH  11  14
ATOM     14  S   UNL A   1      31.548  22.472  24.463  1.00  0.00     0.246 S 
ATOM     15  O   UNL A   1      30.718  22.504  25.645  1.00  0.00    -0.207 OA
ATOM     16  O   UNL A   1      30.978  22.903  23.198  1.00  0.00    -0.207 OA
BRANCH  14  17
ATOM     17  C   UNL A   1      32.122  20.822  24.206  1.00  0.00     0.118 A 
ATOM     18  C   UNL A   1      32.670  20.088  25.267  1.00  0.00     0.026 A 
ATOM     19  C   UNL A   1      32.149  20.288  22.924  1.00  0.00     0.144 A 
ATOM     20  C   UNL A   1      33.134  18.785  25.045  1.00  0.00     0.022 A 
ATOM     21  C   UNL A   1      32.566  18.976  22.706  1.00  0.00     0.061 A 
ATOM     22  F   UNL A   1      31.738  21.002  21.869  1.00  0.00    -0.205 F 
ATOM     23  C   UNL A   1      33.045  18.223  23.773  1.00  0.00     0.044 A 
ATOM     24  Cl  UNL A   1      33.527  16.593  23.520  1.00  0.00    -0.084 Cl
ENDBRANCH  14  17
ENDBRANCH  11  14
ENDBRANCH   4   7
ENDBRANCH   2   3
ENDBRANCH   1   2
BRANCH   1  25
ATOM     25  C   UNL A   1      37.629  21.340  24.784  1.00  0.00     0.118 C 
BRANCH  25  26
ATOM     26  N   UNL A   1      38.631  20.384  25.244  1.00  0.00    -0.352 N 
ATOM     27  C   UNL A   1      39.667  20.544  26.135  1.00  0.00     0.251 C 
ATOM     28  H   UNL A   1      38.553  19.483  24.856  1.00  0.00     0.163 HD
ATOM     29  O   UNL A   1      40.414  19.604  26.383  1.00  0.00    -0.269 OA
BRANCH  27  30
ATOM     30  C   UNL A   1      39.904  21.877  26.720  1.00  0.00     0.039 A 
ATOM     31  C   UNL A   1      40.832  22.000  27.755  1.00  0.00     0.014 A 
ATOM     32  C   UNL A   1      39.323  23.008  26.148  1.00  0.00     0.014 A 
ATOM     33  C   UNL A   1      41.266  23.270  28.135  1.00  0.00     0.010 A 
ATOM     34  C   UNL A   1      39.855  24.258  26.434  1.00  0.00     0.010 A 
ATOM     35  C   UNL A   1      40.832  24.405  27.431  1.00  0.00    -0.014 A 
BRANCH  35  36
ATOM     36  C   UNL A   1      41.390  25.754  27.708  1.00  0.00     0.031 A 
ATOM     37  C   UNL A   1      42.802  26.076  27.298  1.00  0.00     0.074 A 
ATOM     38  C   UNL A   1      40.667  26.649  28.415  1.00  0.00     0.049 A 
ATOM     39  N   UNL A   1      43.497  27.161  27.520  1.00  0.00    -0.248 NA
ATOM     40  C   UNL A   1      43.549  25.029  26.577  1.00  0.00     0.031 C 
ATOM     41  C   UNL A   1      39.324  26.420  28.957  1.00  0.00     0.029 A 
ATOM     42  N   UNL A   1      40.971  27.924  28.823  1.00  0.00    -0.354 N 
ATOM     43  C   UNL A   1      44.766  26.908  27.014  1.00  0.00     0.074 A 
ATOM     44  C   UNL A   1      44.762  25.552  26.513  1.00  0.00     0.031 C 
ATOM     45  C   UNL A   1      38.917  27.521  29.611  1.00  0.00     0.029 A 
ATOM     46  C   UNL A   1      39.979  28.521  29.567  1.00  0.00     0.049 A 
ATOM     47  H   UNL A   1      41.820  28.371  28.603  1.00  0.00     0.167 HD
ATOM     48  C   UNL A   1      45.829  27.740  26.937  1.00  0.00     0.034 A 
ATOM     49  C   UNL A   1      39.932  29.734  30.154  1.00  0.00     0.034 A 
ATOM     50  C   UNL A   1      45.807  29.108  27.373  1.00  0.00     0.049 A 
ATOM     51  C   UNL A   1      41.106  30.663  29.992  1.00  0.00     0.074 A 
ATOM     52  C   UNL A   1      46.794  30.067  27.239  1.00  0.00     0.029 A 
ATOM     53  N   UNL A   1      44.744  29.711  28.024  1.00  0.00    -0.354 N 
ATOM     54  N   UNL A   1      42.235  30.462  29.356  1.00  0.00    -0.248 NA
ATOM     55  C   UNL A   1      40.987  31.999  30.593  1.00  0.00     0.031 C 
ATOM     56  C   UNL A   1      46.336  31.246  27.834  1.00  0.00     0.029 A 
ATOM     57  C   UNL A   1      45.053  31.028  28.309  1.00  0.00     0.049 A 
ATOM     58  H   UNL A   1      43.895  29.268  28.251  1.00  0.00     0.167 HD
ATOM     59  C   UNL A   1      42.942  31.655  29.449  1.00  0.00     0.074 A 
ATOM     60  C   UNL A   1      42.105  32.581  30.181  1.00  0.00     0.031 C 
ATOM     61  C   UNL A   1      44.180  31.953  28.985  1.00  0.00     0.034 A 
BRANCH  48  62
ATOM     62  C   UNL A   1      47.089  27.215  26.302  1.00  0.00     0.023 A 
ATOM     63  C   UNL A   1      47.360  27.504  24.948  1.00  0.00     0.012 A 
ATOM     64  C   UNL A   1      48.034  26.497  27.059  1.00  0.00     0.148 A 
ATOM     65  C   UNL A   1      48.538  27.060  24.350  1.00  0.00     0.002 A 
ATOM     66  C   UNL A   1      49.228  26.101  26.469  1.00  0.00     0.091 A 
ATOM     67  F   UNL A   1      47.747  26.215  28.338  1.00  0.00    -0.205 F 
ATOM     68  C   UNL A   1      49.476  26.370  25.113  1.00  0.00     0.022 A 
BRANCH  66  69
ATOM     69  S   UNL A   1      50.538  25.281  27.384  1.00  0.00     0.127 S 
ATOM     70  O   UNL A   1      49.830  24.128  27.941  1.00  0.00    -0.237 OA
ATOM     71  O   UNL A   1      51.492  24.955  26.324  1.00  0.00    -0.237 OA
ATOM     72  O   UNL A   1      51.015  26.248  28.361  1.00  0.00    -0.744 OA
ENDBRANCH  66  69
ENDBRANCH  48  62
BRANCH  49  73
ATOM     73  C   UNL A   1      38.713  30.170  30.896  1.00  0.00     0.023 A 
ATOM     74  C   UNL A   1      38.568  29.826  32.255  1.00  0.00     0.012 A 
ATOM     75  C   UNL A   1      37.701  30.922  30.269  1.00  0.00     0.148 A 
ATOM     76  C   UNL A   1      37.418  30.183  32.961  1.00  0.00     0.002 A 
ATOM     77  C   UNL A   1      36.585  31.325  30.995  1.00  0.00     0.091 A 
ATOM     78  F   UNL A   1      37.848  31.231  28.973  1.00  0.00    -0.205 F 
ATOM     79  C   UNL A   1      36.431  30.938  32.335  1.00  0.00     0.022 A 
BRANCH  77  80
ATOM     80  S   UNL A   1      35.334  32.413  30.304  1.00  0.00     0.127 S 
ATOM     81  O   UNL A   1      34.832  31.622  29.184  1.00  0.00    -0.237 OA
ATOM     82  O   UNL A   1      34.403  32.557  31.424  1.00  0.00    -0.237 OA
ATOM     83  O   UNL A   1      36.037  33.640  29.953  1.00  0.00    -0.744 OA
ENDBRANCH  77  80
ENDBRANCH  49  73
BRANCH  61  84
ATOM     84  C   UNL A   1      44.695  33.350  29.210  1.00  0.00     0.023 A 
ATOM     85  C   UNL A   1      45.499  33.631  30.332  1.00  0.00     0.012 A 
ATOM     86  C   UNL A   1      44.449  34.362  28.261  1.00  0.00     0.148 A 
ATOM     87  C   UNL A   1      46.024  34.908  30.523  1.00  0.00     0.002 A 
ATOM     88  C   UNL A   1      45.018  35.617  28.432  1.00  0.00     0.091 A 
ATOM     89  F   UNL A   1      43.667  34.078  27.210  1.00  0.00    -0.205 F 
ATOM     90  C   UNL A   1      45.794  35.896  29.568  1.00  0.00     0.022 A 
BRANCH  88  91
ATOM     91  S   UNL A   1      44.861  36.919  27.204  1.00  0.00     0.127 S 
ATOM     92  O   UNL A   1      45.203  38.107  27.984  1.00  0.00    -0.237 OA
ATOM     93  O   UNL A   1      45.863  36.530  26.211  1.00  0.00    -0.237 OA
ATOM     94  O   UNL A   1      43.485  36.859  26.728  1.00  0.00    -0.744 OA
ENDBRANCH  88  91
ENDBRANCH  61  84
ENDBRANCH  35  36
ENDBRANCH  27  30
ENDBRANCH  25  26
ENDBRANCH   1  25
TORSDOF 16
ENDMDL
MODEL 3
REMARK VINA RESULT:     -11.9      5.179     10.152
REMARK SMILES CO[C@@H]1C[C@@H](C(=O)NCCCNC(=O)c2ccc(-c3c4nc(c(-c5cccc(S(=O)(=O)[O-])c5F)c5ccc([nH]5)c(-c5cccc(S(=O)(=O)[O-])c5F)c5nc(c(-c6cccc(S(=O)(=O)[O-])c6F)c6ccc3[nH]6)C=C5)C=C4)cc2)N(S(=O)(=O)c2ccc(Cl)cc2F)C1
REMARK SMILES IDX 10 1 9 2 8 3 6 4 7 5 5 7 3 8 4 9 90 10 78 11 2 12 1 13 79 14
REMARK SMILES IDX 80 15 81 16 82 17 83 18 88 19 84 20 87 21 89 22 85 23 86 24
REMARK SMILES IDX 11 25 12 26 13 27 14 29 15 30 16 31 77 32 17 33 76 34 18 35
REMARK SMILES IDX 19 36 20 37 70 38 21 39 75 40 69 41 71 42 22 43 74 44 68 45
REMARK SMILES IDX 67 46 23 48 55 49 35 50 54 51 36 52 39 53 53 54 72 55 37 56
REMARK SMILES IDX 38 57 52 59 73 60 40 61 24 62 25 63 33 64 26 65 28 66 34 67
REMARK SMILES IDX 27 68 29 69 30 70 31 71 32 72 56 73 57 74 65 75 58 76 60 77
REMARK SMILES IDX 66 78 59 79 61 80 62 81 63 82 64 83 41 84 42 85 50 86 43 87
REMARK SMILES IDX 45 88 51 89 44 90 46 91 47 92 48 93 49 94
REMARK H PARENT 8 6 12 28 71 47 39 58
REMARK Flexibility Score: inf
ROOT
ATOM      1  C   UNL A   1      32.910  29.683  24.508  1.00  0.00     0.042 C 
ENDROOT
BRANCH   1   2
ATOM      2  C   UNL A   1      32.038  28.780  23.665  1.00  0.00     0.117 C 
BRANCH   2   3
ATOM      3  N   UNL A   1      32.745  28.129  22.567  1.00  0.00    -0.355 N 
ATOM      4  C   UNL A   1      32.997  26.776  22.462  1.00  0.00     0.238 C 
ATOM      5  O   UNL A   1      33.650  26.347  21.516  1.00  0.00    -0.273 OA
ATOM      6  H   UNL A   1      33.071  28.705  21.838  1.00  0.00     0.163 HD
BRANCH   4   7
ATOM      7  C   UNL A   1      32.512  25.929  23.607  1.00  0.00     0.165 C 
ATOM      8  C   UNL A   1      32.142  25.189  25.772  1.00  0.00     0.135 C 
ATOM      9  C   UNL A   1      33.123  26.072  24.987  1.00  0.00     0.064 C 
ATOM     10  C   UNL A   1      31.797  24.032  24.785  1.00  0.00     0.135 C 
ATOM     11  N   UNL A   1      32.337  24.452  23.430  1.00  0.00    -0.183 NA
BRANCH   8  12
ATOM     12  O   UNL A   1      31.098  26.083  26.188  1.00  0.00    -0.380 OA
ATOM     13  C   UNL A   1      31.392  27.078  27.150  1.00  0.00     0.195 C 
ENDBRANCH   8  12
BRANCH  11  14
ATOM     14  S   UNL A   1      33.658  23.455  22.952  1.00  0.00     0.246 S 
ATOM     15  O   UNL A   1      33.638  23.327  21.514  1.00  0.00    -0.207 OA
ATOM     16  O   UNL A   1      34.825  24.048  23.583  1.00  0.00    -0.207 OA
BRANCH  14  17
ATOM     17  C   UNL A   1      33.466  21.857  23.675  1.00  0.00     0.118 A 
ATOM     18  C   UNL A   1      34.389  21.390  24.621  1.00  0.00     0.026 A 
ATOM     19  C   UNL A   1      32.470  21.003  23.219  1.00  0.00     0.144 A 
ATOM     20  C   UNL A   1      34.232  20.113  25.175  1.00  0.00     0.022 A 
ATOM     21  C   UNL A   1      32.281  19.750  23.800  1.00  0.00     0.061 A 
ATOM     22  F   UNL A   1      31.640  21.374  22.237  1.00  0.00    -0.205 F 
ATOM     23  C   UNL A   1      33.157  19.315  24.789  1.00  0.00     0.044 A 
ATOM     24  Cl  UNL A   1      32.910  17.788  25.538  1.00  0.00    -0.084 Cl
ENDBRANCH  14  17
ENDBRANCH  11  14
ENDBRANCH   4   7
ENDBRANCH   2   3
ENDBRANCH   1   2
BRANCH   1  25
ATOM     25  C   UNL A   1      32.539  29.688  25.977  1.00  0.00     0.118 C 
BRANCH  25  26
ATOM     26  N   UNL A   1      32.362  31.027  26.528  1.00  0.00    -0.352 N 
ATOM     27  C   UNL A   1      33.229  31.809  27.256  1.00  0.00     0.251 C 
ATOM     28  H   UNL A   1      31.485  31.436  26.350  1.00  0.00     0.163 HD
ATOM     29  O   UNL A   1      32.880  32.920  27.640  1.00  0.00    -0.269 OA
BRANCH  27  30
ATOM     30  C   UNL A   1      34.545  31.256  27.628  1.00  0.00     0.039 A 
ATOM     31  C   UNL A   1      35.611  32.136  27.822  1.00  0.00     0.014 A 
ATOM     32  C   UNL A   1      34.679  29.901  27.925  1.00  0.00     0.014 A 
ATOM     33  C   UNL A   1      36.779  31.671  28.428  1.00  0.00     0.010 A 
ATOM     34  C   UNL A   1      35.784  29.474  28.648  1.00  0.00     0.010 A 
ATOM     35  C   UNL A   1      36.847  30.353  28.908  1.00  0.00    -0.014 A 
BRANCH  35  36
ATOM     36  C   UNL A   1      38.013  29.870  29.693  1.00  0.00     0.031 A 
ATOM     37  C   UNL A   1      38.234  30.381  31.092  1.00  0.00     0.074 A 
ATOM     38  C   UNL A   1      38.923  29.057  29.116  1.00  0.00     0.049 A 
ATOM     39  N   UNL A   1      39.229  30.147  31.906  1.00  0.00    -0.248 NA
ATOM     40  C   UNL A   1      37.227  31.310  31.635  1.00  0.00     0.031 C 
ATOM     41  C   UNL A   1      38.875  28.572  27.733  1.00  0.00     0.029 A 
ATOM     42  N   UNL A   1      40.082  28.514  29.613  1.00  0.00    -0.354 N 
ATOM     43  C   UNL A   1      38.992  30.931  33.028  1.00  0.00     0.074 A 
ATOM     44  C   UNL A   1      37.785  31.684  32.775  1.00  0.00     0.031 C 
ATOM     45  C   UNL A   1      39.945  27.795  27.499  1.00  0.00     0.029 A 
ATOM     46  C   UNL A   1      40.775  27.751  28.698  1.00  0.00     0.049 A 
ATOM     47  H   UNL A   1      40.390  28.656  30.536  1.00  0.00     0.167 HD
ATOM     48  C   UNL A   1      39.694  30.994  34.183  1.00  0.00     0.034 A 
ATOM     49  C   UNL A   1      41.948  27.097  28.813  1.00  0.00     0.034 A 
ATOM     50  C   UNL A   1      40.854  30.193  34.457  1.00  0.00     0.049 A 
ATOM     51  C   UNL A   1      42.671  27.130  30.133  1.00  0.00     0.074 A 
ATOM     52  C   UNL A   1      41.573  30.098  35.635  1.00  0.00     0.029 A 
ATOM     53  N   UNL A   1      41.464  29.348  33.544  1.00  0.00    -0.354 N 
ATOM     54  N   UNL A   1      42.335  27.744  31.242  1.00  0.00    -0.248 NA
ATOM     55  C   UNL A   1      43.913  26.351  30.233  1.00  0.00     0.031 C 
ATOM     56  C   UNL A   1      42.634  29.214  35.425  1.00  0.00     0.029 A 
ATOM     57  C   UNL A   1      42.557  28.735  34.128  1.00  0.00     0.049 A 
ATOM     58  H   UNL A   1      41.163  29.206  32.617  1.00  0.00     0.167 HD
ATOM     59  C   UNL A   1      43.301  27.396  32.179  1.00  0.00     0.074 A 
ATOM     60  C   UNL A   1      44.222  26.498  31.514  1.00  0.00     0.031 C 
ATOM     61  C   UNL A   1      43.425  27.795  33.468  1.00  0.00     0.034 A 
BRANCH  48  62
ATOM     62  C   UNL A   1      39.192  31.914  35.263  1.00  0.00     0.023 A 
ATOM     63  C   UNL A   1      38.232  31.446  36.185  1.00  0.00     0.012 A 
ATOM     64  C   UNL A   1      39.716  33.212  35.408  1.00  0.00     0.148 A 
ATOM     65  C   UNL A   1      37.781  32.268  37.217  1.00  0.00     0.002 A 
ATOM     66  C   UNL A   1      39.298  34.007  36.467  1.00  0.00     0.091 A 
ATOM     67  F   UNL A   1      40.611  33.643  34.507  1.00  0.00    -0.205 F 
ATOM     68  C   UNL A   1      38.322  33.543  37.365  1.00  0.00     0.022 A 
BRANCH  66  69
ATOM     69  S   UNL A   1      39.992  35.631  36.796  1.00  0.00     0.127 S 
ATOM     70  O   UNL A   1      39.317  35.993  38.041  1.00  0.00    -0.237 OA
ATOM     71  O   UNL A   1      41.416  35.329  36.940  1.00  0.00    -0.237 OA
ATOM     72  O   UNL A   1      39.655  36.455  35.644  1.00  0.00    -0.744 OA
ENDBRANCH  66  69
ENDBRANCH  48  62
BRANCH  49  73
ATOM     73  C   UNL A   1      42.487  26.303  27.670  1.00  0.00     0.023 A 
ATOM     74  C   UNL A   1      43.388  26.906  26.770  1.00  0.00     0.012 A 
ATOM     75  C   UNL A   1      42.116  24.959  27.469  1.00  0.00     0.148 A 
ATOM     76  C   UNL A   1      43.873  26.200  25.667  1.00  0.00     0.002 A 
ATOM     77  C   UNL A   1      42.649  24.244  26.402  1.00  0.00     0.091 A 
ATOM     78  F   UNL A   1      41.249  24.404  28.327  1.00  0.00    -0.205 F 
ATOM     79  C   UNL A   1      43.511  24.869  25.488  1.00  0.00     0.022 A 
BRANCH  77  80
ATOM     80  S   UNL A   1      42.343  22.489  26.176  1.00  0.00     0.127 S 
ATOM     81  O   UNL A   1      43.106  22.204  24.965  1.00  0.00    -0.237 OA
ATOM     82  O   UNL A   1      42.901  21.921  27.404  1.00  0.00    -0.237 OA
ATOM     83  O   UNL A   1      40.896  22.358  26.064  1.00  0.00    -0.744 OA
ENDBRANCH  77  80
ENDBRANCH  49  73
BRANCH  61  84
ATOM     84  C   UNL A   1      44.571  27.234  34.268  1.00  0.00     0.023 A 
ATOM     85  C   UNL A   1      45.794  27.930  34.328  1.00  0.00     0.012 A 
ATOM     86  C   UNL A   1      44.403  26.058  35.025  1.00  0.00     0.148 A 
ATOM     87  C   UNL A   1      46.843  27.446  35.107  1.00  0.00     0.002 A 
ATOM     88  C   UNL A   1      45.435  25.611  35.839  1.00  0.00     0.091 A 
ATOM     89  F   UNL A   1      43.237  25.402  34.939  1.00  0.00    -0.205 F 
ATOM     90  C   UNL A   1      46.660  26.296  35.872  1.00  0.00     0.022 A 
BRANCH  88  91
ATOM     91  S   UNL A   1      45.254  24.199  36.933  1.00  0.00     0.127 S 
ATOM     92  O   UNL A   1      44.725  23.183  36.025  1.00  0.00    -0.237 OA
ATOM     93  O   UNL A   1      46.631  23.968  37.372  1.00  0.00    -0.237 OA
ATOM     94  O   UNL A   1      44.347  24.624  37.992  1.00  0.00    -0.744 OA
ENDBRANCH  88  91
ENDBRANCH  61  84
ENDBRANCH  35  36
ENDBRANCH  27  30
ENDBRANCH  25  26
ENDBRANCH   1  25
TORSDOF 16
ENDMDL
