MODEL 1
REMARK VINA RESULT:     -12.9      0.000      0.000
REMARK SMILES O=C(NCCCNC(=O)[C@H]1C[C@](O)(c2ccc(F)cc2)[C@@H](c2ccc(F)cc2)O1)c1ccc(-c2c3nc(c(-c4cccc(S(=O)(=O)[O-])c4F)c4ccc([nH]4)c(-c4cccc(S(=O)(=O)[O-])c4F)c4nc(c(-c5cccc(S(=O)(=O)[O-])c5F)c5ccc2[nH]5)C=C4)C=C3)cc1
REMARK SMILES IDX 4 1 3 2 1 3 2 4 30 6 31 7 92 8 32 9 91 10 33 11 34 12 35 13
REMARK SMILES IDX 85 14 36 15 90 16 84 17 86 18 37 19 89 20 83 21 82 22 38 24
REMARK SMILES IDX 70 25 50 26 69 27 51 28 54 29 68 30 87 31 52 32 53 33 67 35
REMARK SMILES IDX 88 36 55 37 39 38 40 39 48 40 41 41 43 42 49 43 42 44 44 45
REMARK SMILES IDX 45 46 46 47 47 48 71 49 72 50 80 51 73 52 75 53 81 54 74 55
REMARK SMILES IDX 76 56 77 57 78 58 79 59 56 60 57 61 65 62 58 63 60 64 66 65
REMARK SMILES IDX 59 66 61 67 62 68 63 69 64 70 5 71 6 72 7 73 8 74 9 76 10 77
REMARK SMILES IDX 11 78 29 79 12 80 21 81 14 82 15 83 20 84 16 85 19 86 17 87
REMARK SMILES IDX 18 88 13 89 22 91 23 92 28 93 24 94 27 95 25 96 26 97
REMARK H PARENT 3 5 86 23 54 34 7 75 13 90
REMARK Flexibility Score: inf
ROOT
ATOM      1  C   UNL A   1      32.723  31.202  27.237  1.00  0.00     0.118 C 
ENDROOT
BRANCH   1   2
ATOM      2  N   UNL A   1      32.835  32.651  27.322  1.00  0.00    -0.352 N 
ATOM      3  O   UNL A   1      33.540  34.655  28.042  1.00  0.00    -0.269 OA
ATOM      4  C   UNL A   1      33.753  33.445  27.962  1.00  0.00     0.251 C 
ATOM      5  H   UNL A   1      32.135  33.145  26.837  1.00  0.00     0.163 HD
BRANCH   4   6
ATOM      6  C   UNL A   1      34.969  32.866  28.574  1.00  0.00     0.039 A 
ATOM      7  C   UNL A   1      36.239  33.358  28.268  1.00  0.00     0.014 A 
ATOM      8  C   UNL A   1      34.829  31.838  29.513  1.00  0.00     0.014 A 
ATOM      9  C   UNL A   1      37.373  32.737  28.790  1.00  0.00     0.010 A 
ATOM     10  C   UNL A   1      35.963  31.268  30.096  1.00  0.00     0.010 A 
ATOM     11  C   UNL A   1      37.247  31.694  29.720  1.00  0.00    -0.014 A 
BRANCH  11  12
ATOM     12  C   UNL A   1      38.452  31.097  30.353  1.00  0.00     0.031 A 
ATOM     13  C   UNL A   1      39.247  30.033  29.646  1.00  0.00     0.074 A 
ATOM     14  C   UNL A   1      38.805  31.496  31.591  1.00  0.00     0.049 A 
ATOM     15  N   UNL A   1      40.255  29.329  30.091  1.00  0.00    -0.248 NA
ATOM     16  C   UNL A   1      38.863  29.716  28.259  1.00  0.00     0.031 C 
ATOM     17  C   UNL A   1      38.109  32.516  32.380  1.00  0.00     0.029 A 
ATOM     18  N   UNL A   1      39.821  31.078  32.414  1.00  0.00    -0.354 N 
ATOM     19  C   UNL A   1      40.607  28.464  29.060  1.00  0.00     0.074 A 
ATOM     20  C   UNL A   1      39.701  28.729  27.963  1.00  0.00     0.031 C 
ATOM     21  C   UNL A   1      38.718  32.646  33.568  1.00  0.00     0.029 A 
ATOM     22  C   UNL A   1      39.804  31.678  33.653  1.00  0.00     0.049 A 
ATOM     23  H   UNL A   1      40.496  30.415  32.144  1.00  0.00     0.167 HD
ATOM     24  C   UNL A   1      41.603  27.548  29.028  1.00  0.00     0.034 A 
ATOM     25  C   UNL A   1      40.554  31.449  34.748  1.00  0.00     0.034 A 
ATOM     26  C   UNL A   1      42.517  27.308  30.115  1.00  0.00     0.049 A 
ATOM     27  C   UNL A   1      41.628  30.399  34.687  1.00  0.00     0.074 A 
ATOM     28  C   UNL A   1      43.573  26.413  30.164  1.00  0.00     0.029 A 
ATOM     29  N   UNL A   1      42.491  27.958  31.337  1.00  0.00    -0.354 N 
ATOM     30  N   UNL A   1      41.996  29.650  33.676  1.00  0.00    -0.248 NA
ATOM     31  C   UNL A   1      42.410  30.180  35.912  1.00  0.00     0.031 C 
ATOM     32  C   UNL A   1      44.170  26.507  31.425  1.00  0.00     0.029 A 
ATOM     33  C   UNL A   1      43.509  27.485  32.149  1.00  0.00     0.049 A 
ATOM     34  H   UNL A   1      41.843  28.655  31.593  1.00  0.00     0.167 HD
ATOM     35  C   UNL A   1      43.072  28.899  34.133  1.00  0.00     0.074 A 
ATOM     36  C   UNL A   1      43.318  29.308  35.500  1.00  0.00     0.031 C 
ATOM     37  C   UNL A   1      43.780  27.939  33.488  1.00  0.00     0.034 A 
BRANCH  24  38
ATOM     38  C   UNL A   1      41.810  26.751  27.767  1.00  0.00     0.023 A 
ATOM     39  C   UNL A   1      42.484  27.343  26.680  1.00  0.00     0.012 A 
ATOM     40  C   UNL A   1      41.479  25.382  27.712  1.00  0.00     0.148 A 
ATOM     41  C   UNL A   1      42.822  26.587  25.557  1.00  0.00     0.002 A 
ATOM     42  C   UNL A   1      41.857  24.625  26.609  1.00  0.00     0.091 A 
ATOM     43  F   UNL A   1      40.829  24.842  28.753  1.00  0.00    -0.205 F 
ATOM     44  C   UNL A   1      42.523  25.227  25.529  1.00  0.00     0.022 A 
BRANCH  42  45
ATOM     45  S   UNL A   1      41.599  22.849  26.507  1.00  0.00     0.127 S 
ATOM     46  O   UNL A   1      42.266  22.384  27.723  1.00  0.00    -0.237 OA
ATOM     47  O   UNL A   1      40.141  22.752  26.536  1.00  0.00    -0.237 OA
ATOM     48  O   UNL A   1      42.222  22.421  25.263  1.00  0.00    -0.744 OA
ENDBRANCH  42  45
ENDBRANCH  24  38
BRANCH  25  49
ATOM     49  C   UNL A   1      40.337  32.247  35.988  1.00  0.00     0.023 A 
ATOM     50  C   UNL A   1      41.225  33.296  36.297  1.00  0.00     0.012 A 
ATOM     51  C   UNL A   1      39.262  31.980  36.859  1.00  0.00     0.148 A 
ATOM     52  C   UNL A   1      41.072  34.037  37.469  1.00  0.00     0.002 A 
ATOM     53  C   UNL A   1      39.077  32.765  37.992  1.00  0.00     0.091 A 
ATOM     54  F   UNL A   1      38.436  30.969  36.559  1.00  0.00    -0.205 F 
ATOM     55  C   UNL A   1      39.994  33.778  38.310  1.00  0.00     0.022 A 
BRANCH  53  56
ATOM     56  S   UNL A   1      37.640  32.596  39.055  1.00  0.00     0.127 S 
ATOM     57  O   UNL A   1      37.864  33.658  40.033  1.00  0.00    -0.237 OA
ATOM     58  O   UNL A   1      36.542  32.841  38.119  1.00  0.00    -0.237 OA
ATOM     59  O   UNL A   1      37.692  31.236  39.572  1.00  0.00    -0.744 OA
ENDBRANCH  53  56
ENDBRANCH  25  49
BRANCH  37  60
ATOM     60  C   UNL A   1      44.917  27.290  34.234  1.00  0.00     0.023 A 
ATOM     61  C   UNL A   1      46.211  27.846  34.164  1.00  0.00     0.012 A 
ATOM     62  C   UNL A   1      44.694  26.165  35.052  1.00  0.00     0.148 A 
ATOM     63  C   UNL A   1      47.271  27.266  34.859  1.00  0.00     0.002 A 
ATOM     64  C   UNL A   1      45.743  25.627  35.787  1.00  0.00     0.091 A 
ATOM     65  F   UNL A   1      43.460  25.638  35.094  1.00  0.00    -0.205 F 
ATOM     66  C   UNL A   1      47.036  26.165  35.679  1.00  0.00     0.022 A 
BRANCH  64  67
ATOM     67  S   UNL A   1      45.510  24.278  36.951  1.00  0.00     0.127 S 
ATOM     68  O   UNL A   1      45.016  23.214  36.079  1.00  0.00    -0.237 OA
ATOM     69  O   UNL A   1      46.866  24.069  37.459  1.00  0.00    -0.237 OA
ATOM     70  O   UNL A   1      44.562  24.766  37.943  1.00  0.00    -0.744 OA
ENDBRANCH  64  67
ENDBRANCH  37  60
ENDBRANCH  11  12
ENDBRANCH   4   6
ENDBRANCH   1   2
BRANCH   1  71
ATOM     71  C   UNL A   1      31.703  30.736  26.204  1.00  0.00     0.042 C 
BRANCH  71  72
ATOM     72  C   UNL A   1      32.074  29.462  25.456  1.00  0.00     0.117 C 
BRANCH  72  73
ATOM     73  N   UNL A   1      33.090  29.645  24.440  1.00  0.00    -0.354 N 
ATOM     74  C   UNL A   1      33.626  28.729  23.584  1.00  0.00     0.249 C 
ATOM     75  H   UNL A   1      33.445  30.561  24.356  1.00  0.00     0.163 HD
ATOM     76  O   UNL A   1      34.108  29.168  22.537  1.00  0.00    -0.272 OA
BRANCH  74  77
ATOM     77  C   UNL A   1      33.653  27.230  23.956  1.00  0.00     0.211 C 
ATOM     78  C   UNL A   1      33.412  26.988  25.442  1.00  0.00     0.085 C 
ATOM     79  O   UNL A   1      32.647  26.537  23.210  1.00  0.00    -0.357 OA
ATOM     80  C   UNL A   1      32.238  26.011  25.547  1.00  0.00     0.123 C 
ATOM     81  C   UNL A   1      31.646  26.015  24.105  1.00  0.00     0.186 C 
BRANCH  80  82
ATOM     82  C   UNL A   1      32.688  24.668  26.148  1.00  0.00    -0.013 A 
ATOM     83  C   UNL A   1      34.049  24.299  26.026  1.00  0.00     0.010 A 
ATOM     84  C   UNL A   1      31.852  23.795  26.869  1.00  0.00     0.010 A 
ATOM     85  C   UNL A   1      34.549  23.123  26.593  1.00  0.00     0.039 A 
ATOM     86  C   UNL A   1      32.355  22.621  27.445  1.00  0.00     0.039 A 
ATOM     87  C   UNL A   1      33.696  22.297  27.304  1.00  0.00     0.123 A 
ATOM     88  F   UNL A   1      34.171  21.179  27.870  1.00  0.00    -0.207 F 
ENDBRANCH  80  82
BRANCH  80  89
ATOM     89  O   UNL A   1      31.316  26.535  26.519  1.00  0.00    -0.382 OA
ATOM     90  H   UNL A   1      30.410  26.300  26.264  1.00  0.00     0.212 HD
ENDBRANCH  80  89
BRANCH  81  91
ATOM     91  C   UNL A   1      30.331  26.744  23.858  1.00  0.00    -0.016 A 
ATOM     92  C   UNL A   1      30.269  27.967  23.173  1.00  0.00     0.009 A 
ATOM     93  C   UNL A   1      29.120  26.164  24.282  1.00  0.00     0.009 A 
ATOM     94  C   UNL A   1      29.044  28.560  22.859  1.00  0.00     0.039 A 
ATOM     95  C   UNL A   1      27.894  26.768  23.990  1.00  0.00     0.039 A 
ATOM     96  C   UNL A   1      27.867  27.952  23.265  1.00  0.00     0.123 A 
ATOM     97  F   UNL A   1      26.691  28.515  22.959  1.00  0.00    -0.207 F 
ENDBRANCH  81  91
ENDBRANCH  74  77
ENDBRANCH  72  73
ENDBRANCH  71  72
ENDBRANCH   1  71
TORSDOF 16
ENDMDL
MODEL 2
REMARK VINA RESULT:     -12.9      1.585      2.408
REMARK SMILES O=C(NCCCNC(=O)[C@H]1C[C@](O)(c2ccc(F)cc2)[C@@H](c2ccc(F)cc2)O1)c1ccc(-c2c3nc(c(-c4cccc(S(=O)(=O)[O-])c4F)c4ccc([nH]4)c(-c4cccc(S(=O)(=O)[O-])c4F)c4nc(c(-c5cccc(S(=O)(=O)[O-])c5F)c5ccc2[nH]5)C=C4)C=C3)cc1
REMARK SMILES IDX 4 1 3 2 1 3 2 4 30 6 31 7 92 8 32 9 91 10 33 11 34 12 35 13
REMARK SMILES IDX 85 14 36 15 90 16 84 17 86 18 37 19 89 20 83 21 82 22 38 24
REMARK SMILES IDX 70 25 50 26 69 27 51 28 54 29 68 30 87 31 52 32 53 33 67 35
REMARK SMILES IDX 88 36 55 37 39 38 40 39 48 40 41 41 43 42 49 43 42 44 44 45
REMARK SMILES IDX 45 46 46 47 47 48 71 49 72 50 80 51 73 52 75 53 81 54 74 55
REMARK SMILES IDX 76 56 77 57 78 58 79 59 56 60 57 61 65 62 58 63 60 64 66 65
REMARK SMILES IDX 59 66 61 67 62 68 63 69 64 70 5 71 6 72 7 73 8 74 9 76 10 77
REMARK SMILES IDX 11 78 29 79 12 80 21 81 14 82 15 83 20 84 16 85 19 86 17 87
REMARK SMILES IDX 18 88 13 89 22 91 23 92 28 93 24 94 27 95 25 96 26 97
REMARK H PARENT 3 5 86 23 54 34 7 75 13 90
REMARK Flexibility Score: inf
ROOT
ATOM      1  C   UNL A   1      32.928  29.602  26.326  1.00  0.00     0.118 C 
ENDROOT
BRANCH   1   2
ATOM      2  N   UNL A   1      32.754  31.030  26.552  1.00  0.00    -0.352 N 
ATOM      3  O   UNL A   1      33.020  33.044  27.503  1.00  0.00    -0.269 OA
ATOM      4  C   UNL A   1      33.466  31.910  27.327  1.00  0.00     0.251 C 
ATOM      5  H   UNL A   1      31.998  31.432  26.066  1.00  0.00     0.163 HD
BRANCH   4   6
ATOM      6  C   UNL A   1      34.737  31.507  27.969  1.00  0.00     0.039 A 
ATOM      7  C   UNL A   1      35.798  32.405  28.100  1.00  0.00     0.014 A 
ATOM      8  C   UNL A   1      34.849  30.216  28.493  1.00  0.00     0.014 A 
ATOM      9  C   UNL A   1      37.014  31.975  28.629  1.00  0.00     0.010 A 
ATOM     10  C   UNL A   1      36.043  29.809  29.093  1.00  0.00     0.010 A 
ATOM     11  C   UNL A   1      37.147  30.676  29.143  1.00  0.00    -0.014 A 
BRANCH  11  12
ATOM     12  C   UNL A   1      38.410  30.248  29.797  1.00  0.00     0.031 A 
ATOM     13  C   UNL A   1      39.311  29.236  29.142  1.00  0.00     0.074 A 
ATOM     14  C   UNL A   1      38.723  30.751  31.008  1.00  0.00     0.049 A 
ATOM     15  N   UNL A   1      40.391  28.669  29.616  1.00  0.00    -0.248 NA
ATOM     16  C   UNL A   1      38.958  28.802  27.779  1.00  0.00     0.031 C 
ATOM     17  C   UNL A   1      37.926  31.734  31.745  1.00  0.00     0.029 A 
ATOM     18  N   UNL A   1      39.781  30.490  31.843  1.00  0.00    -0.354 N 
ATOM     19  C   UNL A   1      40.829  27.790  28.631  1.00  0.00     0.074 A 
ATOM     20  C   UNL A   1      39.895  27.895  27.530  1.00  0.00     0.031 C 
ATOM     21  C   UNL A   1      38.522  31.995  32.918  1.00  0.00     0.029 A 
ATOM     22  C   UNL A   1      39.705  31.153  33.046  1.00  0.00     0.049 A 
ATOM     23  H   UNL A   1      40.522  29.888  31.603  1.00  0.00     0.167 HD
ATOM     24  C   UNL A   1      41.917  26.985  28.641  1.00  0.00     0.034 A 
ATOM     25  C   UNL A   1      40.479  31.068  34.145  1.00  0.00     0.034 A 
ATOM     26  C   UNL A   1      42.855  26.905  29.730  1.00  0.00     0.049 A 
ATOM     27  C   UNL A   1      41.658  30.136  34.132  1.00  0.00     0.074 A 
ATOM     28  C   UNL A   1      44.001  26.131  29.819  1.00  0.00     0.029 A 
ATOM     29  N   UNL A   1      42.765  27.616  30.915  1.00  0.00    -0.354 N 
ATOM     30  N   UNL A   1      42.101  29.374  33.161  1.00  0.00    -0.248 NA
ATOM     31  C   UNL A   1      42.464  30.071  35.360  1.00  0.00     0.031 C 
ATOM     32  C   UNL A   1      44.590  26.359  31.066  1.00  0.00     0.029 A 
ATOM     33  C   UNL A   1      43.831  27.300  31.742  1.00  0.00     0.049 A 
ATOM     34  H   UNL A   1      42.047  28.254  31.137  1.00  0.00     0.167 HD
ATOM     35  C   UNL A   1      43.252  28.769  33.648  1.00  0.00     0.074 A 
ATOM     36  C   UNL A   1      43.459  29.279  34.987  1.00  0.00     0.031 C 
ATOM     37  C   UNL A   1      44.057  27.856  33.050  1.00  0.00     0.034 A 
BRANCH  24  38
ATOM     38  C   UNL A   1      42.203  26.145  27.423  1.00  0.00     0.023 A 
ATOM     39  C   UNL A   1      42.974  26.688  26.376  1.00  0.00     0.012 A 
ATOM     40  C   UNL A   1      41.844  24.782  27.384  1.00  0.00     0.148 A 
ATOM     41  C   UNL A   1      43.380  25.890  25.306  1.00  0.00     0.002 A 
ATOM     42  C   UNL A   1      42.290  23.983  26.336  1.00  0.00     0.091 A 
ATOM     43  F   UNL A   1      41.103  24.289  28.385  1.00  0.00    -0.205 F 
ATOM     44  C   UNL A   1      43.053  24.537  25.295  1.00  0.00     0.022 A 
BRANCH  42  45
ATOM     45  S   UNL A   1      41.999  22.211  26.266  1.00  0.00     0.127 S 
ATOM     46  O   UNL A   1      40.550  22.159  26.071  1.00  0.00    -0.237 OA
ATOM     47  O   UNL A   1      42.786  21.819  25.098  1.00  0.00    -0.237 OA
ATOM     48  O   UNL A   1      42.467  21.673  27.535  1.00  0.00    -0.744 OA
ENDBRANCH  42  45
ENDBRANCH  24  38
BRANCH  25  49
ATOM     49  C   UNL A   1      40.182  31.907  35.341  1.00  0.00     0.023 A 
ATOM     50  C   UNL A   1      40.964  33.051  35.590  1.00  0.00     0.012 A 
ATOM     51  C   UNL A   1      39.136  31.584  36.228  1.00  0.00     0.148 A 
ATOM     52  C   UNL A   1      40.738  33.836  36.722  1.00  0.00     0.002 A 
ATOM     53  C   UNL A   1      38.874  32.407  37.318  1.00  0.00     0.091 A 
ATOM     54  F   UNL A   1      38.412  30.483  35.985  1.00  0.00    -0.205 F 
ATOM     55  C   UNL A   1      39.687  33.520  37.578  1.00  0.00     0.022 A 
BRANCH  53  56
ATOM     56  S   UNL A   1      37.457  32.157  38.391  1.00  0.00     0.127 S 
ATOM     57  O   UNL A   1      37.954  32.669  39.667  1.00  0.00    -0.237 OA
ATOM     58  O   UNL A   1      36.439  32.990  37.748  1.00  0.00    -0.237 OA
ATOM     59  O   UNL A   1      37.177  30.729  38.346  1.00  0.00    -0.744 OA
ENDBRANCH  53  56
ENDBRANCH  25  49
BRANCH  37  60
ATOM     60  C   UNL A   1      45.259  27.374  33.820  1.00  0.00     0.023 A 
ATOM     61  C   UNL A   1      46.475  28.083  33.739  1.00  0.00     0.012 A 
ATOM     62  C   UNL A   1      45.170  26.254  34.671  1.00  0.00     0.148 A 
ATOM     63  C   UNL A   1      47.593  27.659  34.456  1.00  0.00     0.002 A 
ATOM     64  C   UNL A   1      46.271  25.871  35.426  1.00  0.00     0.091 A 
ATOM     65  F   UNL A   1      44.011  25.580  34.723  1.00  0.00    -0.205 F 
ATOM     66  C   UNL A   1      47.489  26.562  35.307  1.00  0.00     0.022 A 
BRANCH  64  67
ATOM     67  S   UNL A   1      46.198  24.539  36.628  1.00  0.00     0.127 S 
ATOM     68  O   UNL A   1      45.154  25.013  37.536  1.00  0.00    -0.237 OA
ATOM     69  O   UNL A   1      45.813  23.394  35.802  1.00  0.00    -0.237 OA
ATOM     70  O   UNL A   1      47.533  24.446  37.204  1.00  0.00    -0.744 OA
ENDBRANCH  64  67
ENDBRANCH  37  60
ENDBRANCH  11  12
ENDBRANCH   4   6
ENDBRANCH   1   2
BRANCH   1  71
ATOM     71  C   UNL A   1      31.624  28.815  26.409  1.00  0.00     0.042 C 
BRANCH  71  72
ATOM     72  C   UNL A   1      31.690  27.538  27.235  1.00  0.00     0.117 C 
BRANCH  72  73
ATOM     73  N   UNL A   1      30.747  26.517  26.825  1.00  0.00    -0.354 N 
ATOM     74  C   UNL A   1      30.924  25.168  26.741  1.00  0.00     0.249 C 
ATOM     75  H   UNL A   1      29.853  26.843  26.572  1.00  0.00     0.163 HD
ATOM     76  O   UNL A   1      29.908  24.472  26.823  1.00  0.00    -0.272 OA
BRANCH  74  77
ATOM     77  C   UNL A   1      32.331  24.572  26.510  1.00  0.00     0.211 C 
ATOM     78  C   UNL A   1      32.346  23.505  25.422  1.00  0.00     0.085 C 
ATOM     79  O   UNL A   1      33.234  25.618  26.139  1.00  0.00    -0.357 OA
ATOM     80  C   UNL A   1      33.404  23.930  24.399  1.00  0.00     0.123 C 
ATOM     81  C   UNL A   1      33.698  25.409  24.792  1.00  0.00     0.186 C 
BRANCH  80  82
ATOM     82  C   UNL A   1      34.578  22.934  24.373  1.00  0.00    -0.013 A 
ATOM     83  C   UNL A   1      35.775  23.324  23.726  1.00  0.00     0.010 A 
ATOM     84  C   UNL A   1      34.571  21.676  25.001  1.00  0.00     0.010 A 
ATOM     85  C   UNL A   1      36.904  22.500  23.707  1.00  0.00     0.039 A 
ATOM     86  C   UNL A   1      35.707  20.855  24.991  1.00  0.00     0.039 A 
ATOM     87  C   UNL A   1      36.861  21.274  24.347  1.00  0.00     0.123 A 
ATOM     88  F   UNL A   1      37.946  20.488  24.353  1.00  0.00    -0.207 F 
ENDBRANCH  80  82
BRANCH  80  89
ATOM     89  O   UNL A   1      32.821  23.815  23.089  1.00  0.00    -0.382 OA
ATOM     90  H   UNL A   1      32.452  22.925  22.977  1.00  0.00     0.212 HD
ENDBRANCH  80  89
BRANCH  81  91
ATOM     91  C   UNL A   1      33.155  26.522  23.902  1.00  0.00    -0.016 A 
ATOM     92  C   UNL A   1      31.818  26.559  23.480  1.00  0.00     0.009 A 
ATOM     93  C   UNL A   1      33.997  27.584  23.519  1.00  0.00     0.009 A 
ATOM     94  C   UNL A   1      31.315  27.645  22.760  1.00  0.00     0.039 A 
ATOM     95  C   UNL A   1      33.502  28.660  22.778  1.00  0.00     0.039 A 
ATOM     96  C   UNL A   1      32.161  28.689  22.420  1.00  0.00     0.123 A 
ATOM     97  F   UNL A   1      31.679  29.735  21.737  1.00  0.00    -0.207 F 
ENDBRANCH  81  91
ENDBRANCH  74  77
ENDBRANCH  72  73
ENDBRANCH  71  72
ENDBRANCH   1  71
TORSDOF 16
ENDMDL
MODEL 3
REMARK VINA RESULT:     -12.7      5.559     10.649
REMARK SMILES O=C(NCCCNC(=O)[C@H]1C[C@](O)(c2ccc(F)cc2)[C@@H](c2ccc(F)cc2)O1)c1ccc(-c2c3nc(c(-c4cccc(S(=O)(=O)[O-])c4F)c4ccc([nH]4)c(-c4cccc(S(=O)(=O)[O-])c4F)c4nc(c(-c5cccc(S(=O)(=O)[O-])c5F)c5ccc2[nH]5)C=C4)C=C3)cc1
REMARK SMILES IDX 4 1 3 2 1 3 2 4 30 6 31 7 92 8 32 9 91 10 33 11 34 12 35 13
REMARK SMILES IDX 85 14 36 15 90 16 84 17 86 18 37 19 89 20 83 21 82 22 38 24
REMARK SMILES IDX 70 25 50 26 69 27 51 28 54 29 68 30 87 31 52 32 53 33 67 35
REMARK SMILES IDX 88 36 55 37 39 38 40 39 48 40 41 41 43 42 49 43 42 44 44 45
REMARK SMILES IDX 45 46 46 47 47 48 71 49 72 50 80 51 73 52 75 53 81 54 74 55
REMARK SMILES IDX 76 56 77 57 78 58 79 59 56 60 57 61 65 62 58 63 60 64 66 65
REMARK SMILES IDX 59 66 61 67 62 68 63 69 64 70 5 71 6 72 7 73 8 74 9 76 10 77
REMARK SMILES IDX 11 78 29 79 12 80 21 81 14 82 15 83 20 84 16 85 19 86 17 87
REMARK SMILES IDX 18 88 13 89 22 91 23 92 28 93 24 94 27 95 25 96 26 97
REMARK H PARENT 3 5 86 23 54 34 7 75 13 90
REMARK Flexibility Score: inf
ROOT
ATOM      1  C   UNL A   1      37.308  21.213  24.748  1.00  0.00     0.118 C 
ENDROOT
BRANCH   1   2
ATOM      2  N   UNL A   1      38.182  20.139  25.200  1.00  0.00    -0.352 N 
ATOM      3  O   UNL A   1      40.057  19.119  25.889  1.00  0.00    -0.269 OA
ATOM      4  C   UNL A   1      39.437  20.174  25.751  1.00  0.00     0.251 C 
ATOM      5  H   UNL A   1      37.808  19.234  25.092  1.00  0.00     0.163 HD
BRANCH   4   6
ATOM      6  C   UNL A   1      40.060  21.455  26.151  1.00  0.00     0.039 A 
ATOM      7  C   UNL A   1      41.438  21.559  26.354  1.00  0.00     0.014 A 
ATOM      8  C   UNL A   1      39.251  22.589  26.278  1.00  0.00     0.014 A 
ATOM      9  C   UNL A   1      41.987  22.754  26.815  1.00  0.00     0.010 A 
ATOM     10  C   UNL A   1      39.815  23.807  26.665  1.00  0.00     0.010 A 
ATOM     11  C   UNL A   1      41.185  23.895  26.964  1.00  0.00    -0.014 A 
BRANCH  11  12
ATOM     12  C   UNL A   1      41.786  25.195  27.360  1.00  0.00     0.031 A 
ATOM     13  C   UNL A   1      40.982  26.216  28.119  1.00  0.00     0.074 A 
ATOM     14  C   UNL A   1      43.056  25.465  26.997  1.00  0.00     0.049 A 
ATOM     15  N   UNL A   1      41.309  27.439  28.449  1.00  0.00    -0.248 NA
ATOM     16  C   UNL A   1      39.637  25.816  28.566  1.00  0.00     0.031 C 
ATOM     17  C   UNL A   1      43.933  24.558  26.254  1.00  0.00     0.029 A 
ATOM     18  N   UNL A   1      43.822  26.589  27.181  1.00  0.00    -0.354 N 
ATOM     19  C   UNL A   1      40.206  27.967  29.111  1.00  0.00     0.074 A 
ATOM     20  C   UNL A   1      39.195  26.932  29.134  1.00  0.00     0.031 C 
ATOM     21  C   UNL A   1      45.115  25.157  26.049  1.00  0.00     0.029 A 
ATOM     22  C   UNL A   1      45.061  26.510  26.585  1.00  0.00     0.049 A 
ATOM     23  H   UNL A   1      43.516  27.374  27.690  1.00  0.00     0.167 HD
ATOM     24  C   UNL A   1      40.060  29.196  29.661  1.00  0.00     0.034 A 
ATOM     25  C   UNL A   1      46.030  27.436  26.452  1.00  0.00     0.034 A 
ATOM     26  C   UNL A   1      41.080  30.212  29.656  1.00  0.00     0.049 A 
ATOM     27  C   UNL A   1      45.817  28.801  27.045  1.00  0.00     0.074 A 
ATOM     28  C   UNL A   1      41.028  31.481  30.209  1.00  0.00     0.029 A 
ATOM     29  N   UNL A   1      42.331  30.083  29.075  1.00  0.00    -0.354 N 
ATOM     30  N   UNL A   1      44.800  29.253  27.737  1.00  0.00    -0.248 NA
ATOM     31  C   UNL A   1      46.900  29.778  26.863  1.00  0.00     0.031 C 
ATOM     32  C   UNL A   1      42.239  32.126  29.943  1.00  0.00     0.029 A 
ATOM     33  C   UNL A   1      43.059  31.248  29.254  1.00  0.00     0.049 A 
ATOM     34  H   UNL A   1      42.655  29.281  28.604  1.00  0.00     0.167 HD
ATOM     35  C   UNL A   1      45.135  30.552  28.100  1.00  0.00     0.074 A 
ATOM     36  C   UNL A   1      46.464  30.801  27.582  1.00  0.00     0.031 C 
ATOM     37  C   UNL A   1      44.402  31.465  28.783  1.00  0.00     0.034 A 
BRANCH  24  38
ATOM     38  C   UNL A   1      38.768  29.520  30.366  1.00  0.00     0.023 A 
ATOM     39  C   UNL A   1      38.559  29.044  31.675  1.00  0.00     0.012 A 
ATOM     40  C   UNL A   1      37.839  30.417  29.799  1.00  0.00     0.148 A 
ATOM     41  C   UNL A   1      37.443  29.449  32.408  1.00  0.00     0.002 A 
ATOM     42  C   UNL A   1      36.754  30.850  30.551  1.00  0.00     0.091 A 
ATOM     43  F   UNL A   1      38.054  30.850  28.549  1.00  0.00    -0.205 F 
ATOM     44  C   UNL A   1      36.551  30.364  31.853  1.00  0.00     0.022 A 
BRANCH  42  45
ATOM     45  S   UNL A   1      35.591  32.090  29.966  1.00  0.00     0.127 S 
ATOM     46  O   UNL A   1      34.965  31.398  28.840  1.00  0.00    -0.237 OA
ATOM     47  O   UNL A   1      34.725  32.268  31.130  1.00  0.00    -0.237 OA
ATOM     48  O   UNL A   1      36.388  33.254  29.605  1.00  0.00    -0.744 OA
ENDBRANCH  42  45
ENDBRANCH  24  38
BRANCH  25  49
ATOM     49  C   UNL A   1      47.302  27.098  25.752  1.00  0.00     0.023 A 
ATOM     50  C   UNL A   1      48.300  26.384  26.444  1.00  0.00     0.012 A 
ATOM     51  C   UNL A   1      47.530  27.473  24.413  1.00  0.00     0.148 A 
ATOM     52  C   UNL A   1      49.516  26.085  25.830  1.00  0.00     0.002 A 
ATOM     53  C   UNL A   1      48.718  27.115  23.787  1.00  0.00     0.091 A 
ATOM     54  F   UNL A   1      46.577  28.166  23.776  1.00  0.00    -0.205 F 
ATOM     55  C   UNL A   1      49.721  26.441  24.500  1.00  0.00     0.022 A 
BRANCH  53  56
ATOM     56  S   UNL A   1      49.010  27.407  22.040  1.00  0.00     0.127 S 
ATOM     57  O   UNL A   1      50.469  27.465  21.986  1.00  0.00    -0.237 OA
ATOM     58  O   UNL A   1      48.418  26.215  21.431  1.00  0.00    -0.237 OA
ATOM     59  O   UNL A   1      48.313  28.647  21.728  1.00  0.00    -0.744 OA
ENDBRANCH  53  56
ENDBRANCH  25  49
BRANCH  37  60
ATOM     60  C   UNL A   1      45.031  32.809  29.047  1.00  0.00     0.023 A 
ATOM     61  C   UNL A   1      45.818  33.001  30.200  1.00  0.00     0.012 A 
ATOM     62  C   UNL A   1      44.892  33.864  28.124  1.00  0.00     0.148 A 
ATOM     63  C   UNL A   1      46.419  34.234  30.453  1.00  0.00     0.002 A 
ATOM     64  C   UNL A   1      45.540  35.072  28.353  1.00  0.00     0.091 A 
ATOM     65  F   UNL A   1      44.125  33.671  27.040  1.00  0.00    -0.205 F 
ATOM     66  C   UNL A   1      46.290  35.264  29.525  1.00  0.00     0.022 A 
BRANCH  64  67
ATOM     67  S   UNL A   1      45.519  36.416  27.162  1.00  0.00     0.127 S 
ATOM     68  O   UNL A   1      46.313  37.435  27.848  1.00  0.00    -0.237 OA
ATOM     69  O   UNL A   1      46.174  35.814  26.000  1.00  0.00    -0.237 OA
ATOM     70  O   UNL A   1      44.116  36.749  26.959  1.00  0.00    -0.744 OA
ENDBRANCH  64  67
ENDBRANCH  37  60
ENDBRANCH  11  12
ENDBRANCH   4   6
ENDBRANCH   1   2
BRANCH   1  71
ATOM     71  C   UNL A   1      35.953  21.223  25.449  1.00  0.00     0.042 C 
BRANCH  71  72
ATOM     72  C   UNL A   1      35.552  22.556  26.064  1.00  0.00     0.117 C 
BRANCH  72  73
ATOM     73  N   UNL A   1      34.783  22.439  27.286  1.00  0.00    -0.354 N 
ATOM     74  C   UNL A   1      33.480  22.769  27.518  1.00  0.00     0.249 C 
ATOM     75  H   UNL A   1      35.269  22.070  28.059  1.00  0.00     0.163 HD
ATOM     76  O   UNL A   1      32.918  22.180  28.445  1.00  0.00    -0.272 OA
BRANCH  74  77
ATOM     77  C   UNL A   1      32.785  23.860  26.674  1.00  0.00     0.211 C 
ATOM     78  C   UNL A   1      33.729  24.523  25.677  1.00  0.00     0.085 C 
ATOM     79  O   UNL A   1      31.692  23.280  25.954  1.00  0.00    -0.357 OA
ATOM     80  C   UNL A   1      33.080  24.390  24.296  1.00  0.00     0.123 C 
ATOM     81  C   UNL A   1      31.949  23.345  24.538  1.00  0.00     0.186 C 
BRANCH  80  82
ATOM     82  C   UNL A   1      32.692  25.769  23.732  1.00  0.00    -0.013 A 
ATOM     83  C   UNL A   1      33.614  26.834  23.866  1.00  0.00     0.010 A 
ATOM     84  C   UNL A   1      31.501  26.039  23.034  1.00  0.00     0.010 A 
ATOM     85  C   UNL A   1      33.361  28.101  23.332  1.00  0.00     0.039 A 
ATOM     86  C   UNL A   1      31.251  27.306  22.490  1.00  0.00     0.039 A 
ATOM     87  C   UNL A   1      32.182  28.322  22.642  1.00  0.00     0.123 A 
ATOM     88  F   UNL A   1      31.941  29.527  22.108  1.00  0.00    -0.207 F 
ENDBRANCH  80  82
BRANCH  80  89
ATOM     89  O   UNL A   1      34.082  23.911  23.383  1.00  0.00    -0.382 OA
ATOM     90  H   UNL A   1      33.654  23.573  22.581  1.00  0.00     0.212 HD
ENDBRANCH  80  89
BRANCH  81  91
ATOM     91  C   UNL A   1      32.135  21.930  24.002  1.00  0.00    -0.016 A 
ATOM     92  C   UNL A   1      32.405  20.840  24.842  1.00  0.00     0.009 A 
ATOM     93  C   UNL A   1      31.988  21.680  22.624  1.00  0.00     0.009 A 
ATOM     94  C   UNL A   1      32.460  19.536  24.343  1.00  0.00     0.039 A 
ATOM     95  C   UNL A   1      32.066  20.379  22.119  1.00  0.00     0.039 A 
ATOM     96  C   UNL A   1      32.284  19.317  22.986  1.00  0.00     0.123 A 
ATOM     97  F   UNL A   1      32.328  18.068  22.506  1.00  0.00    -0.207 F 
ENDBRANCH  81  91
ENDBRANCH  74  77
ENDBRANCH  72  73
ENDBRANCH  71  72
ENDBRANCH   1  71
TORSDOF 16
ENDMDL
