MODEL 1
REMARK VINA RESULT:     -11.9      0.000      0.000
REMARK SMILES CC1=C(C)C[C@@H](C(=O)NCc2cccnc2)[C@H](C(=O)NCCCNC(=O)c2ccc(-c3c4nc(c(-c5cccc(S(=O)(=O)[O-])c5F)c5ccc([nH]5)c(-c5cccc(S(=O)(=O)[O-])c5F)c5nc(c(-c6cccc(S(=O)(=O)[O-])c6F)c6ccc3[nH]6)C=C5)C=C4)cc2)C1
REMARK SMILES IDX 22 1 21 2 20 3 18 4 19 5 17 7 1 8 2 9 3 10 90 11 4 12 5 13
REMARK SMILES IDX 6 14 7 15 8 16 9 17 10 19 11 20 12 21 16 22 13 23 15 24
REMARK SMILES IDX 14 25 23 26 24 27 25 28 26 30 27 31 28 32 89 33 29 34 88 35
REMARK SMILES IDX 30 36 31 37 32 38 82 39 33 40 87 41 81 42 83 43 34 44 86 45
REMARK SMILES IDX 80 46 79 47 35 49 67 50 47 51 66 52 48 53 51 54 65 55 84 56
REMARK SMILES IDX 49 57 50 58 64 60 85 61 52 62 36 63 37 64 45 65 38 66 40 67
REMARK SMILES IDX 46 68 39 69 41 70 42 71 43 72 44 73 68 74 69 75 77 76 70 77
REMARK SMILES IDX 72 78 78 79 71 80 73 81 74 82 75 83 76 84 53 85 54 86 62 87
REMARK SMILES IDX 55 88 57 89 63 90 56 91 58 92 59 93 60 94 61 95
REMARK H PARENT 20 6 9 18 24 29 83 48 51 59
REMARK Flexibility Score: inf
ROOT
ATOM      1  C   UNL A   1      33.616  28.318  26.014  1.00  0.00     0.042 C 
ENDROOT
BRANCH   1   2
ATOM      2  C   UNL A   1      33.748  26.816  26.104  1.00  0.00     0.117 C 
BRANCH   2   3
ATOM      3  N   UNL A   1      33.964  26.185  24.821  1.00  0.00    -0.356 N 
ATOM      4  C   UNL A   1      34.388  24.927  24.529  1.00  0.00     0.224 C 
ATOM      5  O   UNL A   1      34.405  24.595  23.342  1.00  0.00    -0.275 OA
ATOM      6  H   UNL A   1      33.777  26.754  24.039  1.00  0.00     0.163 HD
BRANCH   4   7
ATOM      7  C   UNL A   1      34.837  23.947  25.616  1.00  0.00     0.095 C 
ATOM      8  C   UNL A   1      38.655  23.028  25.964  1.00  0.00     0.039 C 
ATOM      9  C   UNL A   1      37.193  22.815  25.671  1.00  0.00    -0.074 C 
ATOM     10  C   UNL A   1      36.688  21.651  25.203  1.00  0.00    -0.074 C 
ATOM     11  C   UNL A   1      36.341  24.051  25.889  1.00  0.00     0.045 C 
ATOM     12  C   UNL A   1      37.516  20.444  24.831  1.00  0.00     0.039 C 
ATOM     13  C   UNL A   1      35.214  21.450  24.927  1.00  0.00     0.045 C 
ATOM     14  C   UNL A   1      34.253  22.548  25.383  1.00  0.00     0.095 C 
BRANCH  14  15
ATOM     15  C   UNL A   1      33.366  22.113  26.553  1.00  0.00     0.224 C 
ATOM     16  O   UNL A   1      33.873  21.885  27.657  1.00  0.00    -0.275 OA
ATOM     17  N   UNL A   1      32.026  21.916  26.460  1.00  0.00    -0.352 N 
ATOM     18  H   UNL A   1      31.629  21.513  27.266  1.00  0.00     0.163 HD
BRANCH  17  19
ATOM     19  C   UNL A   1      31.068  22.182  25.410  1.00  0.00     0.153 C 
BRANCH  19  20
ATOM     20  C   UNL A   1      30.757  23.645  25.274  1.00  0.00    -0.010 A 
ATOM     21  C   UNL A   1      30.755  24.288  24.036  1.00  0.00     0.009 A 
ATOM     22  C   UNL A   1      30.436  24.421  26.384  1.00  0.00     0.116 A 
ATOM     23  C   UNL A   1      30.478  25.652  23.966  1.00  0.00     0.020 A 
ATOM     24  N   UNL A   1      30.174  25.747  26.353  1.00  0.00    -0.264 NA
ATOM     25  C   UNL A   1      30.215  26.335  25.141  1.00  0.00     0.111 A 
ENDBRANCH  19  20
ENDBRANCH  17  19
ENDBRANCH  14  15
ENDBRANCH   4   7
ENDBRANCH   2   3
ENDBRANCH   1   2
BRANCH   1  26
ATOM     26  C   UNL A   1      33.177  28.932  27.328  1.00  0.00     0.118 C 
BRANCH  26  27
ATOM     27  N   UNL A   1      33.444  30.368  27.379  1.00  0.00    -0.352 N 
ATOM     28  C   UNL A   1      34.518  31.049  27.902  1.00  0.00     0.251 C 
ATOM     29  H   UNL A   1      32.747  30.936  26.978  1.00  0.00     0.163 HD
ATOM     30  O   UNL A   1      34.454  32.259  28.071  1.00  0.00    -0.269 OA
BRANCH  28  31
ATOM     31  C   UNL A   1      35.736  30.301  28.273  1.00  0.00     0.039 A 
ATOM     32  C   UNL A   1      36.828  30.294  27.402  1.00  0.00     0.014 A 
ATOM     33  C   UNL A   1      35.807  29.640  29.499  1.00  0.00     0.014 A 
ATOM     34  C   UNL A   1      38.021  29.697  27.809  1.00  0.00     0.010 A 
ATOM     35  C   UNL A   1      37.026  29.157  29.949  1.00  0.00     0.010 A 
ATOM     36  C   UNL A   1      38.145  29.174  29.107  1.00  0.00    -0.014 A 
BRANCH  36  37
ATOM     37  C   UNL A   1      39.439  28.661  29.619  1.00  0.00     0.031 A 
ATOM     38  C   UNL A   1      40.157  29.391  30.722  1.00  0.00     0.074 A 
ATOM     39  C   UNL A   1      40.014  27.603  29.014  1.00  0.00     0.049 A 
ATOM     40  N   UNL A   1      41.326  29.139  31.247  1.00  0.00    -0.248 NA
ATOM     41  C   UNL A   1      39.492  30.579  31.287  1.00  0.00     0.031 C 
ATOM     42  C   UNL A   1      39.460  26.876  27.867  1.00  0.00     0.029 A 
ATOM     43  N   UNL A   1      41.209  26.973  29.254  1.00  0.00    -0.354 N 
ATOM     44  C   UNL A   1      41.555  30.154  32.168  1.00  0.00     0.074 A 
ATOM     45  C   UNL A   1      40.420  31.047  32.108  1.00  0.00     0.031 C 
ATOM     46  C   UNL A   1      40.308  25.900  27.511  1.00  0.00     0.029 A 
ATOM     47  C   UNL A   1      41.483  25.952  28.372  1.00  0.00     0.049 A 
ATOM     48  H   UNL A   1      41.814  27.227  29.989  1.00  0.00     0.167 HD
ATOM     49  C   UNL A   1      42.602  30.311  33.011  1.00  0.00     0.034 A 
ATOM     50  C   UNL A   1      42.566  25.160  28.260  1.00  0.00     0.034 A 
ATOM     51  C   UNL A   1      43.701  29.391  33.099  1.00  0.00     0.049 A 
ATOM     52  C   UNL A   1      43.694  25.331  29.241  1.00  0.00     0.074 A 
ATOM     53  C   UNL A   1      44.753  29.396  33.998  1.00  0.00     0.029 A 
ATOM     54  N   UNL A   1      43.902  28.313  32.252  1.00  0.00    -0.354 N 
ATOM     55  N   UNL A   1      43.802  26.182  30.232  1.00  0.00    -0.248 NA
ATOM     56  C   UNL A   1      44.834  24.413  29.110  1.00  0.00     0.031 C 
ATOM     57  C   UNL A   1      45.609  28.340  33.671  1.00  0.00     0.029 A 
ATOM     58  C   UNL A   1      45.073  27.659  32.590  1.00  0.00     0.049 A 
ATOM     59  H   UNL A   1      43.301  28.053  31.517  1.00  0.00     0.167 HD
ATOM     60  C   UNL A   1      45.007  25.887  30.857  1.00  0.00     0.074 A 
ATOM     61  C   UNL A   1      45.576  24.756  30.154  1.00  0.00     0.031 C 
ATOM     62  C   UNL A   1      45.602  26.508  31.906  1.00  0.00     0.034 A 
BRANCH  49  63
ATOM     63  C   UNL A   1      42.589  31.492  33.944  1.00  0.00     0.023 A 
ATOM     64  C   UNL A   1      43.055  32.743  33.493  1.00  0.00     0.012 A 
ATOM     65  C   UNL A   1      42.039  31.383  35.236  1.00  0.00     0.148 A 
ATOM     66  C   UNL A   1      42.997  33.863  34.321  1.00  0.00     0.002 A 
ATOM     67  C   UNL A   1      41.942  32.513  36.038  1.00  0.00     0.091 A 
ATOM     68  F   UNL A   1      41.623  30.179  35.653  1.00  0.00    -0.205 F 
ATOM     69  C   UNL A   1      42.429  33.750  35.588  1.00  0.00     0.022 A 
BRANCH  67  70
ATOM     70  S   UNL A   1      41.154  32.494  37.652  1.00  0.00     0.127 S 
ATOM     71  O   UNL A   1      41.199  33.908  38.019  1.00  0.00    -0.237 OA
ATOM     72  O   UNL A   1      39.818  31.988  37.334  1.00  0.00    -0.237 OA
ATOM     73  O   UNL A   1      41.959  31.610  38.484  1.00  0.00    -0.744 OA
ENDBRANCH  67  70
ENDBRANCH  49  63
BRANCH  50  74
ATOM     74  C   UNL A   1      42.621  24.108  27.205  1.00  0.00     0.023 A 
ATOM     75  C   UNL A   1      43.264  24.380  25.983  1.00  0.00     0.012 A 
ATOM     76  C   UNL A   1      42.051  22.836  27.412  1.00  0.00     0.148 A 
ATOM     77  C   UNL A   1      43.304  23.421  24.970  1.00  0.00     0.002 A 
ATOM     78  C   UNL A   1      42.147  21.864  26.423  1.00  0.00     0.091 A 
ATOM     79  F   UNL A   1      41.432  22.598  28.577  1.00  0.00    -0.205 F 
ATOM     80  C   UNL A   1      42.755  22.161  25.193  1.00  0.00     0.022 A 
BRANCH  78  81
ATOM     81  S   UNL A   1      41.595  20.175  26.682  1.00  0.00     0.127 S 
ATOM     82  O   UNL A   1      42.456  19.743  27.779  1.00  0.00    -0.237 OA
ATOM     83  O   UNL A   1      40.189  20.366  27.039  1.00  0.00    -0.237 OA
ATOM     84  O   UNL A   1      41.799  19.499  25.408  1.00  0.00    -0.744 OA
ENDBRANCH  78  81
ENDBRANCH  50  74
BRANCH  62  85
ATOM     85  C   UNL A   1      46.929  25.969  32.372  1.00  0.00     0.023 A 
ATOM     86  C   UNL A   1      48.121  26.465  31.808  1.00  0.00     0.012 A 
ATOM     87  C   UNL A   1      46.996  25.026  33.415  1.00  0.00     0.148 A 
ATOM     88  C   UNL A   1      49.359  26.005  32.251  1.00  0.00     0.002 A 
ATOM     89  C   UNL A   1      48.234  24.611  33.888  1.00  0.00     0.091 A 
ATOM     90  F   UNL A   1      45.849  24.557  33.927  1.00  0.00    -0.205 F 
ATOM     91  C   UNL A   1      49.417  25.088  33.298  1.00  0.00     0.022 A 
BRANCH  89  92
ATOM     92  S   UNL A   1      48.409  23.508  35.295  1.00  0.00     0.127 S 
ATOM     93  O   UNL A   1      49.859  23.494  35.483  1.00  0.00    -0.237 OA
ATOM     94  O   UNL A   1      47.665  24.216  36.337  1.00  0.00    -0.237 OA
ATOM     95  O   UNL A   1      47.822  22.239  34.888  1.00  0.00    -0.744 OA
ENDBRANCH  89  92
ENDBRANCH  62  85
ENDBRANCH  36  37
ENDBRANCH  28  31
ENDBRANCH  26  27
ENDBRANCH   1  26
TORSDOF 16
ENDMDL
MODEL 2
REMARK VINA RESULT:     -11.9      3.937      9.124
REMARK SMILES CC1=C(C)C[C@@H](C(=O)NCc2cccnc2)[C@H](C(=O)NCCCNC(=O)c2ccc(-c3c4nc(c(-c5cccc(S(=O)(=O)[O-])c5F)c5ccc([nH]5)c(-c5cccc(S(=O)(=O)[O-])c5F)c5nc(c(-c6cccc(S(=O)(=O)[O-])c6F)c6ccc3[nH]6)C=C5)C=C4)cc2)C1
REMARK SMILES IDX 22 1 21 2 20 3 18 4 19 5 17 7 1 8 2 9 3 10 90 11 4 12 5 13
REMARK SMILES IDX 6 14 7 15 8 16 9 17 10 19 11 20 12 21 16 22 13 23 15 24
REMARK SMILES IDX 14 25 23 26 24 27 25 28 26 30 27 31 28 32 89 33 29 34 88 35
REMARK SMILES IDX 30 36 31 37 32 38 82 39 33 40 87 41 81 42 83 43 34 44 86 45
REMARK SMILES IDX 80 46 79 47 35 49 67 50 47 51 66 52 48 53 51 54 65 55 84 56
REMARK SMILES IDX 49 57 50 58 64 60 85 61 52 62 36 63 37 64 45 65 38 66 40 67
REMARK SMILES IDX 46 68 39 69 41 70 42 71 43 72 44 73 68 74 69 75 77 76 70 77
REMARK SMILES IDX 72 78 78 79 71 80 73 81 74 82 75 83 76 84 53 85 54 86 62 87
REMARK SMILES IDX 55 88 57 89 63 90 56 91 58 92 59 93 60 94 61 95
REMARK H PARENT 20 6 9 18 24 29 83 48 51 59
REMARK Flexibility Score: inf
ROOT
ATOM      1  C   UNL A   1      31.855  31.532  26.834  1.00  0.00     0.042 C 
ENDROOT
BRANCH   1   2
ATOM      2  C   UNL A   1      32.221  30.094  26.548  1.00  0.00     0.117 C 
BRANCH   2   3
ATOM      3  N   UNL A   1      33.116  29.946  25.421  1.00  0.00    -0.356 N 
ATOM      4  C   UNL A   1      33.162  28.980  24.467  1.00  0.00     0.224 C 
ATOM      5  O   UNL A   1      33.971  29.128  23.548  1.00  0.00    -0.275 OA
ATOM      6  H   UNL A   1      33.795  30.654  25.332  1.00  0.00     0.163 HD
BRANCH   4   7
ATOM      7  C   UNL A   1      32.261  27.744  24.517  1.00  0.00     0.095 C 
ATOM      8  C   UNL A   1      33.870  24.161  24.855  1.00  0.00     0.039 C 
ATOM      9  C   UNL A   1      33.127  25.297  24.202  1.00  0.00    -0.074 C 
ATOM     10  C   UNL A   1      32.666  25.255  22.932  1.00  0.00    -0.074 C 
ATOM     11  C   UNL A   1      32.997  26.525  25.084  1.00  0.00     0.045 C 
ATOM     12  C   UNL A   1      32.902  24.114  21.971  1.00  0.00     0.039 C 
ATOM     13  C   UNL A   1      31.910  26.401  22.297  1.00  0.00     0.045 C 
ATOM     14  C   UNL A   1      31.492  27.560  23.202  1.00  0.00     0.095 C 
BRANCH  14  15
ATOM     15  C   UNL A   1      29.979  27.622  23.429  1.00  0.00     0.224 C 
ATOM     16  O   UNL A   1      29.324  26.576  23.497  1.00  0.00    -0.275 OA
ATOM     17  N   UNL A   1      29.270  28.775  23.526  1.00  0.00    -0.352 N 
ATOM     18  H   UNL A   1      28.295  28.640  23.539  1.00  0.00     0.163 HD
BRANCH  17  19
ATOM     19  C   UNL A   1      29.666  30.163  23.615  1.00  0.00     0.153 C 
BRANCH  19  20
ATOM     20  C   UNL A   1      28.979  31.022  22.592  1.00  0.00    -0.010 A 
ATOM     21  C   UNL A   1      28.645  30.539  21.326  1.00  0.00     0.009 A 
ATOM     22  C   UNL A   1      28.625  32.338  22.874  1.00  0.00     0.116 A 
ATOM     23  C   UNL A   1      28.025  31.382  20.406  1.00  0.00     0.020 A 
ATOM     24  N   UNL A   1      28.034  33.186  22.002  1.00  0.00    -0.264 NA
ATOM     25  C   UNL A   1      27.759  32.688  20.780  1.00  0.00     0.111 A 
ENDBRANCH  19  20
ENDBRANCH  17  19
ENDBRANCH  14  15
ENDBRANCH   4   7
ENDBRANCH   2   3
ENDBRANCH   1   2
BRANCH   1  26
ATOM     26  C   UNL A   1      33.030  32.324  27.369  1.00  0.00     0.118 C 
BRANCH  26  27
ATOM     27  N   UNL A   1      32.685  33.724  27.608  1.00  0.00    -0.352 N 
ATOM     28  C   UNL A   1      33.121  34.586  28.588  1.00  0.00     0.251 C 
ATOM     29  H   UNL A   1      32.042  34.110  26.971  1.00  0.00     0.163 HD
ATOM     30  O   UNL A   1      32.540  35.646  28.775  1.00  0.00    -0.269 OA
BRANCH  28  31
ATOM     31  C   UNL A   1      34.282  34.208  29.419  1.00  0.00     0.039 A 
ATOM     32  C   UNL A   1      34.070  33.618  30.666  1.00  0.00     0.014 A 
ATOM     33  C   UNL A   1      35.579  34.406  28.942  1.00  0.00     0.014 A 
ATOM     34  C   UNL A   1      35.163  33.145  31.392  1.00  0.00     0.010 A 
ATOM     35  C   UNL A   1      36.649  33.827  29.606  1.00  0.00     0.010 A 
ATOM     36  C   UNL A   1      36.455  33.196  30.841  1.00  0.00    -0.014 A 
BRANCH  36  37
ATOM     37  C   UNL A   1      37.616  32.575  31.522  1.00  0.00     0.031 A 
ATOM     38  C   UNL A   1      38.348  31.431  30.874  1.00  0.00     0.074 A 
ATOM     39  C   UNL A   1      37.938  32.973  32.770  1.00  0.00     0.049 A 
ATOM     40  N   UNL A   1      39.335  30.716  31.346  1.00  0.00    -0.248 NA
ATOM     41  C   UNL A   1      37.893  31.011  29.538  1.00  0.00     0.031 C 
ATOM     42  C   UNL A   1      37.235  34.004  33.540  1.00  0.00     0.029 A 
ATOM     43  N   UNL A   1      38.917  32.536  33.626  1.00  0.00    -0.354 N 
ATOM     44  C   UNL A   1      39.589  29.742  30.389  1.00  0.00     0.074 A 
ATOM     45  C   UNL A   1      38.632  29.933  29.323  1.00  0.00     0.031 C 
ATOM     46  C   UNL A   1      37.809  34.122  34.747  1.00  0.00     0.029 A 
ATOM     47  C   UNL A   1      38.892  33.153  34.855  1.00  0.00     0.049 A 
ATOM     48  H   UNL A   1      39.577  31.845  33.383  1.00  0.00     0.167 HD
ATOM     49  C   UNL A   1      40.553  28.792  30.384  1.00  0.00     0.034 A 
ATOM     50  C   UNL A   1      39.646  32.948  35.953  1.00  0.00     0.034 A 
ATOM     51  C   UNL A   1      41.532  28.641  31.424  1.00  0.00     0.049 A 
ATOM     52  C   UNL A   1      40.738  31.915  35.899  1.00  0.00     0.074 A 
ATOM     53  C   UNL A   1      42.620  27.788  31.460  1.00  0.00     0.029 A 
ATOM     54  N   UNL A   1      41.534  29.347  32.617  1.00  0.00    -0.354 N 
ATOM     55  N   UNL A   1      41.085  31.133  34.906  1.00  0.00    -0.248 NA
ATOM     56  C   UNL A   1      41.566  31.761  37.103  1.00  0.00     0.031 C 
ATOM     57  C   UNL A   1      43.261  27.953  32.692  1.00  0.00     0.029 A 
ATOM     58  C   UNL A   1      42.590  28.931  33.408  1.00  0.00     0.049 A 
ATOM     59  H   UNL A   1      40.880  30.039  32.865  1.00  0.00     0.167 HD
ATOM     60  C   UNL A   1      42.183  30.410  35.356  1.00  0.00     0.074 A 
ATOM     61  C   UNL A   1      42.466  30.875  36.698  1.00  0.00     0.031 C 
ATOM     62  C   UNL A   1      42.883  29.435  34.725  1.00  0.00     0.034 A 
BRANCH  49  63
ATOM     63  C   UNL A   1      40.634  27.873  29.195  1.00  0.00     0.023 A 
ATOM     64  C   UNL A   1      39.770  26.762  29.111  1.00  0.00     0.012 A 
ATOM     65  C   UNL A   1      41.506  28.154  28.126  1.00  0.00     0.148 A 
ATOM     66  C   UNL A   1      39.788  25.931  27.992  1.00  0.00     0.002 A 
ATOM     67  C   UNL A   1      41.486  27.349  26.993  1.00  0.00     0.091 A 
ATOM     68  F   UNL A   1      42.336  29.201  28.236  1.00  0.00    -0.205 F 
ATOM     69  C   UNL A   1      40.636  26.232  26.928  1.00  0.00     0.022 A 
BRANCH  67  70
ATOM     70  S   UNL A   1      42.478  27.695  25.536  1.00  0.00     0.127 S 
ATOM     71  O   UNL A   1      43.824  27.749  26.103  1.00  0.00    -0.237 OA
ATOM     72  O   UNL A   1      42.212  26.523  24.701  1.00  0.00    -0.237 OA
ATOM     73  O   UNL A   1      41.979  28.954  24.999  1.00  0.00    -0.744 OA
ENDBRANCH  67  70
ENDBRANCH  49  63
BRANCH  50  74
ATOM     74  C   UNL A   1      39.421  33.763  37.180  1.00  0.00     0.023 A 
ATOM     75  C   UNL A   1      39.911  35.082  37.240  1.00  0.00     0.012 A 
ATOM     76  C   UNL A   1      38.713  33.245  38.282  1.00  0.00     0.148 A 
ATOM     77  C   UNL A   1      39.737  35.855  38.388  1.00  0.00     0.002 A 
ATOM     78  C   UNL A   1      38.490  34.040  39.400  1.00  0.00     0.091 A 
ATOM     79  F   UNL A   1      38.264  31.984  38.214  1.00  0.00    -0.205 F 
ATOM     80  C   UNL A   1      39.019  35.338  39.464  1.00  0.00     0.022 A 
BRANCH  78  81
ATOM     81  S   UNL A   1      37.455  33.506  40.767  1.00  0.00     0.127 S 
ATOM     82  O   UNL A   1      38.299  32.500  41.406  1.00  0.00    -0.237 OA
ATOM     83  O   UNL A   1      37.291  34.746  41.527  1.00  0.00    -0.237 OA
ATOM     84  O   UNL A   1      36.227  33.014  40.158  1.00  0.00    -0.744 OA
ENDBRANCH  78  81
ENDBRANCH  50  74
BRANCH  62  85
ATOM     85  C   UNL A   1      44.036  28.815  35.468  1.00  0.00     0.023 A 
ATOM     86  C   UNL A   1      45.335  29.336  35.303  1.00  0.00     0.012 A 
ATOM     87  C   UNL A   1      43.821  27.766  36.383  1.00  0.00     0.148 A 
ATOM     88  C   UNL A   1      46.409  28.798  36.010  1.00  0.00     0.002 A 
ATOM     89  C   UNL A   1      44.887  27.270  37.123  1.00  0.00     0.091 A 
ATOM     90  F   UNL A   1      42.580  27.277  36.514  1.00  0.00    -0.205 F 
ATOM     91  C   UNL A   1      46.184  27.775  36.928  1.00  0.00     0.022 A 
BRANCH  89  92
ATOM     92  S   UNL A   1      44.679  26.021  38.396  1.00  0.00     0.127 S 
ATOM     93  O   UNL A   1      44.123  24.906  37.631  1.00  0.00    -0.237 OA
ATOM     94  O   UNL A   1      46.053  25.819  38.859  1.00  0.00    -0.237 OA
ATOM     95  O   UNL A   1      43.785  26.602  39.389  1.00  0.00    -0.744 OA
ENDBRANCH  89  92
ENDBRANCH  62  85
ENDBRANCH  36  37
ENDBRANCH  28  31
ENDBRANCH  26  27
ENDBRANCH   1  26
TORSDOF 16
ENDMDL
MODEL 3
REMARK VINA RESULT:     -11.8      1.295      2.356
REMARK SMILES CC1=C(C)C[C@@H](C(=O)NCc2cccnc2)[C@H](C(=O)NCCCNC(=O)c2ccc(-c3c4nc(c(-c5cccc(S(=O)(=O)[O-])c5F)c5ccc([nH]5)c(-c5cccc(S(=O)(=O)[O-])c5F)c5nc(c(-c6cccc(S(=O)(=O)[O-])c6F)c6ccc3[nH]6)C=C5)C=C4)cc2)C1
REMARK SMILES IDX 22 1 21 2 20 3 18 4 19 5 17 7 1 8 2 9 3 10 90 11 4 12 5 13
REMARK SMILES IDX 6 14 7 15 8 16 9 17 10 19 11 20 12 21 16 22 13 23 15 24
REMARK SMILES IDX 14 25 23 26 24 27 25 28 26 30 27 31 28 32 89 33 29 34 88 35
REMARK SMILES IDX 30 36 31 37 32 38 82 39 33 40 87 41 81 42 83 43 34 44 86 45
REMARK SMILES IDX 80 46 79 47 35 49 67 50 47 51 66 52 48 53 51 54 65 55 84 56
REMARK SMILES IDX 49 57 50 58 64 60 85 61 52 62 36 63 37 64 45 65 38 66 40 67
REMARK SMILES IDX 46 68 39 69 41 70 42 71 43 72 44 73 68 74 69 75 77 76 70 77
REMARK SMILES IDX 72 78 78 79 71 80 73 81 74 82 75 83 76 84 53 85 54 86 62 87
REMARK SMILES IDX 55 88 57 89 63 90 56 91 58 92 59 93 60 94 61 95
REMARK H PARENT 20 6 9 18 24 29 83 48 51 59
REMARK Flexibility Score: inf
ROOT
ATOM      1  C   UNL A   1      33.844  28.428  25.872  1.00  0.00     0.042 C 
ENDROOT
BRANCH   1   2
ATOM      2  C   UNL A   1      33.203  27.092  25.575  1.00  0.00     0.117 C 
BRANCH   2   3
ATOM      3  N   UNL A   1      33.577  26.555  24.285  1.00  0.00    -0.356 N 
ATOM      4  C   UNL A   1      34.030  25.317  23.956  1.00  0.00     0.224 C 
ATOM      5  O   UNL A   1      34.196  25.073  22.759  1.00  0.00    -0.275 OA
ATOM      6  H   UNL A   1      33.492  27.182  23.531  1.00  0.00     0.163 HD
BRANCH   4   7
ATOM      7  C   UNL A   1      34.336  24.254  25.015  1.00  0.00     0.095 C 
ATOM      8  C   UNL A   1      38.049  23.704  26.220  1.00  0.00     0.039 C 
ATOM      9  C   UNL A   1      36.741  23.379  25.546  1.00  0.00    -0.074 C 
ATOM     10  C   UNL A   1      36.524  22.241  24.849  1.00  0.00    -0.074 C 
ATOM     11  C   UNL A   1      35.703  24.478  25.668  1.00  0.00     0.045 C 
ATOM     12  C   UNL A   1      37.572  21.188  24.576  1.00  0.00     0.039 C 
ATOM     13  C   UNL A   1      35.199  21.925  24.190  1.00  0.00     0.045 C 
ATOM     14  C   UNL A   1      34.018  22.845  24.499  1.00  0.00     0.095 C 
BRANCH  14  15
ATOM     15  C   UNL A   1      32.945  22.167  25.356  1.00  0.00     0.224 C 
ATOM     16  O   UNL A   1      32.720  22.580  26.499  1.00  0.00    -0.275 OA
ATOM     17  N   UNL A   1      32.222  21.089  24.959  1.00  0.00    -0.352 N 
ATOM     18  H   UNL A   1      31.670  20.698  25.674  1.00  0.00     0.163 HD
BRANCH  17  19
ATOM     19  C   UNL A   1      32.104  20.403  23.692  1.00  0.00     0.153 C 
BRANCH  19  20
ATOM     20  C   UNL A   1      32.844  19.095  23.677  1.00  0.00    -0.010 A 
ATOM     21  C   UNL A   1      33.876  18.820  24.575  1.00  0.00     0.009 A 
ATOM     22  C   UNL A   1      32.514  18.089  22.773  1.00  0.00     0.116 A 
ATOM     23  C   UNL A   1      34.543  17.599  24.508  1.00  0.00     0.020 A 
ATOM     24  N   UNL A   1      33.149  16.900  22.673  1.00  0.00    -0.264 NA
ATOM     25  C   UNL A   1      34.160  16.688  23.539  1.00  0.00     0.111 A 
ENDBRANCH  19  20
ENDBRANCH  17  19
ENDBRANCH  14  15
ENDBRANCH   4   7
ENDBRANCH   2   3
ENDBRANCH   1   2
BRANCH   1  26
ATOM     26  C   UNL A   1      33.340  29.027  27.168  1.00  0.00     0.118 C 
BRANCH  26  27
ATOM     27  N   UNL A   1      33.615  30.461  27.254  1.00  0.00    -0.352 N 
ATOM     28  C   UNL A   1      34.680  31.123  27.819  1.00  0.00     0.251 C 
ATOM     29  H   UNL A   1      32.934  31.041  26.846  1.00  0.00     0.163 HD
ATOM     30  O   UNL A   1      34.620  32.330  28.009  1.00  0.00    -0.269 OA
BRANCH  28  31
ATOM     31  C   UNL A   1      35.883  30.359  28.207  1.00  0.00     0.039 A 
ATOM     32  C   UNL A   1      36.983  30.329  27.348  1.00  0.00     0.014 A 
ATOM     33  C   UNL A   1      35.931  29.704  29.439  1.00  0.00     0.014 A 
ATOM     34  C   UNL A   1      38.163  29.717  27.771  1.00  0.00     0.010 A 
ATOM     35  C   UNL A   1      37.137  29.206  29.904  1.00  0.00     0.010 A 
ATOM     36  C   UNL A   1      38.265  29.200  29.074  1.00  0.00    -0.014 A 
BRANCH  36  37
ATOM     37  C   UNL A   1      39.545  28.671  29.603  1.00  0.00     0.031 A 
ATOM     38  C   UNL A   1      40.256  29.391  30.717  1.00  0.00     0.074 A 
ATOM     39  C   UNL A   1      40.116  27.607  29.003  1.00  0.00     0.049 A 
ATOM     40  N   UNL A   1      41.415  29.124  31.258  1.00  0.00    -0.248 NA
ATOM     41  C   UNL A   1      39.598  30.585  31.275  1.00  0.00     0.031 C 
ATOM     42  C   UNL A   1      39.569  26.889  27.848  1.00  0.00     0.029 A 
ATOM     43  N   UNL A   1      41.300  26.962  29.259  1.00  0.00    -0.354 N 
ATOM     44  C   UNL A   1      41.643  30.134  32.184  1.00  0.00     0.074 A 
ATOM     45  C   UNL A   1      40.520  31.040  32.110  1.00  0.00     0.031 C 
ATOM     46  C   UNL A   1      40.410  25.903  27.501  1.00  0.00     0.029 A 
ATOM     47  C   UNL A   1      41.573  25.940  28.379  1.00  0.00     0.049 A 
ATOM     48  H   UNL A   1      41.898  27.208  30.003  1.00  0.00     0.167 HD
ATOM     49  C   UNL A   1      42.680  30.277  33.041  1.00  0.00     0.034 A 
ATOM     50  C   UNL A   1      42.649  25.135  28.280  1.00  0.00     0.034 A 
ATOM     51  C   UNL A   1      43.768  29.344  33.143  1.00  0.00     0.049 A 
ATOM     52  C   UNL A   1      43.765  25.291  29.277  1.00  0.00     0.074 A 
ATOM     53  C   UNL A   1      44.806  29.334  34.057  1.00  0.00     0.029 A 
ATOM     54  N   UNL A   1      43.967  28.265  32.296  1.00  0.00    -0.354 N 
ATOM     55  N   UNL A   1      43.869  26.139  30.271  1.00  0.00    -0.248 NA
ATOM     56  C   UNL A   1      44.895  24.359  29.160  1.00  0.00     0.031 C 
ATOM     57  C   UNL A   1      45.654  28.269  33.739  1.00  0.00     0.029 A 
ATOM     58  C   UNL A   1      45.125  27.596  32.649  1.00  0.00     0.049 A 
ATOM     59  H   UNL A   1      43.373  28.013  31.553  1.00  0.00     0.167 HD
ATOM     60  C   UNL A   1      45.062  25.828  30.912  1.00  0.00     0.074 A 
ATOM     61  C   UNL A   1      45.627  24.692  30.215  1.00  0.00     0.031 C 
ATOM     62  C   UNL A   1      45.650  26.440  31.971  1.00  0.00     0.034 A 
BRANCH  49  63
ATOM     63  C   UNL A   1      42.668  31.456  33.976  1.00  0.00     0.023 A 
ATOM     64  C   UNL A   1      43.224  32.683  33.560  1.00  0.00     0.012 A 
ATOM     65  C   UNL A   1      42.035  31.374  35.231  1.00  0.00     0.148 A 
ATOM     66  C   UNL A   1      43.171  33.804  34.387  1.00  0.00     0.002 A 
ATOM     67  C   UNL A   1      41.945  32.507  36.031  1.00  0.00     0.091 A 
ATOM     68  F   UNL A   1      41.534  30.192  35.618  1.00  0.00    -0.205 F 
ATOM     69  C   UNL A   1      42.521  33.719  35.616  1.00  0.00     0.022 A 
BRANCH  67  70
ATOM     70  S   UNL A   1      41.059  32.526  37.593  1.00  0.00     0.127 S 
ATOM     71  O   UNL A   1      39.789  31.905  37.220  1.00  0.00    -0.237 OA
ATOM     72  O   UNL A   1      41.918  31.697  38.440  1.00  0.00    -0.237 OA
ATOM     73  O   UNL A   1      40.974  33.924  37.991  1.00  0.00    -0.744 OA
ENDBRANCH  67  70
ENDBRANCH  49  63
BRANCH  50  74
ATOM     74  C   UNL A   1      42.705  24.084  27.225  1.00  0.00     0.023 A 
ATOM     75  C   UNL A   1      43.400  24.337  26.027  1.00  0.00     0.012 A 
ATOM     76  C   UNL A   1      42.087  22.832  27.407  1.00  0.00     0.148 A 
ATOM     77  C   UNL A   1      43.444  23.379  25.013  1.00  0.00     0.002 A 
ATOM     78  C   UNL A   1      42.185  21.859  26.419  1.00  0.00     0.091 A 
ATOM     79  F   UNL A   1      41.419  22.612  28.548  1.00  0.00    -0.205 F 
ATOM     80  C   UNL A   1      42.845  22.138  25.212  1.00  0.00     0.022 A 
BRANCH  78  81
ATOM     81  S   UNL A   1      41.568  20.189  26.651  1.00  0.00     0.127 S 
ATOM     82  O   UNL A   1      40.135  20.419  26.817  1.00  0.00    -0.237 OA
ATOM     83  O   UNL A   1      41.948  19.546  25.393  1.00  0.00    -0.237 OA
ATOM     84  O   UNL A   1      42.269  19.673  27.819  1.00  0.00    -0.744 OA
ENDBRANCH  78  81
ENDBRANCH  50  74
BRANCH  62  85
ATOM     85  C   UNL A   1      46.964  25.884  32.454  1.00  0.00     0.023 A 
ATOM     86  C   UNL A   1      48.169  26.370  31.910  1.00  0.00     0.012 A 
ATOM     87  C   UNL A   1      47.004  24.936  33.493  1.00  0.00     0.148 A 
ATOM     88  C   UNL A   1      49.396  25.894  32.370  1.00  0.00     0.002 A 
ATOM     89  C   UNL A   1      48.231  24.505  33.983  1.00  0.00     0.091 A 
ATOM     90  F   UNL A   1      45.845  24.477  33.986  1.00  0.00    -0.205 F 
ATOM     91  C   UNL A   1      49.427  24.971  33.413  1.00  0.00     0.022 A 
BRANCH  89  92
ATOM     92  S   UNL A   1      48.373  23.394  35.387  1.00  0.00     0.127 S 
ATOM     93  O   UNL A   1      47.527  24.057  36.378  1.00  0.00    -0.237 OA
ATOM     94  O   UNL A   1      47.823  22.147  34.851  1.00  0.00    -0.237 OA
ATOM     95  O   UNL A   1      49.790  23.338  35.715  1.00  0.00    -0.744 OA
ENDBRANCH  89  92
ENDBRANCH  62  85
ENDBRANCH  36  37
ENDBRANCH  28  31
ENDBRANCH  26  27
ENDBRANCH   1  26
TORSDOF 16
ENDMDL
