MODEL 1
REMARK VINA RESULT:     -12.9      0.000      0.000
REMARK SMILES COc1ccc2c(c1)[C@@](NC=O)(C(=O)NCCCNC(=O)c1ccc(-c3c4nc(c(-c5cccc(S(=O)(=O)[O-])c5F)c5ccc([nH]5)c(-c5cccc(S(=O)(=O)[O-])c5F)c5nc(c(-c6cccc(S(=O)(=O)[O-])c6F)c6ccc3[nH]6)C=C5)C=C4)cc1)CCC2
REMARK SMILES IDX 18 1 17 2 16 3 15 4 13 5 14 6 9 8 3 9 4 10 8 11 5 12 7 13
REMARK SMILES IDX 6 14 87 15 85 16 86 17 2 18 1 19 10 20 11 21 12 23 19 24
REMARK SMILES IDX 20 25 21 27 22 28 23 29 84 30 24 31 83 32 25 33 26 34 27 35
REMARK SMILES IDX 77 36 28 37 82 38 76 39 78 40 29 41 81 42 75 43 74 44 30 46
REMARK SMILES IDX 62 47 42 48 61 49 43 50 46 51 60 52 79 53 44 54 45 55 59 57
REMARK SMILES IDX 80 58 47 59 31 60 32 61 40 62 33 63 35 64 41 65 34 66 36 67
REMARK SMILES IDX 37 68 38 69 39 70 63 71 64 72 72 73 65 74 67 75 73 76 66 77
REMARK SMILES IDX 68 78 69 79 70 80 71 81 48 82 49 83 57 84 50 85 52 86 58 87
REMARK SMILES IDX 51 88 53 89 54 90 55 91 56 92
REMARK H PARENT 15 7 10 22 19 26 78 45 46 56
REMARK Flexibility Score: inf
ROOT
ATOM      1  C   UNL A   1      32.586  31.212  27.065  1.00  0.00     0.118 C 
ENDROOT
BRANCH   1   2
ATOM      2  C   UNL A   1      31.444  30.893  26.113  1.00  0.00     0.042 C 
BRANCH   2   3
ATOM      3  C   UNL A   1      31.570  29.516  25.470  1.00  0.00     0.117 C 
BRANCH   3   4
ATOM      4  N   UNL A   1      32.615  29.491  24.459  1.00  0.00    -0.354 N 
ATOM      5  C   UNL A   1      32.726  28.774  23.299  1.00  0.00     0.250 C 
ATOM      6  O   UNL A   1      33.725  29.011  22.609  1.00  0.00    -0.272 OA
ATOM      7  H   UNL A   1      33.373  30.094  24.639  1.00  0.00     0.163 HD
BRANCH   5   8
ATOM      8  C   UNL A   1      31.600  27.770  22.825  1.00  0.00     0.144 C 
ATOM      9  C   UNL A   1      29.081  30.447  21.661  1.00  0.00     0.119 A 
ATOM     10  C   UNL A   1      27.906  30.016  22.262  1.00  0.00     0.047 A 
ATOM     11  C   UNL A   1      30.257  29.726  21.860  1.00  0.00     0.053 A 
ATOM     12  C   UNL A   1      27.894  28.835  23.004  1.00  0.00     0.008 A 
ATOM     13  C   UNL A   1      30.273  28.522  22.601  1.00  0.00    -0.006 A 
ATOM     14  C   UNL A   1      29.060  28.068  23.161  1.00  0.00    -0.042 A 
ATOM     15  C   UNL A   1      28.997  26.839  24.033  1.00  0.00     0.036 C 
ATOM     16  C   UNL A   1      31.486  26.637  23.885  1.00  0.00     0.044 C 
ATOM     17  C   UNL A   1      30.161  25.888  23.793  1.00  0.00     0.008 C 
BRANCH   9  18
ATOM     18  O   UNL A   1      29.011  31.618  20.957  1.00  0.00    -0.497 OA
ATOM     19  C   UNL A   1      27.742  32.265  21.030  1.00  0.00     0.278 C 
ENDBRANCH   9  18
BRANCH   8  20
ATOM     20  N   UNL A   1      32.008  27.086  21.571  1.00  0.00    -0.341 N 
ATOM     21  C   UNL A   1      32.742  25.951  21.435  1.00  0.00     0.338 C 
ATOM     22  H   UNL A   1      31.709  27.508  20.734  1.00  0.00     0.164 HD
ATOM     23  O   UNL A   1      33.123  25.542  20.345  1.00  0.00    -0.279 OA
ENDBRANCH   8  20
ENDBRANCH   5   8
ENDBRANCH   3   4
ENDBRANCH   2   3
ENDBRANCH   1   2
BRANCH   1  24
ATOM     24  N   UNL A   1      32.826  32.646  27.171  1.00  0.00    -0.352 N 
ATOM     25  C   UNL A   1      33.837  33.312  27.817  1.00  0.00     0.251 C 
ATOM     26  H   UNL A   1      32.168  33.219  26.713  1.00  0.00     0.163 HD
ATOM     27  O   UNL A   1      33.765  34.528  27.976  1.00  0.00    -0.269 OA
BRANCH  25  28
ATOM     28  C   UNL A   1      34.999  32.559  28.333  1.00  0.00     0.039 A 
ATOM     29  C   UNL A   1      36.271  33.131  28.255  1.00  0.00     0.014 A 
ATOM     30  C   UNL A   1      34.829  31.296  28.906  1.00  0.00     0.014 A 
ATOM     31  C   UNL A   1      37.363  32.464  28.812  1.00  0.00     0.010 A 
ATOM     32  C   UNL A   1      35.900  30.675  29.536  1.00  0.00     0.010 A 
ATOM     33  C   UNL A   1      37.180  31.248  29.490  1.00  0.00    -0.014 A 
BRANCH  33  34
ATOM     34  C   UNL A   1      38.305  30.555  30.167  1.00  0.00     0.031 A 
ATOM     35  C   UNL A   1      38.699  30.949  31.565  1.00  0.00     0.074 A 
ATOM     36  C   UNL A   1      39.036  29.651  29.486  1.00  0.00     0.049 A 
ATOM     37  N   UNL A   1      39.708  30.534  32.285  1.00  0.00    -0.248 NA
ATOM     38  C   UNL A   1      37.867  31.966  32.231  1.00  0.00     0.031 C 
ATOM     39  C   UNL A   1      38.798  29.239  28.100  1.00  0.00     0.029 A 
ATOM     40  N   UNL A   1      40.149  28.936  29.856  1.00  0.00    -0.354 N 
ATOM     41  C   UNL A   1      39.660  31.266  33.465  1.00  0.00     0.074 A 
ATOM     42  C   UNL A   1      38.541  32.175  33.353  1.00  0.00     0.031 C 
ATOM     43  C   UNL A   1      39.733  28.346  27.739  1.00  0.00     0.029 A 
ATOM     44  C   UNL A   1      40.659  28.150  28.849  1.00  0.00     0.049 A 
ATOM     45  H   UNL A   1      40.544  28.984  30.756  1.00  0.00     0.167 HD
ATOM     46  C   UNL A   1      40.458  31.173  34.554  1.00  0.00     0.034 A 
ATOM     47  C   UNL A   1      41.757  27.370  28.819  1.00  0.00     0.034 A 
ATOM     48  C   UNL A   1      41.542  30.237  34.676  1.00  0.00     0.049 A 
ATOM     49  C   UNL A   1      42.610  27.262  30.054  1.00  0.00     0.074 A 
ATOM     50  C   UNL A   1      42.352  29.998  35.772  1.00  0.00     0.029 A 
ATOM     51  N   UNL A   1      41.977  29.393  33.666  1.00  0.00    -0.354 N 
ATOM     52  N   UNL A   1      42.456  27.848  31.217  1.00  0.00    -0.248 NA
ATOM     53  C   UNL A   1      43.770  26.360  29.986  1.00  0.00     0.031 C 
ATOM     54  C   UNL A   1      43.298  29.032  35.414  1.00  0.00     0.029 A 
ATOM     55  C   UNL A   1      43.052  28.642  34.106  1.00  0.00     0.049 A 
ATOM     56  H   UNL A   1      41.580  29.337  32.767  1.00  0.00     0.167 HD
ATOM     57  C   UNL A   1      43.470  27.356  32.030  1.00  0.00     0.074 A 
ATOM     58  C   UNL A   1      44.224  26.412  31.231  1.00  0.00     0.031 C 
ATOM     59  C   UNL A   1      43.758  27.665  33.318  1.00  0.00     0.034 A 
BRANCH  46  60
ATOM     60  C   UNL A   1      40.163  32.078  35.721  1.00  0.00     0.023 A 
ATOM     61  C   UNL A   1      40.930  33.247  35.910  1.00  0.00     0.012 A 
ATOM     62  C   UNL A   1      39.094  31.806  36.596  1.00  0.00     0.148 A 
ATOM     63  C   UNL A   1      40.660  34.111  36.971  1.00  0.00     0.002 A 
ATOM     64  C   UNL A   1      38.800  32.696  37.622  1.00  0.00     0.091 A 
ATOM     65  F   UNL A   1      38.389  30.680  36.413  1.00  0.00    -0.205 F 
ATOM     66  C   UNL A   1      39.589  33.841  37.819  1.00  0.00     0.022 A 
BRANCH  64  67
ATOM     67  S   UNL A   1      37.392  32.484  38.717  1.00  0.00     0.127 S 
ATOM     68  O   UNL A   1      37.699  33.441  39.779  1.00  0.00    -0.237 OA
ATOM     69  O   UNL A   1      36.273  32.866  37.856  1.00  0.00    -0.237 OA
ATOM     70  O   UNL A   1      37.401  31.084  39.117  1.00  0.00    -0.744 OA
ENDBRANCH  64  67
ENDBRANCH  46  60
BRANCH  47  71
ATOM     71  C   UNL A   1      42.081  26.583  27.595  1.00  0.00     0.023 A 
ATOM     72  C   UNL A   1      42.701  27.226  26.505  1.00  0.00     0.012 A 
ATOM     73  C   UNL A   1      41.802  25.205  27.510  1.00  0.00     0.148 A 
ATOM     74  C   UNL A   1      43.006  26.520  25.342  1.00  0.00     0.002 A 
ATOM     75  C   UNL A   1      42.160  24.496  26.370  1.00  0.00     0.091 A 
ATOM     76  F   UNL A   1      41.203  24.614  28.553  1.00  0.00    -0.205 F 
ATOM     77  C   UNL A   1      42.744  25.153  25.277  1.00  0.00     0.022 A 
BRANCH  75  78
ATOM     78  S   UNL A   1      41.984  22.712  26.252  1.00  0.00     0.127 S 
ATOM     79  O   UNL A   1      42.621  22.433  24.966  1.00  0.00    -0.237 OA
ATOM     80  O   UNL A   1      42.735  22.256  27.423  1.00  0.00    -0.237 OA
ATOM     81  O   UNL A   1      40.553  22.451  26.319  1.00  0.00    -0.744 OA
ENDBRANCH  75  78
ENDBRANCH  47  71
BRANCH  59  82
ATOM     82  C   UNL A   1      44.908  26.944  33.973  1.00  0.00     0.023 A 
ATOM     83  C   UNL A   1      46.208  27.480  33.904  1.00  0.00     0.012 A 
ATOM     84  C   UNL A   1      44.676  25.780  34.733  1.00  0.00     0.148 A 
ATOM     85  C   UNL A   1      47.268  26.850  34.556  1.00  0.00     0.002 A 
ATOM     86  C   UNL A   1      45.726  25.188  35.423  1.00  0.00     0.091 A 
ATOM     87  F   UNL A   1      43.433  25.278  34.772  1.00  0.00    -0.205 F 
ATOM     88  C   UNL A   1      47.025  25.714  35.325  1.00  0.00     0.022 A 
BRANCH  86  89
ATOM     89  S   UNL A   1      45.491  23.783  36.518  1.00  0.00     0.127 S 
ATOM     90  O   UNL A   1      46.871  23.430  36.849  1.00  0.00    -0.237 OA
ATOM     91  O   UNL A   1      44.731  24.375  37.620  1.00  0.00    -0.237 OA
ATOM     92  O   UNL A   1      44.760  22.787  35.745  1.00  0.00    -0.744 OA
ENDBRANCH  86  89
ENDBRANCH  59  82
ENDBRANCH  33  34
ENDBRANCH  25  28
ENDBRANCH   1  24
TORSDOF 15
ENDMDL
MODEL 2
REMARK VINA RESULT:     -12.9      0.940      7.661
REMARK SMILES COc1ccc2c(c1)[C@@](NC=O)(C(=O)NCCCNC(=O)c1ccc(-c3c4nc(c(-c5cccc(S(=O)(=O)[O-])c5F)c5ccc([nH]5)c(-c5cccc(S(=O)(=O)[O-])c5F)c5nc(c(-c6cccc(S(=O)(=O)[O-])c6F)c6ccc3[nH]6)C=C5)C=C4)cc1)CCC2
REMARK SMILES IDX 18 1 17 2 16 3 15 4 13 5 14 6 9 8 3 9 4 10 8 11 5 12 7 13
REMARK SMILES IDX 6 14 87 15 85 16 86 17 2 18 1 19 10 20 11 21 12 23 19 24
REMARK SMILES IDX 20 25 21 27 22 28 23 29 84 30 24 31 83 32 25 33 26 34 27 35
REMARK SMILES IDX 77 36 28 37 82 38 76 39 78 40 29 41 81 42 75 43 74 44 30 46
REMARK SMILES IDX 62 47 42 48 61 49 43 50 46 51 60 52 79 53 44 54 45 55 59 57
REMARK SMILES IDX 80 58 47 59 31 60 32 61 40 62 33 63 35 64 41 65 34 66 36 67
REMARK SMILES IDX 37 68 38 69 39 70 63 71 64 72 72 73 65 74 67 75 73 76 66 77
REMARK SMILES IDX 68 78 69 79 70 80 71 81 48 82 49 83 57 84 50 85 52 86 58 87
REMARK SMILES IDX 51 88 53 89 54 90 55 91 56 92
REMARK H PARENT 15 7 10 22 19 26 78 45 46 56
REMARK Flexibility Score: inf
ROOT
ATOM      1  C   UNL A   1      32.359  31.584  26.816  1.00  0.00     0.118 C 
ENDROOT
BRANCH   1   2
ATOM      2  C   UNL A   1      31.176  31.149  25.964  1.00  0.00     0.042 C 
BRANCH   2   3
ATOM      3  C   UNL A   1      31.336  29.744  25.397  1.00  0.00     0.117 C 
BRANCH   3   4
ATOM      4  N   UNL A   1      32.432  29.672  24.443  1.00  0.00    -0.354 N 
ATOM      5  C   UNL A   1      32.617  28.877  23.345  1.00  0.00     0.250 C 
ATOM      6  O   UNL A   1      33.646  29.089  22.691  1.00  0.00    -0.272 OA
ATOM      7  H   UNL A   1      33.167  30.304  24.618  1.00  0.00     0.163 HD
BRANCH   5   8
ATOM      8  C   UNL A   1      31.538  27.816  22.889  1.00  0.00     0.144 C 
ATOM      9  C   UNL A   1      28.889  30.357  21.711  1.00  0.00     0.119 A 
ATOM     10  C   UNL A   1      27.738  29.878  22.323  1.00  0.00     0.047 A 
ATOM     11  C   UNL A   1      30.099  29.695  21.910  1.00  0.00     0.053 A 
ATOM     12  C   UNL A   1      27.786  28.706  23.078  1.00  0.00     0.008 A 
ATOM     13  C   UNL A   1      30.175  28.501  22.664  1.00  0.00    -0.006 A 
ATOM     14  C   UNL A   1      28.989  27.996  23.235  1.00  0.00    -0.042 A 
ATOM     15  C   UNL A   1      28.988  26.775  24.121  1.00  0.00     0.036 C 
ATOM     16  C   UNL A   1      31.484  26.690  23.961  1.00  0.00     0.044 C 
ATOM     17  C   UNL A   1      30.195  25.878  23.884  1.00  0.00     0.008 C 
BRANCH   9  18
ATOM     18  O   UNL A   1      28.759  31.515  20.994  1.00  0.00    -0.497 OA
ATOM     19  C   UNL A   1      28.242  32.611  21.748  1.00  0.00     0.278 C 
ENDBRANCH   9  18
BRANCH   8  20
ATOM     20  N   UNL A   1      31.972  27.138  21.640  1.00  0.00    -0.341 N 
ATOM     21  C   UNL A   1      32.746  26.030  21.511  1.00  0.00     0.338 C 
ATOM     22  H   UNL A   1      31.658  27.543  20.799  1.00  0.00     0.164 HD
ATOM     23  O   UNL A   1      33.143  25.628  20.425  1.00  0.00    -0.279 OA
ENDBRANCH   8  20
ENDBRANCH   5   8
ENDBRANCH   3   4
ENDBRANCH   2   3
ENDBRANCH   1   2
BRANCH   1  24
ATOM     24  N   UNL A   1      32.321  33.010  27.117  1.00  0.00    -0.352 N 
ATOM     25  C   UNL A   1      33.136  33.745  27.942  1.00  0.00     0.251 C 
ATOM     26  H   UNL A   1      31.609  33.519  26.664  1.00  0.00     0.163 HD
ATOM     27  O   UNL A   1      32.829  34.898  28.237  1.00  0.00    -0.269 OA
BRANCH  25  28
ATOM     28  C   UNL A   1      34.370  33.140  28.484  1.00  0.00     0.039 A 
ATOM     29  C   UNL A   1      35.567  33.857  28.416  1.00  0.00     0.014 A 
ATOM     30  C   UNL A   1      34.341  31.871  29.069  1.00  0.00     0.014 A 
ATOM     31  C   UNL A   1      36.721  33.329  28.997  1.00  0.00     0.010 A 
ATOM     32  C   UNL A   1      35.468  31.388  29.722  1.00  0.00     0.010 A 
ATOM     33  C   UNL A   1      36.672  32.107  29.688  1.00  0.00    -0.014 A 
BRANCH  33  34
ATOM     34  C   UNL A   1      37.859  31.559  30.389  1.00  0.00     0.031 A 
ATOM     35  C   UNL A   1      38.709  30.510  29.724  1.00  0.00     0.074 A 
ATOM     36  C   UNL A   1      38.108  31.925  31.662  1.00  0.00     0.049 A 
ATOM     37  N   UNL A   1      39.723  29.842  30.208  1.00  0.00    -0.248 NA
ATOM     38  C   UNL A   1      38.355  30.142  28.343  1.00  0.00     0.031 C 
ATOM     39  C   UNL A   1      37.313  32.879  32.440  1.00  0.00     0.029 A 
ATOM     40  N   UNL A   1      39.083  31.517  32.538  1.00  0.00    -0.354 N 
ATOM     41  C   UNL A   1      40.099  28.947  29.213  1.00  0.00     0.074 A 
ATOM     42  C   UNL A   1      39.185  29.135  28.109  1.00  0.00     0.031 C 
ATOM     43  C   UNL A   1      37.832  32.982  33.674  1.00  0.00     0.029 A 
ATOM     44  C   UNL A   1      38.969  32.077  33.790  1.00  0.00     0.049 A 
ATOM     45  H   UNL A   1      39.794  30.882  32.294  1.00  0.00     0.167 HD
ATOM     46  C   UNL A   1      41.127  28.067  29.208  1.00  0.00     0.034 A 
ATOM     47  C   UNL A   1      39.692  31.873  34.909  1.00  0.00     0.034 A 
ATOM     48  C   UNL A   1      42.058  27.915  30.293  1.00  0.00     0.049 A 
ATOM     49  C   UNL A   1      40.848  30.910  34.867  1.00  0.00     0.074 A 
ATOM     50  C   UNL A   1      43.188  27.120  30.350  1.00  0.00     0.029 A 
ATOM     51  N   UNL A   1      41.962  28.563  31.515  1.00  0.00    -0.354 N 
ATOM     52  N   UNL A   1      41.282  30.187  33.863  1.00  0.00    -0.248 NA
ATOM     53  C   UNL A   1      41.635  30.760  36.099  1.00  0.00     0.031 C 
ATOM     54  C   UNL A   1      43.759  27.262  31.619  1.00  0.00     0.029 A 
ATOM     55  C   UNL A   1      43.005  28.176  32.338  1.00  0.00     0.049 A 
ATOM     56  H   UNL A   1      41.257  29.204  31.760  1.00  0.00     0.167 HD
ATOM     57  C   UNL A   1      42.415  29.529  34.328  1.00  0.00     0.074 A 
ATOM     58  C   UNL A   1      42.608  29.952  35.701  1.00  0.00     0.031 C 
ATOM     59  C   UNL A   1      43.217  28.647  33.682  1.00  0.00     0.034 A 
BRANCH  46  60
ATOM     60  C   UNL A   1      41.327  27.227  27.974  1.00  0.00     0.023 A 
ATOM     61  C   UNL A   1      41.939  27.792  26.836  1.00  0.00     0.012 A 
ATOM     62  C   UNL A   1      40.964  25.866  27.958  1.00  0.00     0.148 A 
ATOM     63  C   UNL A   1      42.154  27.027  25.690  1.00  0.00     0.002 A 
ATOM     64  C   UNL A   1      41.226  25.097  26.830  1.00  0.00     0.091 A 
ATOM     65  F   UNL A   1      40.365  25.351  29.042  1.00  0.00    -0.205 F 
ATOM     66  C   UNL A   1      41.807  25.679  25.692  1.00  0.00     0.022 A 
BRANCH  64  67
ATOM     67  S   UNL A   1      40.895  23.334  26.761  1.00  0.00     0.127 S 
ATOM     68  O   UNL A   1      41.774  22.912  25.671  1.00  0.00    -0.237 OA
ATOM     69  O   UNL A   1      41.315  22.890  28.090  1.00  0.00    -0.237 OA
ATOM     70  O   UNL A   1      39.469  23.202  26.499  1.00  0.00    -0.744 OA
ENDBRANCH  64  67
ENDBRANCH  46  60
BRANCH  47  71
ATOM     71  C   UNL A   1      39.379  32.639  36.149  1.00  0.00     0.023 A 
ATOM     72  C   UNL A   1      39.979  33.897  36.353  1.00  0.00     0.012 A 
ATOM     73  C   UNL A   1      38.478  32.144  37.111  1.00  0.00     0.148 A 
ATOM     74  C   UNL A   1      39.715  34.632  37.509  1.00  0.00     0.002 A 
ATOM     75  C   UNL A   1      38.175  32.907  38.233  1.00  0.00     0.091 A 
ATOM     76  F   UNL A   1      37.924  30.941  36.903  1.00  0.00    -0.205 F 
ATOM     77  C   UNL A   1      38.807  34.142  38.444  1.00  0.00     0.022 A 
BRANCH  75  78
ATOM     78  S   UNL A   1      36.919  32.418  39.420  1.00  0.00     0.127 S 
ATOM     79  O   UNL A   1      37.321  31.050  39.736  1.00  0.00    -0.237 OA
ATOM     80  O   UNL A   1      37.128  33.387  40.497  1.00  0.00    -0.237 OA
ATOM     81  O   UNL A   1      35.646  32.559  38.727  1.00  0.00    -0.744 OA
ENDBRANCH  75  78
ENDBRANCH  47  71
BRANCH  59  82
ATOM     82  C   UNL A   1      44.412  28.110  34.426  1.00  0.00     0.023 A 
ATOM     83  C   UNL A   1      45.624  28.825  34.424  1.00  0.00     0.012 A 
ATOM     84  C   UNL A   1      44.299  26.937  35.199  1.00  0.00     0.148 A 
ATOM     85  C   UNL A   1      46.718  28.364  35.158  1.00  0.00     0.002 A 
ATOM     86  C   UNL A   1      45.374  26.513  35.968  1.00  0.00     0.091 A 
ATOM     87  F   UNL A   1      43.140  26.262  35.173  1.00  0.00    -0.205 F 
ATOM     88  C   UNL A   1      46.589  27.218  35.939  1.00  0.00     0.022 A 
BRANCH  86  89
ATOM     89  S   UNL A   1      45.269  25.107  37.082  1.00  0.00     0.127 S 
ATOM     90  O   UNL A   1      46.623  25.064  37.635  1.00  0.00    -0.237 OA
ATOM     91  O   UNL A   1      44.238  25.537  38.026  1.00  0.00    -0.237 OA
ATOM     92  O   UNL A   1      44.897  23.965  36.257  1.00  0.00    -0.744 OA
ENDBRANCH  86  89
ENDBRANCH  59  82
ENDBRANCH  33  34
ENDBRANCH  25  28
ENDBRANCH   1  24
TORSDOF 15
ENDMDL
MODEL 3
REMARK VINA RESULT:     -12.7      2.667      3.177
REMARK SMILES COc1ccc2c(c1)[C@@](NC=O)(C(=O)NCCCNC(=O)c1ccc(-c3c4nc(c(-c5cccc(S(=O)(=O)[O-])c5F)c5ccc([nH]5)c(-c5cccc(S(=O)(=O)[O-])c5F)c5nc(c(-c6cccc(S(=O)(=O)[O-])c6F)c6ccc3[nH]6)C=C5)C=C4)cc1)CCC2
REMARK SMILES IDX 18 1 17 2 16 3 15 4 13 5 14 6 9 8 3 9 4 10 8 11 5 12 7 13
REMARK SMILES IDX 6 14 87 15 85 16 86 17 2 18 1 19 10 20 11 21 12 23 19 24
REMARK SMILES IDX 20 25 21 27 22 28 23 29 84 30 24 31 83 32 25 33 26 34 27 35
REMARK SMILES IDX 77 36 28 37 82 38 76 39 78 40 29 41 81 42 75 43 74 44 30 46
REMARK SMILES IDX 62 47 42 48 61 49 43 50 46 51 60 52 79 53 44 54 45 55 59 57
REMARK SMILES IDX 80 58 47 59 31 60 32 61 40 62 33 63 35 64 41 65 34 66 36 67
REMARK SMILES IDX 37 68 38 69 39 70 63 71 64 72 72 73 65 74 67 75 73 76 66 77
REMARK SMILES IDX 68 78 69 79 70 80 71 81 48 82 49 83 57 84 50 85 52 86 58 87
REMARK SMILES IDX 51 88 53 89 54 90 55 91 56 92
REMARK H PARENT 15 7 10 22 19 26 78 45 46 56
REMARK Flexibility Score: inf
ROOT
ATOM      1  C   UNL A   1      33.506  29.078  27.183  1.00  0.00     0.118 C 
ENDROOT
BRANCH   1   2
ATOM      2  C   UNL A   1      32.080  28.643  26.879  1.00  0.00     0.042 C 
BRANCH   2   3
ATOM      3  C   UNL A   1      31.529  29.255  25.597  1.00  0.00     0.117 C 
BRANCH   3   4
ATOM      4  N   UNL A   1      32.542  29.315  24.554  1.00  0.00    -0.354 N 
ATOM      5  C   UNL A   1      32.633  28.670  23.352  1.00  0.00     0.250 C 
ATOM      6  O   UNL A   1      33.604  28.973  22.647  1.00  0.00    -0.272 OA
ATOM      7  H   UNL A   1      33.291  29.925  24.748  1.00  0.00     0.163 HD
BRANCH   5   8
ATOM      8  C   UNL A   1      31.516  27.669  22.853  1.00  0.00     0.144 C 
ATOM      9  C   UNL A   1      28.952  30.350  21.805  1.00  0.00     0.119 A 
ATOM     10  C   UNL A   1      27.788  29.883  22.400  1.00  0.00     0.047 A 
ATOM     11  C   UNL A   1      30.139  29.638  21.967  1.00  0.00     0.053 A 
ATOM     12  C   UNL A   1      27.798  28.677  23.101  1.00  0.00     0.008 A 
ATOM     13  C   UNL A   1      30.177  28.409  22.667  1.00  0.00    -0.006 A 
ATOM     14  C   UNL A   1      28.976  27.920  23.221  1.00  0.00    -0.042 A 
ATOM     15  C   UNL A   1      28.936  26.661  24.050  1.00  0.00     0.036 C 
ATOM     16  C   UNL A   1      31.427  26.497  23.874  1.00  0.00     0.044 C 
ATOM     17  C   UNL A   1      30.110  25.734  23.767  1.00  0.00     0.008 C 
BRANCH   9  18
ATOM     18  O   UNL A   1      28.860  31.543  21.142  1.00  0.00    -0.497 OA
ATOM     19  C   UNL A   1      28.285  32.596  21.916  1.00  0.00     0.278 C 
ENDBRANCH   9  18
BRANCH   8  20
ATOM     20  N   UNL A   1      31.922  27.034  21.572  1.00  0.00    -0.341 N 
ATOM     21  C   UNL A   1      32.704  25.938  21.389  1.00  0.00     0.338 C 
ATOM     22  H   UNL A   1      31.581  27.461  20.753  1.00  0.00     0.164 HD
ATOM     23  O   UNL A   1      33.073  25.573  20.280  1.00  0.00    -0.279 OA
ENDBRANCH   8  20
ENDBRANCH   5   8
ENDBRANCH   3   4
ENDBRANCH   2   3
ENDBRANCH   1   2
BRANCH   1  24
ATOM     24  N   UNL A   1      33.589  30.500  27.489  1.00  0.00    -0.352 N 
ATOM     25  C   UNL A   1      34.554  31.183  28.188  1.00  0.00     0.251 C 
ATOM     26  H   UNL A   1      32.848  31.051  27.145  1.00  0.00     0.163 HD
ATOM     27  O   UNL A   1      34.355  32.347  28.527  1.00  0.00    -0.269 OA
BRANCH  25  28
ATOM     28  C   UNL A   1      35.818  30.507  28.545  1.00  0.00     0.039 A 
ATOM     29  C   UNL A   1      36.943  30.695  27.738  1.00  0.00     0.014 A 
ATOM     30  C   UNL A   1      35.895  29.700  29.683  1.00  0.00     0.014 A 
ATOM     31  C   UNL A   1      38.162  30.127  28.110  1.00  0.00     0.010 A 
ATOM     32  C   UNL A   1      37.127  29.209  30.098  1.00  0.00     0.010 A 
ATOM     33  C   UNL A   1      38.272  29.410  29.313  1.00  0.00    -0.014 A 
BRANCH  33  34
ATOM     34  C   UNL A   1      39.571  28.866  29.781  1.00  0.00     0.031 A 
ATOM     35  C   UNL A   1      40.327  29.563  30.880  1.00  0.00     0.074 A 
ATOM     36  C   UNL A   1      40.120  27.812  29.145  1.00  0.00     0.049 A 
ATOM     37  N   UNL A   1      41.515  29.301  31.358  1.00  0.00    -0.248 NA
ATOM     38  C   UNL A   1      39.674  30.725  31.505  1.00  0.00     0.031 C 
ATOM     39  C   UNL A   1      39.518  27.097  28.016  1.00  0.00     0.029 A 
ATOM     40  N   UNL A   1      41.321  27.176  29.335  1.00  0.00    -0.354 N 
ATOM     41  C   UNL A   1      41.771  30.287  32.304  1.00  0.00     0.074 A 
ATOM     42  C   UNL A   1      40.627  31.172  32.311  1.00  0.00     0.031 C 
ATOM     43  C   UNL A   1      40.351  26.123  27.617  1.00  0.00     0.029 A 
ATOM     44  C   UNL A   1      41.560  26.167  28.431  1.00  0.00     0.049 A 
ATOM     45  H   UNL A   1      41.952  27.421  30.049  1.00  0.00     0.167 HD
ATOM     46  C   UNL A   1      42.847  30.429  33.111  1.00  0.00     0.034 A 
ATOM     47  C   UNL A   1      42.638  25.375  28.269  1.00  0.00     0.034 A 
ATOM     48  C   UNL A   1      43.962  29.521  33.129  1.00  0.00     0.049 A 
ATOM     49  C   UNL A   1      43.810  25.535  29.200  1.00  0.00     0.074 A 
ATOM     50  C   UNL A   1      45.058  29.523  33.973  1.00  0.00     0.029 A 
ATOM     51  N   UNL A   1      44.130  28.457  32.257  1.00  0.00    -0.354 N 
ATOM     52  N   UNL A   1      43.964  26.377  30.192  1.00  0.00    -0.248 NA
ATOM     53  C   UNL A   1      44.941  24.615  29.011  1.00  0.00     0.031 C 
ATOM     54  C   UNL A   1      45.905  28.479  33.590  1.00  0.00     0.029 A 
ATOM     55  C   UNL A   1      45.318  27.803  32.532  1.00  0.00     0.049 A 
ATOM     56  H   UNL A   1      43.498  28.204  31.546  1.00  0.00     0.167 HD
ATOM     57  C   UNL A   1      45.188  26.062  30.773  1.00  0.00     0.074 A 
ATOM     58  C   UNL A   1      45.726  24.942  30.029  1.00  0.00     0.031 C 
ATOM     59  C   UNL A   1      45.814  26.654  31.820  1.00  0.00     0.034 A 
BRANCH  46  60
ATOM     60  C   UNL A   1      42.855  31.586  34.075  1.00  0.00     0.023 A 
ATOM     61  C   UNL A   1      43.389  32.828  33.672  1.00  0.00     0.012 A 
ATOM     62  C   UNL A   1      42.283  31.464  35.357  1.00  0.00     0.148 A 
ATOM     63  C   UNL A   1      43.386  33.919  34.541  1.00  0.00     0.002 A 
ATOM     64  C   UNL A   1      42.240  32.569  36.199  1.00  0.00     0.091 A 
ATOM     65  F   UNL A   1      41.799  30.271  35.730  1.00  0.00    -0.205 F 
ATOM     66  C   UNL A   1      42.803  33.792  35.799  1.00  0.00     0.022 A 
BRANCH  64  67
ATOM     67  S   UNL A   1      41.437  32.533  37.805  1.00  0.00     0.127 S 
ATOM     68  O   UNL A   1      41.562  33.927  38.228  1.00  0.00    -0.237 OA
ATOM     69  O   UNL A   1      40.077  32.120  37.459  1.00  0.00    -0.237 OA
ATOM     70  O   UNL A   1      42.180  31.569  38.605  1.00  0.00    -0.744 OA
ENDBRANCH  64  67
ENDBRANCH  46  60
BRANCH  47  71
ATOM     71  C   UNL A   1      42.637  24.319  27.215  1.00  0.00     0.023 A 
ATOM     72  C   UNL A   1      43.273  24.572  25.984  1.00  0.00     0.012 A 
ATOM     73  C   UNL A   1      42.033  23.066  27.432  1.00  0.00     0.148 A 
ATOM     74  C   UNL A   1      43.279  23.608  24.976  1.00  0.00     0.002 A 
ATOM     75  C   UNL A   1      42.092  22.090  26.444  1.00  0.00     0.091 A 
ATOM     76  F   UNL A   1      41.424  22.848  28.606  1.00  0.00    -0.205 F 
ATOM     77  C   UNL A   1      42.697  22.365  25.208  1.00  0.00     0.022 A 
BRANCH  75  78
ATOM     78  S   UNL A   1      41.488  20.418  26.704  1.00  0.00     0.127 S 
ATOM     79  O   UNL A   1      41.884  19.760  25.461  1.00  0.00    -0.237 OA
ATOM     80  O   UNL A   1      42.244  20.006  27.888  1.00  0.00    -0.237 OA
ATOM     81  O   UNL A   1      40.054  20.546  26.923  1.00  0.00    -0.744 OA
ENDBRANCH  75  78
ENDBRANCH  47  71
BRANCH  59  82
ATOM     82  C   UNL A   1      47.132  26.077  32.266  1.00  0.00     0.023 A 
ATOM     83  C   UNL A   1      47.178  25.176  33.347  1.00  0.00     0.012 A 
ATOM     84  C   UNL A   1      48.312  26.364  31.552  1.00  0.00     0.148 A 
ATOM     85  C   UNL A   1      48.386  24.592  33.730  1.00  0.00     0.002 A 
ATOM     86  C   UNL A   1      49.501  25.739  31.905  1.00  0.00     0.091 A 
ATOM     87  F   UNL A   1      48.249  27.237  30.535  1.00  0.00    -0.205 F 
ATOM     88  C   UNL A   1      49.542  24.863  33.002  1.00  0.00     0.022 A 
BRANCH  86  89
ATOM     89  S   UNL A   1      51.017  25.947  30.964  1.00  0.00     0.127 S 
ATOM     90  O   UNL A   1      51.944  25.086  31.699  1.00  0.00    -0.237 OA
ATOM     91  O   UNL A   1      50.633  25.444  29.645  1.00  0.00    -0.237 OA
ATOM     92  O   UNL A   1      51.324  27.370  31.003  1.00  0.00    -0.744 OA
ENDBRANCH  86  89
ENDBRANCH  59  82
ENDBRANCH  33  34
ENDBRANCH  25  28
ENDBRANCH   1  24
TORSDOF 15
ENDMDL
