MODEL 1
REMARK VINA RESULT:     -10.7      0.000      0.000
REMARK SMILES CC(C)C[C@H](CNc1cccc(F)c1C#N)CC(=O)NCCCNC(=O)c1ccc(-c2c3nc(c(-c4cccc(S(=O)(=O)[O-])c4F)c4ccc([nH]4)c(-c4cccc(S(=O)(=O)[O-])c4F)c4nc(c(-c5cccc(S(=O)(=O)[O-])c5F)c5ccc2[nH]5)C=C4)C=C3)cc1
REMARK SMILES IDX 21 1 20 2 18 3 19 4 17 6 5 7 4 8 2 9 1 10 3 11 6 12 7 13
REMARK SMILES IDX 8 15 9 16 14 17 10 18 12 19 11 20 13 21 15 22 16 23 22 24
REMARK SMILES IDX 23 25 24 26 25 27 26 29 27 30 28 31 89 32 29 33 88 34 30 35
REMARK SMILES IDX 31 36 32 37 82 38 33 39 87 40 81 41 83 42 34 43 86 44 80 45
REMARK SMILES IDX 79 46 35 48 67 49 47 50 66 51 48 52 51 53 65 54 84 55 49 56
REMARK SMILES IDX 50 57 64 59 85 60 52 61 36 62 37 63 45 64 38 65 40 66 46 67
REMARK SMILES IDX 39 68 41 69 42 70 43 71 44 72 68 73 69 74 77 75 70 76 72 77
REMARK SMILES IDX 78 78 71 79 73 80 74 81 75 82 76 83 53 84 54 85 62 86 55 87
REMARK SMILES IDX 57 88 63 89 56 90 58 91 59 92 60 93 61 94
REMARK H PARENT 20 5 7 14 24 28 83 47 51 58
REMARK Flexibility Score: inf
ROOT
ATOM      1  C   UNL A   1      36.051  20.303  24.637  1.00  0.00     0.117 C 
ENDROOT
BRANCH   1   2
ATOM      2  N   UNL A   1      34.872  19.859  25.361  1.00  0.00    -0.356 N 
ATOM      3  C   UNL A   1      33.556  20.164  25.174  1.00  0.00     0.220 C 
ATOM      4  O   UNL A   1      32.749  19.791  26.027  1.00  0.00    -0.275 OA
ATOM      5  H   UNL A   1      35.051  19.239  26.104  1.00  0.00     0.163 HD
BRANCH   3   6
ATOM      6  C   UNL A   1      33.083  20.892  23.923  1.00  0.00     0.105 C 
BRANCH   6   7
ATOM      7  C   UNL A   1      32.794  22.402  24.099  1.00  0.00     0.018 C 
BRANCH   7   8
ATOM      8  C   UNL A   1      33.563  22.942  25.326  1.00  0.00     0.009 C 
BRANCH   8   9
ATOM      9  C   UNL A   1      34.761  23.850  24.994  1.00  0.00    -0.017 C 
ATOM     10  C   UNL A   1      35.160  23.787  23.518  1.00  0.00     0.007 C 
ATOM     11  C   UNL A   1      34.390  25.293  25.355  1.00  0.00     0.007 C 
ENDBRANCH   8   9
ENDBRANCH   7   8
BRANCH   7  12
ATOM     12  C   UNL A   1      31.297  22.686  24.292  1.00  0.00     0.117 C 
BRANCH  12  13
ATOM     13  N   UNL A   1      30.783  23.655  23.330  1.00  0.00    -0.384 N 
ATOM     14  H   UNL A   1      30.094  23.387  22.680  1.00  0.00     0.160 HD
BRANCH  13  15
ATOM     15  C   UNL A   1      31.272  24.964  23.335  1.00  0.00     0.055 A 
ATOM     16  C   UNL A   1      32.050  25.366  22.236  1.00  0.00     0.027 A 
ATOM     17  C   UNL A   1      30.949  25.932  24.306  1.00  0.00     0.111 A 
ATOM     18  C   UNL A   1      32.484  26.688  22.090  1.00  0.00     0.005 A 
ATOM     19  C   UNL A   1      31.371  27.254  24.138  1.00  0.00     0.143 A 
ATOM     20  C   UNL A   1      32.133  27.638  23.041  1.00  0.00     0.041 A 
ATOM     21  F   UNL A   1      31.019  28.192  25.030  1.00  0.00    -0.205 F 
BRANCH  17  22
ATOM     22  C   UNL A   1      30.220  25.606  25.493  1.00  0.00     0.104 C 
ATOM     23  N   UNL A   1      29.647  25.283  26.454  1.00  0.00    -0.192 NA
ENDBRANCH  17  22
ENDBRANCH  13  15
ENDBRANCH  12  13
ENDBRANCH   7  12
ENDBRANCH   6   7
ENDBRANCH   3   6
ENDBRANCH   1   2
BRANCH   1  24
ATOM     24  C   UNL A   1      37.259  19.447  24.997  1.00  0.00     0.042 C 
BRANCH  24  25
ATOM     25  C   UNL A   1      38.433  20.160  25.624  1.00  0.00     0.118 C 
BRANCH  25  26
ATOM     26  N   UNL A   1      39.555  19.279  25.866  1.00  0.00    -0.352 N 
ATOM     27  C   UNL A   1      40.866  19.567  26.161  1.00  0.00     0.251 C 
ATOM     28  H   UNL A   1      39.345  18.320  25.809  1.00  0.00     0.163 HD
ATOM     29  O   UNL A   1      41.678  18.642  26.147  1.00  0.00    -0.269 OA
BRANCH  27  30
ATOM     30  C   UNL A   1      41.325  20.944  26.486  1.00  0.00     0.039 A 
ATOM     31  C   UNL A   1      41.854  21.725  25.452  1.00  0.00     0.014 A 
ATOM     32  C   UNL A   1      41.308  21.463  27.783  1.00  0.00     0.014 A 
ATOM     33  C   UNL A   1      42.325  23.016  25.714  1.00  0.00     0.010 A 
ATOM     34  C   UNL A   1      41.666  22.790  28.020  1.00  0.00     0.010 A 
ATOM     35  C   UNL A   1      42.207  23.577  26.995  1.00  0.00    -0.014 A 
BRANCH  35  36
ATOM     36  C   UNL A   1      42.668  24.966  27.275  1.00  0.00     0.031 A 
ATOM     37  C   UNL A   1      41.747  25.962  27.938  1.00  0.00     0.074 A 
ATOM     38  C   UNL A   1      43.902  25.355  26.894  1.00  0.00     0.049 A 
ATOM     39  N   UNL A   1      41.969  27.216  28.242  1.00  0.00    -0.248 NA
ATOM     40  C   UNL A   1      40.394  25.498  28.285  1.00  0.00     0.031 C 
ATOM     41  C   UNL A   1      44.871  24.515  26.186  1.00  0.00     0.029 A 
ATOM     42  N   UNL A   1      44.549  26.559  27.036  1.00  0.00    -0.354 N 
ATOM     43  C   UNL A   1      40.780  27.696  28.780  1.00  0.00     0.074 A 
ATOM     44  C   UNL A   1      39.825  26.612  28.723  1.00  0.00     0.031 C 
ATOM     45  C   UNL A   1      45.992  25.221  25.972  1.00  0.00     0.029 A 
ATOM     46  C   UNL A   1      45.810  26.575  26.484  1.00  0.00     0.049 A 
ATOM     47  H   UNL A   1      44.148  27.335  27.488  1.00  0.00     0.167 HD
ATOM     48  C   UNL A   1      40.510  28.917  29.300  1.00  0.00     0.034 A 
ATOM     49  C   UNL A   1      46.714  27.570  26.386  1.00  0.00     0.034 A 
ATOM     50  C   UNL A   1      41.466  29.989  29.382  1.00  0.00     0.049 A 
ATOM     51  C   UNL A   1      46.391  28.916  26.975  1.00  0.00     0.074 A 
ATOM     52  C   UNL A   1      41.311  31.236  29.960  1.00  0.00     0.029 A 
ATOM     53  N   UNL A   1      42.748  29.950  28.856  1.00  0.00    -0.354 N 
ATOM     54  N   UNL A   1      45.309  29.306  27.603  1.00  0.00    -0.248 NA
ATOM     55  C   UNL A   1      47.429  29.952  26.872  1.00  0.00     0.031 C 
ATOM     56  C   UNL A   1      42.479  31.970  29.737  1.00  0.00     0.029 A 
ATOM     57  C   UNL A   1      43.386  31.159  29.074  1.00  0.00     0.049 A 
ATOM     58  H   UNL A   1      43.146  29.176  28.396  1.00  0.00     0.167 HD
ATOM     59  C   UNL A   1      45.550  30.615  28.004  1.00  0.00     0.074 A 
ATOM     60  C   UNL A   1      46.889  30.946  27.564  1.00  0.00     0.031 C 
ATOM     61  C   UNL A   1      44.733  31.468  28.670  1.00  0.00     0.034 A 
BRANCH  48  62
ATOM     62  C   UNL A   1      39.124  29.160  29.844  1.00  0.00     0.023 A 
ATOM     63  C   UNL A   1      38.798  28.751  31.154  1.00  0.00     0.012 A 
ATOM     64  C   UNL A   1      38.161  29.847  29.078  1.00  0.00     0.148 A 
ATOM     65  C   UNL A   1      37.525  28.982  31.676  1.00  0.00     0.002 A 
ATOM     66  C   UNL A   1      36.913  30.121  29.623  1.00  0.00     0.091 A 
ATOM     67  F   UNL A   1      38.481  30.215  27.829  1.00  0.00    -0.205 F 
ATOM     68  C   UNL A   1      36.588  29.676  30.916  1.00  0.00     0.022 A 
BRANCH  66  69
ATOM     69  S   UNL A   1      35.665  31.080  28.759  1.00  0.00     0.127 S 
ATOM     70  O   UNL A   1      35.019  30.054  27.940  1.00  0.00    -0.237 OA
ATOM     71  O   UNL A   1      34.847  31.583  29.863  1.00  0.00    -0.237 OA
ATOM     72  O   UNL A   1      36.385  32.104  28.016  1.00  0.00    -0.744 OA
ENDBRANCH  66  69
ENDBRANCH  48  62
BRANCH  49  73
ATOM     73  C   UNL A   1      48.027  27.324  25.725  1.00  0.00     0.023 A 
ATOM     74  C   UNL A   1      49.135  26.923  26.496  1.00  0.00     0.012 A 
ATOM     75  C   UNL A   1      48.179  27.481  24.334  1.00  0.00     0.148 A 
ATOM     76  C   UNL A   1      50.381  26.722  25.901  1.00  0.00     0.002 A 
ATOM     77  C   UNL A   1      49.407  27.222  23.738  1.00  0.00     0.091 A 
ATOM     78  F   UNL A   1      47.115  27.871  23.619  1.00  0.00    -0.205 F 
ATOM     79  C   UNL A   1      50.515  26.862  24.522  1.00  0.00     0.022 A 
BRANCH  77  80
ATOM     80  S   UNL A   1      49.643  27.263  21.959  1.00  0.00     0.127 S 
ATOM     81  O   UNL A   1      51.064  26.946  21.838  1.00  0.00    -0.237 OA
ATOM     82  O   UNL A   1      48.735  26.207  21.511  1.00  0.00    -0.237 OA
ATOM     83  O   UNL A   1      49.262  28.605  21.538  1.00  0.00    -0.744 OA
ENDBRANCH  77  80
ENDBRANCH  49  73
BRANCH  61  84
ATOM     84  C   UNL A   1      45.274  32.832  29.019  1.00  0.00     0.023 A 
ATOM     85  C   UNL A   1      45.959  33.037  30.233  1.00  0.00     0.012 A 
ATOM     86  C   UNL A   1      45.159  33.897  28.103  1.00  0.00     0.148 A 
ATOM     87  C   UNL A   1      46.484  34.290  30.547  1.00  0.00     0.002 A 
ATOM     88  C   UNL A   1      45.734  35.125  28.397  1.00  0.00     0.091 A 
ATOM     89  F   UNL A   1      44.491  33.686  26.959  1.00  0.00    -0.205 F 
ATOM     90  C   UNL A   1      46.383  35.330  29.624  1.00  0.00     0.022 A 
BRANCH  88  91
ATOM     91  S   UNL A   1      45.743  36.491  27.231  1.00  0.00     0.127 S 
ATOM     92  O   UNL A   1      46.400  35.888  26.071  1.00  0.00    -0.237 OA
ATOM     93  O   UNL A   1      44.314  36.753  27.053  1.00  0.00    -0.237 OA
ATOM     94  O   UNL A   1      46.483  37.568  27.873  1.00  0.00    -0.744 OA
ENDBRANCH  88  91
ENDBRANCH  61  84
ENDBRANCH  35  36
ENDBRANCH  27  30
ENDBRANCH  25  26
ENDBRANCH  24  25
ENDBRANCH   1  24
TORSDOF 20
ENDMDL
MODEL 2
REMARK VINA RESULT:     -10.6      5.552      9.001
REMARK SMILES CC(C)C[C@H](CNc1cccc(F)c1C#N)CC(=O)NCCCNC(=O)c1ccc(-c2c3nc(c(-c4cccc(S(=O)(=O)[O-])c4F)c4ccc([nH]4)c(-c4cccc(S(=O)(=O)[O-])c4F)c4nc(c(-c5cccc(S(=O)(=O)[O-])c5F)c5ccc2[nH]5)C=C4)C=C3)cc1
REMARK SMILES IDX 21 1 20 2 18 3 19 4 17 6 5 7 4 8 2 9 1 10 3 11 6 12 7 13
REMARK SMILES IDX 8 15 9 16 14 17 10 18 12 19 11 20 13 21 15 22 16 23 22 24
REMARK SMILES IDX 23 25 24 26 25 27 26 29 27 30 28 31 89 32 29 33 88 34 30 35
REMARK SMILES IDX 31 36 32 37 82 38 33 39 87 40 81 41 83 42 34 43 86 44 80 45
REMARK SMILES IDX 79 46 35 48 67 49 47 50 66 51 48 52 51 53 65 54 84 55 49 56
REMARK SMILES IDX 50 57 64 59 85 60 52 61 36 62 37 63 45 64 38 65 40 66 46 67
REMARK SMILES IDX 39 68 41 69 42 70 43 71 44 72 68 73 69 74 77 75 70 76 72 77
REMARK SMILES IDX 78 78 71 79 73 80 74 81 75 82 76 83 53 84 54 85 62 86 55 87
REMARK SMILES IDX 57 88 63 89 56 90 58 91 59 92 60 93 61 94
REMARK H PARENT 20 5 7 14 24 28 83 47 51 58
REMARK Flexibility Score: inf
ROOT
ATOM      1  C   UNL A   1      31.516  28.825  25.398  1.00  0.00     0.117 C 
ENDROOT
BRANCH   1   2
ATOM      2  N   UNL A   1      31.874  28.079  24.204  1.00  0.00    -0.356 N 
ATOM      3  C   UNL A   1      32.798  27.091  24.026  1.00  0.00     0.220 C 
ATOM      4  O   UNL A   1      33.037  26.723  22.874  1.00  0.00    -0.275 OA
ATOM      5  H   UNL A   1      31.370  28.323  23.395  1.00  0.00     0.163 HD
BRANCH   3   6
ATOM      6  C   UNL A   1      33.473  26.417  25.213  1.00  0.00     0.105 C 
BRANCH   6   7
ATOM      7  C   UNL A   1      33.505  24.870  25.170  1.00  0.00     0.018 C 
BRANCH   7   8
ATOM      8  C   UNL A   1      32.528  24.297  26.221  1.00  0.00     0.009 C 
BRANCH   8   9
ATOM      9  C   UNL A   1      31.066  24.182  25.754  1.00  0.00    -0.017 C 
ATOM     10  C   UNL A   1      30.943  23.708  24.303  1.00  0.00     0.007 C 
ATOM     11  C   UNL A   1      30.340  23.191  26.671  1.00  0.00     0.007 C 
ENDBRANCH   8   9
ENDBRANCH   7   8
BRANCH   7  12
ATOM     12  C   UNL A   1      34.910  24.312  25.449  1.00  0.00     0.117 C 
BRANCH  12  13
ATOM     13  N   UNL A   1      34.875  23.041  26.162  1.00  0.00    -0.384 N 
ATOM     14  H   UNL A   1      34.432  22.978  27.039  1.00  0.00     0.160 HD
BRANCH  13  15
ATOM     15  C   UNL A   1      35.475  21.911  25.597  1.00  0.00     0.055 A 
ATOM     16  C   UNL A   1      36.872  21.930  25.446  1.00  0.00     0.027 A 
ATOM     17  C   UNL A   1      34.789  20.724  25.274  1.00  0.00     0.111 A 
ATOM     18  C   UNL A   1      37.575  20.805  25.003  1.00  0.00     0.005 A 
ATOM     19  C   UNL A   1      35.506  19.600  24.852  1.00  0.00     0.143 A 
ATOM     20  C   UNL A   1      36.889  19.631  24.716  1.00  0.00     0.041 A 
ATOM     21  F   UNL A   1      34.866  18.450  24.598  1.00  0.00    -0.205 F 
BRANCH  17  22
ATOM     22  C   UNL A   1      33.363  20.628  25.330  1.00  0.00     0.104 C 
ATOM     23  N   UNL A   1      32.208  20.490  25.375  1.00  0.00    -0.192 NA
ENDBRANCH  17  22
ENDBRANCH  13  15
ENDBRANCH  12  13
ENDBRANCH   7  12
ENDBRANCH   6   7
ENDBRANCH   3   6
ENDBRANCH   1   2
BRANCH   1  24
ATOM     24  C   UNL A   1      32.398  30.059  25.546  1.00  0.00     0.042 C 
BRANCH  24  25
ATOM     25  C   UNL A   1      32.600  30.585  26.947  1.00  0.00     0.118 C 
BRANCH  25  26
ATOM     26  N   UNL A   1      32.748  32.023  26.987  1.00  0.00    -0.352 N 
ATOM     27  C   UNL A   1      33.681  32.806  27.624  1.00  0.00     0.251 C 
ATOM     28  H   UNL A   1      32.070  32.521  26.476  1.00  0.00     0.163 HD
ATOM     29  O   UNL A   1      33.492  34.021  27.655  1.00  0.00    -0.269 OA
BRANCH  27  30
ATOM     30  C   UNL A   1      34.891  32.232  28.270  1.00  0.00     0.039 A 
ATOM     31  C   UNL A   1      34.754  31.039  28.988  1.00  0.00     0.014 A 
ATOM     32  C   UNL A   1      36.137  32.865  28.245  1.00  0.00     0.014 A 
ATOM     33  C   UNL A   1      35.857  30.476  29.639  1.00  0.00     0.010 A 
ATOM     34  C   UNL A   1      37.259  32.241  28.792  1.00  0.00     0.010 A 
ATOM     35  C   UNL A   1      37.131  31.053  29.522  1.00  0.00    -0.014 A 
BRANCH  35  36
ATOM     36  C   UNL A   1      38.320  30.438  30.176  1.00  0.00     0.031 A 
ATOM     37  C   UNL A   1      38.736  30.860  31.564  1.00  0.00     0.074 A 
ATOM     38  C   UNL A   1      39.059  29.529  29.509  1.00  0.00     0.049 A 
ATOM     39  N   UNL A   1      39.751  30.448  32.283  1.00  0.00    -0.248 NA
ATOM     40  C   UNL A   1      37.923  31.894  32.226  1.00  0.00     0.031 C 
ATOM     41  C   UNL A   1      38.809  29.079  28.138  1.00  0.00     0.029 A 
ATOM     42  N   UNL A   1      40.180  28.829  29.887  1.00  0.00    -0.354 N 
ATOM     43  C   UNL A   1      39.717  31.193  33.457  1.00  0.00     0.074 A 
ATOM     44  C   UNL A   1      38.607  32.113  33.338  1.00  0.00     0.031 C 
ATOM     45  C   UNL A   1      39.734  28.168  27.797  1.00  0.00     0.029 A 
ATOM     46  C   UNL A   1      40.671  28.001  28.904  1.00  0.00     0.049 A 
ATOM     47  H   UNL A   1      40.593  28.914  30.776  1.00  0.00     0.167 HD
ATOM     48  C   UNL A   1      40.517  31.106  34.546  1.00  0.00     0.034 A 
ATOM     49  C   UNL A   1      41.760  27.207  28.886  1.00  0.00     0.034 A 
ATOM     50  C   UNL A   1      41.604  30.174  34.677  1.00  0.00     0.049 A 
ATOM     51  C   UNL A   1      42.629  27.124  30.110  1.00  0.00     0.074 A 
ATOM     52  C   UNL A   1      42.422  29.957  35.771  1.00  0.00     0.029 A 
ATOM     53  N   UNL A   1      42.039  29.318  33.677  1.00  0.00    -0.354 N 
ATOM     54  N   UNL A   1      42.497  27.737  31.261  1.00  0.00    -0.248 NA
ATOM     55  C   UNL A   1      43.781  26.214  30.046  1.00  0.00     0.031 C 
ATOM     56  C   UNL A   1      43.386  29.008  35.415  1.00  0.00     0.029 A 
ATOM     57  C   UNL A   1      43.129  28.588  34.120  1.00  0.00     0.049 A 
ATOM     58  H   UNL A   1      41.632  29.239  32.784  1.00  0.00     0.167 HD
ATOM     59  C   UNL A   1      43.521  27.258  32.070  1.00  0.00     0.074 A 
ATOM     60  C   UNL A   1      44.255  26.289  31.283  1.00  0.00     0.031 C 
ATOM     61  C   UNL A   1      43.830  27.597  33.346  1.00  0.00     0.034 A 
BRANCH  48  62
ATOM     62  C   UNL A   1      40.234  32.032  35.703  1.00  0.00     0.023 A 
ATOM     63  C   UNL A   1      41.038  33.173  35.907  1.00  0.00     0.012 A 
ATOM     64  C   UNL A   1      39.133  31.806  36.553  1.00  0.00     0.148 A 
ATOM     65  C   UNL A   1      40.779  34.046  36.964  1.00  0.00     0.002 A 
ATOM     66  C   UNL A   1      38.848  32.709  37.569  1.00  0.00     0.091 A 
ATOM     67  F   UNL A   1      38.386  30.709  36.353  1.00  0.00    -0.205 F 
ATOM     68  C   UNL A   1      39.679  33.821  37.786  1.00  0.00     0.022 A 
BRANCH  66  69
ATOM     69  S   UNL A   1      37.408  32.555  38.631  1.00  0.00     0.127 S 
ATOM     70  O   UNL A   1      36.341  33.029  37.750  1.00  0.00    -0.237 OA
ATOM     71  O   UNL A   1      37.381  31.118  38.902  1.00  0.00    -0.237 OA
ATOM     72  O   UNL A   1      37.671  33.391  39.793  1.00  0.00    -0.744 OA
ENDBRANCH  66  69
ENDBRANCH  48  62
BRANCH  49  73
ATOM     73  C   UNL A   1      42.076  26.401  27.672  1.00  0.00     0.023 A 
ATOM     74  C   UNL A   1      42.672  27.021  26.556  1.00  0.00     0.012 A 
ATOM     75  C   UNL A   1      41.793  25.023  27.623  1.00  0.00     0.148 A 
ATOM     76  C   UNL A   1      42.943  26.291  25.398  1.00  0.00     0.002 A 
ATOM     77  C   UNL A   1      42.120  24.289  26.489  1.00  0.00     0.091 A 
ATOM     78  F   UNL A   1      41.219  24.454  28.691  1.00  0.00    -0.205 F 
ATOM     79  C   UNL A   1      42.676  24.925  25.368  1.00  0.00     0.022 A 
BRANCH  77  80
ATOM     80  S   UNL A   1      41.920  22.507  26.404  1.00  0.00     0.127 S 
ATOM     81  O   UNL A   1      40.465  22.370  26.370  1.00  0.00    -0.237 OA
ATOM     82  O   UNL A   1      42.598  22.188  25.148  1.00  0.00    -0.237 OA
ATOM     83  O   UNL A   1      42.572  21.976  27.594  1.00  0.00    -0.744 OA
ENDBRANCH  77  80
ENDBRANCH  49  73
BRANCH  61  84
ATOM     84  C   UNL A   1      44.981  26.879  34.004  1.00  0.00     0.023 A 
ATOM     85  C   UNL A   1      46.275  27.436  33.980  1.00  0.00     0.012 A 
ATOM     86  C   UNL A   1      44.760  25.678  34.707  1.00  0.00     0.148 A 
ATOM     87  C   UNL A   1      47.337  26.788  34.611  1.00  0.00     0.002 A 
ATOM     88  C   UNL A   1      45.809  25.068  35.381  1.00  0.00     0.091 A 
ATOM     89  F   UNL A   1      43.525  25.156  34.706  1.00  0.00    -0.205 F 
ATOM     90  C   UNL A   1      47.102  25.612  35.321  1.00  0.00     0.022 A 
BRANCH  88  91
ATOM     91  S   UNL A   1      45.583  23.609  36.403  1.00  0.00     0.127 S 
ATOM     92  O   UNL A   1      46.966  23.186  36.627  1.00  0.00    -0.237 OA
ATOM     93  O   UNL A   1      44.916  24.160  37.582  1.00  0.00    -0.237 OA
ATOM     94  O   UNL A   1      44.772  22.687  35.621  1.00  0.00    -0.744 OA
ENDBRANCH  88  91
ENDBRANCH  61  84
ENDBRANCH  35  36
ENDBRANCH  27  30
ENDBRANCH  25  26
ENDBRANCH  24  25
ENDBRANCH   1  24
TORSDOF 20
ENDMDL
MODEL 3
REMARK VINA RESULT:     -10.4      5.590      8.935
REMARK SMILES CC(C)C[C@H](CNc1cccc(F)c1C#N)CC(=O)NCCCNC(=O)c1ccc(-c2c3nc(c(-c4cccc(S(=O)(=O)[O-])c4F)c4ccc([nH]4)c(-c4cccc(S(=O)(=O)[O-])c4F)c4nc(c(-c5cccc(S(=O)(=O)[O-])c5F)c5ccc2[nH]5)C=C4)C=C3)cc1
REMARK SMILES IDX 21 1 20 2 18 3 19 4 17 6 5 7 4 8 2 9 1 10 3 11 6 12 7 13
REMARK SMILES IDX 8 15 9 16 14 17 10 18 12 19 11 20 13 21 15 22 16 23 22 24
REMARK SMILES IDX 23 25 24 26 25 27 26 29 27 30 28 31 89 32 29 33 88 34 30 35
REMARK SMILES IDX 31 36 32 37 82 38 33 39 87 40 81 41 83 42 34 43 86 44 80 45
REMARK SMILES IDX 79 46 35 48 67 49 47 50 66 51 48 52 51 53 65 54 84 55 49 56
REMARK SMILES IDX 50 57 64 59 85 60 52 61 36 62 37 63 45 64 38 65 40 66 46 67
REMARK SMILES IDX 39 68 41 69 42 70 43 71 44 72 68 73 69 74 77 75 70 76 72 77
REMARK SMILES IDX 78 78 71 79 73 80 74 81 75 82 76 83 53 84 54 85 62 86 55 87
REMARK SMILES IDX 57 88 63 89 56 90 58 91 59 92 60 93 61 94
REMARK H PARENT 20 5 7 14 24 28 83 47 51 58
REMARK Flexibility Score: inf
ROOT
ATOM      1  C   UNL A   1      31.606  29.264  25.384  1.00  0.00     0.117 C 
ENDROOT
BRANCH   1   2
ATOM      2  N   UNL A   1      30.573  29.121  24.372  1.00  0.00    -0.356 N 
ATOM      3  C   UNL A   1      30.622  28.539  23.140  1.00  0.00     0.220 C 
ATOM      4  O   UNL A   1      29.654  28.689  22.391  1.00  0.00    -0.275 OA
ATOM      5  H   UNL A   1      29.699  29.504  24.614  1.00  0.00     0.163 HD
BRANCH   3   6
ATOM      6  C   UNL A   1      31.805  27.677  22.718  1.00  0.00     0.105 C 
BRANCH   6   7
ATOM      7  C   UNL A   1      31.958  26.337  23.478  1.00  0.00     0.018 C 
BRANCH   7   8
ATOM      8  C   UNL A   1      33.449  26.081  23.792  1.00  0.00     0.009 C 
BRANCH   8   9
ATOM      9  C   UNL A   1      33.745  25.665  25.244  1.00  0.00    -0.017 C 
ATOM     10  C   UNL A   1      34.938  24.711  25.356  1.00  0.00     0.007 C 
ATOM     11  C   UNL A   1      34.031  26.928  26.063  1.00  0.00     0.007 C 
ENDBRANCH   8   9
ENDBRANCH   7   8
BRANCH   7  12
ATOM     12  C   UNL A   1      31.414  25.149  22.670  1.00  0.00     0.117 C 
BRANCH  12  13
ATOM     13  N   UNL A   1      30.828  24.117  23.519  1.00  0.00    -0.384 N 
ATOM     14  H   UNL A   1      29.865  24.136  23.726  1.00  0.00     0.160 HD
BRANCH  13  15
ATOM     15  C   UNL A   1      31.638  23.103  24.039  1.00  0.00     0.055 A 
ATOM     16  C   UNL A   1      32.545  22.488  23.161  1.00  0.00     0.027 A 
ATOM     17  C   UNL A   1      31.679  22.736  25.399  1.00  0.00     0.111 A 
ATOM     18  C   UNL A   1      33.478  21.549  23.612  1.00  0.00     0.005 A 
ATOM     19  C   UNL A   1      32.631  21.812  25.841  1.00  0.00     0.143 A 
ATOM     20  C   UNL A   1      33.528  21.218  24.961  1.00  0.00     0.041 A 
ATOM     21  F   UNL A   1      32.714  21.502  27.142  1.00  0.00    -0.205 F 
BRANCH  17  22
ATOM     22  C   UNL A   1      30.753  23.256  26.357  1.00  0.00     0.104 C 
ATOM     23  N   UNL A   1      30.045  23.689  27.174  1.00  0.00    -0.192 NA
ENDBRANCH  17  22
ENDBRANCH  13  15
ENDBRANCH  12  13
ENDBRANCH   7  12
ENDBRANCH   6   7
ENDBRANCH   3   6
ENDBRANCH   1   2
BRANCH   1  24
ATOM     24  C   UNL A   1      31.624  30.684  25.938  1.00  0.00     0.042 C 
BRANCH  24  25
ATOM     25  C   UNL A   1      32.807  31.062  26.797  1.00  0.00     0.118 C 
BRANCH  25  26
ATOM     26  N   UNL A   1      32.837  32.472  27.115  1.00  0.00    -0.352 N 
ATOM     27  C   UNL A   1      33.683  33.184  27.932  1.00  0.00     0.251 C 
ATOM     28  H   UNL A   1      32.137  33.008  26.677  1.00  0.00     0.163 HD
ATOM     29  O   UNL A   1      33.394  34.354  28.184  1.00  0.00    -0.269 OA
BRANCH  27  30
ATOM     30  C   UNL A   1      34.915  32.588  28.514  1.00  0.00     0.039 A 
ATOM     31  C   UNL A   1      34.770  31.564  29.457  1.00  0.00     0.014 A 
ATOM     32  C   UNL A   1      36.198  33.048  28.208  1.00  0.00     0.014 A 
ATOM     33  C   UNL A   1      35.898  30.992  30.055  1.00  0.00     0.010 A 
ATOM     34  C   UNL A   1      37.323  32.396  28.714  1.00  0.00     0.010 A 
ATOM     35  C   UNL A   1      37.191  31.378  29.667  1.00  0.00    -0.014 A 
BRANCH  35  36
ATOM     36  C   UNL A   1      38.398  30.745  30.267  1.00  0.00     0.031 A 
ATOM     37  C   UNL A   1      38.910  31.192  31.615  1.00  0.00     0.074 A 
ATOM     38  C   UNL A   1      39.069  29.795  29.584  1.00  0.00     0.049 A 
ATOM     39  N   UNL A   1      39.954  30.770  32.283  1.00  0.00    -0.248 NA
ATOM     40  C   UNL A   1      38.169  32.269  32.292  1.00  0.00     0.031 C 
ATOM     41  C   UNL A   1      38.723  29.315  28.244  1.00  0.00     0.029 A 
ATOM     42  N   UNL A   1      40.189  29.072  29.916  1.00  0.00    -0.354 N 
ATOM     43  C   UNL A   1      40.013  31.548  33.434  1.00  0.00     0.074 A 
ATOM     44  C   UNL A   1      38.925  32.498  33.355  1.00  0.00     0.031 C 
ATOM     45  C   UNL A   1      39.599  28.366  27.877  1.00  0.00     0.029 A 
ATOM     46  C   UNL A   1      40.595  28.201  28.930  1.00  0.00     0.049 A 
ATOM     47  H   UNL A   1      40.657  29.168  30.776  1.00  0.00     0.167 HD
ATOM     48  C   UNL A   1      40.874  31.466  34.476  1.00  0.00     0.034 A 
ATOM     49  C   UNL A   1      41.657  27.373  28.871  1.00  0.00     0.034 A 
ATOM     50  C   UNL A   1      41.940  30.505  34.570  1.00  0.00     0.049 A 
ATOM     51  C   UNL A   1      42.596  27.298  30.043  1.00  0.00     0.074 A 
ATOM     52  C   UNL A   1      42.816  30.293  35.619  1.00  0.00     0.029 A 
ATOM     53  N   UNL A   1      42.287  29.608  33.572  1.00  0.00    -0.354 N 
ATOM     54  N   UNL A   1      42.551  27.947  31.181  1.00  0.00    -0.248 NA
ATOM     55  C   UNL A   1      43.715  26.351  29.938  1.00  0.00     0.031 C 
ATOM     56  C   UNL A   1      43.728  29.305  35.235  1.00  0.00     0.029 A 
ATOM     57  C   UNL A   1      43.381  28.857  33.970  1.00  0.00     0.049 A 
ATOM     58  H   UNL A   1      41.825  29.517  32.707  1.00  0.00     0.167 HD
ATOM     59  C   UNL A   1      43.609  27.459  31.941  1.00  0.00     0.074 A 
ATOM     60  C   UNL A   1      44.265  26.446  31.141  1.00  0.00     0.031 C 
ATOM     61  C   UNL A   1      44.004  27.823  33.186  1.00  0.00     0.034 A 
BRANCH  48  62
ATOM     62  C   UNL A   1      40.689  32.433  35.620  1.00  0.00     0.023 A 
ATOM     63  C   UNL A   1      41.494  33.588  35.705  1.00  0.00     0.012 A 
ATOM     64  C   UNL A   1      39.675  32.228  36.577  1.00  0.00     0.148 A 
ATOM     65  C   UNL A   1      41.324  34.498  36.749  1.00  0.00     0.002 A 
ATOM     66  C   UNL A   1      39.476  33.166  37.582  1.00  0.00     0.091 A 
ATOM     67  F   UNL A   1      38.928  31.118  36.490  1.00  0.00    -0.205 F 
ATOM     68  C   UNL A   1      40.309  34.294  37.679  1.00  0.00     0.022 A 
BRANCH  66  69
ATOM     69  S   UNL A   1      38.144  33.039  38.780  1.00  0.00     0.127 S 
ATOM     70  O   UNL A   1      38.610  31.937  39.622  1.00  0.00    -0.237 OA
ATOM     71  O   UNL A   1      38.181  34.353  39.419  1.00  0.00    -0.237 OA
ATOM     72  O   UNL A   1      36.937  32.766  38.014  1.00  0.00    -0.744 OA
ENDBRANCH  66  69
ENDBRANCH  48  62
BRANCH  49  73
ATOM     73  C   UNL A   1      41.876  26.525  27.665  1.00  0.00     0.023 A 
ATOM     74  C   UNL A   1      42.467  27.082  26.514  1.00  0.00     0.012 A 
ATOM     75  C   UNL A   1      41.504  25.166  27.657  1.00  0.00     0.148 A 
ATOM     76  C   UNL A   1      42.647  26.313  25.364  1.00  0.00     0.002 A 
ATOM     77  C   UNL A   1      41.741  24.390  26.529  1.00  0.00     0.091 A 
ATOM     78  F   UNL A   1      40.936  24.658  28.759  1.00  0.00    -0.205 F 
ATOM     79  C   UNL A   1      42.293  24.966  25.374  1.00  0.00     0.022 A 
BRANCH  77  80
ATOM     80  S   UNL A   1      41.426  22.623  26.492  1.00  0.00     0.127 S 
ATOM     81  O   UNL A   1      42.191  22.207  25.318  1.00  0.00    -0.237 OA
ATOM     82  O   UNL A   1      41.980  22.192  27.775  1.00  0.00    -0.237 OA
ATOM     83  O   UNL A   1      39.980  22.479  26.381  1.00  0.00    -0.744 OA
ENDBRANCH  77  80
ENDBRANCH  49  73
BRANCH  61  84
ATOM     84  C   UNL A   1      45.172  27.088  33.795  1.00  0.00     0.023 A 
ATOM     85  C   UNL A   1      46.480  27.595  33.663  1.00  0.00     0.012 A 
ATOM     86  C   UNL A   1      44.956  25.925  34.560  1.00  0.00     0.148 A 
ATOM     87  C   UNL A   1      47.559  26.933  34.248  1.00  0.00     0.002 A 
ATOM     88  C   UNL A   1      46.027  25.303  35.187  1.00  0.00     0.091 A 
ATOM     89  F   UNL A   1      43.706  25.450  34.662  1.00  0.00    -0.205 F 
ATOM     90  C   UNL A   1      47.331  25.795  35.020  1.00  0.00     0.022 A 
BRANCH  88  91
ATOM     91  S   UNL A   1      45.820  23.893  36.282  1.00  0.00     0.127 S 
ATOM     92  O   UNL A   1      47.168  23.740  36.827  1.00  0.00    -0.237 OA
ATOM     93  O   UNL A   1      44.829  24.389  37.237  1.00  0.00    -0.237 OA
ATOM     94  O   UNL A   1      45.361  22.794  35.444  1.00  0.00    -0.744 OA
ENDBRANCH  88  91
ENDBRANCH  61  84
ENDBRANCH  35  36
ENDBRANCH  27  30
ENDBRANCH  25  26
ENDBRANCH  24  25
ENDBRANCH   1  24
TORSDOF 20
ENDMDL
