MODEL 1
REMARK VINA RESULT:     -11.9      0.000      0.000
REMARK SMILES Cc1ccc(C)c(Cn2nnc(C(=O)NCCCNC(=O)c3ccc(-c4c5nc(c(-c6cccc(S(=O)(=O)[O-])c6F)c6ccc([nH]6)c(-c6cccc(S(=O)(=O)[O-])c6F)c6nc(c(-c7cccc(S(=O)(=O)[O-])c7F)c7ccc4[nH]7)C=C6)C=C5)cc3)c2-c2cccc(Cl)c2)c1
REMARK SMILES IDX 17 1 16 2 15 3 13 4 14 5 12 7 9 8 10 9 85 10 11 11 8 12 7 13
REMARK SMILES IDX 1 14 2 15 3 16 93 17 4 18 5 19 6 20 86 21 87 22 92 23 88 24
REMARK SMILES IDX 90 25 89 26 91 27 18 28 19 29 20 30 21 32 22 33 23 34 84 35
REMARK SMILES IDX 24 36 83 37 25 38 26 39 27 40 77 41 28 42 82 43 76 44 78 45
REMARK SMILES IDX 29 46 81 47 75 48 74 49 30 51 62 52 42 53 61 54 43 55 46 56
REMARK SMILES IDX 60 57 79 58 44 59 45 60 59 62 80 63 47 64 31 65 32 66 40 67
REMARK SMILES IDX 33 68 35 69 41 70 34 71 36 72 37 73 38 74 39 75 63 76 64 77
REMARK SMILES IDX 72 78 65 79 67 80 73 81 66 82 68 83 69 84 70 85 71 86 48 87
REMARK SMILES IDX 49 88 57 89 50 90 52 91 58 92 51 93 53 94 54 95 55 96 56 97
REMARK H PARENT 15 6 19 31 78 50 46 61
REMARK Flexibility Score: inf
ROOT
ATOM      1  C   UNL A   1      37.715  24.079  25.762  1.00  0.00     0.042 C 
ENDROOT
BRANCH   1   2
ATOM      2  C   UNL A   1      36.305  23.500  25.750  1.00  0.00     0.118 C 
BRANCH   2   3
ATOM      3  N   UNL A   1      35.746  22.898  26.923  1.00  0.00    -0.351 N 
ATOM      4  C   UNL A   1      34.483  22.332  27.048  1.00  0.00     0.274 C 
ATOM      5  O   UNL A   1      34.282  21.642  28.050  1.00  0.00    -0.267 OA
ATOM      6  H   UNL A   1      36.316  22.883  27.725  1.00  0.00     0.163 HD
BRANCH   4   7
ATOM      7  C   UNL A   1      33.380  22.561  26.077  1.00  0.00     0.178 A 
ATOM      8  N   UNL A   1      31.729  23.148  24.751  1.00  0.00    -0.239 N 
ATOM      9  N   UNL A   1      31.827  21.813  24.678  1.00  0.00    -0.066 NA
ATOM     10  C   UNL A   1      32.715  23.683  25.565  1.00  0.00     0.102 A 
ATOM     11  N   UNL A   1      32.825  21.444  25.463  1.00  0.00    -0.124 NA
BRANCH   8  12
ATOM     12  C   UNL A   1      30.561  23.802  24.148  1.00  0.00     0.182 C 
BRANCH  12  13
ATOM     13  C   UNL A   1      30.918  24.969  23.251  1.00  0.00    -0.023 A 
ATOM     14  C   UNL A   1      32.807  25.514  19.979  1.00  0.00     0.044 C 
ATOM     15  C   UNL A   1      32.163  25.777  21.305  1.00  0.00    -0.051 A 
ATOM     16  C   UNL A   1      31.937  27.092  21.707  1.00  0.00     0.004 A 
ATOM     17  C   UNL A   1      31.738  24.729  22.132  1.00  0.00     0.009 A 
ATOM     18  C   UNL A   1      31.086  27.346  22.771  1.00  0.00     0.004 A 
ATOM     19  C   UNL A   1      30.469  26.289  23.458  1.00  0.00    -0.046 A 
ATOM     20  C   UNL A   1      29.217  26.647  24.208  1.00  0.00     0.044 C 
ENDBRANCH  12  13
ENDBRANCH   8  12
BRANCH  10  21
ATOM     21  C   UNL A   1      32.885  25.122  25.703  1.00  0.00     0.004 A 
ATOM     22  C   UNL A   1      33.850  25.795  24.946  1.00  0.00     0.010 A 
ATOM     23  C   UNL A   1      32.076  25.843  26.598  1.00  0.00     0.031 A 
ATOM     24  C   UNL A   1      33.983  27.178  25.060  1.00  0.00     0.002 A 
ATOM     25  C   UNL A   1      32.225  27.221  26.721  1.00  0.00     0.041 A 
ATOM     26  C   UNL A   1      33.153  27.893  25.930  1.00  0.00     0.020 A 
ATOM     27  Cl  UNL A   1      31.269  28.086  27.856  1.00  0.00    -0.084 Cl
ENDBRANCH  10  21
ENDBRANCH   4   7
ENDBRANCH   2   3
ENDBRANCH   1   2
BRANCH   1  28
ATOM     28  C   UNL A   1      38.806  23.147  26.323  1.00  0.00     0.118 C 
BRANCH  28  29
ATOM     29  N   UNL A   1      38.784  21.755  25.841  1.00  0.00    -0.352 N 
ATOM     30  C   UNL A   1      39.793  20.803  25.798  1.00  0.00     0.251 C 
ATOM     31  H   UNL A   1      37.913  21.453  25.494  1.00  0.00     0.163 HD
ATOM     32  O   UNL A   1      39.601  19.636  25.505  1.00  0.00    -0.269 OA
BRANCH  30  33
ATOM     33  C   UNL A   1      41.127  21.209  26.235  1.00  0.00     0.039 A 
ATOM     34  C   UNL A   1      41.458  20.926  27.562  1.00  0.00     0.014 A 
ATOM     35  C   UNL A   1      41.801  22.159  25.486  1.00  0.00     0.014 A 
ATOM     36  C   UNL A   1      42.190  21.871  28.254  1.00  0.00     0.010 A 
ATOM     37  C   UNL A   1      42.555  23.078  26.177  1.00  0.00     0.010 A 
ATOM     38  C   UNL A   1      42.542  23.041  27.580  1.00  0.00    -0.014 A 
BRANCH  38  39
ATOM     39  C   UNL A   1      42.610  24.311  28.307  1.00  0.00     0.031 A 
ATOM     40  C   UNL A   1      41.450  25.222  28.229  1.00  0.00     0.074 A 
ATOM     41  C   UNL A   1      43.419  24.553  29.361  1.00  0.00     0.049 A 
ATOM     42  N   UNL A   1      41.299  26.206  27.412  1.00  0.00    -0.248 NA
ATOM     43  C   UNL A   1      40.291  24.958  29.094  1.00  0.00     0.031 C 
ATOM     44  C   UNL A   1      44.315  23.659  30.098  1.00  0.00     0.029 A 
ATOM     45  N   UNL A   1      43.479  25.706  30.087  1.00  0.00    -0.354 N 
ATOM     46  C   UNL A   1      40.093  26.792  27.768  1.00  0.00     0.074 A 
ATOM     47  C   UNL A   1      39.415  25.844  28.618  1.00  0.00     0.031 C 
ATOM     48  C   UNL A   1      44.660  24.240  31.274  1.00  0.00     0.029 A 
ATOM     49  C   UNL A   1      44.151  25.602  31.291  1.00  0.00     0.049 A 
ATOM     50  H   UNL A   1      43.073  26.547  29.777  1.00  0.00     0.167 HD
ATOM     51  C   UNL A   1      39.821  28.104  27.535  1.00  0.00     0.034 A 
ATOM     52  C   UNL A   1      44.250  26.578  32.223  1.00  0.00     0.034 A 
ATOM     53  C   UNL A   1      40.917  28.783  26.892  1.00  0.00     0.049 A 
ATOM     54  C   UNL A   1      43.936  27.868  31.554  1.00  0.00     0.074 A 
ATOM     55  C   UNL A   1      41.639  28.612  25.728  1.00  0.00     0.029 A 
ATOM     56  N   UNL A   1      41.698  29.581  27.698  1.00  0.00    -0.354 N 
ATOM     57  N   UNL A   1      44.684  28.412  30.636  1.00  0.00    -0.248 NA
ATOM     58  C   UNL A   1      42.596  28.420  31.667  1.00  0.00     0.031 C 
ATOM     59  C   UNL A   1      42.991  28.911  26.083  1.00  0.00     0.029 A 
ATOM     60  C   UNL A   1      43.007  29.261  27.435  1.00  0.00     0.049 A 
ATOM     61  H   UNL A   1      41.378  30.253  28.343  1.00  0.00     0.167 HD
ATOM     62  C   UNL A   1      43.795  29.057  29.786  1.00  0.00     0.074 A 
ATOM     63  C   UNL A   1      42.561  29.166  30.558  1.00  0.00     0.031 C 
ATOM     64  C   UNL A   1      44.048  29.169  28.445  1.00  0.00     0.034 A 
BRANCH  51  65
ATOM     65  C   UNL A   1      38.671  28.859  28.129  1.00  0.00     0.023 A 
ATOM     66  C   UNL A   1      37.712  29.388  27.242  1.00  0.00     0.012 A 
ATOM     67  C   UNL A   1      38.540  29.185  29.494  1.00  0.00     0.148 A 
ATOM     68  C   UNL A   1      36.654  30.178  27.699  1.00  0.00     0.002 A 
ATOM     69  C   UNL A   1      37.428  29.879  29.955  1.00  0.00     0.091 A 
ATOM     70  F   UNL A   1      39.541  28.926  30.346  1.00  0.00    -0.205 F 
ATOM     71  C   UNL A   1      36.491  30.399  29.061  1.00  0.00     0.022 A 
BRANCH  69  72
ATOM     72  S   UNL A   1      37.144  30.021  31.721  1.00  0.00     0.127 S 
ATOM     73  O   UNL A   1      38.229  30.904  32.132  1.00  0.00    -0.237 OA
ATOM     74  O   UNL A   1      35.807  30.611  31.786  1.00  0.00    -0.237 OA
ATOM     75  O   UNL A   1      37.205  28.640  32.191  1.00  0.00    -0.744 OA
ENDBRANCH  69  72
ENDBRANCH  51  65
BRANCH  52  76
ATOM     76  C   UNL A   1      44.504  26.509  33.676  1.00  0.00     0.023 A 
ATOM     77  C   UNL A   1      45.769  26.880  34.176  1.00  0.00     0.012 A 
ATOM     78  C   UNL A   1      43.449  26.328  34.593  1.00  0.00     0.148 A 
ATOM     79  C   UNL A   1      45.972  27.091  35.543  1.00  0.00     0.002 A 
ATOM     80  C   UNL A   1      43.656  26.538  35.955  1.00  0.00     0.091 A 
ATOM     81  F   UNL A   1      42.226  26.043  34.123  1.00  0.00    -0.205 F 
ATOM     82  C   UNL A   1      44.914  26.927  36.433  1.00  0.00     0.022 A 
BRANCH  80  83
ATOM     83  S   UNL A   1      42.323  26.368  37.149  1.00  0.00     0.127 S 
ATOM     84  O   UNL A   1      41.816  25.027  36.860  1.00  0.00    -0.237 OA
ATOM     85  O   UNL A   1      43.038  26.492  38.416  1.00  0.00    -0.237 OA
ATOM     86  O   UNL A   1      41.390  27.446  36.837  1.00  0.00    -0.744 OA
ENDBRANCH  80  83
ENDBRANCH  52  76
BRANCH  64  87
ATOM     87  C   UNL A   1      45.441  28.821  27.952  1.00  0.00     0.023 A 
ATOM     88  C   UNL A   1      46.506  29.742  28.042  1.00  0.00     0.012 A 
ATOM     89  C   UNL A   1      45.733  27.507  27.542  1.00  0.00     0.148 A 
ATOM     90  C   UNL A   1      47.812  29.388  27.698  1.00  0.00     0.002 A 
ATOM     91  C   UNL A   1      47.045  27.141  27.247  1.00  0.00     0.091 A 
ATOM     92  F   UNL A   1      44.725  26.625  27.466  1.00  0.00    -0.205 F 
ATOM     93  C   UNL A   1      48.084  28.083  27.311  1.00  0.00     0.022 A 
BRANCH  91  94
ATOM     94  S   UNL A   1      47.500  25.445  26.870  1.00  0.00     0.127 S 
ATOM     95  O   UNL A   1      46.885  25.245  25.559  1.00  0.00    -0.237 OA
ATOM     96  O   UNL A   1      48.963  25.506  26.854  1.00  0.00    -0.237 OA
ATOM     97  O   UNL A   1      46.953  24.636  27.953  1.00  0.00    -0.744 OA
ENDBRANCH  91  94
ENDBRANCH  64  87
ENDBRANCH  38  39
ENDBRANCH  30  33
ENDBRANCH  28  29
ENDBRANCH   1  28
TORSDOF 16
ENDMDL
MODEL 2
REMARK VINA RESULT:     -11.5      5.543     11.065
REMARK SMILES Cc1ccc(C)c(Cn2nnc(C(=O)NCCCNC(=O)c3ccc(-c4c5nc(c(-c6cccc(S(=O)(=O)[O-])c6F)c6ccc([nH]6)c(-c6cccc(S(=O)(=O)[O-])c6F)c6nc(c(-c7cccc(S(=O)(=O)[O-])c7F)c7ccc4[nH]7)C=C6)C=C5)cc3)c2-c2cccc(Cl)c2)c1
REMARK SMILES IDX 17 1 16 2 15 3 13 4 14 5 12 7 9 8 10 9 85 10 11 11 8 12 7 13
REMARK SMILES IDX 1 14 2 15 3 16 93 17 4 18 5 19 6 20 86 21 87 22 92 23 88 24
REMARK SMILES IDX 90 25 89 26 91 27 18 28 19 29 20 30 21 32 22 33 23 34 84 35
REMARK SMILES IDX 24 36 83 37 25 38 26 39 27 40 77 41 28 42 82 43 76 44 78 45
REMARK SMILES IDX 29 46 81 47 75 48 74 49 30 51 62 52 42 53 61 54 43 55 46 56
REMARK SMILES IDX 60 57 79 58 44 59 45 60 59 62 80 63 47 64 31 65 32 66 40 67
REMARK SMILES IDX 33 68 35 69 41 70 34 71 36 72 37 73 38 74 39 75 63 76 64 77
REMARK SMILES IDX 72 78 65 79 67 80 73 81 66 82 68 83 69 84 70 85 71 86 48 87
REMARK SMILES IDX 49 88 57 89 50 90 52 91 58 92 51 93 53 94 54 95 55 96 56 97
REMARK H PARENT 15 6 19 31 78 50 46 61
REMARK Flexibility Score: inf
ROOT
ATOM      1  C   UNL A   1      46.541  28.932  29.776  1.00  0.00     0.042 C 
ENDROOT
BRANCH   1   2
ATOM      2  C   UNL A   1      47.465  27.836  29.260  1.00  0.00     0.118 C 
BRANCH   2   3
ATOM      3  N   UNL A   1      48.240  28.024  28.071  1.00  0.00    -0.351 N 
ATOM      4  C   UNL A   1      47.762  28.344  26.806  1.00  0.00     0.274 C 
ATOM      5  O   UNL A   1      48.596  28.714  25.977  1.00  0.00    -0.267 OA
ATOM      6  H   UNL A   1      49.215  27.916  28.159  1.00  0.00     0.163 HD
BRANCH   4   7
ATOM      7  C   UNL A   1      46.335  28.212  26.409  1.00  0.00     0.178 A 
ATOM      8  N   UNL A   1      44.283  27.755  25.770  1.00  0.00    -0.239 N 
ATOM      9  N   UNL A   1      44.401  29.090  25.767  1.00  0.00    -0.066 NA
ATOM     10  C   UNL A   1      45.443  27.147  26.223  1.00  0.00     0.102 A 
ATOM     11  N   UNL A   1      45.629  29.383  26.161  1.00  0.00    -0.124 NA
BRANCH   8  12
ATOM     12  C   UNL A   1      43.090  27.153  25.164  1.00  0.00     0.182 C 
BRANCH  12  13
ATOM     13  C   UNL A   1      41.911  27.059  26.112  1.00  0.00    -0.023 A 
ATOM     14  C   UNL A   1      39.079  29.329  27.292  1.00  0.00     0.044 C 
ATOM     15  C   UNL A   1      40.073  28.210  27.244  1.00  0.00    -0.051 A 
ATOM     16  C   UNL A   1      39.918  27.121  28.099  1.00  0.00     0.004 A 
ATOM     17  C   UNL A   1      41.131  28.211  26.326  1.00  0.00     0.009 A 
ATOM     18  C   UNL A   1      40.637  25.960  27.865  1.00  0.00     0.004 A 
ATOM     19  C   UNL A   1      41.536  25.882  26.789  1.00  0.00    -0.046 A 
ATOM     20  C   UNL A   1      41.857  24.494  26.312  1.00  0.00     0.044 C 
ENDBRANCH  12  13
ENDBRANCH   8  12
BRANCH  10  21
ATOM     21  C   UNL A   1      45.514  25.708  26.428  1.00  0.00     0.004 A 
ATOM     22  C   UNL A   1      45.227  25.159  27.682  1.00  0.00     0.010 A 
ATOM     23  C   UNL A   1      45.869  24.862  25.363  1.00  0.00     0.031 A 
ATOM     24  C   UNL A   1      45.265  23.776  27.861  1.00  0.00     0.002 A 
ATOM     25  C   UNL A   1      45.922  23.485  25.552  1.00  0.00     0.041 A 
ATOM     26  C   UNL A   1      45.588  22.939  26.788  1.00  0.00     0.020 A 
ATOM     27  Cl  UNL A   1      46.409  22.464  24.258  1.00  0.00    -0.084 Cl
ENDBRANCH  10  21
ENDBRANCH   4   7
ENDBRANCH   2   3
ENDBRANCH   1   2
BRANCH   1  28
ATOM     28  C   UNL A   1      46.053  28.756  31.227  1.00  0.00     0.118 C 
BRANCH  28  29
ATOM     29  N   UNL A   1      46.440  27.501  31.895  1.00  0.00    -0.352 N 
ATOM     30  C   UNL A   1      45.665  26.422  32.298  1.00  0.00     0.251 C 
ATOM     31  H   UNL A   1      47.402  27.414  32.085  1.00  0.00     0.163 HD
ATOM     32  O   UNL A   1      46.134  25.378  32.713  1.00  0.00    -0.269 OA
BRANCH  30  33
ATOM     33  C   UNL A   1      44.218  26.517  32.106  1.00  0.00     0.039 A 
ATOM     34  C   UNL A   1      43.764  26.487  30.786  1.00  0.00     0.014 A 
ATOM     35  C   UNL A   1      43.451  27.014  33.147  1.00  0.00     0.014 A 
ATOM     36  C   UNL A   1      42.713  27.318  30.452  1.00  0.00     0.010 A 
ATOM     37  C   UNL A   1      42.386  27.814  32.808  1.00  0.00     0.010 A 
ATOM     38  C   UNL A   1      42.184  28.130  31.456  1.00  0.00    -0.014 A 
BRANCH  38  39
ATOM     39  C   UNL A   1      41.676  29.463  31.125  1.00  0.00     0.031 A 
ATOM     40  C   UNL A   1      42.576  30.397  30.416  1.00  0.00     0.074 A 
ATOM     41  C   UNL A   1      40.368  29.786  31.017  1.00  0.00     0.049 A 
ATOM     42  N   UNL A   1      43.324  31.298  30.951  1.00  0.00    -0.248 NA
ATOM     43  C   UNL A   1      42.730  30.255  28.961  1.00  0.00     0.031 C 
ATOM     44  C   UNL A   1      39.172  28.943  31.087  1.00  0.00     0.029 A 
ATOM     45  N   UNL A   1      39.862  31.003  30.670  1.00  0.00    -0.354 N 
ATOM     46  C   UNL A   1      43.923  31.953  29.885  1.00  0.00     0.074 A 
ATOM     47  C   UNL A   1      43.722  31.114  28.728  1.00  0.00     0.031 C 
ATOM     48  C   UNL A   1      38.113  29.628  30.589  1.00  0.00     0.029 A 
ATOM     49  C   UNL A   1      38.521  30.999  30.330  1.00  0.00     0.049 A 
ATOM     50  H   UNL A   1      40.408  31.820  30.662  1.00  0.00     0.167 HD
ATOM     51  C   UNL A   1      44.348  33.242  29.964  1.00  0.00     0.034 A 
ATOM     52  C   UNL A   1      37.828  32.061  29.855  1.00  0.00     0.034 A 
ATOM     53  C   UNL A   1      44.099  33.821  31.260  1.00  0.00     0.049 A 
ATOM     54  C   UNL A   1      38.596  33.286  30.198  1.00  0.00     0.074 A 
ATOM     55  C   UNL A   1      44.439  33.513  32.562  1.00  0.00     0.029 A 
ATOM     56  N   UNL A   1      43.019  34.671  31.351  1.00  0.00    -0.354 N 
ATOM     57  N   UNL A   1      38.777  33.713  31.417  1.00  0.00    -0.248 NA
ATOM     58  C   UNL A   1      39.462  33.886  29.197  1.00  0.00     0.031 C 
ATOM     59  C   UNL A   1      43.269  33.806  33.330  1.00  0.00     0.029 A 
ATOM     60  C   UNL A   1      42.295  34.288  32.453  1.00  0.00     0.049 A 
ATOM     61  H   UNL A   1      42.806  35.414  30.740  1.00  0.00     0.167 HD
ATOM     62  C   UNL A   1      40.038  34.296  31.407  1.00  0.00     0.074 A 
ATOM     63  C   UNL A   1      40.329  34.518  29.994  1.00  0.00     0.031 C 
ATOM     64  C   UNL A   1      40.844  34.266  32.514  1.00  0.00     0.034 A 
BRANCH  51  65
ATOM     65  C   UNL A   1      44.745  34.087  28.792  1.00  0.00     0.023 A 
ATOM     66  C   UNL A   1      43.741  34.863  28.180  1.00  0.00     0.012 A 
ATOM     67  C   UNL A   1      46.015  34.073  28.182  1.00  0.00     0.148 A 
ATOM     68  C   UNL A   1      43.999  35.614  27.030  1.00  0.00     0.002 A 
ATOM     69  C   UNL A   1      46.295  34.906  27.105  1.00  0.00     0.091 A 
ATOM     70  F   UNL A   1      46.934  33.176  28.564  1.00  0.00    -0.205 F 
ATOM     71  C   UNL A   1      45.287  35.663  26.509  1.00  0.00     0.022 A 
BRANCH  69  72
ATOM     72  S   UNL A   1      47.990  35.082  26.542  1.00  0.00     0.127 S 
ATOM     73  O   UNL A   1      48.190  33.847  25.793  1.00  0.00    -0.237 OA
ATOM     74  O   UNL A   1      47.933  36.298  25.729  1.00  0.00    -0.237 OA
ATOM     75  O   UNL A   1      48.749  35.232  27.779  1.00  0.00    -0.744 OA
ENDBRANCH  69  72
ENDBRANCH  51  65
BRANCH  52  76
ATOM     76  C   UNL A   1      36.595  32.129  29.045  1.00  0.00     0.023 A 
ATOM     77  C   UNL A   1      36.129  30.969  28.395  1.00  0.00     0.012 A 
ATOM     78  C   UNL A   1      35.741  33.249  29.110  1.00  0.00     0.148 A 
ATOM     79  C   UNL A   1      34.843  30.913  27.850  1.00  0.00     0.002 A 
ATOM     80  C   UNL A   1      34.461  33.190  28.564  1.00  0.00     0.091 A 
ATOM     81  F   UNL A   1      36.148  34.333  29.785  1.00  0.00    -0.205 F 
ATOM     82  C   UNL A   1      34.005  32.021  27.939  1.00  0.00     0.022 A 
BRANCH  80  83
ATOM     83  S   UNL A   1      33.325  34.579  28.673  1.00  0.00     0.127 S 
ATOM     84  O   UNL A   1      33.014  34.616  30.102  1.00  0.00    -0.237 OA
ATOM     85  O   UNL A   1      34.154  35.683  28.198  1.00  0.00    -0.237 OA
ATOM     86  O   UNL A   1      32.197  34.219  27.819  1.00  0.00    -0.744 OA
ENDBRANCH  80  83
ENDBRANCH  52  76
BRANCH  64  87
ATOM     87  C   UNL A   1      40.227  33.829  33.831  1.00  0.00     0.023 A 
ATOM     88  C   UNL A   1      39.596  34.753  34.691  1.00  0.00     0.012 A 
ATOM     89  C   UNL A   1      40.132  32.460  34.142  1.00  0.00     0.148 A 
ATOM     90  C   UNL A   1      38.928  34.340  35.845  1.00  0.00     0.002 A 
ATOM     91  C   UNL A   1      39.422  32.046  35.268  1.00  0.00     0.091 A 
ATOM     92  F   UNL A   1      40.721  31.578  33.320  1.00  0.00    -0.205 F 
ATOM     93  C   UNL A   1      38.831  32.984  36.127  1.00  0.00     0.022 A 
BRANCH  91  94
ATOM     94  S   UNL A   1      39.136  30.310  35.628  1.00  0.00     0.127 S 
ATOM     95  O   UNL A   1      38.204  30.379  36.752  1.00  0.00    -0.237 OA
ATOM     96  O   UNL A   1      38.549  29.820  34.379  1.00  0.00    -0.237 OA
ATOM     97  O   UNL A   1      40.446  29.745  35.930  1.00  0.00    -0.744 OA
ENDBRANCH  91  94
ENDBRANCH  64  87
ENDBRANCH  38  39
ENDBRANCH  30  33
ENDBRANCH  28  29
ENDBRANCH   1  28
TORSDOF 16
ENDMDL
MODEL 3
REMARK VINA RESULT:     -11.2      4.848      6.544
REMARK SMILES Cc1ccc(C)c(Cn2nnc(C(=O)NCCCNC(=O)c3ccc(-c4c5nc(c(-c6cccc(S(=O)(=O)[O-])c6F)c6ccc([nH]6)c(-c6cccc(S(=O)(=O)[O-])c6F)c6nc(c(-c7cccc(S(=O)(=O)[O-])c7F)c7ccc4[nH]7)C=C6)C=C5)cc3)c2-c2cccc(Cl)c2)c1
REMARK SMILES IDX 17 1 16 2 15 3 13 4 14 5 12 7 9 8 10 9 85 10 11 11 8 12 7 13
REMARK SMILES IDX 1 14 2 15 3 16 93 17 4 18 5 19 6 20 86 21 87 22 92 23 88 24
REMARK SMILES IDX 90 25 89 26 91 27 18 28 19 29 20 30 21 32 22 33 23 34 84 35
REMARK SMILES IDX 24 36 83 37 25 38 26 39 27 40 77 41 28 42 82 43 76 44 78 45
REMARK SMILES IDX 29 46 81 47 75 48 74 49 30 51 62 52 42 53 61 54 43 55 46 56
REMARK SMILES IDX 60 57 79 58 44 59 45 60 59 62 80 63 47 64 31 65 32 66 40 67
REMARK SMILES IDX 33 68 35 69 41 70 34 71 36 72 37 73 38 74 39 75 63 76 64 77
REMARK SMILES IDX 72 78 65 79 67 80 73 81 66 82 68 83 69 84 70 85 71 86 48 87
REMARK SMILES IDX 49 88 57 89 50 90 52 91 58 92 51 93 53 94 54 95 55 96 56 97
REMARK H PARENT 15 6 19 31 78 50 46 61
REMARK Flexibility Score: inf
ROOT
ATOM      1  C   UNL A   1      39.053  23.447  26.537  1.00  0.00     0.042 C 
ENDROOT
BRANCH   1   2
ATOM      2  C   UNL A   1      37.688  23.987  26.129  1.00  0.00     0.118 C 
BRANCH   2   3
ATOM      3  N   UNL A   1      36.518  23.691  26.899  1.00  0.00    -0.351 N 
ATOM      4  C   UNL A   1      35.228  23.503  26.416  1.00  0.00     0.274 C 
ATOM      5  O   UNL A   1      34.412  23.008  27.197  1.00  0.00    -0.267 OA
ATOM      6  H   UNL A   1      36.640  23.612  27.872  1.00  0.00     0.163 HD
BRANCH   4   7
ATOM      7  C   UNL A   1      34.793  23.912  25.054  1.00  0.00     0.178 A 
ATOM      8  N   UNL A   1      33.996  24.705  23.166  1.00  0.00    -0.239 N 
ATOM      9  N   UNL A   1      34.533  23.509  22.887  1.00  0.00    -0.066 NA
ATOM     10  C   UNL A   1      34.181  25.043  24.497  1.00  0.00     0.102 A 
ATOM     11  N   UNL A   1      35.027  23.022  24.013  1.00  0.00    -0.124 NA
BRANCH   8  12
ATOM     12  C   UNL A   1      33.183  25.368  22.140  1.00  0.00     0.182 C 
BRANCH  12  13
ATOM     13  C   UNL A   1      31.826  25.819  22.642  1.00  0.00    -0.023 A 
ATOM     14  C   UNL A   1      29.674  28.965  22.455  1.00  0.00     0.044 C 
ATOM     15  C   UNL A   1      30.224  27.649  22.909  1.00  0.00    -0.051 A 
ATOM     16  C   UNL A   1      29.497  26.880  23.815  1.00  0.00     0.004 A 
ATOM     17  C   UNL A   1      31.434  27.150  22.408  1.00  0.00     0.009 A 
ATOM     18  C   UNL A   1      29.836  25.550  24.011  1.00  0.00     0.004 A 
ATOM     19  C   UNL A   1      30.919  24.982  23.321  1.00  0.00    -0.046 A 
ATOM     20  C   UNL A   1      30.890  23.485  23.191  1.00  0.00     0.044 C 
ENDBRANCH  12  13
ENDBRANCH   8  12
BRANCH  10  21
ATOM     21  C   UNL A   1      33.790  26.349  25.008  1.00  0.00     0.004 A 
ATOM     22  C   UNL A   1      34.319  27.515  24.445  1.00  0.00     0.010 A 
ATOM     23  C   UNL A   1      32.876  26.443  26.071  1.00  0.00     0.031 A 
ATOM     24  C   UNL A   1      33.914  28.762  24.919  1.00  0.00     0.002 A 
ATOM     25  C   UNL A   1      32.488  27.690  26.552  1.00  0.00     0.041 A 
ATOM     26  C   UNL A   1      32.979  28.848  25.956  1.00  0.00     0.020 A 
ATOM     27  Cl  UNL A   1      31.411  27.793  27.886  1.00  0.00    -0.084 Cl
ENDBRANCH  10  21
ENDBRANCH   4   7
ENDBRANCH   2   3
ENDBRANCH   1   2
BRANCH   1  28
ATOM     28  C   UNL A   1      39.948  24.432  27.312  1.00  0.00     0.118 C 
BRANCH  28  29
ATOM     29  N   UNL A   1      40.052  25.792  26.756  1.00  0.00    -0.352 N 
ATOM     30  C   UNL A   1      40.183  27.017  27.396  1.00  0.00     0.251 C 
ATOM     31  H   UNL A   1      40.024  25.839  25.773  1.00  0.00     0.163 HD
ATOM     32  O   UNL A   1      40.404  28.060  26.808  1.00  0.00    -0.269 OA
BRANCH  30  33
ATOM     33  C   UNL A   1      40.163  27.024  28.858  1.00  0.00     0.039 A 
ATOM     34  C   UNL A   1      38.905  26.956  29.462  1.00  0.00     0.014 A 
ATOM     35  C   UNL A   1      41.287  27.481  29.526  1.00  0.00     0.014 A 
ATOM     36  C   UNL A   1      38.698  27.720  30.593  1.00  0.00     0.010 A 
ATOM     37  C   UNL A   1      41.076  28.214  30.671  1.00  0.00     0.010 A 
ATOM     38  C   UNL A   1      39.757  28.506  31.049  1.00  0.00    -0.014 A 
BRANCH  38  39
ATOM     39  C   UNL A   1      39.487  29.804  31.673  1.00  0.00     0.031 A 
ATOM     40  C   UNL A   1      38.358  30.605  31.155  1.00  0.00     0.074 A 
ATOM     41  C   UNL A   1      39.876  30.157  32.918  1.00  0.00     0.049 A 
ATOM     42  N   UNL A   1      38.421  31.540  30.271  1.00  0.00    -0.248 NA
ATOM     43  C   UNL A   1      36.998  30.273  31.602  1.00  0.00     0.031 C 
ATOM     44  C   UNL A   1      40.533  29.375  33.967  1.00  0.00     0.029 A 
ATOM     45  N   UNL A   1      39.606  31.337  33.544  1.00  0.00    -0.354 N 
ATOM     46  C   UNL A   1      37.128  32.030  30.168  1.00  0.00     0.074 A 
ATOM     47  C   UNL A   1      36.272  31.059  30.805  1.00  0.00     0.031 C 
ATOM     48  C   UNL A   1      40.420  30.029  35.149  1.00  0.00     0.029 A 
ATOM     49  C   UNL A   1      39.840  31.340  34.907  1.00  0.00     0.049 A 
ATOM     50  H   UNL A   1      39.270  32.127  33.063  1.00  0.00     0.167 HD
ATOM     51  C   UNL A   1      36.858  33.303  29.772  1.00  0.00     0.034 A 
ATOM     52  C   UNL A   1      39.551  32.356  35.753  1.00  0.00     0.034 A 
ATOM     53  C   UNL A   1      38.056  34.051  29.485  1.00  0.00     0.049 A 
ATOM     54  C   UNL A   1      39.390  33.586  34.935  1.00  0.00     0.074 A 
ATOM     55  C   UNL A   1      39.137  33.900  28.641  1.00  0.00     0.029 A 
ATOM     56  N   UNL A   1      38.462  34.945  30.451  1.00  0.00    -0.354 N 
ATOM     57  N   UNL A   1      40.363  34.159  34.283  1.00  0.00    -0.248 NA
ATOM     58  C   UNL A   1      38.055  34.022  34.560  1.00  0.00     0.031 C 
ATOM     59  C   UNL A   1      40.266  34.332  29.403  1.00  0.00     0.029 A 
ATOM     60  C   UNL A   1      39.803  34.733  30.659  1.00  0.00     0.049 A 
ATOM     61  H   UNL A   1      37.898  35.611  30.907  1.00  0.00     0.167 HD
ATOM     62  C   UNL A   1      39.768  34.689  33.145  1.00  0.00     0.074 A 
ATOM     63  C   UNL A   1      38.342  34.718  33.456  1.00  0.00     0.031 C 
ATOM     64  C   UNL A   1      40.448  34.772  31.960  1.00  0.00     0.034 A 
BRANCH  51  65
ATOM     65  C   UNL A   1      35.525  33.976  29.901  1.00  0.00     0.023 A 
ATOM     66  C   UNL A   1      34.749  34.108  28.733  1.00  0.00     0.012 A 
ATOM     67  C   UNL A   1      35.044  34.592  31.072  1.00  0.00     0.148 A 
ATOM     68  C   UNL A   1      33.533  34.797  28.740  1.00  0.00     0.002 A 
ATOM     69  C   UNL A   1      33.785  35.181  31.099  1.00  0.00     0.091 A 
ATOM     70  F   UNL A   1      35.840  34.716  32.143  1.00  0.00    -0.205 F 
ATOM     71  C   UNL A   1      33.033  35.308  29.932  1.00  0.00     0.022 A 
BRANCH  69  72
ATOM     72  S   UNL A   1      33.083  35.693  32.669  1.00  0.00     0.127 S 
ATOM     73  O   UNL A   1      31.909  34.834  32.770  1.00  0.00    -0.237 OA
ATOM     74  O   UNL A   1      34.156  35.388  33.616  1.00  0.00    -0.237 OA
ATOM     75  O   UNL A   1      32.840  37.121  32.488  1.00  0.00    -0.744 OA
ENDBRANCH  69  72
ENDBRANCH  51  65
BRANCH  52  76
ATOM     76  C   UNL A   1      39.307  32.365  37.209  1.00  0.00     0.023 A 
ATOM     77  C   UNL A   1      40.306  32.855  38.075  1.00  0.00     0.012 A 
ATOM     78  C   UNL A   1      38.018  32.137  37.734  1.00  0.00     0.148 A 
ATOM     79  C   UNL A   1      40.025  33.136  39.416  1.00  0.00     0.002 A 
ATOM     80  C   UNL A   1      37.743  32.418  39.071  1.00  0.00     0.091 A 
ATOM     81  F   UNL A   1      37.045  31.738  36.904  1.00  0.00    -0.205 F 
ATOM     82  C   UNL A   1      38.742  32.924  39.914  1.00  0.00     0.022 A 
BRANCH  80  83
ATOM     83  S   UNL A   1      36.100  32.190  39.763  1.00  0.00     0.127 S 
ATOM     84  O   UNL A   1      36.175  32.963  41.002  1.00  0.00    -0.237 OA
ATOM     85  O   UNL A   1      35.254  32.775  38.727  1.00  0.00    -0.237 OA
ATOM     86  O   UNL A   1      35.963  30.750  39.957  1.00  0.00    -0.744 OA
ENDBRANCH  80  83
ENDBRANCH  52  76
BRANCH  64  87
ATOM     87  C   UNL A   1      41.947  34.530  31.981  1.00  0.00     0.023 A 
ATOM     88  C   UNL A   1      42.850  35.538  32.380  1.00  0.00     0.012 A 
ATOM     89  C   UNL A   1      42.452  33.236  31.756  1.00  0.00     0.148 A 
ATOM     90  C   UNL A   1      44.217  35.285  32.512  1.00  0.00     0.002 A 
ATOM     91  C   UNL A   1      43.809  32.974  31.936  1.00  0.00     0.091 A 
ATOM     92  F   UNL A   1      41.595  32.272  31.386  1.00  0.00    -0.205 F 
ATOM     93  C   UNL A   1      44.695  34.000  32.301  1.00  0.00     0.022 A 
BRANCH  91  94
ATOM     94  S   UNL A   1      44.484  31.314  31.815  1.00  0.00     0.127 S 
ATOM     95  O   UNL A   1      44.641  31.151  30.370  1.00  0.00    -0.237 OA
ATOM     96  O   UNL A   1      45.741  31.429  32.555  1.00  0.00    -0.237 OA
ATOM     97  O   UNL A   1      43.502  30.439  32.444  1.00  0.00    -0.744 OA
ENDBRANCH  91  94
ENDBRANCH  64  87
ENDBRANCH  38  39
ENDBRANCH  30  33
ENDBRANCH  28  29
ENDBRANCH   1  28
TORSDOF 16
ENDMDL
