MODEL 1
REMARK VINA RESULT:      -9.5      0.000      0.000
REMARK SMILES CC[C@@H](C)[NH2+][C@H](CN=[N+]=[N-])C(=O)NCCCNC(=O)c1ccc(-c2c3nc(c(-c4cccc(S(=O)(=O)[O-])c4F)c4ccc([nH]4)c(-c4cccc(S(=O)(=O)[O-])c4F)c4nc(c(-c5cccc(S(=O)(=O)[O-])c5F)c5ccc2[nH]5)C=C4)C=C3)cc1
REMARK SMILES IDX 15 1 14 2 13 3 11 4 12 5 6 7 5 8 3 11 4 12 2 13 1 14 7 15
REMARK SMILES IDX 8 16 9 17 10 18 16 19 17 20 18 21 19 23 20 24 21 25 82 26
REMARK SMILES IDX 22 27 81 28 23 29 24 30 25 31 75 32 26 33 80 34 74 35 76 36
REMARK SMILES IDX 27 37 79 38 73 39 72 40 28 42 60 43 40 44 59 45 41 46 44 47
REMARK SMILES IDX 58 48 77 49 42 50 43 51 57 53 78 54 45 55 29 56 30 57 38 58
REMARK SMILES IDX 31 59 33 60 39 61 32 62 34 63 35 64 36 65 37 66 61 67 62 68
REMARK SMILES IDX 70 69 63 70 65 71 71 72 64 73 66 74 67 75 68 76 69 77 46 78
REMARK SMILES IDX 47 79 55 80 48 81 50 82 56 83 49 84 51 85 52 86 53 87 54 88
REMARK H PARENT 13 6 5 9 5 10 17 22 76 41 44 52
REMARK Flexibility Score: inf
ROOT
ATOM      1  C   UNL A   1      42.335  21.622  26.958  1.00  0.00     0.042 C 
ENDROOT
BRANCH   1   2
ATOM      2  C   UNL A   1      42.695  22.987  26.397  1.00  0.00     0.118 C 
BRANCH   2   3
ATOM      3  N   UNL A   1      42.972  22.982  24.978  1.00  0.00    -0.351 N 
ATOM      4  C   UNL A   1      44.143  22.744  24.320  1.00  0.00     0.278 C 
ATOM      5  O   UNL A   1      44.071  22.553  23.099  1.00  0.00    -0.268 OA
ATOM      6  H   UNL A   1      42.199  23.179  24.401  1.00  0.00     0.163 HD
BRANCH   4   7
ATOM      7  C   UNL A   1      45.525  22.755  25.028  1.00  0.00     0.278 C 
BRANCH   7   8
ATOM      8  N   UNL A   1      46.132  24.102  24.952  1.00  0.00    -0.334 N 
ATOM      9  H   UNL A   1      47.128  23.983  25.136  1.00  0.00     0.347 HD
ATOM     10  H   UNL A   1      45.850  24.424  24.026  1.00  0.00     0.347 HD
BRANCH   8  11
ATOM     11  C   UNL A   1      45.671  25.183  25.824  1.00  0.00     0.179 C 
ATOM     12  C   UNL A   1      45.279  26.443  25.054  1.00  0.00     0.075 C 
BRANCH  11  13
ATOM     13  C   UNL A   1      46.851  25.477  26.783  1.00  0.00     0.061 C 
ATOM     14  C   UNL A   1      46.856  24.600  28.029  1.00  0.00     0.010 C 
ENDBRANCH  11  13
ENDBRANCH   8  11
ENDBRANCH   7   8
BRANCH   7  15
ATOM     15  C   UNL A   1      46.341  21.507  24.640  1.00  0.00     0.166 C 
BRANCH  15  16
ATOM     16  N   UNL A   1      45.641  20.261  25.013  1.00  0.00    -0.087 NA
ATOM     17  N   UNL A   1      46.363  19.298  25.329  1.00  0.00     0.001 N 
ATOM     18  N   UNL A   1      47.041  18.427  25.619  1.00  0.00    -0.003 NA
ENDBRANCH  15  16
ENDBRANCH   7  15
ENDBRANCH   4   7
ENDBRANCH   2   3
ENDBRANCH   1   2
BRANCH   1  19
ATOM     19  C   UNL A   1      40.988  21.605  27.663  1.00  0.00     0.118 C 
BRANCH  19  20
ATOM     20  N   UNL A   1      39.867  21.645  26.725  1.00  0.00    -0.352 N 
ATOM     21  C   UNL A   1      39.011  22.669  26.409  1.00  0.00     0.251 C 
ATOM     22  H   UNL A   1      39.700  20.802  26.243  1.00  0.00     0.163 HD
ATOM     23  O   UNL A   1      37.998  22.438  25.754  1.00  0.00    -0.269 OA
BRANCH  21  24
ATOM     24  C   UNL A   1      39.305  24.041  26.866  1.00  0.00     0.039 A 
ATOM     25  C   UNL A   1      39.012  24.403  28.183  1.00  0.00     0.014 A 
ATOM     26  C   UNL A   1      39.878  24.967  25.992  1.00  0.00     0.014 A 
ATOM     27  C   UNL A   1      39.364  25.673  28.642  1.00  0.00     0.010 A 
ATOM     28  C   UNL A   1      40.325  26.186  26.480  1.00  0.00     0.010 A 
ATOM     29  C   UNL A   1      40.062  26.559  27.806  1.00  0.00    -0.014 A 
BRANCH  29  30
ATOM     30  C   UNL A   1      40.530  27.882  28.286  1.00  0.00     0.031 A 
ATOM     31  C   UNL A   1      42.003  28.141  28.447  1.00  0.00     0.074 A 
ATOM     32  C   UNL A   1      39.631  28.803  28.685  1.00  0.00     0.049 A 
ATOM     33  N   UNL A   1      42.605  29.183  28.957  1.00  0.00    -0.248 NA
ATOM     34  C   UNL A   1      42.919  27.074  28.011  1.00  0.00     0.031 C 
ATOM     35  C   UNL A   1      38.177  28.633  28.655  1.00  0.00     0.029 A 
ATOM     36  N   UNL A   1      39.809  30.048  29.232  1.00  0.00    -0.354 N 
ATOM     37  C   UNL A   1      43.961  28.878  28.945  1.00  0.00     0.074 A 
ATOM     38  C   UNL A   1      44.089  27.539  28.417  1.00  0.00     0.031 C 
ATOM     39  C   UNL A   1      37.597  29.730  29.167  1.00  0.00     0.029 A 
ATOM     40  C   UNL A   1      38.634  30.659  29.602  1.00  0.00     0.049 A 
ATOM     41  H   UNL A   1      40.693  30.466  29.348  1.00  0.00     0.167 HD
ATOM     42  C   UNL A   1      45.008  29.653  29.317  1.00  0.00     0.034 A 
ATOM     43  C   UNL A   1      38.414  31.823  30.245  1.00  0.00     0.034 A 
ATOM     44  C   UNL A   1      44.872  30.994  29.815  1.00  0.00     0.049 A 
ATOM     45  C   UNL A   1      39.590  32.680  30.626  1.00  0.00     0.074 A 
ATOM     46  C   UNL A   1      45.869  31.898  30.130  1.00  0.00     0.029 A 
ATOM     47  N   UNL A   1      43.664  31.615  30.092  1.00  0.00    -0.354 N 
ATOM     48  N   UNL A   1      40.869  32.441  30.462  1.00  0.00    -0.248 NA
ATOM     49  C   UNL A   1      39.296  33.978  31.249  1.00  0.00     0.031 C 
ATOM     50  C   UNL A   1      45.265  33.050  30.642  1.00  0.00     0.029 A 
ATOM     51  C   UNL A   1      43.890  32.884  30.595  1.00  0.00     0.049 A 
ATOM     52  H   UNL A   1      42.776  31.213  29.951  1.00  0.00     0.167 HD
ATOM     53  C   UNL A   1      41.530  33.572  30.927  1.00  0.00     0.074 A 
ATOM     54  C   UNL A   1      40.509  34.500  31.369  1.00  0.00     0.031 C 
ATOM     55  C   UNL A   1      42.863  33.815  30.990  1.00  0.00     0.034 A 
BRANCH  42  56
ATOM     56  C   UNL A   1      46.391  29.070  29.172  1.00  0.00     0.023 A 
ATOM     57  C   UNL A   1      46.962  28.338  30.233  1.00  0.00     0.012 A 
ATOM     58  C   UNL A   1      47.114  29.224  27.974  1.00  0.00     0.148 A 
ATOM     59  C   UNL A   1      48.250  27.815  30.125  1.00  0.00     0.002 A 
ATOM     60  C   UNL A   1      48.376  28.653  27.853  1.00  0.00     0.091 A 
ATOM     61  F   UNL A   1      46.566  29.939  26.981  1.00  0.00    -0.205 F 
ATOM     62  C   UNL A   1      48.952  27.965  28.934  1.00  0.00     0.022 A 
BRANCH  60  63
ATOM     63  S   UNL A   1      49.324  28.714  26.330  1.00  0.00     0.127 S 
ATOM     64  O   UNL A   1      48.329  28.292  25.346  1.00  0.00    -0.237 OA
ATOM     65  O   UNL A   1      49.694  30.128  26.255  1.00  0.00    -0.237 OA
ATOM     66  O   UNL A   1      50.444  27.803  26.517  1.00  0.00    -0.744 OA
ENDBRANCH  60  63
ENDBRANCH  42  56
BRANCH  43  67
ATOM     67  C   UNL A   1      37.018  32.249  30.540  1.00  0.00     0.023 A 
ATOM     68  C   UNL A   1      36.488  32.066  31.831  1.00  0.00     0.012 A 
ATOM     69  C   UNL A   1      36.230  32.878  29.556  1.00  0.00     0.148 A 
ATOM     70  C   UNL A   1      35.188  32.478  32.130  1.00  0.00     0.002 A 
ATOM     71  C   UNL A   1      34.960  33.338  29.876  1.00  0.00     0.091 A 
ATOM     72  F   UNL A   1      36.754  33.037  28.331  1.00  0.00    -0.205 F 
ATOM     73  C   UNL A   1      34.429  33.123  31.157  1.00  0.00     0.022 A 
BRANCH  71  74
ATOM     74  S   UNL A   1      33.966  34.301  28.731  1.00  0.00     0.127 S 
ATOM     75  O   UNL A   1      33.648  33.311  27.705  1.00  0.00    -0.237 OA
ATOM     76  O   UNL A   1      32.838  34.699  29.575  1.00  0.00    -0.237 OA
ATOM     77  O   UNL A   1      34.813  35.406  28.301  1.00  0.00    -0.744 OA
ENDBRANCH  71  74
ENDBRANCH  43  67
BRANCH  55  78
ATOM     78  C   UNL A   1      43.310  35.157  31.507  1.00  0.00     0.023 A 
ATOM     79  C   UNL A   1      43.605  35.329  32.873  1.00  0.00     0.012 A 
ATOM     80  C   UNL A   1      43.538  36.220  30.609  1.00  0.00     0.148 A 
ATOM     81  C   UNL A   1      44.094  36.547  33.343  1.00  0.00     0.002 A 
ATOM     82  C   UNL A   1      44.077  37.412  31.074  1.00  0.00     0.091 A 
ATOM     83  F   UNL A   1      43.236  36.038  29.315  1.00  0.00    -0.205 F 
ATOM     84  C   UNL A   1      44.344  37.582  32.442  1.00  0.00     0.022 A 
BRANCH  82  85
ATOM     85  S   UNL A   1      44.528  38.760  29.978  1.00  0.00     0.127 S 
ATOM     86  O   UNL A   1      45.026  39.758  30.924  1.00  0.00    -0.237 OA
ATOM     87  O   UNL A   1      45.559  38.145  29.142  1.00  0.00    -0.237 OA
ATOM     88  O   UNL A   1      43.311  39.132  29.269  1.00  0.00    -0.744 OA
ENDBRANCH  82  85
ENDBRANCH  55  78
ENDBRANCH  29  30
ENDBRANCH  21  24
ENDBRANCH  19  20
ENDBRANCH   1  19
TORSDOF 18
ENDMDL
MODEL 2
REMARK VINA RESULT:      -9.3      1.687      2.112
REMARK SMILES CC[C@@H](C)[NH2+][C@H](CN=[N+]=[N-])C(=O)NCCCNC(=O)c1ccc(-c2c3nc(c(-c4cccc(S(=O)(=O)[O-])c4F)c4ccc([nH]4)c(-c4cccc(S(=O)(=O)[O-])c4F)c4nc(c(-c5cccc(S(=O)(=O)[O-])c5F)c5ccc2[nH]5)C=C4)C=C3)cc1
REMARK SMILES IDX 15 1 14 2 13 3 11 4 12 5 6 7 5 8 3 11 4 12 2 13 1 14 7 15
REMARK SMILES IDX 8 16 9 17 10 18 16 19 17 20 18 21 19 23 20 24 21 25 82 26
REMARK SMILES IDX 22 27 81 28 23 29 24 30 25 31 75 32 26 33 80 34 74 35 76 36
REMARK SMILES IDX 27 37 79 38 73 39 72 40 28 42 60 43 40 44 59 45 41 46 44 47
REMARK SMILES IDX 58 48 77 49 42 50 43 51 57 53 78 54 45 55 29 56 30 57 38 58
REMARK SMILES IDX 31 59 33 60 39 61 32 62 34 63 35 64 36 65 37 66 61 67 62 68
REMARK SMILES IDX 70 69 63 70 65 71 71 72 64 73 66 74 67 75 68 76 69 77 46 78
REMARK SMILES IDX 47 79 55 80 48 81 50 82 56 83 49 84 51 85 52 86 53 87 54 88
REMARK H PARENT 13 6 5 9 5 10 17 22 76 41 44 52
REMARK Flexibility Score: inf
ROOT
ATOM      1  C   UNL A   1      42.622  21.532  26.741  1.00  0.00     0.042 C 
ENDROOT
BRANCH   1   2
ATOM      2  C   UNL A   1      43.010  22.857  26.108  1.00  0.00     0.118 C 
BRANCH   2   3
ATOM      3  N   UNL A   1      43.226  22.782  24.680  1.00  0.00    -0.351 N 
ATOM      4  C   UNL A   1      44.357  22.466  23.985  1.00  0.00     0.278 C 
ATOM      5  O   UNL A   1      44.225  22.229  22.777  1.00  0.00    -0.268 OA
ATOM      6  H   UNL A   1      42.438  22.989  24.127  1.00  0.00     0.163 HD
BRANCH   4   7
ATOM      7  C   UNL A   1      45.767  22.444  24.636  1.00  0.00     0.278 C 
BRANCH   7   8
ATOM      8  N   UNL A   1      46.489  23.701  24.340  1.00  0.00    -0.334 N 
ATOM      9  H   UNL A   1      47.265  23.453  23.727  1.00  0.00     0.347 HD
ATOM     10  H   UNL A   1      45.753  24.301  23.966  1.00  0.00     0.347 HD
BRANCH   8  11
ATOM     11  C   UNL A   1      47.053  24.514  25.418  1.00  0.00     0.179 C 
ATOM     12  C   UNL A   1      46.093  24.694  26.593  1.00  0.00     0.075 C 
BRANCH  11  13
ATOM     13  C   UNL A   1      47.390  25.882  24.776  1.00  0.00     0.061 C 
ATOM     14  C   UNL A   1      46.285  26.919  24.933  1.00  0.00     0.010 C 
ENDBRANCH  11  13
ENDBRANCH   8  11
ENDBRANCH   7   8
BRANCH   7  15
ATOM     15  C   UNL A   1      46.447  21.080  24.408  1.00  0.00     0.166 C 
BRANCH  15  16
ATOM     16  N   UNL A   1      46.107  20.117  25.476  1.00  0.00    -0.087 NA
ATOM     17  N   UNL A   1      45.257  19.257  25.190  1.00  0.00     0.001 N 
ATOM     18  N   UNL A   1      44.476  18.472  24.908  1.00  0.00    -0.003 NA
ENDBRANCH  15  16
ENDBRANCH   7  15
ENDBRANCH   4   7
ENDBRANCH   2   3
ENDBRANCH   1   2
BRANCH   1  19
ATOM     19  C   UNL A   1      41.346  21.615  27.561  1.00  0.00     0.118 C 
BRANCH  19  20
ATOM     20  N   UNL A   1      40.144  21.571  26.730  1.00  0.00    -0.352 N 
ATOM     21  C   UNL A   1      39.216  22.545  26.458  1.00  0.00     0.251 C 
ATOM     22  H   UNL A   1      39.973  20.704  26.295  1.00  0.00     0.163 HD
ATOM     23  O   UNL A   1      38.160  22.246  25.908  1.00  0.00    -0.269 OA
BRANCH  21  24
ATOM     24  C   UNL A   1      39.487  23.945  26.839  1.00  0.00     0.039 A 
ATOM     25  C   UNL A   1      39.232  24.361  28.147  1.00  0.00     0.014 A 
ATOM     26  C   UNL A   1      40.001  24.843  25.902  1.00  0.00     0.014 A 
ATOM     27  C   UNL A   1      39.563  25.662  28.532  1.00  0.00     0.010 A 
ATOM     28  C   UNL A   1      40.429  26.096  26.314  1.00  0.00     0.010 A 
ATOM     29  C   UNL A   1      40.204  26.525  27.629  1.00  0.00    -0.014 A 
BRANCH  29  30
ATOM     30  C   UNL A   1      40.650  27.882  28.028  1.00  0.00     0.031 A 
ATOM     31  C   UNL A   1      42.119  28.202  28.077  1.00  0.00     0.074 A 
ATOM     32  C   UNL A   1      39.745  28.783  28.457  1.00  0.00     0.049 A 
ATOM     33  N   UNL A   1      42.713  29.284  28.507  1.00  0.00    -0.248 NA
ATOM     34  C   UNL A   1      43.045  27.154  27.617  1.00  0.00     0.031 C 
ATOM     35  C   UNL A   1      38.300  28.558  28.535  1.00  0.00     0.029 A 
ATOM     36  N   UNL A   1      39.910  30.054  28.945  1.00  0.00    -0.354 N 
ATOM     37  C   UNL A   1      44.076  29.030  28.411  1.00  0.00     0.074 A 
ATOM     38  C   UNL A   1      44.221  27.678  27.923  1.00  0.00     0.031 C 
ATOM     39  C   UNL A   1      37.713  29.651  29.046  1.00  0.00     0.029 A 
ATOM     40  C   UNL A   1      38.739  30.634  29.374  1.00  0.00     0.049 A 
ATOM     41  H   UNL A   1      40.783  30.509  28.984  1.00  0.00     0.167 HD
ATOM     42  C   UNL A   1      45.114  29.857  28.681  1.00  0.00     0.034 A 
ATOM     43  C   UNL A   1      38.517  31.812  29.990  1.00  0.00     0.034 A 
ATOM     44  C   UNL A   1      44.959  31.210  29.140  1.00  0.00     0.049 A 
ATOM     45  C   UNL A   1      39.681  32.726  30.258  1.00  0.00     0.074 A 
ATOM     46  C   UNL A   1      45.938  32.162  29.353  1.00  0.00     0.029 A 
ATOM     47  N   UNL A   1      43.749  31.795  29.478  1.00  0.00    -0.354 N 
ATOM     48  N   UNL A   1      40.954  32.530  30.013  1.00  0.00    -0.248 NA
ATOM     49  C   UNL A   1      39.379  34.035  30.853  1.00  0.00     0.031 C 
ATOM     50  C   UNL A   1      45.325  33.310  29.864  1.00  0.00     0.029 A 
ATOM     51  C   UNL A   1      43.958  33.090  29.920  1.00  0.00     0.049 A 
ATOM     52  H   UNL A   1      42.870  31.355  29.414  1.00  0.00     0.167 HD
ATOM     53  C   UNL A   1      41.600  33.701  30.391  1.00  0.00     0.074 A 
ATOM     54  C   UNL A   1      40.576  34.607  30.869  1.00  0.00     0.031 C 
ATOM     55  C   UNL A   1      42.923  33.996  30.351  1.00  0.00     0.034 A 
BRANCH  42  56
ATOM     56  C   UNL A   1      46.506  29.322  28.461  1.00  0.00     0.023 A 
ATOM     57  C   UNL A   1      47.194  29.618  27.265  1.00  0.00     0.012 A 
ATOM     58  C   UNL A   1      47.145  28.549  29.450  1.00  0.00     0.148 A 
ATOM     59  C   UNL A   1      48.471  29.109  27.035  1.00  0.00     0.002 A 
ATOM     60  C   UNL A   1      48.440  28.092  29.236  1.00  0.00     0.091 A 
ATOM     61  F   UNL A   1      46.471  28.261  30.572  1.00  0.00    -0.205 F 
ATOM     62  C   UNL A   1      49.097  28.355  28.022  1.00  0.00     0.022 A 
BRANCH  60  63
ATOM     63  S   UNL A   1      49.365  27.188  30.481  1.00  0.00     0.127 S 
ATOM     64  O   UNL A   1      48.431  26.116  30.822  1.00  0.00    -0.237 OA
ATOM     65  O   UNL A   1      50.544  26.754  29.732  1.00  0.00    -0.237 OA
ATOM     66  O   UNL A   1      49.640  28.141  31.548  1.00  0.00    -0.744 OA
ENDBRANCH  60  63
ENDBRANCH  42  56
BRANCH  43  67
ATOM     67  C   UNL A   1      37.129  32.197  30.366  1.00  0.00     0.023 A 
ATOM     68  C   UNL A   1      36.673  31.978  31.680  1.00  0.00     0.012 A 
ATOM     69  C   UNL A   1      36.274  32.821  29.438  1.00  0.00     0.148 A 
ATOM     70  C   UNL A   1      35.382  32.350  32.055  1.00  0.00     0.002 A 
ATOM     71  C   UNL A   1      35.011  33.243  29.832  1.00  0.00     0.091 A 
ATOM     72  F   UNL A   1      36.728  33.015  28.190  1.00  0.00    -0.205 F 
ATOM     73  C   UNL A   1      34.556  32.993  31.136  1.00  0.00     0.022 A 
BRANCH  71  74
ATOM     74  S   UNL A   1      33.934  34.200  28.760  1.00  0.00     0.127 S 
ATOM     75  O   UNL A   1      34.813  35.291  28.349  1.00  0.00    -0.237 OA
ATOM     76  O   UNL A   1      33.621  33.230  27.709  1.00  0.00    -0.237 OA
ATOM     77  O   UNL A   1      32.794  34.583  29.581  1.00  0.00    -0.744 OA
ENDBRANCH  71  74
ENDBRANCH  43  67
BRANCH  55  78
ATOM     78  C   UNL A   1      43.351  35.373  30.788  1.00  0.00     0.023 A 
ATOM     79  C   UNL A   1      43.515  36.400  29.838  1.00  0.00     0.012 A 
ATOM     80  C   UNL A   1      43.489  35.669  32.160  1.00  0.00     0.148 A 
ATOM     81  C   UNL A   1      43.835  37.695  30.245  1.00  0.00     0.002 A 
ATOM     82  C   UNL A   1      43.753  36.971  32.561  1.00  0.00     0.091 A 
ATOM     83  F   UNL A   1      43.344  34.672  33.045  1.00  0.00    -0.205 F 
ATOM     84  C   UNL A   1      43.939  37.983  31.605  1.00  0.00     0.022 A 
BRANCH  82  85
ATOM     85  S   UNL A   1      43.803  37.458  34.289  1.00  0.00     0.127 S 
ATOM     86  O   UNL A   1      44.444  36.297  34.905  1.00  0.00    -0.237 OA
ATOM     87  O   UNL A   1      44.632  38.662  34.245  1.00  0.00    -0.237 OA
ATOM     88  O   UNL A   1      42.420  37.685  34.686  1.00  0.00    -0.744 OA
ENDBRANCH  82  85
ENDBRANCH  55  78
ENDBRANCH  29  30
ENDBRANCH  21  24
ENDBRANCH  19  20
ENDBRANCH   1  19
TORSDOF 18
ENDMDL
MODEL 3
REMARK VINA RESULT:      -9.1      5.396     10.716
REMARK SMILES CC[C@@H](C)[NH2+][C@H](CN=[N+]=[N-])C(=O)NCCCNC(=O)c1ccc(-c2c3nc(c(-c4cccc(S(=O)(=O)[O-])c4F)c4ccc([nH]4)c(-c4cccc(S(=O)(=O)[O-])c4F)c4nc(c(-c5cccc(S(=O)(=O)[O-])c5F)c5ccc2[nH]5)C=C4)C=C3)cc1
REMARK SMILES IDX 15 1 14 2 13 3 11 4 12 5 6 7 5 8 3 11 4 12 2 13 1 14 7 15
REMARK SMILES IDX 8 16 9 17 10 18 16 19 17 20 18 21 19 23 20 24 21 25 82 26
REMARK SMILES IDX 22 27 81 28 23 29 24 30 25 31 75 32 26 33 80 34 74 35 76 36
REMARK SMILES IDX 27 37 79 38 73 39 72 40 28 42 60 43 40 44 59 45 41 46 44 47
REMARK SMILES IDX 58 48 77 49 42 50 43 51 57 53 78 54 45 55 29 56 30 57 38 58
REMARK SMILES IDX 31 59 33 60 39 61 32 62 34 63 35 64 36 65 37 66 61 67 62 68
REMARK SMILES IDX 70 69 63 70 65 71 71 72 64 73 66 74 67 75 68 76 69 77 46 78
REMARK SMILES IDX 47 79 55 80 48 81 50 82 56 83 49 84 51 85 52 86 53 87 54 88
REMARK H PARENT 13 6 5 9 5 10 17 22 76 41 44 52
REMARK Flexibility Score: inf
ROOT
ATOM      1  C   UNL A   1      33.592  28.178  24.975  1.00  0.00     0.042 C 
ENDROOT
BRANCH   1   2
ATOM      2  C   UNL A   1      33.561  26.678  24.737  1.00  0.00     0.118 C 
BRANCH   2   3
ATOM      3  N   UNL A   1      33.679  26.304  23.346  1.00  0.00    -0.351 N 
ATOM      4  C   UNL A   1      33.642  25.068  22.769  1.00  0.00     0.278 C 
ATOM      5  O   UNL A   1      33.517  25.027  21.538  1.00  0.00    -0.268 OA
ATOM      6  H   UNL A   1      33.805  27.054  22.720  1.00  0.00     0.163 HD
BRANCH   4   7
ATOM      7  C   UNL A   1      33.795  23.753  23.583  1.00  0.00     0.278 C 
BRANCH   7   8
ATOM      8  N   UNL A   1      34.966  22.987  23.105  1.00  0.00    -0.334 N 
ATOM      9  H   UNL A   1      34.614  22.083  22.791  1.00  0.00     0.347 HD
ATOM     10  H   UNL A   1      35.375  23.611  22.410  1.00  0.00     0.347 HD
BRANCH   8  11
ATOM     11  C   UNL A   1      36.095  22.708  23.995  1.00  0.00     0.179 C 
ATOM     12  C   UNL A   1      35.954  21.382  24.739  1.00  0.00     0.075 C 
BRANCH  11  13
ATOM     13  C   UNL A   1      36.141  23.891  24.993  1.00  0.00     0.061 C 
ATOM     14  C   UNL A   1      37.206  23.738  26.071  1.00  0.00     0.010 C 
ENDBRANCH  11  13
ENDBRANCH   8  11
ENDBRANCH   7   8
BRANCH   7  15
ATOM     15  C   UNL A   1      32.428  23.064  23.758  1.00  0.00     0.166 C 
BRANCH  15  16
ATOM     16  N   UNL A   1      32.347  21.809  22.983  1.00  0.00    -0.087 NA
ATOM     17  N   UNL A   1      32.432  20.753  23.635  1.00  0.00     0.001 N 
ATOM     18  N   UNL A   1      32.507  19.795  24.251  1.00  0.00    -0.003 NA
ENDBRANCH  15  16
ENDBRANCH   7  15
ENDBRANCH   4   7
ENDBRANCH   2   3
ENDBRANCH   1   2
BRANCH   1  19
ATOM     19  C   UNL A   1      34.247  28.559  26.292  1.00  0.00     0.118 C 
BRANCH  19  20
ATOM     20  N   UNL A   1      33.969  29.943  26.674  1.00  0.00    -0.352 N 
ATOM     21  C   UNL A   1      34.584  30.748  27.599  1.00  0.00     0.251 C 
ATOM     22  H   UNL A   1      33.221  30.363  26.190  1.00  0.00     0.163 HD
ATOM     23  O   UNL A   1      34.062  31.811  27.925  1.00  0.00    -0.269 OA
BRANCH  21  24
ATOM     24  C   UNL A   1      35.862  30.329  28.206  1.00  0.00     0.039 A 
ATOM     25  C   UNL A   1      35.855  29.703  29.454  1.00  0.00     0.014 A 
ATOM     26  C   UNL A   1      37.066  30.550  27.535  1.00  0.00     0.014 A 
ATOM     27  C   UNL A   1      37.053  29.231  29.994  1.00  0.00     0.010 A 
ATOM     28  C   UNL A   1      38.236  29.985  28.021  1.00  0.00     0.010 A 
ATOM     29  C   UNL A   1      38.247  29.331  29.261  1.00  0.00    -0.014 A 
BRANCH  29  30
ATOM     30  C   UNL A   1      39.522  28.764  29.763  1.00  0.00     0.031 A 
ATOM     31  C   UNL A   1      40.269  29.464  30.865  1.00  0.00     0.074 A 
ATOM     32  C   UNL A   1      40.062  27.692  29.151  1.00  0.00     0.049 A 
ATOM     33  N   UNL A   1      41.448  29.195  31.361  1.00  0.00    -0.248 NA
ATOM     34  C   UNL A   1      39.623  30.644  31.463  1.00  0.00     0.031 C 
ATOM     35  C   UNL A   1      39.471  26.979  28.017  1.00  0.00     0.029 A 
ATOM     36  N   UNL A   1      41.248  27.040  29.372  1.00  0.00    -0.354 N 
ATOM     37  C   UNL A   1      41.702  30.194  32.293  1.00  0.00     0.074 A 
ATOM     38  C   UNL A   1      40.575  31.097  32.263  1.00  0.00     0.031 C 
ATOM     39  C   UNL A   1      40.299  25.994  27.637  1.00  0.00     0.029 A 
ATOM     40  C   UNL A   1      41.498  26.032  28.469  1.00  0.00     0.049 A 
ATOM     41  H   UNL A   1      41.862  27.270  30.106  1.00  0.00     0.167 HD
ATOM     42  C   UNL A   1      42.767  30.334  33.118  1.00  0.00     0.034 A 
ATOM     43  C   UNL A   1      42.581  25.247  28.308  1.00  0.00     0.034 A 
ATOM     44  C   UNL A   1      43.870  29.415  33.160  1.00  0.00     0.049 A 
ATOM     45  C   UNL A   1      43.741  25.401  29.251  1.00  0.00     0.074 A 
ATOM     46  C   UNL A   1      44.952  29.409  34.022  1.00  0.00     0.029 A 
ATOM     47  N   UNL A   1      44.046  28.350  32.289  1.00  0.00    -0.354 N 
ATOM     48  N   UNL A   1      43.895  26.256  30.233  1.00  0.00    -0.248 NA
ATOM     49  C   UNL A   1      44.863  24.466  29.089  1.00  0.00     0.031 C 
ATOM     50  C   UNL A   1      45.805  28.369  33.642  1.00  0.00     0.029 A 
ATOM     51  C   UNL A   1      45.229  27.693  32.578  1.00  0.00     0.049 A 
ATOM     52  H   UNL A   1      43.420  28.098  31.571  1.00  0.00     0.167 HD
ATOM     53  C   UNL A   1      45.111  25.939  30.828  1.00  0.00     0.074 A 
ATOM     54  C   UNL A   1      45.647  24.806  30.103  1.00  0.00     0.031 C 
ATOM     55  C   UNL A   1      45.729  26.539  31.876  1.00  0.00     0.034 A 
BRANCH  42  56
ATOM     56  C   UNL A   1      42.770  31.513  34.058  1.00  0.00     0.023 A 
ATOM     57  C   UNL A   1      43.323  32.743  33.644  1.00  0.00     0.012 A 
ATOM     58  C   UNL A   1      42.199  31.411  35.341  1.00  0.00     0.148 A 
ATOM     59  C   UNL A   1      43.357  33.835  34.509  1.00  0.00     0.002 A 
ATOM     60  C   UNL A   1      42.187  32.520  36.178  1.00  0.00     0.091 A 
ATOM     61  F   UNL A   1      41.695  30.231  35.726  1.00  0.00    -0.205 F 
ATOM     62  C   UNL A   1      42.782  33.727  35.771  1.00  0.00     0.022 A 
BRANCH  60  63
ATOM     63  S   UNL A   1      41.393  32.509  37.788  1.00  0.00     0.127 S 
ATOM     64  O   UNL A   1      42.213  31.541  38.515  1.00  0.00    -0.237 OA
ATOM     65  O   UNL A   1      41.560  33.896  38.222  1.00  0.00    -0.237 OA
ATOM     66  O   UNL A   1      40.013  32.108  37.553  1.00  0.00    -0.744 OA
ENDBRANCH  60  63
ENDBRANCH  42  56
BRANCH  43  67
ATOM     67  C   UNL A   1      42.595  24.227  27.222  1.00  0.00     0.023 A 
ATOM     68  C   UNL A   1      43.254  24.505  26.010  1.00  0.00     0.012 A 
ATOM     69  C   UNL A   1      41.999  22.965  27.407  1.00  0.00     0.148 A 
ATOM     70  C   UNL A   1      43.295  23.554  24.990  1.00  0.00     0.002 A 
ATOM     71  C   UNL A   1      42.093  22.001  26.411  1.00  0.00     0.091 A 
ATOM     72  F   UNL A   1      41.372  22.724  28.568  1.00  0.00    -0.205 F 
ATOM     73  C   UNL A   1      42.725  22.299  25.194  1.00  0.00     0.022 A 
BRANCH  71  74
ATOM     74  S   UNL A   1      41.512  20.317  26.640  1.00  0.00     0.127 S 
ATOM     75  O   UNL A   1      42.241  19.910  27.837  1.00  0.00    -0.237 OA
ATOM     76  O   UNL A   1      40.075  20.520  26.830  1.00  0.00    -0.237 OA
ATOM     77  O   UNL A   1      41.861  19.607  25.417  1.00  0.00    -0.744 OA
ENDBRANCH  71  74
ENDBRANCH  43  67
BRANCH  55  78
ATOM     78  C   UNL A   1      47.036  25.958  32.348  1.00  0.00     0.023 A 
ATOM     79  C   UNL A   1      48.254  26.435  31.825  1.00  0.00     0.012 A 
ATOM     80  C   UNL A   1      47.053  25.009  33.390  1.00  0.00     0.148 A 
ATOM     81  C   UNL A   1      49.469  25.955  32.316  1.00  0.00     0.002 A 
ATOM     82  C   UNL A   1      48.266  24.577  33.911  1.00  0.00     0.091 A 
ATOM     83  F   UNL A   1      45.881  24.558  33.861  1.00  0.00    -0.205 F 
ATOM     84  C   UNL A   1      49.475  25.040  33.367  1.00  0.00     0.022 A 
BRANCH  82  85
ATOM     85  S   UNL A   1      48.372  23.481  35.329  1.00  0.00     0.127 S 
ATOM     86  O   UNL A   1      49.819  23.333  35.482  1.00  0.00    -0.237 OA
ATOM     87  O   UNL A   1      47.725  24.270  36.376  1.00  0.00    -0.237 OA
ATOM     88  O   UNL A   1      47.662  22.265  34.956  1.00  0.00    -0.744 OA
ENDBRANCH  82  85
ENDBRANCH  55  78
ENDBRANCH  29  30
ENDBRANCH  21  24
ENDBRANCH  19  20
ENDBRANCH   1  19
TORSDOF 18
ENDMDL
