MODEL 1
REMARK VINA RESULT:     -11.0      0.000      0.000
REMARK SMILES C[C@@H](CC(=O)NCCCNC(=O)c1ccc(-c2c3nc(c(-c4cccc(S(=O)(=O)[O-])c4F)c4ccc([nH]4)c(-c4cccc(S(=O)(=O)[O-])c4F)c4nc(c(-c5cccc(S(=O)(=O)[O-])c5F)c5ccc2[nH]5)C=C4)C=C3)cc1)CC(=O)NC[C@@]1(C)CCCO1
REMARK SMILES IDX 7 1 6 2 4 3 5 4 3 6 2 7 1 8 76 9 77 10 78 11 79 12 80 14
REMARK SMILES IDX 81 15 82 16 83 17 86 18 84 19 85 20 8 21 9 22 10 23 11 24
REMARK SMILES IDX 12 26 13 27 14 28 75 29 15 30 74 31 16 32 17 33 18 34 68 35
REMARK SMILES IDX 19 36 73 37 67 38 69 39 20 40 72 41 66 42 65 43 21 45 53 46
REMARK SMILES IDX 33 47 52 48 34 49 37 50 51 51 70 52 35 53 36 54 50 56 71 57
REMARK SMILES IDX 38 58 22 59 23 60 31 61 24 62 26 63 32 64 25 65 27 66 28 67
REMARK SMILES IDX 29 68 30 69 54 70 55 71 63 72 56 73 58 74 64 75 57 76 59 77
REMARK SMILES IDX 60 78 61 79 62 80 39 81 40 82 48 83 41 84 43 85 49 86 42 87
REMARK SMILES IDX 44 88 45 89 46 90 47 91
REMARK H PARENT 6 5 79 13 10 25 69 44 37 55
REMARK Flexibility Score: inf
ROOT
ATOM      1  C   UNL A   1      33.756  29.643  27.110  1.00  0.00     0.117 C 
ENDROOT
BRANCH   1   2
ATOM      2  N   UNL A   1      32.662  28.848  27.649  1.00  0.00    -0.356 N 
ATOM      3  C   UNL A   1      31.942  27.816  27.132  1.00  0.00     0.220 C 
ATOM      4  O   UNL A   1      30.986  27.402  27.790  1.00  0.00    -0.275 OA
ATOM      5  H   UNL A   1      32.394  29.104  28.561  1.00  0.00     0.163 HD
BRANCH   3   6
ATOM      6  C   UNL A   1      32.314  27.150  25.822  1.00  0.00     0.103 C 
BRANCH   6   7
ATOM      7  C   UNL A   1      32.832  25.696  25.854  1.00  0.00     0.004 C 
ATOM      8  C   UNL A   1      34.207  25.650  25.209  1.00  0.00     0.009 C 
BRANCH   7   9
ATOM      9  C   UNL A   1      31.877  24.631  25.272  1.00  0.00     0.103 C 
BRANCH   9  10
ATOM     10  C   UNL A   1      31.368  23.665  26.338  1.00  0.00     0.220 C 
ATOM     11  O   UNL A   1      30.823  24.095  27.358  1.00  0.00    -0.275 OA
ATOM     12  N   UNL A   1      31.577  22.317  26.229  1.00  0.00    -0.353 N 
ATOM     13  H   UNL A   1      31.418  21.806  27.055  1.00  0.00     0.163 HD
BRANCH  12  14
ATOM     14  C   UNL A   1      31.996  21.515  25.085  1.00  0.00     0.151 C 
BRANCH  14  15
ATOM     15  C   UNL A   1      33.497  21.125  25.012  1.00  0.00     0.083 C 
ATOM     16  C   UNL A   1      33.746  19.642  24.711  1.00  0.00     0.044 C 
ATOM     17  C   UNL A   1      34.296  22.017  24.073  1.00  0.00     0.039 C 
ATOM     18  O   UNL A   1      34.087  21.346  26.317  1.00  0.00    -0.373 OA
ATOM     19  C   UNL A   1      35.693  21.911  24.635  1.00  0.00     0.031 C 
ATOM     20  C   UNL A   1      35.449  21.782  26.127  1.00  0.00     0.161 C 
ENDBRANCH  14  15
ENDBRANCH  12  14
ENDBRANCH   9  10
ENDBRANCH   7   9
ENDBRANCH   6   7
ENDBRANCH   3   6
ENDBRANCH   1   2
BRANCH   1  21
ATOM     21  C   UNL A   1      33.236  30.906  26.425  1.00  0.00     0.042 C 
BRANCH  21  22
ATOM     22  C   UNL A   1      32.130  31.664  27.155  1.00  0.00     0.118 C 
BRANCH  22  23
ATOM     23  N   UNL A   1      32.423  33.083  27.269  1.00  0.00    -0.352 N 
ATOM     24  C   UNL A   1      33.421  33.744  27.947  1.00  0.00     0.251 C 
ATOM     25  H   UNL A   1      31.802  33.670  26.779  1.00  0.00     0.163 HD
ATOM     26  O   UNL A   1      33.316  34.963  28.079  1.00  0.00    -0.269 OA
BRANCH  24  27
ATOM     27  C   UNL A   1      34.608  33.049  28.521  1.00  0.00     0.039 A 
ATOM     28  C   UNL A   1      34.426  32.272  29.673  1.00  0.00     0.014 A 
ATOM     29  C   UNL A   1      35.904  33.222  28.024  1.00  0.00     0.014 A 
ATOM     30  C   UNL A   1      35.518  31.658  30.300  1.00  0.00     0.010 A 
ATOM     31  C   UNL A   1      36.983  32.545  28.607  1.00  0.00     0.010 A 
ATOM     32  C   UNL A   1      36.810  31.771  29.764  1.00  0.00    -0.014 A 
BRANCH  32  33
ATOM     33  C   UNL A   1      37.977  31.105  30.413  1.00  0.00     0.031 A 
ATOM     34  C   UNL A   1      38.374  31.447  31.830  1.00  0.00     0.074 A 
ATOM     35  C   UNL A   1      38.721  30.222  29.716  1.00  0.00     0.049 A 
ATOM     36  N   UNL A   1      39.373  30.988  32.542  1.00  0.00    -0.248 NA
ATOM     37  C   UNL A   1      37.555  32.450  32.530  1.00  0.00     0.031 C 
ATOM     38  C   UNL A   1      38.494  29.846  28.320  1.00  0.00     0.029 A 
ATOM     39  N   UNL A   1      39.832  29.497  30.078  1.00  0.00    -0.354 N 
ATOM     40  C   UNL A   1      39.325  31.668  33.754  1.00  0.00     0.074 A 
ATOM     41  C   UNL A   1      38.217  32.596  33.669  1.00  0.00     0.031 C 
ATOM     42  C   UNL A   1      39.429  28.958  27.946  1.00  0.00     0.029 A 
ATOM     43  C   UNL A   1      40.342  28.722  29.060  1.00  0.00     0.049 A 
ATOM     44  H   UNL A   1      40.226  29.530  30.979  1.00  0.00     0.167 HD
ATOM     45  C   UNL A   1      40.110  31.521  34.851  1.00  0.00     0.034 A 
ATOM     46  C   UNL A   1      41.425  27.920  29.023  1.00  0.00     0.034 A 
ATOM     47  C   UNL A   1      41.185  30.570  34.956  1.00  0.00     0.049 A 
ATOM     48  C   UNL A   1      42.261  27.748  30.263  1.00  0.00     0.074 A 
ATOM     49  C   UNL A   1      41.981  30.289  36.054  1.00  0.00     0.029 A 
ATOM     50  N   UNL A   1      41.622  29.750  33.928  1.00  0.00    -0.354 N 
ATOM     51  N   UNL A   1      42.103  28.289  31.446  1.00  0.00    -0.248 NA
ATOM     52  C   UNL A   1      43.403  26.825  30.174  1.00  0.00     0.031 C 
ATOM     53  C   UNL A   1      42.916  29.319  35.682  1.00  0.00     0.029 A 
ATOM     54  C   UNL A   1      42.683  28.970  34.361  1.00  0.00     0.049 A 
ATOM     55  H   UNL A   1      41.236  29.724  33.023  1.00  0.00     0.167 HD
ATOM     56  C   UNL A   1      43.101  27.747  32.251  1.00  0.00     0.074 A 
ATOM     57  C   UNL A   1      43.842  26.817  31.425  1.00  0.00     0.031 C 
ATOM     58  C   UNL A   1      43.384  28.007  33.551  1.00  0.00     0.034 A 
BRANCH  45  59
ATOM     59  C   UNL A   1      39.802  32.376  36.056  1.00  0.00     0.023 A 
ATOM     60  C   UNL A   1      40.482  33.598  36.232  1.00  0.00     0.012 A 
ATOM     61  C   UNL A   1      38.797  32.007  36.973  1.00  0.00     0.148 A 
ATOM     62  C   UNL A   1      40.197  34.421  37.321  1.00  0.00     0.002 A 
ATOM     63  C   UNL A   1      38.486  32.855  38.030  1.00  0.00     0.091 A 
ATOM     64  F   UNL A   1      38.171  30.835  36.799  1.00  0.00    -0.205 F 
ATOM     65  C   UNL A   1      39.193  34.054  38.214  1.00  0.00     0.022 A 
BRANCH  63  66
ATOM     66  S   UNL A   1      37.155  32.514  39.188  1.00  0.00     0.127 S 
ATOM     67  O   UNL A   1      37.410  31.115  39.527  1.00  0.00    -0.237 OA
ATOM     68  O   UNL A   1      37.436  33.463  40.267  1.00  0.00    -0.237 OA
ATOM     69  O   UNL A   1      35.918  32.767  38.464  1.00  0.00    -0.744 OA
ENDBRANCH  63  66
ENDBRANCH  45  59
BRANCH  46  70
ATOM     70  C   UNL A   1      41.746  27.163  27.778  1.00  0.00     0.023 A 
ATOM     71  C   UNL A   1      42.297  27.845  26.675  1.00  0.00     0.012 A 
ATOM     72  C   UNL A   1      41.539  25.773  27.692  1.00  0.00     0.148 A 
ATOM     73  C   UNL A   1      42.602  27.162  25.497  1.00  0.00     0.002 A 
ATOM     74  C   UNL A   1      41.904  25.089  26.539  1.00  0.00     0.091 A 
ATOM     75  F   UNL A   1      41.003  25.143  28.747  1.00  0.00    -0.205 F 
ATOM     76  C   UNL A   1      42.416  25.784  25.432  1.00  0.00     0.022 A 
BRANCH  74  77
ATOM     77  S   UNL A   1      41.843  23.297  26.424  1.00  0.00     0.127 S 
ATOM     78  O   UNL A   1      40.407  23.043  26.422  1.00  0.00    -0.237 OA
ATOM     79  O   UNL A   1      42.519  23.053  25.149  1.00  0.00    -0.237 OA
ATOM     80  O   UNL A   1      42.575  22.805  27.586  1.00  0.00    -0.744 OA
ENDBRANCH  74  77
ENDBRANCH  46  70
BRANCH  58  81
ATOM     81  C   UNL A   1      44.522  27.250  34.186  1.00  0.00     0.023 A 
ATOM     82  C   UNL A   1      45.821  27.796  34.179  1.00  0.00     0.012 A 
ATOM     83  C   UNL A   1      44.291  26.029  34.850  1.00  0.00     0.148 A 
ATOM     84  C   UNL A   1      46.878  27.122  34.790  1.00  0.00     0.002 A 
ATOM     85  C   UNL A   1      45.339  25.386  35.500  1.00  0.00     0.091 A 
ATOM     86  F   UNL A   1      43.053  25.514  34.831  1.00  0.00    -0.205 F 
ATOM     87  C   UNL A   1      46.636  25.925  35.459  1.00  0.00     0.022 A 
BRANCH  85  88
ATOM     88  S   UNL A   1      45.101  23.891  36.466  1.00  0.00     0.127 S 
ATOM     89  O   UNL A   1      44.179  23.134  35.623  1.00  0.00    -0.237 OA
ATOM     90  O   UNL A   1      46.457  23.344  36.531  1.00  0.00    -0.237 OA
ATOM     91  O   UNL A   1      44.564  24.324  37.749  1.00  0.00    -0.744 OA
ENDBRANCH  85  88
ENDBRANCH  58  81
ENDBRANCH  32  33
ENDBRANCH  24  27
ENDBRANCH  22  23
ENDBRANCH  21  22
ENDBRANCH   1  21
TORSDOF 18
ENDMDL
MODEL 2
REMARK VINA RESULT:     -10.8      1.747      2.044
REMARK SMILES C[C@@H](CC(=O)NCCCNC(=O)c1ccc(-c2c3nc(c(-c4cccc(S(=O)(=O)[O-])c4F)c4ccc([nH]4)c(-c4cccc(S(=O)(=O)[O-])c4F)c4nc(c(-c5cccc(S(=O)(=O)[O-])c5F)c5ccc2[nH]5)C=C4)C=C3)cc1)CC(=O)NC[C@@]1(C)CCCO1
REMARK SMILES IDX 7 1 6 2 4 3 5 4 3 6 2 7 1 8 76 9 77 10 78 11 79 12 80 14
REMARK SMILES IDX 81 15 82 16 83 17 86 18 84 19 85 20 8 21 9 22 10 23 11 24
REMARK SMILES IDX 12 26 13 27 14 28 75 29 15 30 74 31 16 32 17 33 18 34 68 35
REMARK SMILES IDX 19 36 73 37 67 38 69 39 20 40 72 41 66 42 65 43 21 45 53 46
REMARK SMILES IDX 33 47 52 48 34 49 37 50 51 51 70 52 35 53 36 54 50 56 71 57
REMARK SMILES IDX 38 58 22 59 23 60 31 61 24 62 26 63 32 64 25 65 27 66 28 67
REMARK SMILES IDX 29 68 30 69 54 70 55 71 63 72 56 73 58 74 64 75 57 76 59 77
REMARK SMILES IDX 60 78 61 79 62 80 39 81 40 82 48 83 41 84 43 85 49 86 42 87
REMARK SMILES IDX 44 88 45 89 46 90 47 91
REMARK H PARENT 6 5 79 13 10 25 69 44 37 55
REMARK Flexibility Score: inf
ROOT
ATOM      1  C   UNL A   1      33.483  27.945  24.444  1.00  0.00     0.117 C 
ENDROOT
BRANCH   1   2
ATOM      2  N   UNL A   1      32.793  27.181  23.415  1.00  0.00    -0.356 N 
ATOM      3  C   UNL A   1      31.625  26.484  23.423  1.00  0.00     0.220 C 
ATOM      4  O   UNL A   1      31.342  25.834  22.415  1.00  0.00    -0.275 OA
ATOM      5  H   UNL A   1      33.261  27.167  22.549  1.00  0.00     0.163 HD
BRANCH   3   6
ATOM      6  C   UNL A   1      30.666  26.531  24.596  1.00  0.00     0.103 C 
BRANCH   6   7
ATOM      7  C   UNL A   1      30.786  25.453  25.694  1.00  0.00     0.004 C 
ATOM      8  C   UNL A   1      32.070  25.685  26.472  1.00  0.00     0.009 C 
BRANCH   7   9
ATOM      9  C   UNL A   1      30.646  23.992  25.216  1.00  0.00     0.103 C 
BRANCH   9  10
ATOM     10  C   UNL A   1      30.722  22.995  26.369  1.00  0.00     0.220 C 
ATOM     11  O   UNL A   1      30.099  23.203  27.414  1.00  0.00    -0.275 OA
ATOM     12  N   UNL A   1      31.541  21.901  26.306  1.00  0.00    -0.353 N 
ATOM     13  H   UNL A   1      31.694  21.449  27.167  1.00  0.00     0.163 HD
BRANCH  12  14
ATOM     14  C   UNL A   1      32.225  21.296  25.168  1.00  0.00     0.151 C 
BRANCH  14  15
ATOM     15  C   UNL A   1      33.710  21.691  24.949  1.00  0.00     0.083 C 
ATOM     16  C   UNL A   1      34.677  20.502  24.919  1.00  0.00     0.044 C 
ATOM     17  C   UNL A   1      33.911  22.591  23.738  1.00  0.00     0.039 C 
ATOM     18  O   UNL A   1      34.136  22.494  26.077  1.00  0.00    -0.373 OA
ATOM     19  C   UNL A   1      35.178  23.332  24.092  1.00  0.00     0.031 C 
ATOM     20  C   UNL A   1      35.075  23.479  25.599  1.00  0.00     0.161 C 
ENDBRANCH  14  15
ENDBRANCH  12  14
ENDBRANCH   9  10
ENDBRANCH   7   9
ENDBRANCH   6   7
ENDBRANCH   3   6
ENDBRANCH   1   2
BRANCH   1  21
ATOM     21  C   UNL A   1      32.909  29.355  24.565  1.00  0.00     0.042 C 
BRANCH  21  22
ATOM     22  C   UNL A   1      32.191  29.682  25.873  1.00  0.00     0.118 C 
BRANCH  22  23
ATOM     23  N   UNL A   1      32.152  31.111  26.132  1.00  0.00    -0.352 N 
ATOM     24  C   UNL A   1      32.843  31.881  27.039  1.00  0.00     0.251 C 
ATOM     25  H   UNL A   1      31.524  31.613  25.563  1.00  0.00     0.163 HD
ATOM     26  O   UNL A   1      32.460  33.037  27.221  1.00  0.00    -0.269 OA
BRANCH  24  27
ATOM     27  C   UNL A   1      34.021  31.376  27.799  1.00  0.00     0.039 A 
ATOM     28  C   UNL A   1      34.962  32.309  28.255  1.00  0.00     0.014 A 
ATOM     29  C   UNL A   1      34.280  30.014  27.983  1.00  0.00     0.014 A 
ATOM     30  C   UNL A   1      36.128  31.888  28.909  1.00  0.00     0.010 A 
ATOM     31  C   UNL A   1      35.407  29.598  28.705  1.00  0.00     0.010 A 
ATOM     32  C   UNL A   1      36.357  30.525  29.158  1.00  0.00    -0.014 A 
BRANCH  32  33
ATOM     33  C   UNL A   1      37.586  30.067  29.870  1.00  0.00     0.031 A 
ATOM     34  C   UNL A   1      37.902  30.558  31.263  1.00  0.00     0.074 A 
ATOM     35  C   UNL A   1      38.455  29.243  29.250  1.00  0.00     0.049 A 
ATOM     36  N   UNL A   1      38.935  30.286  32.020  1.00  0.00    -0.248 NA
ATOM     37  C   UNL A   1      36.943  31.491  31.877  1.00  0.00     0.031 C 
ATOM     38  C   UNL A   1      38.311  28.742  27.882  1.00  0.00     0.029 A 
ATOM     39  N   UNL A   1      39.643  28.699  29.678  1.00  0.00    -0.354 N 
ATOM     40  C   UNL A   1      38.771  31.038  33.179  1.00  0.00     0.074 A 
ATOM     41  C   UNL A   1      37.554  31.803  33.011  1.00  0.00     0.031 C 
ATOM     42  C   UNL A   1      39.362  27.961  27.586  1.00  0.00     0.029 A 
ATOM     43  C   UNL A   1      40.273  27.928  28.727  1.00  0.00     0.049 A 
ATOM     44  H   UNL A   1      40.008  28.847  30.580  1.00  0.00     0.167 HD
ATOM     45  C   UNL A   1      39.543  31.074  34.294  1.00  0.00     0.034 A 
ATOM     46  C   UNL A   1      41.452  27.275  28.763  1.00  0.00     0.034 A 
ATOM     47  C   UNL A   1      40.731  30.284  34.483  1.00  0.00     0.049 A 
ATOM     48  C   UNL A   1      42.274  27.304  30.024  1.00  0.00     0.074 A 
ATOM     49  C   UNL A   1      41.531  30.189  35.609  1.00  0.00     0.029 A 
ATOM     50  N   UNL A   1      41.295  29.458  33.524  1.00  0.00    -0.354 N 
ATOM     51  N   UNL A   1      42.020  27.902  31.162  1.00  0.00    -0.248 NA
ATOM     52  C   UNL A   1      43.530  26.536  30.018  1.00  0.00     0.031 C 
ATOM     53  C   UNL A   1      42.594  29.327  35.321  1.00  0.00     0.029 A 
ATOM     54  C   UNL A   1      42.439  28.858  34.027  1.00  0.00     0.049 A 
ATOM     55  H   UNL A   1      40.937  29.317  32.618  1.00  0.00     0.167 HD
ATOM     56  C   UNL A   1      43.061  27.555  32.017  1.00  0.00     0.074 A 
ATOM     57  C   UNL A   1      43.937  26.674  31.272  1.00  0.00     0.031 C 
ATOM     58  C   UNL A   1      43.278  27.941  33.299  1.00  0.00     0.034 A 
BRANCH  45  59
ATOM     59  C   UNL A   1      39.099  31.964  35.428  1.00  0.00     0.023 A 
ATOM     60  C   UNL A   1      38.185  31.470  36.382  1.00  0.00     0.012 A 
ATOM     61  C   UNL A   1      39.633  33.258  35.591  1.00  0.00     0.148 A 
ATOM     62  C   UNL A   1      37.779  32.262  37.456  1.00  0.00     0.002 A 
ATOM     63  C   UNL A   1      39.258  34.024  36.690  1.00  0.00     0.091 A 
ATOM     64  F   UNL A   1      40.489  33.718  34.668  1.00  0.00    -0.205 F 
ATOM     65  C   UNL A   1      38.322  33.533  37.615  1.00  0.00     0.022 A 
BRANCH  63  66
ATOM     66  S   UNL A   1      39.963  35.641  37.031  1.00  0.00     0.127 S 
ATOM     67  O   UNL A   1      39.278  36.006  38.271  1.00  0.00    -0.237 OA
ATOM     68  O   UNL A   1      41.384  35.330  37.191  1.00  0.00    -0.237 OA
ATOM     69  O   UNL A   1      39.648  36.469  35.876  1.00  0.00    -0.744 OA
ENDBRANCH  63  66
ENDBRANCH  45  59
BRANCH  46  70
ATOM     70  C   UNL A   1      41.898  26.482  27.582  1.00  0.00     0.023 A 
ATOM     71  C   UNL A   1      42.623  27.116  26.554  1.00  0.00     0.012 A 
ATOM     72  C   UNL A   1      41.636  25.102  27.485  1.00  0.00     0.148 A 
ATOM     73  C   UNL A   1      43.048  26.398  25.436  1.00  0.00     0.002 A 
ATOM     74  C   UNL A   1      42.116  24.380  26.399  1.00  0.00     0.091 A 
ATOM     75  F   UNL A   1      40.933  24.518  28.466  1.00  0.00    -0.205 F 
ATOM     76  C   UNL A   1      42.805  25.030  25.363  1.00  0.00     0.022 A 
BRANCH  74  77
ATOM     77  S   UNL A   1      41.982  22.591  26.298  1.00  0.00     0.127 S 
ATOM     78  O   UNL A   1      40.537  22.397  26.290  1.00  0.00    -0.237 OA
ATOM     79  O   UNL A   1      42.654  22.310  25.029  1.00  0.00    -0.237 OA
ATOM     80  O   UNL A   1      42.687  22.079  27.468  1.00  0.00    -0.744 OA
ENDBRANCH  74  77
ENDBRANCH  46  70
BRANCH  58  81
ATOM     81  C   UNL A   1      44.491  27.388  34.003  1.00  0.00     0.023 A 
ATOM     82  C   UNL A   1      45.721  28.071  33.926  1.00  0.00     0.012 A 
ATOM     83  C   UNL A   1      44.394  26.228  34.796  1.00  0.00     0.148 A 
ATOM     84  C   UNL A   1      46.843  27.588  34.598  1.00  0.00     0.002 A 
ATOM     85  C   UNL A   1      45.504  25.779  35.503  1.00  0.00     0.091 A 
ATOM     86  F   UNL A   1      43.221  25.579  34.843  1.00  0.00    -0.205 F 
ATOM     87  C   UNL A   1      46.733  26.451  35.395  1.00  0.00     0.022 A 
BRANCH  85  88
ATOM     88  S   UNL A   1      45.430  24.380  36.628  1.00  0.00     0.127 S 
ATOM     89  O   UNL A   1      45.119  23.281  35.716  1.00  0.00    -0.237 OA
ATOM     90  O   UNL A   1      46.786  24.351  37.177  1.00  0.00    -0.237 OA
ATOM     91  O   UNL A   1      44.393  24.700  37.598  1.00  0.00    -0.744 OA
ENDBRANCH  85  88
ENDBRANCH  58  81
ENDBRANCH  32  33
ENDBRANCH  24  27
ENDBRANCH  22  23
ENDBRANCH  21  22
ENDBRANCH   1  21
TORSDOF 18
ENDMDL
MODEL 3
REMARK VINA RESULT:     -10.7      5.408     10.785
REMARK SMILES C[C@@H](CC(=O)NCCCNC(=O)c1ccc(-c2c3nc(c(-c4cccc(S(=O)(=O)[O-])c4F)c4ccc([nH]4)c(-c4cccc(S(=O)(=O)[O-])c4F)c4nc(c(-c5cccc(S(=O)(=O)[O-])c5F)c5ccc2[nH]5)C=C4)C=C3)cc1)CC(=O)NC[C@@]1(C)CCCO1
REMARK SMILES IDX 7 1 6 2 4 3 5 4 3 6 2 7 1 8 76 9 77 10 78 11 79 12 80 14
REMARK SMILES IDX 81 15 82 16 83 17 86 18 84 19 85 20 8 21 9 22 10 23 11 24
REMARK SMILES IDX 12 26 13 27 14 28 75 29 15 30 74 31 16 32 17 33 18 34 68 35
REMARK SMILES IDX 19 36 73 37 67 38 69 39 20 40 72 41 66 42 65 43 21 45 53 46
REMARK SMILES IDX 33 47 52 48 34 49 37 50 51 51 70 52 35 53 36 54 50 56 71 57
REMARK SMILES IDX 38 58 22 59 23 60 31 61 24 62 26 63 32 64 25 65 27 66 28 67
REMARK SMILES IDX 29 68 30 69 54 70 55 71 63 72 56 73 58 74 64 75 57 76 59 77
REMARK SMILES IDX 60 78 61 79 62 80 39 81 40 82 48 83 41 84 43 85 49 86 42 87
REMARK SMILES IDX 44 88 45 89 46 90 47 91
REMARK H PARENT 6 5 79 13 10 25 69 44 37 55
REMARK Flexibility Score: inf
ROOT
ATOM      1  C   UNL A   1      34.696  23.309  25.819  1.00  0.00     0.117 C 
ENDROOT
BRANCH   1   2
ATOM      2  N   UNL A   1      34.690  24.556  25.069  1.00  0.00    -0.356 N 
ATOM      3  C   UNL A   1      33.716  25.197  24.370  1.00  0.00     0.220 C 
ATOM      4  O   UNL A   1      34.037  26.203  23.735  1.00  0.00    -0.275 OA
ATOM      5  H   UNL A   1      35.556  25.025  25.069  1.00  0.00     0.163 HD
BRANCH   3   6
ATOM      6  C   UNL A   1      32.270  24.741  24.398  1.00  0.00     0.103 C 
BRANCH   6   7
ATOM      7  C   UNL A   1      31.347  25.277  25.513  1.00  0.00     0.004 C 
ATOM      8  C   UNL A   1      30.637  24.105  26.169  1.00  0.00     0.009 C 
BRANCH   7   9
ATOM      9  C   UNL A   1      30.369  26.395  25.094  1.00  0.00     0.103 C 
BRANCH   9  10
ATOM     10  C   UNL A   1      31.059  27.749  24.954  1.00  0.00     0.220 C 
ATOM     11  O   UNL A   1      31.949  28.078  25.743  1.00  0.00    -0.275 OA
ATOM     12  N   UNL A   1      30.654  28.655  24.012  1.00  0.00    -0.353 N 
ATOM     13  H   UNL A   1      30.998  29.568  24.143  1.00  0.00     0.163 HD
BRANCH  12  14
ATOM     14  C   UNL A   1      29.796  28.486  22.845  1.00  0.00     0.151 C 
BRANCH  14  15
ATOM     15  C   UNL A   1      28.611  29.477  22.695  1.00  0.00     0.083 C 
ATOM     16  C   UNL A   1      27.246  28.884  23.064  1.00  0.00     0.044 C 
ATOM     17  C   UNL A   1      28.847  30.797  23.416  1.00  0.00     0.039 C 
ATOM     18  O   UNL A   1      28.497  29.840  21.297  1.00  0.00    -0.373 OA
ATOM     19  C   UNL A   1      27.976  31.753  22.638  1.00  0.00     0.031 C 
ATOM     20  C   UNL A   1      28.062  31.213  21.222  1.00  0.00     0.161 C 
ENDBRANCH  14  15
ENDBRANCH  12  14
ENDBRANCH   9  10
ENDBRANCH   7   9
ENDBRANCH   6   7
ENDBRANCH   3   6
ENDBRANCH   1   2
BRANCH   1  21
ATOM     21  C   UNL A   1      36.116  22.904  26.210  1.00  0.00     0.042 C 
BRANCH  21  22
ATOM     22  C   UNL A   1      37.000  22.369  25.085  1.00  0.00     0.118 C 
BRANCH  22  23
ATOM     23  N   UNL A   1      37.935  21.362  25.556  1.00  0.00    -0.352 N 
ATOM     24  C   UNL A   1      39.182  21.487  26.123  1.00  0.00     0.251 C 
ATOM     25  H   UNL A   1      37.623  20.434  25.452  1.00  0.00     0.163 HD
ATOM     26  O   UNL A   1      39.872  20.472  26.222  1.00  0.00    -0.269 OA
BRANCH  24  27
ATOM     27  C   UNL A   1      39.722  22.786  26.614  1.00  0.00     0.039 A 
ATOM     28  C   UNL A   1      39.427  23.944  25.881  1.00  0.00     0.014 A 
ATOM     29  C   UNL A   1      40.589  22.885  27.706  1.00  0.00     0.014 A 
ATOM     30  C   UNL A   1      39.969  25.182  26.251  1.00  0.00     0.010 A 
ATOM     31  C   UNL A   1      41.068  24.134  28.121  1.00  0.00     0.010 A 
ATOM     32  C   UNL A   1      40.783  25.296  27.388  1.00  0.00    -0.014 A 
BRANCH  32  33
ATOM     33  C   UNL A   1      41.350  26.613  27.803  1.00  0.00     0.031 A 
ATOM     34  C   UNL A   1      42.793  26.958  27.520  1.00  0.00     0.074 A 
ATOM     35  C   UNL A   1      40.585  27.492  28.482  1.00  0.00     0.049 A 
ATOM     36  N   UNL A   1      43.460  28.042  27.830  1.00  0.00    -0.248 NA
ATOM     37  C   UNL A   1      43.597  25.947  26.816  1.00  0.00     0.031 C 
ATOM     38  C   UNL A   1      39.195  27.265  28.881  1.00  0.00     0.029 A 
ATOM     39  N   UNL A   1      40.871  28.742  28.977  1.00  0.00    -0.354 N 
ATOM     40  C   UNL A   1      44.763  27.830  27.394  1.00  0.00     0.074 A 
ATOM     41  C   UNL A   1      44.801  26.499  26.826  1.00  0.00     0.031 C 
ATOM     42  C   UNL A   1      38.749  28.339  29.552  1.00  0.00     0.029 A 
ATOM     43  C   UNL A   1      39.825  29.319  29.661  1.00  0.00     0.049 A 
ATOM     44  H   UNL A   1      41.743  29.182  28.854  1.00  0.00     0.167 HD
ATOM     45  C   UNL A   1      45.828  28.669  27.435  1.00  0.00     0.034 A 
ATOM     46  C   UNL A   1      39.741  30.499  30.309  1.00  0.00     0.034 A 
ATOM     47  C   UNL A   1      45.785  30.008  27.960  1.00  0.00     0.049 A 
ATOM     48  C   UNL A   1      40.926  31.427  30.311  1.00  0.00     0.074 A 
ATOM     49  C   UNL A   1      46.788  30.962  27.968  1.00  0.00     0.029 A 
ATOM     50  N   UNL A   1      44.684  30.584  28.576  1.00  0.00    -0.354 N 
ATOM     51  N   UNL A   1      42.103  31.264  29.758  1.00  0.00    -0.248 NA
ATOM     52  C   UNL A   1      40.760  32.719  30.996  1.00  0.00     0.031 C 
ATOM     53  C   UNL A   1      46.303  32.105  28.613  1.00  0.00     0.029 A 
ATOM     54  C   UNL A   1      44.986  31.875  28.978  1.00  0.00     0.049 A 
ATOM     55  H   UNL A   1      43.816  30.140  28.708  1.00  0.00     0.167 HD
ATOM     56  C   UNL A   1      42.803  32.443  29.996  1.00  0.00     0.074 A 
ATOM     57  C   UNL A   1      41.909  33.320  30.723  1.00  0.00     0.031 C 
ATOM     58  C   UNL A   1      44.076  32.763  29.654  1.00  0.00     0.034 A 
BRANCH  45  59
ATOM     59  C   UNL A   1      47.130  28.183  26.846  1.00  0.00     0.023 A 
ATOM     60  C   UNL A   1      48.170  27.771  27.704  1.00  0.00     0.012 A 
ATOM     61  C   UNL A   1      47.300  28.069  25.451  1.00  0.00     0.148 A 
ATOM     62  C   UNL A   1      49.372  27.290  27.186  1.00  0.00     0.002 A 
ATOM     63  C   UNL A   1      48.485  27.546  24.944  1.00  0.00     0.091 A 
ATOM     64  F   UNL A   1      46.308  28.480  24.650  1.00  0.00    -0.205 F 
ATOM     65  C   UNL A   1      49.525  27.170  25.807  1.00  0.00     0.022 A 
BRANCH  63  66
ATOM     66  S   UNL A   1      48.750  27.272  23.188  1.00  0.00     0.127 S 
ATOM     67  O   UNL A   1      50.206  27.376  23.090  1.00  0.00    -0.237 OA
ATOM     68  O   UNL A   1      48.223  25.919  23.005  1.00  0.00    -0.237 OA
ATOM     69  O   UNL A   1      48.001  28.313  22.500  1.00  0.00    -0.744 OA
ENDBRANCH  63  66
ENDBRANCH  45  59
BRANCH  46  70
ATOM     70  C   UNL A   1      38.460  30.899  30.959  1.00  0.00     0.023 A 
ATOM     71  C   UNL A   1      38.273  30.652  32.334  1.00  0.00     0.012 A 
ATOM     72  C   UNL A   1      37.442  31.548  30.235  1.00  0.00     0.148 A 
ATOM     73  C   UNL A   1      37.082  31.012  32.965  1.00  0.00     0.002 A 
ATOM     74  C   UNL A   1      36.285  31.961  30.883  1.00  0.00     0.091 A 
ATOM     75  F   UNL A   1      37.632  31.764  28.925  1.00  0.00    -0.205 F 
ATOM     76  C   UNL A   1      36.093  31.676  32.245  1.00  0.00     0.022 A 
BRANCH  74  77
ATOM     77  S   UNL A   1      35.028  32.955  30.070  1.00  0.00     0.127 S 
ATOM     78  O   UNL A   1      35.811  34.079  29.570  1.00  0.00    -0.237 OA
ATOM     79  O   UNL A   1      34.535  32.036  29.043  1.00  0.00    -0.237 OA
ATOM     80  O   UNL A   1      34.049  33.270  31.104  1.00  0.00    -0.744 OA
ENDBRANCH  74  77
ENDBRANCH  46  70
BRANCH  58  81
ATOM     81  C   UNL A   1      44.578  34.135  30.025  1.00  0.00     0.023 A 
ATOM     82  C   UNL A   1      45.284  34.325  31.229  1.00  0.00     0.012 A 
ATOM     83  C   UNL A   1      44.407  35.224  29.146  1.00  0.00     0.148 A 
ATOM     84  C   UNL A   1      45.781  35.583  31.569  1.00  0.00     0.002 A 
ATOM     85  C   UNL A   1      44.948  36.463  29.468  1.00  0.00     0.091 A 
ATOM     86  F   UNL A   1      43.716  35.031  28.013  1.00  0.00    -0.205 F 
ATOM     87  C   UNL A   1      45.624  36.648  30.686  1.00  0.00     0.022 A 
BRANCH  85  88
ATOM     88  S   UNL A   1      44.877  37.866  28.349  1.00  0.00     0.127 S 
ATOM     89  O   UNL A   1      45.537  37.332  27.159  1.00  0.00    -0.237 OA
ATOM     90  O   UNL A   1      43.436  38.076  28.204  1.00  0.00    -0.237 OA
ATOM     91  O   UNL A   1      45.580  38.951  29.019  1.00  0.00    -0.744 OA
ENDBRANCH  85  88
ENDBRANCH  58  81
ENDBRANCH  32  33
ENDBRANCH  24  27
ENDBRANCH  22  23
ENDBRANCH  21  22
ENDBRANCH   1  21
TORSDOF 18
ENDMDL
