MODEL 1
REMARK VINA RESULT:     -11.8      0.000      0.000
REMARK SMILES O=C(NCCCNC(=O)c1ccc(OC[C@H]2C[C@H]3CC[C@@H]2C3)c(Cl)c1)c1ccc(-c2c3nc(c(-c4cccc(S(=O)(=O)[O-])c4F)c4ccc([nH]4)c(-c4cccc(S(=O)(=O)[O-])c4F)c4nc(c(-c5cccc(S(=O)(=O)[O-])c5F)c5ccc2[nH]5)C=C4)C=C3)cc1
REMARK SMILES IDX 5 1 4 2 3 3 1 4 2 5 26 7 27 8 88 9 28 10 87 11 29 12 30 13
REMARK SMILES IDX 31 14 81 15 32 16 86 17 80 18 82 19 33 20 85 21 79 22 78 23
REMARK SMILES IDX 34 25 66 26 46 27 65 28 47 29 50 30 64 31 83 32 48 33 49 34
REMARK SMILES IDX 63 36 84 37 51 38 35 39 36 40 44 41 37 42 39 43 45 44 38 45
REMARK SMILES IDX 40 46 41 47 42 48 43 49 67 50 68 51 76 52 69 53 71 54 77 55
REMARK SMILES IDX 70 56 72 57 73 58 74 59 75 60 52 61 53 62 61 63 54 64 56 65
REMARK SMILES IDX 62 66 55 67 57 68 58 69 59 70 60 71 6 72 7 73 8 74 9 76
REMARK SMILES IDX 10 77 11 78 25 79 12 80 23 81 13 82 24 83 14 84 15 85 16 86
REMARK SMILES IDX 17 87 21 88 18 89 20 90 22 91 19 92
REMARK H PARENT 3 6 82 24 50 35 7 75
REMARK Flexibility Score: inf
ROOT
ATOM      1  C   UNL A   1      37.116  20.255  24.650  1.00  0.00     0.042 C 
ENDROOT
BRANCH   1   2
ATOM      2  C   UNL A   1      38.195  20.740  25.606  1.00  0.00     0.118 C 
BRANCH   2   3
ATOM      3  N   UNL A   1      39.204  19.722  25.864  1.00  0.00    -0.352 N 
ATOM      4  O   UNL A   1      41.269  18.871  26.113  1.00  0.00    -0.269 OA
ATOM      5  C   UNL A   1      40.539  19.860  26.155  1.00  0.00     0.251 C 
ATOM      6  H   UNL A   1      38.879  18.794  25.825  1.00  0.00     0.163 HD
BRANCH   5   7
ATOM      7  C   UNL A   1      41.088  21.187  26.503  1.00  0.00     0.039 A 
ATOM      8  C   UNL A   1      41.010  22.244  25.594  1.00  0.00     0.014 A 
ATOM      9  C   UNL A   1      41.650  21.391  27.766  1.00  0.00     0.014 A 
ATOM     10  C   UNL A   1      41.613  23.459  25.887  1.00  0.00     0.010 A 
ATOM     11  C   UNL A   1      42.165  22.647  28.101  1.00  0.00     0.010 A 
ATOM     12  C   UNL A   1      42.161  23.687  27.158  1.00  0.00    -0.014 A 
BRANCH  12  13
ATOM     13  C   UNL A   1      42.578  25.062  27.525  1.00  0.00     0.031 A 
ATOM     14  C   UNL A   1      41.624  26.035  28.154  1.00  0.00     0.074 A 
ATOM     15  C   UNL A   1      43.845  25.429  27.245  1.00  0.00     0.049 A 
ATOM     16  N   UNL A   1      41.842  27.274  28.511  1.00  0.00    -0.248 NA
ATOM     17  C   UNL A   1      40.252  25.570  28.412  1.00  0.00     0.031 C 
ATOM     18  C   UNL A   1      44.842  24.578  26.586  1.00  0.00     0.029 A 
ATOM     19  N   UNL A   1      44.511  26.610  27.454  1.00  0.00    -0.354 N 
ATOM     20  C   UNL A   1      40.630  27.754  28.990  1.00  0.00     0.074 A 
ATOM     21  C   UNL A   1      39.679  26.668  28.892  1.00  0.00     0.031 C 
ATOM     22  C   UNL A   1      45.987  25.259  26.449  1.00  0.00     0.029 A 
ATOM     23  C   UNL A   1      45.788  26.613  26.944  1.00  0.00     0.049 A 
ATOM     24  H   UNL A   1      44.113  27.379  27.923  1.00  0.00     0.167 HD
ATOM     25  C   UNL A   1      40.345  28.988  29.469  1.00  0.00     0.034 A 
ATOM     26  C   UNL A   1      46.689  27.608  26.841  1.00  0.00     0.034 A 
ATOM     27  C   UNL A   1      41.311  30.049  29.594  1.00  0.00     0.049 A 
ATOM     28  C   UNL A   1      46.335  28.961  27.385  1.00  0.00     0.074 A 
ATOM     29  C   UNL A   1      41.144  31.296  30.171  1.00  0.00     0.029 A 
ATOM     30  N   UNL A   1      42.609  30.004  29.111  1.00  0.00    -0.354 N 
ATOM     31  N   UNL A   1      45.242  29.340  27.999  1.00  0.00    -0.248 NA
ATOM     32  C   UNL A   1      47.346  30.018  27.242  1.00  0.00     0.031 C 
ATOM     33  C   UNL A   1      42.325  32.022  29.993  1.00  0.00     0.029 A 
ATOM     34  C   UNL A   1      43.240  31.215  29.338  1.00  0.00     0.049 A 
ATOM     35  H   UNL A   1      43.021  29.226  28.670  1.00  0.00     0.167 HD
ATOM     36  C   UNL A   1      45.436  30.674  28.328  1.00  0.00     0.074 A 
ATOM     37  C   UNL A   1      46.769  31.026  27.882  1.00  0.00     0.031 C 
ATOM     38  C   UNL A   1      44.580  31.540  28.923  1.00  0.00     0.034 A 
BRANCH  25  39
ATOM     39  C   UNL A   1      38.939  29.281  29.920  1.00  0.00     0.023 A 
ATOM     40  C   UNL A   1      38.532  28.932  31.222  1.00  0.00     0.012 A 
ATOM     41  C   UNL A   1      38.068  30.024  29.097  1.00  0.00     0.148 A 
ATOM     42  C   UNL A   1      37.276  29.310  31.697  1.00  0.00     0.002 A 
ATOM     43  C   UNL A   1      36.834  30.431  29.590  1.00  0.00     0.091 A 
ATOM     44  F   UNL A   1      38.471  30.331  27.856  1.00  0.00    -0.205 F 
ATOM     45  C   UNL A   1      36.434  30.070  30.887  1.00  0.00     0.022 A 
BRANCH  43  46
ATOM     46  S   UNL A   1      35.712  31.479  28.658  1.00  0.00     0.127 S 
ATOM     47  O   UNL A   1      34.715  31.817  29.673  1.00  0.00    -0.237 OA
ATOM     48  O   UNL A   1      36.583  32.588  28.267  1.00  0.00    -0.237 OA
ATOM     49  O   UNL A   1      35.221  30.666  27.554  1.00  0.00    -0.744 OA
ENDBRANCH  43  46
ENDBRANCH  25  39
BRANCH  26  50
ATOM     50  C   UNL A   1      48.000  27.361  26.180  1.00  0.00     0.023 A 
ATOM     51  C   UNL A   1      49.097  26.921  26.942  1.00  0.00     0.012 A 
ATOM     52  C   UNL A   1      48.158  27.547  24.792  1.00  0.00     0.148 A 
ATOM     53  C   UNL A   1      50.339  26.708  26.341  1.00  0.00     0.002 A 
ATOM     54  C   UNL A   1      49.379  27.271  24.189  1.00  0.00     0.091 A 
ATOM     55  F   UNL A   1      47.107  27.983  24.082  1.00  0.00    -0.205 F 
ATOM     56  C   UNL A   1      50.477  26.873  24.966  1.00  0.00     0.022 A 
BRANCH  54  57
ATOM     57  S   UNL A   1      49.593  27.316  22.407  1.00  0.00     0.127 S 
ATOM     58  O   UNL A   1      51.014  27.012  22.268  1.00  0.00    -0.237 OA
ATOM     59  O   UNL A   1      48.688  26.256  21.963  1.00  0.00    -0.237 OA
ATOM     60  O   UNL A   1      49.184  28.655  22.002  1.00  0.00    -0.744 OA
ENDBRANCH  54  57
ENDBRANCH  26  50
BRANCH  38  61
ATOM     61  C   UNL A   1      45.059  32.950  29.135  1.00  0.00     0.023 A 
ATOM     62  C   UNL A   1      45.765  33.276  30.309  1.00  0.00     0.012 A 
ATOM     63  C   UNL A   1      44.871  33.933  28.144  1.00  0.00     0.148 A 
ATOM     64  C   UNL A   1      46.251  34.566  30.509  1.00  0.00     0.002 A 
ATOM     65  C   UNL A   1      45.402  35.203  28.326  1.00  0.00     0.091 A 
ATOM     66  F   UNL A   1      44.182  33.605  27.041  1.00  0.00    -0.205 F 
ATOM     67  C   UNL A   1      46.081  35.525  29.513  1.00  0.00     0.022 A 
BRANCH  65  68
ATOM     68  S   UNL A   1      45.315  36.477  27.064  1.00  0.00     0.127 S 
ATOM     69  O   UNL A   1      46.030  37.581  27.706  1.00  0.00    -0.237 OA
ATOM     70  O   UNL A   1      46.029  35.855  25.949  1.00  0.00    -0.237 OA
ATOM     71  O   UNL A   1      43.899  36.713  26.824  1.00  0.00    -0.744 OA
ENDBRANCH  65  68
ENDBRANCH  38  61
ENDBRANCH  12  13
ENDBRANCH   5   7
ENDBRANCH   2   3
ENDBRANCH   1   2
BRANCH   1  72
ATOM     72  C   UNL A   1      35.715  20.692  25.048  1.00  0.00     0.118 C 
BRANCH  72  73
ATOM     73  N   UNL A   1      34.790  19.568  25.133  1.00  0.00    -0.352 N 
ATOM     74  C   UNL A   1      33.421  19.565  25.103  1.00  0.00     0.251 C 
ATOM     75  H   UNL A   1      35.212  18.682  25.227  1.00  0.00     0.163 HD
ATOM     76  O   UNL A   1      32.783  18.552  25.375  1.00  0.00    -0.269 OA
BRANCH  74  77
ATOM     77  C   UNL A   1      32.704  20.799  24.744  1.00  0.00     0.041 A 
ATOM     78  C   UNL A   1      32.726  21.260  23.428  1.00  0.00     0.018 A 
ATOM     79  C   UNL A   1      32.007  21.495  25.734  1.00  0.00     0.038 A 
ATOM     80  C   UNL A   1      32.099  22.460  23.121  1.00  0.00     0.049 A 
ATOM     81  C   UNL A   1      31.365  22.697  25.418  1.00  0.00     0.083 A 
ATOM     82  C   UNL A   1      31.391  23.170  24.101  1.00  0.00     0.137 A 
ATOM     83  Cl  UNL A   1      30.644  23.566  26.722  1.00  0.00    -0.080 Cl
BRANCH  82  84
ATOM     84  O   UNL A   1      30.833  24.309  23.612  1.00  0.00    -0.492 OA
BRANCH  84  85
ATOM     85  C   UNL A   1      31.588  25.204  22.801  1.00  0.00     0.233 C 
BRANCH  85  86
ATOM     86  C   UNL A   1      32.147  26.500  23.416  1.00  0.00     0.030 C 
ATOM     87  C   UNL A   1      31.522  26.789  24.807  1.00  0.00     0.011 C 
ATOM     88  C   UNL A   1      33.661  26.636  23.703  1.00  0.00    -0.004 C 
ATOM     89  C   UNL A   1      32.755  27.043  25.693  1.00  0.00    -0.010 C 
ATOM     90  C   UNL A   1      34.174  25.467  24.550  1.00  0.00     0.004 C 
ATOM     91  C   UNL A   1      33.678  27.778  24.727  1.00  0.00     0.007 C 
ATOM     92  C   UNL A   1      33.506  25.715  25.908  1.00  0.00     0.004 C 
ENDBRANCH  85  86
ENDBRANCH  84  85
ENDBRANCH  82  84
ENDBRANCH  74  77
ENDBRANCH  72  73
ENDBRANCH   1  72
TORSDOF 16
ENDMDL
MODEL 2
REMARK VINA RESULT:     -11.7      5.619     10.628
REMARK SMILES O=C(NCCCNC(=O)c1ccc(OC[C@H]2C[C@H]3CC[C@@H]2C3)c(Cl)c1)c1ccc(-c2c3nc(c(-c4cccc(S(=O)(=O)[O-])c4F)c4ccc([nH]4)c(-c4cccc(S(=O)(=O)[O-])c4F)c4nc(c(-c5cccc(S(=O)(=O)[O-])c5F)c5ccc2[nH]5)C=C4)C=C3)cc1
REMARK SMILES IDX 5 1 4 2 3 3 1 4 2 5 26 7 27 8 88 9 28 10 87 11 29 12 30 13
REMARK SMILES IDX 31 14 81 15 32 16 86 17 80 18 82 19 33 20 85 21 79 22 78 23
REMARK SMILES IDX 34 25 66 26 46 27 65 28 47 29 50 30 64 31 83 32 48 33 49 34
REMARK SMILES IDX 63 36 84 37 51 38 35 39 36 40 44 41 37 42 39 43 45 44 38 45
REMARK SMILES IDX 40 46 41 47 42 48 43 49 67 50 68 51 76 52 69 53 71 54 77 55
REMARK SMILES IDX 70 56 72 57 73 58 74 59 75 60 52 61 53 62 61 63 54 64 56 65
REMARK SMILES IDX 62 66 55 67 57 68 58 69 59 70 60 71 6 72 7 73 8 74 9 76
REMARK SMILES IDX 10 77 11 78 25 79 12 80 23 81 13 82 24 83 14 84 15 85 16 86
REMARK SMILES IDX 17 87 21 88 18 89 20 90 22 91 19 92
REMARK H PARENT 3 6 82 24 50 35 7 75
REMARK Flexibility Score: inf
ROOT
ATOM      1  C   UNL A   1      31.351  30.626  26.058  1.00  0.00     0.042 C 
ENDROOT
BRANCH   1   2
ATOM      2  C   UNL A   1      32.640  31.043  26.748  1.00  0.00     0.118 C 
BRANCH   2   3
ATOM      3  N   UNL A   1      32.701  32.478  26.988  1.00  0.00    -0.352 N 
ATOM      4  O   UNL A   1      33.311  34.379  28.018  1.00  0.00    -0.269 OA
ATOM      5  C   UNL A   1      33.569  33.204  27.766  1.00  0.00     0.251 C 
ATOM      6  H   UNL A   1      32.016  33.008  26.521  1.00  0.00     0.163 HD
BRANCH   5   7
ATOM      7  C   UNL A   1      34.792  32.570  28.301  1.00  0.00     0.039 A 
ATOM      8  C   UNL A   1      36.024  33.221  28.210  1.00  0.00     0.014 A 
ATOM      9  C   UNL A   1      34.703  31.330  28.939  1.00  0.00     0.014 A 
ATOM     10  C   UNL A   1      37.182  32.580  28.626  1.00  0.00     0.010 A 
ATOM     11  C   UNL A   1      35.856  30.730  29.453  1.00  0.00     0.010 A 
ATOM     12  C   UNL A   1      37.107  31.346  29.288  1.00  0.00    -0.014 A 
BRANCH  12  13
ATOM     13  C   UNL A   1      38.326  30.801  29.934  1.00  0.00     0.031 A 
ATOM     14  C   UNL A   1      39.187  29.775  29.256  1.00  0.00     0.074 A 
ATOM     15  C   UNL A   1      38.627  31.236  31.174  1.00  0.00     0.049 A 
ATOM     16  N   UNL A   1      40.270  29.196  29.704  1.00  0.00    -0.248 NA
ATOM     17  C   UNL A   1      38.785  29.334  27.911  1.00  0.00     0.031 C 
ATOM     18  C   UNL A   1      37.828  32.194  31.947  1.00  0.00     0.029 A 
ATOM     19  N   UNL A   1      39.664  30.921  32.015  1.00  0.00    -0.354 N 
ATOM     20  C   UNL A   1      40.655  28.291  28.725  1.00  0.00     0.074 A 
ATOM     21  C   UNL A   1      39.696  28.404  27.647  1.00  0.00     0.031 C 
ATOM     22  C   UNL A   1      38.403  32.390  33.140  1.00  0.00     0.029 A 
ATOM     23  C   UNL A   1      39.568  31.524  33.248  1.00  0.00     0.049 A 
ATOM     24  H   UNL A   1      40.402  30.322  31.762  1.00  0.00     0.167 HD
ATOM     25  C   UNL A   1      41.714  27.447  28.730  1.00  0.00     0.034 A 
ATOM     26  C   UNL A   1      40.307  31.367  34.361  1.00  0.00     0.034 A 
ATOM     27  C   UNL A   1      42.680  27.370  29.795  1.00  0.00     0.049 A 
ATOM     28  C   UNL A   1      41.473  30.423  34.325  1.00  0.00     0.074 A 
ATOM     29  C   UNL A   1      43.848  26.627  29.840  1.00  0.00     0.029 A 
ATOM     30  N   UNL A   1      42.580  28.030  31.010  1.00  0.00    -0.354 N 
ATOM     31  N   UNL A   1      41.924  29.711  33.323  1.00  0.00    -0.248 NA
ATOM     32  C   UNL A   1      42.245  30.276  35.567  1.00  0.00     0.031 C 
ATOM     33  C   UNL A   1      44.428  26.800  31.101  1.00  0.00     0.029 A 
ATOM     34  C   UNL A   1      43.641  27.679  31.827  1.00  0.00     0.049 A 
ATOM     35  H   UNL A   1      41.860  28.655  31.256  1.00  0.00     0.167 HD
ATOM     36  C   UNL A   1      43.040  29.042  33.806  1.00  0.00     0.074 A 
ATOM     37  C   UNL A   1      43.220  29.465  35.180  1.00  0.00     0.031 C 
ATOM     38  C   UNL A   1      43.830  28.137  33.179  1.00  0.00     0.034 A 
BRANCH  25  39
ATOM     39  C   UNL A   1      41.919  26.537  27.548  1.00  0.00     0.023 A 
ATOM     40  C   UNL A   1      42.659  26.986  26.437  1.00  0.00     0.012 A 
ATOM     41  C   UNL A   1      41.493  25.195  27.601  1.00  0.00     0.148 A 
ATOM     42  C   UNL A   1      42.965  26.114  25.391  1.00  0.00     0.002 A 
ATOM     43  C   UNL A   1      41.835  24.322  26.575  1.00  0.00     0.091 A 
ATOM     44  F   UNL A   1      40.776  24.795  28.661  1.00  0.00    -0.205 F 
ATOM     45  C   UNL A   1      42.565  24.782  25.467  1.00  0.00     0.022 A 
BRANCH  43  46
ATOM     46  S   UNL A   1      41.439  22.571  26.614  1.00  0.00     0.127 S 
ATOM     47  O   UNL A   1      42.121  22.142  27.835  1.00  0.00    -0.237 OA
ATOM     48  O   UNL A   1      39.979  22.590  26.707  1.00  0.00    -0.237 OA
ATOM     49  O   UNL A   1      41.967  22.008  25.379  1.00  0.00    -0.744 OA
ENDBRANCH  43  46
ENDBRANCH  25  39
BRANCH  26  50
ATOM     50  C   UNL A   1      39.951  32.106  35.603  1.00  0.00     0.023 A 
ATOM     51  C   UNL A   1      40.566  33.340  35.885  1.00  0.00     0.012 A 
ATOM     52  C   UNL A   1      38.990  31.597  36.500  1.00  0.00     0.148 A 
ATOM     53  C   UNL A   1      40.260  34.033  37.057  1.00  0.00     0.002 A 
ATOM     54  C   UNL A   1      38.643  32.323  37.632  1.00  0.00     0.091 A 
ATOM     55  F   UNL A   1      38.426  30.412  36.225  1.00  0.00    -0.205 F 
ATOM     56  C   UNL A   1      39.293  33.531  37.924  1.00  0.00     0.022 A 
BRANCH  54  57
ATOM     57  S   UNL A   1      37.304  31.816  38.716  1.00  0.00     0.127 S 
ATOM     58  O   UNL A   1      37.888  32.037  40.036  1.00  0.00    -0.237 OA
ATOM     59  O   UNL A   1      36.241  32.751  38.347  1.00  0.00    -0.237 OA
ATOM     60  O   UNL A   1      37.026  30.430  38.364  1.00  0.00    -0.744 OA
ENDBRANCH  54  57
ENDBRANCH  26  50
BRANCH  38  61
ATOM     61  C   UNL A   1      44.969  27.549  33.967  1.00  0.00     0.023 A 
ATOM     62  C   UNL A   1      46.201  28.228  34.020  1.00  0.00     0.012 A 
ATOM     63  C   UNL A   1      44.796  26.365  34.709  1.00  0.00     0.148 A 
ATOM     64  C   UNL A   1      47.257  27.722  34.775  1.00  0.00     0.002 A 
ATOM     65  C   UNL A   1      45.835  25.894  35.501  1.00  0.00     0.091 A 
ATOM     66  F   UNL A   1      43.619  25.727  34.632  1.00  0.00    -0.205 F 
ATOM     67  C   UNL A   1      47.071  26.563  35.525  1.00  0.00     0.022 A 
BRANCH  65  68
ATOM     68  S   UNL A   1      45.662  24.462  36.572  1.00  0.00     0.127 S 
ATOM     69  O   UNL A   1      44.685  24.939  37.551  1.00  0.00    -0.237 OA
ATOM     70  O   UNL A   1      45.154  23.447  35.648  1.00  0.00    -0.237 OA
ATOM     71  O   UNL A   1      46.990  24.191  37.103  1.00  0.00    -0.744 OA
ENDBRANCH  65  68
ENDBRANCH  38  61
ENDBRANCH  12  13
ENDBRANCH   5   7
ENDBRANCH   2   3
ENDBRANCH   1   2
BRANCH   1  72
ATOM     72  C   UNL A   1      31.571  29.702  24.870  1.00  0.00     0.118 C 
BRANCH  72  73
ATOM     73  N   UNL A   1      30.656  29.988  23.772  1.00  0.00    -0.352 N 
ATOM     74  C   UNL A   1      30.168  29.147  22.807  1.00  0.00     0.251 C 
ATOM     75  H   UNL A   1      30.345  30.921  23.715  1.00  0.00     0.163 HD
ATOM     76  O   UNL A   1      29.552  29.584  21.839  1.00  0.00    -0.269 OA
BRANCH  74  77
ATOM     77  C   UNL A   1      30.389  27.698  22.932  1.00  0.00     0.041 A 
ATOM     78  C   UNL A   1      29.644  26.955  23.848  1.00  0.00     0.018 A 
ATOM     79  C   UNL A   1      31.350  27.083  22.126  1.00  0.00     0.038 A 
ATOM     80  C   UNL A   1      29.912  25.601  23.999  1.00  0.00     0.049 A 
ATOM     81  C   UNL A   1      31.609  25.716  22.272  1.00  0.00     0.083 A 
ATOM     82  C   UNL A   1      30.870  24.967  23.196  1.00  0.00     0.137 A 
ATOM     83  Cl  UNL A   1      32.903  25.061  21.340  1.00  0.00    -0.080 Cl
BRANCH  82  84
ATOM     84  O   UNL A   1      30.983  23.641  23.476  1.00  0.00    -0.492 OA
BRANCH  84  85
ATOM     85  C   UNL A   1      31.157  23.188  24.815  1.00  0.00     0.233 C 
BRANCH  85  86
ATOM     86  C   UNL A   1      32.578  22.956  25.361  1.00  0.00     0.030 C 
ATOM     87  C   UNL A   1      33.649  23.107  24.249  1.00  0.00     0.011 C 
ATOM     88  C   UNL A   1      33.139  23.864  26.481  1.00  0.00    -0.004 C 
ATOM     89  C   UNL A   1      34.666  24.077  24.878  1.00  0.00    -0.010 C 
ATOM     90  C   UNL A   1      33.027  25.345  26.106  1.00  0.00     0.004 C 
ATOM     91  C   UNL A   1      34.648  23.632  26.336  1.00  0.00     0.007 C 
ATOM     92  C   UNL A   1      34.040  25.481  24.963  1.00  0.00     0.004 C 
ENDBRANCH  85  86
ENDBRANCH  84  85
ENDBRANCH  82  84
ENDBRANCH  74  77
ENDBRANCH  72  73
ENDBRANCH   1  72
TORSDOF 16
ENDMDL
MODEL 3
REMARK VINA RESULT:     -11.7      6.304     11.295
REMARK SMILES O=C(NCCCNC(=O)c1ccc(OC[C@H]2C[C@H]3CC[C@@H]2C3)c(Cl)c1)c1ccc(-c2c3nc(c(-c4cccc(S(=O)(=O)[O-])c4F)c4ccc([nH]4)c(-c4cccc(S(=O)(=O)[O-])c4F)c4nc(c(-c5cccc(S(=O)(=O)[O-])c5F)c5ccc2[nH]5)C=C4)C=C3)cc1
REMARK SMILES IDX 5 1 4 2 3 3 1 4 2 5 26 7 27 8 88 9 28 10 87 11 29 12 30 13
REMARK SMILES IDX 31 14 81 15 32 16 86 17 80 18 82 19 33 20 85 21 79 22 78 23
REMARK SMILES IDX 34 25 66 26 46 27 65 28 47 29 50 30 64 31 83 32 48 33 49 34
REMARK SMILES IDX 63 36 84 37 51 38 35 39 36 40 44 41 37 42 39 43 45 44 38 45
REMARK SMILES IDX 40 46 41 47 42 48 43 49 67 50 68 51 76 52 69 53 71 54 77 55
REMARK SMILES IDX 70 56 72 57 73 58 74 59 75 60 52 61 53 62 61 63 54 64 56 65
REMARK SMILES IDX 62 66 55 67 57 68 58 69 59 70 60 71 6 72 7 73 8 74 9 76
REMARK SMILES IDX 10 77 11 78 25 79 12 80 23 81 13 82 24 83 14 84 15 85 16 86
REMARK SMILES IDX 17 87 21 88 18 89 20 90 22 91 19 92
REMARK H PARENT 3 6 82 24 50 35 7 75
REMARK Flexibility Score: inf
ROOT
ATOM      1  C   UNL A   1      31.439  31.742  26.567  1.00  0.00     0.042 C 
ENDROOT
BRANCH   1   2
ATOM      2  C   UNL A   1      32.665  32.324  27.253  1.00  0.00     0.118 C 
BRANCH   2   3
ATOM      3  N   UNL A   1      32.507  33.738  27.564  1.00  0.00    -0.352 N 
ATOM      4  O   UNL A   1      32.696  35.624  28.770  1.00  0.00    -0.269 OA
ATOM      5  C   UNL A   1      33.136  34.505  28.513  1.00  0.00     0.251 C 
ATOM      6  H   UNL A   1      31.849  34.216  27.010  1.00  0.00     0.163 HD
BRANCH   5   7
ATOM      7  C   UNL A   1      34.322  33.981  29.224  1.00  0.00     0.039 A 
ATOM      8  C   UNL A   1      34.180  32.990  30.198  1.00  0.00     0.014 A 
ATOM      9  C   UNL A   1      35.593  34.453  28.886  1.00  0.00     0.014 A 
ATOM     10  C   UNL A   1      35.283  32.571  30.929  1.00  0.00     0.010 A 
ATOM     11  C   UNL A   1      36.717  33.955  29.551  1.00  0.00     0.010 A 
ATOM     12  C   UNL A   1      36.568  33.019  30.587  1.00  0.00    -0.014 A 
BRANCH  12  13
ATOM     13  C   UNL A   1      37.745  32.375  31.220  1.00  0.00     0.031 A 
ATOM     14  C   UNL A   1      38.461  31.228  30.571  1.00  0.00     0.074 A 
ATOM     15  C   UNL A   1      38.139  32.836  32.425  1.00  0.00     0.049 A 
ATOM     16  N   UNL A   1      39.492  30.555  31.014  1.00  0.00    -0.248 NA
ATOM     17  C   UNL A   1      37.962  30.767  29.266  1.00  0.00     0.031 C 
ATOM     18  C   UNL A   1      37.480  33.914  33.170  1.00  0.00     0.029 A 
ATOM     19  N   UNL A   1      39.167  32.450  33.247  1.00  0.00    -0.354 N 
ATOM     20  C   UNL A   1      39.737  29.564  30.073  1.00  0.00     0.074 A 
ATOM     21  C   UNL A   1      38.755  29.729  29.023  1.00  0.00     0.031 C 
ATOM     22  C   UNL A   1      38.119  34.105  34.332  1.00  0.00     0.029 A 
ATOM     23  C   UNL A   1      39.186  33.122  34.447  1.00  0.00     0.049 A 
ATOM     24  H   UNL A   1      39.825  31.761  33.002  1.00  0.00     0.167 HD
ATOM     25  C   UNL A   1      40.698  28.610  30.089  1.00  0.00     0.034 A 
ATOM     26  C   UNL A   1      39.946  32.939  35.543  1.00  0.00     0.034 A 
ATOM     27  C   UNL A   1      41.690  28.479  31.124  1.00  0.00     0.049 A 
ATOM     28  C   UNL A   1      41.000  31.871  35.520  1.00  0.00     0.074 A 
ATOM     29  C   UNL A   1      42.771  27.615  31.171  1.00  0.00     0.029 A 
ATOM     30  N   UNL A   1      41.709  29.206  32.304  1.00  0.00    -0.354 N 
ATOM     31  N   UNL A   1      41.331  31.064  34.543  1.00  0.00    -0.248 NA
ATOM     32  C   UNL A   1      41.798  31.702  36.741  1.00  0.00     0.031 C 
ATOM     33  C   UNL A   1      43.414  27.785  32.400  1.00  0.00     0.029 A 
ATOM     34  C   UNL A   1      42.757  28.782  33.104  1.00  0.00     0.049 A 
ATOM     35  H   UNL A   1      41.072  29.919  32.539  1.00  0.00     0.167 HD
ATOM     36  C   UNL A   1      42.385  30.300  35.024  1.00  0.00     0.074 A 
ATOM     37  C   UNL A   1      42.664  30.769  36.367  1.00  0.00     0.031 C 
ATOM     38  C   UNL A   1      43.047  29.283  34.421  1.00  0.00     0.034 A 
BRANCH  25  39
ATOM     39  C   UNL A   1      40.756  27.624  28.951  1.00  0.00     0.023 A 
ATOM     40  C   UNL A   1      39.772  26.623  28.839  1.00  0.00     0.012 A 
ATOM     41  C   UNL A   1      41.708  27.780  27.923  1.00  0.00     0.148 A 
ATOM     42  C   UNL A   1      39.739  25.785  27.725  1.00  0.00     0.002 A 
ATOM     43  C   UNL A   1      41.645  26.967  26.797  1.00  0.00     0.091 A 
ATOM     44  F   UNL A   1      42.644  28.730  28.060  1.00  0.00    -0.205 F 
ATOM     45  C   UNL A   1      40.665  25.966  26.700  1.00  0.00     0.022 A 
BRANCH  43  46
ATOM     46  S   UNL A   1      42.738  27.172  25.388  1.00  0.00     0.127 S 
ATOM     47  O   UNL A   1      44.039  27.308  26.042  1.00  0.00    -0.237 OA
ATOM     48  O   UNL A   1      42.547  25.913  24.667  1.00  0.00    -0.237 OA
ATOM     49  O   UNL A   1      42.273  28.358  24.683  1.00  0.00    -0.744 OA
ENDBRANCH  43  46
ENDBRANCH  25  39
BRANCH  26  50
ATOM     50  C   UNL A   1      39.721  33.775  36.754  1.00  0.00     0.023 A 
ATOM     51  C   UNL A   1      40.173  35.107  36.780  1.00  0.00     0.012 A 
ATOM     52  C   UNL A   1      39.045  33.257  37.877  1.00  0.00     0.148 A 
ATOM     53  C   UNL A   1      39.991  35.896  37.917  1.00  0.00     0.002 A 
ATOM     54  C   UNL A   1      38.810  34.068  38.980  1.00  0.00     0.091 A 
ATOM     55  F   UNL A   1      38.635  31.981  37.843  1.00  0.00    -0.205 F 
ATOM     56  C   UNL A   1      39.302  35.381  39.011  1.00  0.00     0.022 A 
BRANCH  54  57
ATOM     57  S   UNL A   1      37.803  33.523  40.364  1.00  0.00     0.127 S 
ATOM     58  O   UNL A   1      36.587  33.074  39.691  1.00  0.00    -0.237 OA
ATOM     59  O   UNL A   1      38.622  32.454  40.936  1.00  0.00    -0.237 OA
ATOM     60  O   UNL A   1      37.663  34.691  41.224  1.00  0.00    -0.744 OA
ENDBRANCH  54  57
ENDBRANCH  26  50
BRANCH  38  61
ATOM     61  C   UNL A   1      44.144  28.613  35.202  1.00  0.00     0.023 A 
ATOM     62  C   UNL A   1      45.472  29.063  35.063  1.00  0.00     0.012 A 
ATOM     63  C   UNL A   1      43.852  27.588  36.123  1.00  0.00     0.148 A 
ATOM     64  C   UNL A   1      46.498  28.482  35.806  1.00  0.00     0.002 A 
ATOM     65  C   UNL A   1      44.871  27.049  36.897  1.00  0.00     0.091 A 
ATOM     66  F   UNL A   1      42.584  27.165  36.227  1.00  0.00    -0.205 F 
ATOM     67  C   UNL A   1      46.197  27.485  36.731  1.00  0.00     0.022 A 
BRANCH  65  68
ATOM     68  S   UNL A   1      44.569  25.827  38.178  1.00  0.00     0.127 S 
ATOM     69  O   UNL A   1      45.922  25.581  38.680  1.00  0.00    -0.237 OA
ATOM     70  O   UNL A   1      43.701  26.557  39.101  1.00  0.00    -0.237 OA
ATOM     71  O   UNL A   1      43.938  24.694  37.516  1.00  0.00    -0.744 OA
ENDBRANCH  65  68
ENDBRANCH  38  61
ENDBRANCH  12  13
ENDBRANCH   5   7
ENDBRANCH   2   3
ENDBRANCH   1   2
BRANCH   1  72
ATOM     72  C   UNL A   1      31.730  30.475  25.780  1.00  0.00     0.118 C 
BRANCH  72  73
ATOM     73  N   UNL A   1      30.866  30.339  24.613  1.00  0.00    -0.352 N 
ATOM     74  C   UNL A   1      30.751  29.296  23.733  1.00  0.00     0.251 C 
ATOM     75  H   UNL A   1      30.280  31.110  24.431  1.00  0.00     0.163 HD
ATOM     76  O   UNL A   1      30.111  29.412  22.693  1.00  0.00    -0.269 OA
BRANCH  74  77
ATOM     77  C   UNL A   1      31.411  28.016  24.040  1.00  0.00     0.041 A 
ATOM     78  C   UNL A   1      32.670  27.737  23.510  1.00  0.00     0.018 A 
ATOM     79  C   UNL A   1      30.760  27.094  24.863  1.00  0.00     0.038 A 
ATOM     80  C   UNL A   1      33.248  26.499  23.756  1.00  0.00     0.049 A 
ATOM     81  C   UNL A   1      31.351  25.853  25.119  1.00  0.00     0.083 A 
ATOM     82  C   UNL A   1      32.611  25.562  24.583  1.00  0.00     0.137 A 
ATOM     83  Cl  UNL A   1      30.425  24.718  26.029  1.00  0.00    -0.080 Cl
BRANCH  82  84
ATOM     84  O   UNL A   1      33.333  24.418  24.719  1.00  0.00    -0.492 OA
BRANCH  84  85
ATOM     85  C   UNL A   1      34.301  24.043  23.743  1.00  0.00     0.233 C 
BRANCH  85  86
ATOM     86  C   UNL A   1      35.033  22.695  23.877  1.00  0.00     0.030 C 
ATOM     87  C   UNL A   1      36.455  22.753  23.259  1.00  0.00     0.011 C 
ATOM     88  C   UNL A   1      35.308  22.094  25.276  1.00  0.00    -0.004 C 
ATOM     89  C   UNL A   1      37.343  22.186  24.383  1.00  0.00    -0.010 C 
ATOM     90  C   UNL A   1      36.027  23.099  26.183  1.00  0.00     0.004 C 
ATOM     91  C   UNL A   1      36.440  21.106  24.968  1.00  0.00     0.007 C 
ATOM     92  C   UNL A   1      37.412  23.206  25.535  1.00  0.00     0.004 C 
ENDBRANCH  85  86
ENDBRANCH  84  85
ENDBRANCH  82  84
ENDBRANCH  74  77
ENDBRANCH  72  73
ENDBRANCH   1  72
TORSDOF 16
ENDMDL
