MODEL 1
REMARK VINA RESULT:     -12.5      0.000      0.000
REMARK SMILES O=C(NCCCNC(=O)[C@H]1CC[C@H](CN2C(=O)c3cccnc3C2=O)O1)c1ccc(-c2c3nc(c(-c4cccc(S(=O)(=O)[O-])c4F)c4ccc([nH]4)c(-c4cccc(S(=O)(=O)[O-])c4F)c4nc(c(-c5cccc(S(=O)(=O)[O-])c5F)c5ccc2[nH]5)C=C4)C=C3)cc1
REMARK SMILES IDX 4 1 3 2 1 3 2 4 27 6 28 7 89 8 29 9 88 10 30 11 31 12 32 13
REMARK SMILES IDX 82 14 33 15 87 16 81 17 83 18 34 19 86 20 80 21 79 22 35 24
REMARK SMILES IDX 67 25 47 26 66 27 48 28 51 29 65 30 84 31 49 32 50 33 64 35
REMARK SMILES IDX 85 36 52 37 36 38 37 39 45 40 38 41 40 42 46 43 39 44 41 45
REMARK SMILES IDX 42 46 43 47 44 48 68 49 69 50 77 51 70 52 72 53 78 54 71 55
REMARK SMILES IDX 73 56 74 57 75 58 76 59 53 60 54 61 62 62 55 63 57 64 63 65
REMARK SMILES IDX 56 66 58 67 59 68 60 69 61 70 5 71 6 72 7 73 8 74 9 76 10 77
REMARK SMILES IDX 11 78 26 79 12 80 13 81 14 82 15 83 16 84 24 85 17 86 18 87
REMARK SMILES IDX 23 88 25 89 19 90 22 91 20 92 21 93
REMARK H PARENT 3 5 83 23 51 34 7 75
REMARK Flexibility Score: inf
ROOT
ATOM      1  C   UNL A   1      32.654  32.781  27.255  1.00  0.00     0.118 C 
ENDROOT
BRANCH   1   2
ATOM      2  N   UNL A   1      32.520  34.163  27.700  1.00  0.00    -0.352 N 
ATOM      3  O   UNL A   1      32.725  35.913  29.098  1.00  0.00    -0.269 OA
ATOM      4  C   UNL A   1      33.143  34.817  28.737  1.00  0.00     0.251 C 
ATOM      5  H   UNL A   1      31.889  34.710  27.180  1.00  0.00     0.163 HD
BRANCH   4   6
ATOM      6  C   UNL A   1      34.297  34.190  29.415  1.00  0.00     0.039 A 
ATOM      7  C   UNL A   1      34.092  33.254  30.429  1.00  0.00     0.014 A 
ATOM      8  C   UNL A   1      35.597  34.524  29.024  1.00  0.00     0.014 A 
ATOM      9  C   UNL A   1      35.167  32.787  31.166  1.00  0.00     0.010 A 
ATOM     10  C   UNL A   1      36.688  33.947  29.684  1.00  0.00     0.010 A 
ATOM     11  C   UNL A   1      36.480  33.092  30.775  1.00  0.00    -0.014 A 
BRANCH  11  12
ATOM     12  C   UNL A   1      37.597  32.393  31.459  1.00  0.00     0.031 A 
ATOM     13  C   UNL A   1      38.340  31.263  30.806  1.00  0.00     0.074 A 
ATOM     14  C   UNL A   1      37.946  32.821  32.689  1.00  0.00     0.049 A 
ATOM     15  N   UNL A   1      39.360  30.584  31.265  1.00  0.00    -0.248 NA
ATOM     16  C   UNL A   1      37.885  30.831  29.475  1.00  0.00     0.031 C 
ATOM     17  C   UNL A   1      37.263  33.885  33.435  1.00  0.00     0.029 A 
ATOM     18  N   UNL A   1      38.959  32.434  33.527  1.00  0.00    -0.354 N 
ATOM     19  C   UNL A   1      39.648  29.624  30.304  1.00  0.00     0.074 A 
ATOM     20  C   UNL A   1      38.689  29.802  29.235  1.00  0.00     0.031 C 
ATOM     21  C   UNL A   1      37.896  34.092  34.595  1.00  0.00     0.029 A 
ATOM     22  C   UNL A   1      38.979  33.126  34.715  1.00  0.00     0.049 A 
ATOM     23  H   UNL A   1      39.607  31.729  33.300  1.00  0.00     0.167 HD
ATOM     24  C   UNL A   1      40.628  28.690  30.312  1.00  0.00     0.034 A 
ATOM     25  C   UNL A   1      39.760  32.981  35.800  1.00  0.00     0.034 A 
ATOM     26  C   UNL A   1      41.585  28.535  31.377  1.00  0.00     0.049 A 
ATOM     27  C   UNL A   1      40.833  31.933  35.775  1.00  0.00     0.074 A 
ATOM     28  C   UNL A   1      42.647  27.649  31.457  1.00  0.00     0.029 A 
ATOM     29  N   UNL A   1      41.590  29.267  32.556  1.00  0.00    -0.354 N 
ATOM     30  N   UNL A   1      41.161  31.114  34.806  1.00  0.00    -0.248 NA
ATOM     31  C   UNL A   1      41.659  31.806  36.981  1.00  0.00     0.031 C 
ATOM     32  C   UNL A   1      43.270  27.822  32.697  1.00  0.00     0.029 A 
ATOM     33  C   UNL A   1      42.625  28.845  33.374  1.00  0.00     0.049 A 
ATOM     34  H   UNL A   1      40.951  29.983  32.778  1.00  0.00     0.167 HD
ATOM     35  C   UNL A   1      42.249  30.392  35.275  1.00  0.00     0.074 A 
ATOM     36  C   UNL A   1      42.545  30.898  36.600  1.00  0.00     0.031 C 
ATOM     37  C   UNL A   1      42.931  29.387  34.673  1.00  0.00     0.034 A 
BRANCH  24  38
ATOM     38  C   UNL A   1      40.740  27.767  29.124  1.00  0.00     0.023 A 
ATOM     39  C   UNL A   1      39.880  26.654  29.020  1.00  0.00     0.012 A 
ATOM     40  C   UNL A   1      41.631  28.051  28.070  1.00  0.00     0.148 A 
ATOM     41  C   UNL A   1      39.922  25.827  27.898  1.00  0.00     0.002 A 
ATOM     42  C   UNL A   1      41.636  27.249  26.935  1.00  0.00     0.091 A 
ATOM     43  F   UNL A   1      42.450  29.105  28.195  1.00  0.00    -0.205 F 
ATOM     44  C   UNL A   1      40.791  26.130  26.851  1.00  0.00     0.022 A 
BRANCH  42  45
ATOM     45  S   UNL A   1      42.659  27.597  25.500  1.00  0.00     0.127 S 
ATOM     46  O   UNL A   1      42.046  28.824  24.994  1.00  0.00    -0.237 OA
ATOM     47  O   UNL A   1      43.979  27.779  26.104  1.00  0.00    -0.237 OA
ATOM     48  O   UNL A   1      42.540  26.438  24.627  1.00  0.00    -0.744 OA
ENDBRANCH  42  45
ENDBRANCH  24  38
BRANCH  25  49
ATOM     49  C   UNL A   1      39.553  33.848  36.993  1.00  0.00     0.023 A 
ATOM     50  C   UNL A   1      39.964  35.193  36.962  1.00  0.00     0.012 A 
ATOM     51  C   UNL A   1      38.936  33.345  38.155  1.00  0.00     0.148 A 
ATOM     52  C   UNL A   1      39.803  36.011  38.081  1.00  0.00     0.002 A 
ATOM     53  C   UNL A   1      38.718  34.181  39.242  1.00  0.00     0.091 A 
ATOM     54  F   UNL A   1      38.561  32.057  38.170  1.00  0.00    -0.205 F 
ATOM     55  C   UNL A   1      39.171  35.507  39.217  1.00  0.00     0.022 A 
BRANCH  53  56
ATOM     56  S   UNL A   1      37.787  33.654  40.684  1.00  0.00     0.127 S 
ATOM     57  O   UNL A   1      38.694  32.679  41.285  1.00  0.00    -0.237 OA
ATOM     58  O   UNL A   1      37.646  34.906  41.426  1.00  0.00    -0.237 OA
ATOM     59  O   UNL A   1      36.534  33.120  40.167  1.00  0.00    -0.744 OA
ENDBRANCH  53  56
ENDBRANCH  25  49
BRANCH  37  60
ATOM     60  C   UNL A   1      44.091  28.796  35.431  1.00  0.00     0.023 A 
ATOM     61  C   UNL A   1      45.388  29.319  35.254  1.00  0.00     0.012 A 
ATOM     62  C   UNL A   1      43.887  27.743  36.343  1.00  0.00     0.148 A 
ATOM     63  C   UNL A   1      46.472  28.770  35.939  1.00  0.00     0.002 A 
ATOM     64  C   UNL A   1      44.961  27.240  37.064  1.00  0.00     0.091 A 
ATOM     65  F   UNL A   1      42.649  27.249  36.481  1.00  0.00    -0.205 F 
ATOM     66  C   UNL A   1      46.257  27.739  36.851  1.00  0.00     0.022 A 
BRANCH  64  67
ATOM     67  S   UNL A   1      44.766  25.983  38.331  1.00  0.00     0.127 S 
ATOM     68  O   UNL A   1      43.837  26.632  39.254  1.00  0.00    -0.237 OA
ATOM     69  O   UNL A   1      44.194  24.869  37.573  1.00  0.00    -0.237 OA
ATOM     70  O   UNL A   1      46.100  25.734  38.860  1.00  0.00    -0.744 OA
ENDBRANCH  64  67
ENDBRANCH  37  60
ENDBRANCH  11  12
ENDBRANCH   4   6
ENDBRANCH   1   2
BRANCH   1  71
ATOM     71  C   UNL A   1      31.423  32.307  26.501  1.00  0.00     0.042 C 
BRANCH  71  72
ATOM     72  C   UNL A   1      31.403  30.798  26.301  1.00  0.00     0.117 C 
BRANCH  72  73
ATOM     73  N   UNL A   1      32.411  30.132  27.095  1.00  0.00    -0.354 N 
ATOM     74  C   UNL A   1      33.110  28.986  26.867  1.00  0.00     0.249 C 
ATOM     75  H   UNL A   1      32.628  30.582  27.943  1.00  0.00     0.163 HD
ATOM     76  O   UNL A   1      33.941  28.664  27.723  1.00  0.00    -0.272 OA
BRANCH  74  77
ATOM     77  C   UNL A   1      32.891  28.095  25.618  1.00  0.00     0.207 C 
ATOM     78  C   UNL A   1      33.883  26.962  25.449  1.00  0.00     0.045 C 
ATOM     79  O   UNL A   1      31.578  27.561  25.460  1.00  0.00    -0.363 OA
ATOM     80  C   UNL A   1      33.074  25.700  25.591  1.00  0.00     0.037 C 
ATOM     81  C   UNL A   1      31.621  26.130  25.428  1.00  0.00     0.139 C 
BRANCH  81  82
ATOM     82  C   UNL A   1      30.942  25.578  24.162  1.00  0.00     0.161 C 
BRANCH  82  83
ATOM     83  N   UNL A   1      30.244  26.643  23.456  1.00  0.00    -0.270 N 
ATOM     84  C   UNL A   1      28.943  26.992  23.682  1.00  0.00     0.263 C 
ATOM     85  C   UNL A   1      30.876  27.543  22.631  1.00  0.00     0.280 C 
ATOM     86  O   UNL A   1      28.103  26.431  24.361  1.00  0.00    -0.269 OA
ATOM     87  C   UNL A   1      28.722  28.255  22.997  1.00  0.00     0.071 A 
ATOM     88  C   UNL A   1      29.883  28.585  22.339  1.00  0.00     0.141 A 
ATOM     89  O   UNL A   1      32.036  27.527  22.265  1.00  0.00    -0.267 OA
ATOM     90  C   UNL A   1      27.658  29.129  23.004  1.00  0.00     0.018 A 
ATOM     91  N   UNL A   1      30.103  29.724  21.660  1.00  0.00    -0.250 NA
ATOM     92  C   UNL A   1      27.834  30.332  22.316  1.00  0.00     0.021 A 
ATOM     93  C   UNL A   1      29.053  30.581  21.668  1.00  0.00     0.112 A 
ENDBRANCH  82  83
ENDBRANCH  81  82
ENDBRANCH  74  77
ENDBRANCH  72  73
ENDBRANCH  71  72
ENDBRANCH   1  71
TORSDOF 15
ENDMDL
MODEL 2
REMARK VINA RESULT:     -12.5      3.562      8.928
REMARK SMILES O=C(NCCCNC(=O)[C@H]1CC[C@H](CN2C(=O)c3cccnc3C2=O)O1)c1ccc(-c2c3nc(c(-c4cccc(S(=O)(=O)[O-])c4F)c4ccc([nH]4)c(-c4cccc(S(=O)(=O)[O-])c4F)c4nc(c(-c5cccc(S(=O)(=O)[O-])c5F)c5ccc2[nH]5)C=C4)C=C3)cc1
REMARK SMILES IDX 4 1 3 2 1 3 2 4 27 6 28 7 89 8 29 9 88 10 30 11 31 12 32 13
REMARK SMILES IDX 82 14 33 15 87 16 81 17 83 18 34 19 86 20 80 21 79 22 35 24
REMARK SMILES IDX 67 25 47 26 66 27 48 28 51 29 65 30 84 31 49 32 50 33 64 35
REMARK SMILES IDX 85 36 52 37 36 38 37 39 45 40 38 41 40 42 46 43 39 44 41 45
REMARK SMILES IDX 42 46 43 47 44 48 68 49 69 50 77 51 70 52 72 53 78 54 71 55
REMARK SMILES IDX 73 56 74 57 75 58 76 59 53 60 54 61 62 62 55 63 57 64 63 65
REMARK SMILES IDX 56 66 58 67 59 68 60 69 61 70 5 71 6 72 7 73 8 74 9 76 10 77
REMARK SMILES IDX 11 78 26 79 12 80 13 81 14 82 15 83 16 84 24 85 17 86 18 87
REMARK SMILES IDX 23 88 25 89 19 90 22 91 20 92 21 93
REMARK H PARENT 3 5 83 23 51 34 7 75
REMARK Flexibility Score: inf
ROOT
ATOM      1  C   UNL A   1      33.349  29.076  25.159  1.00  0.00     0.118 C 
ENDROOT
BRANCH   1   2
ATOM      2  N   UNL A   1      32.737  30.316  25.620  1.00  0.00    -0.352 N 
ATOM      3  O   UNL A   1      32.252  31.967  27.068  1.00  0.00    -0.269 OA
ATOM      4  C   UNL A   1      33.031  31.085  26.722  1.00  0.00     0.251 C 
ATOM      5  H   UNL A   1      32.003  30.653  25.059  1.00  0.00     0.163 HD
BRANCH   4   6
ATOM      6  C   UNL A   1      34.273  30.833  27.484  1.00  0.00     0.039 A 
ATOM      7  C   UNL A   1      34.517  29.573  28.030  1.00  0.00     0.014 A 
ATOM      8  C   UNL A   1      35.211  31.858  27.640  1.00  0.00     0.014 A 
ATOM      9  C   UNL A   1      35.600  29.384  28.872  1.00  0.00     0.010 A 
ATOM     10  C   UNL A   1      36.373  31.624  28.383  1.00  0.00     0.010 A 
ATOM     11  C   UNL A   1      36.565  30.392  29.024  1.00  0.00    -0.014 A 
BRANCH  11  12
ATOM     12  C   UNL A   1      37.814  30.064  29.757  1.00  0.00     0.031 A 
ATOM     13  C   UNL A   1      38.087  30.601  31.132  1.00  0.00     0.074 A 
ATOM     14  C   UNL A   1      38.697  29.242  29.155  1.00  0.00     0.049 A 
ATOM     15  N   UNL A   1      39.115  30.371  31.908  1.00  0.00    -0.248 NA
ATOM     16  C   UNL A   1      37.092  31.516  31.714  1.00  0.00     0.031 C 
ATOM     17  C   UNL A   1      38.551  28.696  27.800  1.00  0.00     0.029 A 
ATOM     18  N   UNL A   1      39.880  28.710  29.595  1.00  0.00    -0.354 N 
ATOM     19  C   UNL A   1      38.914  31.135  33.051  1.00  0.00     0.074 A 
ATOM     20  C   UNL A   1      37.666  31.844  32.865  1.00  0.00     0.031 C 
ATOM     21  C   UNL A   1      39.577  27.879  27.536  1.00  0.00     0.029 A 
ATOM     22  C   UNL A   1      40.495  27.903  28.666  1.00  0.00     0.049 A 
ATOM     23  H   UNL A   1      40.253  28.888  30.488  1.00  0.00     0.167 HD
ATOM     24  C   UNL A   1      39.694  31.224  34.153  1.00  0.00     0.034 A 
ATOM     25  C   UNL A   1      41.685  27.276  28.701  1.00  0.00     0.034 A 
ATOM     26  C   UNL A   1      40.927  30.500  34.330  1.00  0.00     0.049 A 
ATOM     27  C   UNL A   1      42.524  27.401  29.937  1.00  0.00     0.074 A 
ATOM     28  C   UNL A   1      41.765  30.486  35.432  1.00  0.00     0.029 A 
ATOM     29  N   UNL A   1      41.508  29.675  33.379  1.00  0.00    -0.354 N 
ATOM     30  N   UNL A   1      42.258  28.037  31.052  1.00  0.00    -0.248 NA
ATOM     31  C   UNL A   1      43.815  26.705  29.930  1.00  0.00     0.031 C 
ATOM     32  C   UNL A   1      42.871  29.683  35.132  1.00  0.00     0.029 A 
ATOM     33  C   UNL A   1      42.700  29.160  33.860  1.00  0.00     0.049 A 
ATOM     34  H   UNL A   1      41.129  29.484  32.490  1.00  0.00     0.167 HD
ATOM     35  C   UNL A   1      43.336  27.794  31.891  1.00  0.00     0.074 A 
ATOM     36  C   UNL A   1      44.240  26.924  31.166  1.00  0.00     0.031 C 
ATOM     37  C   UNL A   1      43.569  28.263  33.141  1.00  0.00     0.034 A 
BRANCH  24  38
ATOM     38  C   UNL A   1      39.237  32.122  35.277  1.00  0.00     0.023 A 
ATOM     39  C   UNL A   1      38.340  31.628  36.246  1.00  0.00     0.012 A 
ATOM     40  C   UNL A   1      39.764  33.421  35.423  1.00  0.00     0.148 A 
ATOM     41  C   UNL A   1      37.957  32.420  37.328  1.00  0.00     0.002 A 
ATOM     42  C   UNL A   1      39.412  34.188  36.527  1.00  0.00     0.091 A 
ATOM     43  F   UNL A   1      40.604  33.878  34.482  1.00  0.00    -0.205 F 
ATOM     44  C   UNL A   1      38.501  33.694  37.475  1.00  0.00     0.022 A 
BRANCH  42  45
ATOM     45  S   UNL A   1      40.115  35.809  36.851  1.00  0.00     0.127 S 
ATOM     46  O   UNL A   1      39.593  36.585  35.726  1.00  0.00    -0.237 OA
ATOM     47  O   UNL A   1      39.526  36.144  38.147  1.00  0.00    -0.237 OA
ATOM     48  O   UNL A   1      41.560  35.629  36.863  1.00  0.00    -0.744 OA
ENDBRANCH  42  45
ENDBRANCH  24  38
BRANCH  25  49
ATOM     49  C   UNL A   1      42.144  26.478  27.531  1.00  0.00     0.023 A 
ATOM     50  C   UNL A   1      42.893  27.095  26.511  1.00  0.00     0.012 A 
ATOM     51  C   UNL A   1      41.853  25.103  27.432  1.00  0.00     0.148 A 
ATOM     52  C   UNL A   1      43.306  26.368  25.395  1.00  0.00     0.002 A 
ATOM     53  C   UNL A   1      42.324  24.370  26.352  1.00  0.00     0.091 A 
ATOM     54  F   UNL A   1      41.129  24.535  28.409  1.00  0.00    -0.205 F 
ATOM     55  C   UNL A   1      43.031  25.004  25.321  1.00  0.00     0.022 A 
BRANCH  53  56
ATOM     56  S   UNL A   1      42.136  22.587  26.250  1.00  0.00     0.127 S 
ATOM     57  O   UNL A   1      42.768  22.149  27.492  1.00  0.00    -0.237 OA
ATOM     58  O   UNL A   1      40.682  22.439  26.212  1.00  0.00    -0.237 OA
ATOM     59  O   UNL A   1      42.811  22.192  25.021  1.00  0.00    -0.744 OA
ENDBRANCH  53  56
ENDBRANCH  25  49
BRANCH  37  60
ATOM     60  C   UNL A   1      44.836  27.811  33.818  1.00  0.00     0.023 A 
ATOM     61  C   UNL A   1      45.987  28.623  33.777  1.00  0.00     0.012 A 
ATOM     62  C   UNL A   1      44.873  26.593  34.523  1.00  0.00     0.148 A 
ATOM     63  C   UNL A   1      47.169  28.207  34.388  1.00  0.00     0.002 A 
ATOM     64  C   UNL A   1      46.036  26.212  35.178  1.00  0.00     0.091 A 
ATOM     65  F   UNL A   1      43.773  25.826  34.534  1.00  0.00    -0.205 F 
ATOM     66  C   UNL A   1      47.190  27.008  35.097  1.00  0.00     0.022 A 
BRANCH  64  67
ATOM     67  S   UNL A   1      46.129  24.736  36.196  1.00  0.00     0.127 S 
ATOM     68  O   UNL A   1      45.807  23.687  35.231  1.00  0.00    -0.237 OA
ATOM     69  O   UNL A   1      47.525  24.753  36.636  1.00  0.00    -0.237 OA
ATOM     70  O   UNL A   1      45.155  24.921  37.264  1.00  0.00    -0.744 OA
ENDBRANCH  64  67
ENDBRANCH  37  60
ENDBRANCH  11  12
ENDBRANCH   4   6
ENDBRANCH   1   2
BRANCH   1  71
ATOM     71  C   UNL A   1      32.519  27.860  25.539  1.00  0.00     0.042 C 
BRANCH  71  72
ATOM     72  C   UNL A   1      31.717  27.308  24.368  1.00  0.00     0.117 C 
BRANCH  72  73
ATOM     73  N   UNL A   1      32.531  27.144  23.184  1.00  0.00    -0.354 N 
ATOM     74  C   UNL A   1      33.166  26.047  22.686  1.00  0.00     0.249 C 
ATOM     75  H   UNL A   1      32.646  27.962  22.648  1.00  0.00     0.163 HD
ATOM     76  O   UNL A   1      33.779  26.197  21.623  1.00  0.00    -0.272 OA
BRANCH  74  77
ATOM     77  C   UNL A   1      33.157  24.669  23.394  1.00  0.00     0.207 C 
ATOM     78  C   UNL A   1      33.642  23.506  22.553  1.00  0.00     0.045 C 
ATOM     79  O   UNL A   1      33.827  24.615  24.653  1.00  0.00    -0.363 OA
ATOM     80  C   UNL A   1      34.903  23.027  23.224  1.00  0.00     0.037 C 
ATOM     81  C   UNL A   1      34.878  23.643  24.617  1.00  0.00     0.139 C 
BRANCH  81  82
ATOM     82  C   UNL A   1      34.729  22.617  25.755  1.00  0.00     0.161 C 
BRANCH  82  83
ATOM     83  N   UNL A   1      34.373  21.312  25.217  1.00  0.00    -0.270 N 
ATOM     84  C   UNL A   1      35.273  20.325  24.935  1.00  0.00     0.263 C 
ATOM     85  C   UNL A   1      33.078  20.862  25.125  1.00  0.00     0.280 C 
ATOM     86  O   UNL A   1      36.490  20.372  24.928  1.00  0.00    -0.269 OA
ATOM     87  C   UNL A   1      34.506  19.113  24.697  1.00  0.00     0.071 A 
ATOM     88  C   UNL A   1      33.173  19.435  24.788  1.00  0.00     0.141 A 
ATOM     89  O   UNL A   1      32.057  21.487  25.339  1.00  0.00    -0.267 OA
ATOM     90  C   UNL A   1      34.891  17.802  24.519  1.00  0.00     0.018 A 
ATOM     91  N   UNL A   1      32.149  18.567  24.711  1.00  0.00    -0.250 NA
ATOM     92  C   UNL A   1      33.867  16.857  24.436  1.00  0.00     0.021 A 
ATOM     93  C   UNL A   1      32.533  17.279  24.534  1.00  0.00     0.112 A 
ENDBRANCH  82  83
ENDBRANCH  81  82
ENDBRANCH  74  77
ENDBRANCH  72  73
ENDBRANCH  71  72
ENDBRANCH   1  71
TORSDOF 15
ENDMDL
MODEL 3
REMARK VINA RESULT:     -12.4      1.924      3.437
REMARK SMILES O=C(NCCCNC(=O)[C@H]1CC[C@H](CN2C(=O)c3cccnc3C2=O)O1)c1ccc(-c2c3nc(c(-c4cccc(S(=O)(=O)[O-])c4F)c4ccc([nH]4)c(-c4cccc(S(=O)(=O)[O-])c4F)c4nc(c(-c5cccc(S(=O)(=O)[O-])c5F)c5ccc2[nH]5)C=C4)C=C3)cc1
REMARK SMILES IDX 4 1 3 2 1 3 2 4 27 6 28 7 89 8 29 9 88 10 30 11 31 12 32 13
REMARK SMILES IDX 82 14 33 15 87 16 81 17 83 18 34 19 86 20 80 21 79 22 35 24
REMARK SMILES IDX 67 25 47 26 66 27 48 28 51 29 65 30 84 31 49 32 50 33 64 35
REMARK SMILES IDX 85 36 52 37 36 38 37 39 45 40 38 41 40 42 46 43 39 44 41 45
REMARK SMILES IDX 42 46 43 47 44 48 68 49 69 50 77 51 70 52 72 53 78 54 71 55
REMARK SMILES IDX 73 56 74 57 75 58 76 59 53 60 54 61 62 62 55 63 57 64 63 65
REMARK SMILES IDX 56 66 58 67 59 68 60 69 61 70 5 71 6 72 7 73 8 74 9 76 10 77
REMARK SMILES IDX 11 78 26 79 12 80 13 81 14 82 15 83 16 84 24 85 17 86 18 87
REMARK SMILES IDX 23 88 25 89 19 90 22 91 20 92 21 93
REMARK H PARENT 3 5 83 23 51 34 7 75
REMARK Flexibility Score: inf
ROOT
ATOM      1  C   UNL A   1      32.723  32.605  27.178  1.00  0.00     0.118 C 
ENDROOT
BRANCH   1   2
ATOM      2  N   UNL A   1      32.542  33.979  27.630  1.00  0.00    -0.352 N 
ATOM      3  O   UNL A   1      32.673  35.724  29.043  1.00  0.00    -0.269 OA
ATOM      4  C   UNL A   1      33.129  34.643  28.682  1.00  0.00     0.251 C 
ATOM      5  H   UNL A   1      31.903  34.511  27.104  1.00  0.00     0.163 HD
BRANCH   4   6
ATOM      6  C   UNL A   1      34.290  34.045  29.373  1.00  0.00     0.039 A 
ATOM      7  C   UNL A   1      34.095  33.112  30.392  1.00  0.00     0.014 A 
ATOM      8  C   UNL A   1      35.586  34.403  28.990  1.00  0.00     0.014 A 
ATOM      9  C   UNL A   1      35.174  32.672  31.141  1.00  0.00     0.010 A 
ATOM     10  C   UNL A   1      36.683  33.854  29.663  1.00  0.00     0.010 A 
ATOM     11  C   UNL A   1      36.484  33.002  30.759  1.00  0.00    -0.014 A 
BRANCH  11  12
ATOM     12  C   UNL A   1      37.609  32.331  31.457  1.00  0.00     0.031 A 
ATOM     13  C   UNL A   1      38.390  31.222  30.813  1.00  0.00     0.074 A 
ATOM     14  C   UNL A   1      37.931  32.766  32.692  1.00  0.00     0.049 A 
ATOM     15  N   UNL A   1      39.421  30.569  31.284  1.00  0.00    -0.248 NA
ATOM     16  C   UNL A   1      37.965  30.780  29.475  1.00  0.00     0.031 C 
ATOM     17  C   UNL A   1      37.210  33.810  33.430  1.00  0.00     0.029 A 
ATOM     18  N   UNL A   1      38.942  32.404  33.543  1.00  0.00    -0.354 N 
ATOM     19  C   UNL A   1      39.747  29.618  30.326  1.00  0.00     0.074 A 
ATOM     20  C   UNL A   1      38.798  29.773  29.244  1.00  0.00     0.031 C 
ATOM     21  C   UNL A   1      37.822  34.032  34.599  1.00  0.00     0.029 A 
ATOM     22  C   UNL A   1      38.928  33.094  34.733  1.00  0.00     0.049 A 
ATOM     23  H   UNL A   1      39.611  31.716  33.324  1.00  0.00     0.167 HD
ATOM     24  C   UNL A   1      40.751  28.710  30.346  1.00  0.00     0.034 A 
ATOM     25  C   UNL A   1      39.698  32.967  35.828  1.00  0.00     0.034 A 
ATOM     26  C   UNL A   1      41.697  28.577  31.424  1.00  0.00     0.049 A 
ATOM     27  C   UNL A   1      40.798  31.948  35.815  1.00  0.00     0.074 A 
ATOM     28  C   UNL A   1      42.780  27.720  31.516  1.00  0.00     0.029 A 
ATOM     29  N   UNL A   1      41.667  29.308  32.603  1.00  0.00    -0.354 N 
ATOM     30  N   UNL A   1      41.160  31.138  34.850  1.00  0.00    -0.248 NA
ATOM     31  C   UNL A   1      41.611  31.840  37.032  1.00  0.00     0.031 C 
ATOM     32  C   UNL A   1      43.382  27.906  32.765  1.00  0.00     0.029 A 
ATOM     33  C   UNL A   1      42.701  28.911  33.434  1.00  0.00     0.049 A 
ATOM     34  H   UNL A   1      41.007  30.006  32.817  1.00  0.00     0.167 HD
ATOM     35  C   UNL A   1      42.260  30.444  35.332  1.00  0.00     0.074 A 
ATOM     36  C   UNL A   1      42.525  30.956  36.662  1.00  0.00     0.031 C 
ATOM     37  C   UNL A   1      42.976  29.459  34.738  1.00  0.00     0.034 A 
BRANCH  24  38
ATOM     38  C   UNL A   1      40.902  27.792  29.158  1.00  0.00     0.023 A 
ATOM     39  C   UNL A   1      40.159  26.595  29.099  1.00  0.00     0.012 A 
ATOM     40  C   UNL A   1      41.709  28.157  28.062  1.00  0.00     0.148 A 
ATOM     41  C   UNL A   1      40.234  25.766  27.980  1.00  0.00     0.002 A 
ATOM     42  C   UNL A   1      41.745  27.348  26.932  1.00  0.00     0.091 A 
ATOM     43  F   UNL A   1      42.419  29.291  28.143  1.00  0.00    -0.205 F 
ATOM     44  C   UNL A   1      41.017  26.148  26.893  1.00  0.00     0.022 A 
BRANCH  42  45
ATOM     45  S   UNL A   1      42.659  27.787  25.448  1.00  0.00     0.127 S 
ATOM     46  O   UNL A   1      42.464  26.596  24.622  1.00  0.00    -0.237 OA
ATOM     47  O   UNL A   1      41.939  28.973  24.986  1.00  0.00    -0.237 OA
ATOM     48  O   UNL A   1      44.029  28.029  25.875  1.00  0.00    -0.744 OA
ENDBRANCH  42  45
ENDBRANCH  24  38
BRANCH  25  49
ATOM     49  C   UNL A   1      39.453  33.826  37.018  1.00  0.00     0.023 A 
ATOM     50  C   UNL A   1      39.851  35.176  37.004  1.00  0.00     0.012 A 
ATOM     51  C   UNL A   1      38.812  33.312  38.163  1.00  0.00     0.148 A 
ATOM     52  C   UNL A   1      39.653  35.986  38.123  1.00  0.00     0.002 A 
ATOM     53  C   UNL A   1      38.558  34.140  39.248  1.00  0.00     0.091 A 
ATOM     54  F   UNL A   1      38.449  32.020  38.162  1.00  0.00    -0.205 F 
ATOM     55  C   UNL A   1      38.998  35.471  39.239  1.00  0.00     0.022 A 
BRANCH  53  56
ATOM     56  S   UNL A   1      37.597  33.597  40.663  1.00  0.00     0.127 S 
ATOM     57  O   UNL A   1      37.463  34.836  41.426  1.00  0.00    -0.237 OA
ATOM     58  O   UNL A   1      36.366  33.126  40.029  1.00  0.00    -0.237 OA
ATOM     59  O   UNL A   1      38.386  32.546  41.292  1.00  0.00    -0.744 OA
ENDBRANCH  53  56
ENDBRANCH  25  49
BRANCH  37  60
ATOM     60  C   UNL A   1      44.141  28.897  35.510  1.00  0.00     0.023 A 
ATOM     61  C   UNL A   1      45.422  29.467  35.369  1.00  0.00     0.012 A 
ATOM     62  C   UNL A   1      43.956  27.823  36.402  1.00  0.00     0.148 A 
ATOM     63  C   UNL A   1      46.510  28.946  36.068  1.00  0.00     0.002 A 
ATOM     64  C   UNL A   1      45.032  27.346  37.138  1.00  0.00     0.091 A 
ATOM     65  F   UNL A   1      42.733  27.283  36.508  1.00  0.00    -0.205 F 
ATOM     66  C   UNL A   1      46.313  27.894  36.959  1.00  0.00     0.022 A 
BRANCH  64  67
ATOM     67  S   UNL A   1      44.856  26.063  38.381  1.00  0.00     0.127 S 
ATOM     68  O   UNL A   1      46.251  25.744  38.680  1.00  0.00    -0.237 OA
ATOM     69  O   UNL A   1      44.148  26.766  39.451  1.00  0.00    -0.237 OA
ATOM     70  O   UNL A   1      44.093  24.994  37.750  1.00  0.00    -0.744 OA
ENDBRANCH  64  67
ENDBRANCH  37  60
ENDBRANCH  11  12
ENDBRANCH   4   6
ENDBRANCH   1   2
BRANCH   1  71
ATOM     71  C   UNL A   1      31.444  32.028  26.596  1.00  0.00     0.042 C 
BRANCH  71  72
ATOM     72  C   UNL A   1      31.534  30.527  26.355  1.00  0.00     0.117 C 
BRANCH  72  73
ATOM     73  N   UNL A   1      31.491  30.200  24.947  1.00  0.00    -0.354 N 
ATOM     74  C   UNL A   1      31.215  29.026  24.314  1.00  0.00     0.249 C 
ATOM     75  H   UNL A   1      31.695  30.951  24.345  1.00  0.00     0.163 HD
ATOM     76  O   UNL A   1      31.226  29.047  23.078  1.00  0.00    -0.272 OA
BRANCH  74  77
ATOM     77  C   UNL A   1      30.914  27.707  25.069  1.00  0.00     0.207 C 
ATOM     78  C   UNL A   1      30.073  26.703  24.308  1.00  0.00     0.045 C 
ATOM     79  O   UNL A   1      32.049  27.023  25.598  1.00  0.00    -0.363 OA
ATOM     80  C   UNL A   1      30.973  25.517  24.083  1.00  0.00     0.037 C 
ATOM     81  C   UNL A   1      32.135  25.702  25.053  1.00  0.00     0.139 C 
BRANCH  81  82
ATOM     82  C   UNL A   1      32.198  24.641  26.166  1.00  0.00     0.161 C 
BRANCH  82  83
ATOM     83  N   UNL A   1      32.540  23.341  25.608  1.00  0.00    -0.270 N 
ATOM     84  C   UNL A   1      33.799  22.974  25.228  1.00  0.00     0.263 C 
ATOM     85  C   UNL A   1      31.673  22.275  25.591  1.00  0.00     0.280 C 
ATOM     86  O   UNL A   1      34.805  23.655  25.137  1.00  0.00    -0.269 OA
ATOM     87  C   UNL A   1      33.768  21.538  25.001  1.00  0.00     0.071 A 
ATOM     88  C   UNL A   1      32.477  21.110  25.197  1.00  0.00     0.141 A 
ATOM     89  O   UNL A   1      30.496  22.269  25.900  1.00  0.00    -0.267 OA
ATOM     90  C   UNL A   1      34.769  20.627  24.749  1.00  0.00     0.018 A 
ATOM     91  N   UNL A   1      32.060  19.832  25.162  1.00  0.00    -0.250 NA
ATOM     92  C   UNL A   1      34.393  19.283  24.705  1.00  0.00     0.021 A 
ATOM     93  C   UNL A   1      33.048  18.939  24.912  1.00  0.00     0.112 A 
ENDBRANCH  82  83
ENDBRANCH  81  82
ENDBRANCH  74  77
ENDBRANCH  72  73
ENDBRANCH  71  72
ENDBRANCH   1  71
TORSDOF 15
ENDMDL
