MODEL 1
REMARK VINA RESULT:     -11.2      0.000      0.000
REMARK SMILES CCc1ccsc1C(=O)N(CC(=O)NCCCNC(=O)c1ccc(-c2c3nc(c(-c4cccc(S(=O)(=O)[O-])c4F)c4ccc([nH]4)c(-c4cccc(S(=O)(=O)[O-])c4F)c4nc(c(-c5cccc(S(=O)(=O)[O-])c5F)c5ccc2[nH]5)C=C4)C=C3)cc1)c1ccccc1N
REMARK SMILES IDX 15 1 14 2 12 3 13 4 11 6 10 7 8 8 9 9 7 10 3 11 4 12 5 13
REMARK SMILES IDX 6 14 2 15 1 16 84 17 85 18 89 19 86 20 88 21 87 22 90 23
REMARK SMILES IDX 16 26 17 27 18 28 19 29 20 31 21 32 22 33 83 34 23 35 82 36
REMARK SMILES IDX 24 37 25 38 26 39 76 40 27 41 81 42 75 43 77 44 28 45 80 46
REMARK SMILES IDX 74 47 73 48 29 50 61 51 41 52 60 53 42 54 45 55 59 56 78 57
REMARK SMILES IDX 43 58 44 59 58 61 79 62 46 63 30 64 31 65 39 66 32 67 34 68
REMARK SMILES IDX 40 69 33 70 35 71 36 72 37 73 38 74 62 75 63 76 71 77 64 78
REMARK SMILES IDX 66 79 72 80 65 81 67 82 68 83 69 84 70 85 47 86 48 87 56 88
REMARK SMILES IDX 49 89 51 90 57 91 50 92 52 93 53 94 54 95 55 96
REMARK H PARENT 14 5 90 24 90 25 18 30 77 49 45 60
REMARK Flexibility Score: inf
ROOT
ATOM      1  C   UNL A   1      31.835  30.347  26.546  1.00  0.00     0.117 C 
ENDROOT
BRANCH   1   2
ATOM      2  N   UNL A   1      33.213  29.946  26.709  1.00  0.00    -0.354 N 
ATOM      3  C   UNL A   1      33.765  28.708  26.612  1.00  0.00     0.240 C 
ATOM      4  O   UNL A   1      34.997  28.633  26.653  1.00  0.00    -0.273 OA
ATOM      5  H   UNL A   1      33.843  30.673  26.921  1.00  0.00     0.163 HD
BRANCH   3   6
ATOM      6  C   UNL A   1      32.921  27.478  26.260  1.00  0.00     0.226 C 
BRANCH   6   7
ATOM      7  N   UNL A   1      32.738  26.943  24.911  1.00  0.00    -0.296 N 
BRANCH   7   8
ATOM      8  C   UNL A   1      33.540  25.917  24.330  1.00  0.00     0.269 C 
ATOM      9  O   UNL A   1      34.126  26.187  23.272  1.00  0.00    -0.268 OA
BRANCH   8  10
ATOM     10  C   UNL A   1      33.829  24.561  24.928  1.00  0.00     0.096 A 
ATOM     11  C   UNL A   1      34.886  23.653  25.135  1.00  0.00    -0.025 A 
ATOM     12  C   UNL A   1      34.441  22.455  25.824  1.00  0.00     0.016 A 
ATOM     13  C   UNL A   1      33.118  22.457  26.156  1.00  0.00     0.066 A 
ATOM     14  S   UNL A   1      32.357  23.866  25.635  1.00  0.00    -0.138 S 
BRANCH  11  15
ATOM     15  C   UNL A   1      36.355  23.707  24.786  1.00  0.00     0.034 C 
ATOM     16  C   UNL A   1      37.230  23.752  26.045  1.00  0.00     0.009 C 
ENDBRANCH  11  15
ENDBRANCH   8  10
ENDBRANCH   7   8
BRANCH   7  17
ATOM     17  C   UNL A   1      31.563  27.494  24.201  1.00  0.00     0.068 A 
ATOM     18  C   UNL A   1      30.302  26.884  24.400  1.00  0.00     0.028 A 
ATOM     19  C   UNL A   1      31.602  28.572  23.272  1.00  0.00     0.056 A 
ATOM     20  C   UNL A   1      29.154  27.264  23.698  1.00  0.00     0.002 A 
ATOM     21  C   UNL A   1      30.442  28.907  22.539  1.00  0.00     0.028 A 
ATOM     22  C   UNL A   1      29.226  28.270  22.754  1.00  0.00     0.002 A 
BRANCH  19  23
ATOM     23  N   UNL A   1      32.784  29.220  22.867  1.00  0.00    -0.397 N 
ATOM     24  H   UNL A   1      32.985  30.127  23.195  1.00  0.00     0.156 HD
ATOM     25  H   UNL A   1      33.410  28.767  22.257  1.00  0.00     0.156 HD
ENDBRANCH  19  23
ENDBRANCH   7  17
ENDBRANCH   6   7
ENDBRANCH   3   6
ENDBRANCH   1   2
BRANCH   1  26
ATOM     26  C   UNL A   1      31.652  31.846  26.689  1.00  0.00     0.042 C 
BRANCH  26  27
ATOM     27  C   UNL A   1      32.785  32.502  27.463  1.00  0.00     0.118 C 
BRANCH  27  28
ATOM     28  N   UNL A   1      32.558  33.926  27.689  1.00  0.00    -0.352 N 
ATOM     29  C   UNL A   1      33.147  34.767  28.604  1.00  0.00     0.251 C 
ATOM     30  H   UNL A   1      31.888  34.345  27.101  1.00  0.00     0.163 HD
ATOM     31  O   UNL A   1      32.711  35.891  28.778  1.00  0.00    -0.269 OA
BRANCH  29  32
ATOM     32  C   UNL A   1      34.308  34.278  29.375  1.00  0.00     0.039 A 
ATOM     33  C   UNL A   1      34.093  33.482  30.501  1.00  0.00     0.014 A 
ATOM     34  C   UNL A   1      35.605  34.593  28.962  1.00  0.00     0.014 A 
ATOM     35  C   UNL A   1      35.188  32.952  31.186  1.00  0.00     0.010 A 
ATOM     36  C   UNL A   1      36.687  33.994  29.589  1.00  0.00     0.010 A 
ATOM     37  C   UNL A   1      36.491  33.180  30.716  1.00  0.00    -0.014 A 
BRANCH  37  38
ATOM     38  C   UNL A   1      37.681  32.607  31.387  1.00  0.00     0.031 A 
ATOM     39  C   UNL A   1      38.405  31.454  30.748  1.00  0.00     0.074 A 
ATOM     40  C   UNL A   1      38.029  33.037  32.616  1.00  0.00     0.049 A 
ATOM     41  N   UNL A   1      39.368  30.714  31.230  1.00  0.00    -0.248 NA
ATOM     42  C   UNL A   1      37.957  31.053  29.403  1.00  0.00     0.031 C 
ATOM     43  C   UNL A   1      37.353  34.095  33.368  1.00  0.00     0.029 A 
ATOM     44  N   UNL A   1      39.015  32.604  33.465  1.00  0.00    -0.354 N 
ATOM     45  C   UNL A   1      39.601  29.731  30.276  1.00  0.00     0.074 A 
ATOM     46  C   UNL A   1      38.658  29.948  29.201  1.00  0.00     0.031 C 
ATOM     47  C   UNL A   1      37.940  34.226  34.568  1.00  0.00     0.029 A 
ATOM     48  C   UNL A   1      39.010  33.242  34.684  1.00  0.00     0.049 A 
ATOM     49  H   UNL A   1      39.665  31.905  33.226  1.00  0.00     0.167 HD
ATOM     50  C   UNL A   1      40.535  28.752  30.281  1.00  0.00     0.034 A 
ATOM     51  C   UNL A   1      39.775  33.043  35.776  1.00  0.00     0.034 A 
ATOM     52  C   UNL A   1      41.509  28.583  31.323  1.00  0.00     0.049 A 
ATOM     53  C   UNL A   1      40.850  31.992  35.730  1.00  0.00     0.074 A 
ATOM     54  C   UNL A   1      42.562  27.690  31.380  1.00  0.00     0.029 A 
ATOM     55  N   UNL A   1      41.549  29.329  32.492  1.00  0.00    -0.354 N 
ATOM     56  N   UNL A   1      41.156  31.167  34.757  1.00  0.00    -0.248 NA
ATOM     57  C   UNL A   1      41.710  31.865  36.916  1.00  0.00     0.031 C 
ATOM     58  C   UNL A   1      43.231  27.885  32.594  1.00  0.00     0.029 A 
ATOM     59  C   UNL A   1      42.609  28.915  33.279  1.00  0.00     0.049 A 
ATOM     60  H   UNL A   1      40.917  30.046  32.727  1.00  0.00     0.167 HD
ATOM     61  C   UNL A   1      42.267  30.455  35.195  1.00  0.00     0.074 A 
ATOM     62  C   UNL A   1      42.587  30.953  36.517  1.00  0.00     0.031 C 
ATOM     63  C   UNL A   1      42.952  29.471  34.563  1.00  0.00     0.034 A 
BRANCH  50  64
ATOM     64  C   UNL A   1      40.582  27.825  29.095  1.00  0.00     0.023 A 
ATOM     65  C   UNL A   1      39.661  26.762  29.005  1.00  0.00     0.012 A 
ATOM     66  C   UNL A   1      41.505  28.028  28.050  1.00  0.00     0.148 A 
ATOM     67  C   UNL A   1      39.683  25.891  27.916  1.00  0.00     0.002 A 
ATOM     68  C   UNL A   1      41.491  27.184  26.946  1.00  0.00     0.091 A 
ATOM     69  F   UNL A   1      42.390  29.029  28.162  1.00  0.00    -0.205 F 
ATOM     70  C   UNL A   1      40.591  26.108  26.884  1.00  0.00     0.022 A 
BRANCH  68  71
ATOM     71  S   UNL A   1      42.565  27.431  25.527  1.00  0.00     0.127 S 
ATOM     72  O   UNL A   1      43.883  27.470  26.158  1.00  0.00    -0.237 OA
ATOM     73  O   UNL A   1      42.306  26.231  24.731  1.00  0.00    -0.237 OA
ATOM     74  O   UNL A   1      42.128  28.674  24.906  1.00  0.00    -0.744 OA
ENDBRANCH  68  71
ENDBRANCH  50  64
BRANCH  51  75
ATOM     75  C   UNL A   1      39.599  33.914  36.972  1.00  0.00     0.023 A 
ATOM     76  C   UNL A   1      39.992  35.264  36.903  1.00  0.00     0.012 A 
ATOM     77  C   UNL A   1      39.011  33.430  38.157  1.00  0.00     0.148 A 
ATOM     78  C   UNL A   1      39.829  36.111  38.000  1.00  0.00     0.002 A 
ATOM     79  C   UNL A   1      38.806  34.291  39.230  1.00  0.00     0.091 A 
ATOM     80  F   UNL A   1      38.651  32.139  38.205  1.00  0.00    -0.205 F 
ATOM     81  C   UNL A   1      39.227  35.627  39.158  1.00  0.00     0.022 A 
BRANCH  79  82
ATOM     82  S   UNL A   1      37.930  33.793  40.717  1.00  0.00     0.127 S 
ATOM     83  O   UNL A   1      38.835  32.790  41.274  1.00  0.00    -0.237 OA
ATOM     84  O   UNL A   1      37.866  35.049  41.464  1.00  0.00    -0.237 OA
ATOM     85  O   UNL A   1      36.638  33.294  40.265  1.00  0.00    -0.744 OA
ENDBRANCH  79  82
ENDBRANCH  51  75
BRANCH  63  86
ATOM     86  C   UNL A   1      44.154  28.893  35.260  1.00  0.00     0.023 A 
ATOM     87  C   UNL A   1      45.421  29.480  35.077  1.00  0.00     0.012 A 
ATOM     88  C   UNL A   1      44.004  27.835  36.179  1.00  0.00     0.148 A 
ATOM     89  C   UNL A   1      46.527  29.006  35.784  1.00  0.00     0.002 A 
ATOM     90  C   UNL A   1      45.100  27.403  36.915  1.00  0.00     0.091 A 
ATOM     91  F   UNL A   1      42.792  27.281  36.324  1.00  0.00    -0.205 F 
ATOM     92  C   UNL A   1      46.364  27.980  36.711  1.00  0.00     0.022 A 
BRANCH  90  93
ATOM     93  S   UNL A   1      44.963  26.157  38.202  1.00  0.00     0.127 S 
ATOM     94  O   UNL A   1      44.017  26.785  39.123  1.00  0.00    -0.237 OA
ATOM     95  O   UNL A   1      44.431  25.009  37.468  1.00  0.00    -0.237 OA
ATOM     96  O   UNL A   1      46.310  25.969  38.725  1.00  0.00    -0.744 OA
ENDBRANCH  90  93
ENDBRANCH  63  86
ENDBRANCH  37  38
ENDBRANCH  29  32
ENDBRANCH  27  28
ENDBRANCH  26  27
ENDBRANCH   1  26
TORSDOF 19
ENDMDL
MODEL 2
REMARK VINA RESULT:     -11.0      5.852     11.875
REMARK SMILES CCc1ccsc1C(=O)N(CC(=O)NCCCNC(=O)c1ccc(-c2c3nc(c(-c4cccc(S(=O)(=O)[O-])c4F)c4ccc([nH]4)c(-c4cccc(S(=O)(=O)[O-])c4F)c4nc(c(-c5cccc(S(=O)(=O)[O-])c5F)c5ccc2[nH]5)C=C4)C=C3)cc1)c1ccccc1N
REMARK SMILES IDX 15 1 14 2 12 3 13 4 11 6 10 7 8 8 9 9 7 10 3 11 4 12 5 13
REMARK SMILES IDX 6 14 2 15 1 16 84 17 85 18 89 19 86 20 88 21 87 22 90 23
REMARK SMILES IDX 16 26 17 27 18 28 19 29 20 31 21 32 22 33 83 34 23 35 82 36
REMARK SMILES IDX 24 37 25 38 26 39 76 40 27 41 81 42 75 43 77 44 28 45 80 46
REMARK SMILES IDX 74 47 73 48 29 50 61 51 41 52 60 53 42 54 45 55 59 56 78 57
REMARK SMILES IDX 43 58 44 59 58 61 79 62 46 63 30 64 31 65 39 66 32 67 34 68
REMARK SMILES IDX 40 69 33 70 35 71 36 72 37 73 38 74 62 75 63 76 71 77 64 78
REMARK SMILES IDX 66 79 72 80 65 81 67 82 68 83 69 84 70 85 47 86 48 87 56 88
REMARK SMILES IDX 49 89 51 90 57 91 50 92 52 93 53 94 54 95 55 96
REMARK H PARENT 14 5 90 24 90 25 18 30 77 49 45 60
REMARK Flexibility Score: inf
ROOT
ATOM      1  C   UNL A   1      37.026  20.593  25.048  1.00  0.00     0.117 C 
ENDROOT
BRANCH   1   2
ATOM      2  N   UNL A   1      37.020  21.496  23.921  1.00  0.00    -0.354 N 
ATOM      3  C   UNL A   1      36.350  22.667  23.761  1.00  0.00     0.240 C 
ATOM      4  O   UNL A   1      36.614  23.338  22.759  1.00  0.00    -0.273 OA
ATOM      5  H   UNL A   1      37.582  21.224  23.159  1.00  0.00     0.163 HD
BRANCH   3   6
ATOM      6  C   UNL A   1      35.456  23.238  24.867  1.00  0.00     0.226 C 
BRANCH   6   7
ATOM      7  N   UNL A   1      33.995  23.153  24.893  1.00  0.00    -0.296 N 
BRANCH   7   8
ATOM      8  C   UNL A   1      33.123  24.264  25.090  1.00  0.00     0.269 C 
ATOM      9  O   UNL A   1      32.166  24.102  25.860  1.00  0.00    -0.268 OA
BRANCH   8  10
ATOM     10  C   UNL A   1      33.304  25.654  24.530  1.00  0.00     0.096 A 
ATOM     11  C   UNL A   1      33.504  26.987  24.939  1.00  0.00    -0.025 A 
ATOM     12  C   UNL A   1      33.602  27.891  23.806  1.00  0.00     0.016 A 
ATOM     13  C   UNL A   1      33.514  27.278  22.591  1.00  0.00     0.066 A 
ATOM     14  S   UNL A   1      33.280  25.618  22.756  1.00  0.00    -0.138 S 
BRANCH  11  15
ATOM     15  C   UNL A   1      33.640  27.622  26.303  1.00  0.00     0.034 C 
ATOM     16  C   UNL A   1      32.463  28.558  26.607  1.00  0.00     0.009 C 
ENDBRANCH  11  15
ENDBRANCH   8  10
ENDBRANCH   7   8
BRANCH   7  17
ATOM     17  C   UNL A   1      33.467  21.805  24.596  1.00  0.00     0.068 A 
ATOM     18  C   UNL A   1      32.902  21.562  23.322  1.00  0.00     0.028 A 
ATOM     19  C   UNL A   1      33.426  20.722  25.520  1.00  0.00     0.056 A 
ATOM     20  C   UNL A   1      32.283  20.354  22.981  1.00  0.00     0.002 A 
ATOM     21  C   UNL A   1      32.755  19.529  25.172  1.00  0.00     0.028 A 
ATOM     22  C   UNL A   1      32.198  19.338  23.913  1.00  0.00     0.002 A 
BRANCH  19  23
ATOM     23  N   UNL A   1      33.838  20.817  26.863  1.00  0.00    -0.397 N 
ATOM     24  H   UNL A   1      33.672  21.645  27.371  1.00  0.00     0.156 HD
ATOM     25  H   UNL A   1      34.290  20.057  27.294  1.00  0.00     0.156 HD
ENDBRANCH  19  23
ENDBRANCH   7  17
ENDBRANCH   6   7
ENDBRANCH   3   6
ENDBRANCH   1   2
BRANCH   1  26
ATOM     26  C   UNL A   1      38.215  19.650  25.024  1.00  0.00     0.042 C 
BRANCH  26  27
ATOM     27  C   UNL A   1      39.331  20.094  25.958  1.00  0.00     0.118 C 
BRANCH  27  28
ATOM     28  N   UNL A   1      40.475  19.189  25.931  1.00  0.00    -0.352 N 
ATOM     29  C   UNL A   1      41.816  19.479  26.022  1.00  0.00     0.251 C 
ATOM     30  H   UNL A   1      40.256  18.233  25.836  1.00  0.00     0.163 HD
ATOM     31  O   UNL A   1      42.650  18.618  25.801  1.00  0.00    -0.269 OA
BRANCH  29  32
ATOM     32  C   UNL A   1      42.225  20.853  26.380  1.00  0.00     0.039 A 
ATOM     33  C   UNL A   1      42.483  21.161  27.716  1.00  0.00     0.014 A 
ATOM     34  C   UNL A   1      42.372  21.820  25.384  1.00  0.00     0.014 A 
ATOM     35  C   UNL A   1      42.947  22.435  28.049  1.00  0.00     0.010 A 
ATOM     36  C   UNL A   1      42.917  23.055  25.704  1.00  0.00     0.010 A 
ATOM     37  C   UNL A   1      43.195  23.380  27.041  1.00  0.00    -0.014 A 
BRANCH  37  38
ATOM     38  C   UNL A   1      43.722  24.732  27.342  1.00  0.00     0.031 A 
ATOM     39  C   UNL A   1      42.788  25.789  27.862  1.00  0.00     0.074 A 
ATOM     40  C   UNL A   1      44.997  25.038  27.032  1.00  0.00     0.049 A 
ATOM     41  N   UNL A   1      43.005  27.065  28.048  1.00  0.00    -0.248 NA
ATOM     42  C   UNL A   1      41.413  25.364  28.176  1.00  0.00     0.031 C 
ATOM     43  C   UNL A   1      45.974  24.115  26.449  1.00  0.00     0.029 A 
ATOM     44  N   UNL A   1      45.677  26.225  27.125  1.00  0.00    -0.354 N 
ATOM     45  C   UNL A   1      41.786  27.601  28.443  1.00  0.00     0.074 A 
ATOM     46  C   UNL A   1      40.825  26.520  28.441  1.00  0.00     0.031 C 
ATOM     47  C   UNL A   1      47.124  24.772  26.232  1.00  0.00     0.029 A 
ATOM     48  C   UNL A   1      46.958  26.166  26.628  1.00  0.00     0.049 A 
ATOM     49  H   UNL A   1      45.286  27.042  27.510  1.00  0.00     0.167 HD
ATOM     50  C   UNL A   1      41.499  28.873  28.805  1.00  0.00     0.034 A 
ATOM     51  C   UNL A   1      47.888  27.133  26.495  1.00  0.00     0.034 A 
ATOM     52  C   UNL A   1      42.474  29.925  28.865  1.00  0.00     0.049 A 
ATOM     53  C   UNL A   1      47.564  28.524  26.965  1.00  0.00     0.074 A 
ATOM     54  C   UNL A   1      42.314  31.223  29.313  1.00  0.00     0.029 A 
ATOM     55  N   UNL A   1      43.797  29.797  28.467  1.00  0.00    -0.354 N 
ATOM     56  N   UNL A   1      46.447  28.982  27.479  1.00  0.00    -0.248 NA
ATOM     57  C   UNL A   1      48.635  29.527  26.872  1.00  0.00     0.031 C 
ATOM     58  C   UNL A   1      43.537  31.886  29.171  1.00  0.00     0.029 A 
ATOM     59  C   UNL A   1      44.465  30.994  28.657  1.00  0.00     0.049 A 
ATOM     60  H   UNL A   1      44.200  28.977  28.104  1.00  0.00     0.167 HD
ATOM     61  C   UNL A   1      46.694  30.310  27.810  1.00  0.00     0.074 A 
ATOM     62  C   UNL A   1      48.070  30.580  27.448  1.00  0.00     0.031 C 
ATOM     63  C   UNL A   1      45.854  31.223  28.354  1.00  0.00     0.034 A 
BRANCH  50  64
ATOM     64  C   UNL A   1      40.083  29.179  29.217  1.00  0.00     0.023 A 
ATOM     65  C   UNL A   1      39.116  29.465  28.230  1.00  0.00     0.012 A 
ATOM     66  C   UNL A   1      39.696  29.144  30.571  1.00  0.00     0.148 A 
ATOM     67  C   UNL A   1      37.799  29.750  28.585  1.00  0.00     0.002 A 
ATOM     68  C   UNL A   1      38.370  29.384  30.913  1.00  0.00     0.091 A 
ATOM     69  F   UNL A   1      40.631  28.895  31.498  1.00  0.00    -0.205 F 
ATOM     70  C   UNL A   1      37.425  29.700  29.924  1.00  0.00     0.022 A 
BRANCH  68  71
ATOM     71  S   UNL A   1      37.772  29.262  32.603  1.00  0.00     0.127 S 
ATOM     72  O   UNL A   1      36.394  29.730  32.463  1.00  0.00    -0.237 OA
ATOM     73  O   UNL A   1      37.905  27.830  32.876  1.00  0.00    -0.237 OA
ATOM     74  O   UNL A   1      38.647  30.113  33.399  1.00  0.00    -0.744 OA
ENDBRANCH  68  71
ENDBRANCH  50  64
BRANCH  51  75
ATOM     75  C   UNL A   1      49.238  26.794  25.962  1.00  0.00     0.023 A 
ATOM     76  C   UNL A   1      50.119  26.035  26.757  1.00  0.00     0.012 A 
ATOM     77  C   UNL A   1      49.639  27.180  24.669  1.00  0.00     0.148 A 
ATOM     78  C   UNL A   1      51.385  25.688  26.284  1.00  0.00     0.002 A 
ATOM     79  C   UNL A   1      50.883  26.789  24.185  1.00  0.00     0.091 A 
ATOM     80  F   UNL A   1      48.789  27.909  23.931  1.00  0.00    -0.205 F 
ATOM     81  C   UNL A   1      51.763  26.057  24.996  1.00  0.00     0.022 A 
BRANCH  79  82
ATOM     82  S   UNL A   1      51.409  27.110  22.498  1.00  0.00     0.127 S 
ATOM     83  O   UNL A   1      50.234  26.695  21.735  1.00  0.00    -0.237 OA
ATOM     84  O   UNL A   1      51.648  28.553  22.526  1.00  0.00    -0.237 OA
ATOM     85  O   UNL A   1      52.607  26.305  22.298  1.00  0.00    -0.744 OA
ENDBRANCH  79  82
ENDBRANCH  51  75
BRANCH  63  86
ATOM     86  C   UNL A   1      46.401  32.594  28.647  1.00  0.00     0.023 A 
ATOM     87  C   UNL A   1      46.971  32.868  29.905  1.00  0.00     0.012 A 
ATOM     88  C   UNL A   1      46.446  33.574  27.635  1.00  0.00     0.148 A 
ATOM     89  C   UNL A   1      47.558  34.108  30.159  1.00  0.00     0.002 A 
ATOM     90  C   UNL A   1      47.076  34.788  27.880  1.00  0.00     0.091 A 
ATOM     91  F   UNL A   1      45.882  33.296  26.451  1.00  0.00    -0.205 F 
ATOM     92  C   UNL A   1      47.623  35.060  29.144  1.00  0.00     0.022 A 
BRANCH  90  93
ATOM     93  S   UNL A   1      47.297  36.032  26.603  1.00  0.00     0.127 S 
ATOM     94  O   UNL A   1      46.002  36.710  26.622  1.00  0.00    -0.237 OA
ATOM     95  O   UNL A   1      48.408  36.824  27.131  1.00  0.00    -0.237 OA
ATOM     96  O   UNL A   1      47.602  35.303  25.379  1.00  0.00    -0.744 OA
ENDBRANCH  90  93
ENDBRANCH  63  86
ENDBRANCH  37  38
ENDBRANCH  29  32
ENDBRANCH  27  28
ENDBRANCH  26  27
ENDBRANCH   1  26
TORSDOF 19
ENDMDL
MODEL 3
REMARK VINA RESULT:     -10.8      6.501     11.587
REMARK SMILES CCc1ccsc1C(=O)N(CC(=O)NCCCNC(=O)c1ccc(-c2c3nc(c(-c4cccc(S(=O)(=O)[O-])c4F)c4ccc([nH]4)c(-c4cccc(S(=O)(=O)[O-])c4F)c4nc(c(-c5cccc(S(=O)(=O)[O-])c5F)c5ccc2[nH]5)C=C4)C=C3)cc1)c1ccccc1N
REMARK SMILES IDX 15 1 14 2 12 3 13 4 11 6 10 7 8 8 9 9 7 10 3 11 4 12 5 13
REMARK SMILES IDX 6 14 2 15 1 16 84 17 85 18 89 19 86 20 88 21 87 22 90 23
REMARK SMILES IDX 16 26 17 27 18 28 19 29 20 31 21 32 22 33 83 34 23 35 82 36
REMARK SMILES IDX 24 37 25 38 26 39 76 40 27 41 81 42 75 43 77 44 28 45 80 46
REMARK SMILES IDX 74 47 73 48 29 50 61 51 41 52 60 53 42 54 45 55 59 56 78 57
REMARK SMILES IDX 43 58 44 59 58 61 79 62 46 63 30 64 31 65 39 66 32 67 34 68
REMARK SMILES IDX 40 69 33 70 35 71 36 72 37 73 38 74 62 75 63 76 71 77 64 78
REMARK SMILES IDX 66 79 72 80 65 81 67 82 68 83 69 84 70 85 47 86 48 87 56 88
REMARK SMILES IDX 49 89 51 90 57 91 50 92 52 93 53 94 54 95 55 96
REMARK H PARENT 14 5 90 24 90 25 18 30 77 49 45 60
REMARK Flexibility Score: inf
ROOT
ATOM      1  C   UNL A   1      36.851  20.585  25.047  1.00  0.00     0.117 C 
ENDROOT
BRANCH   1   2
ATOM      2  N   UNL A   1      36.815  21.557  23.979  1.00  0.00    -0.354 N 
ATOM      3  C   UNL A   1      36.073  22.691  23.873  1.00  0.00     0.240 C 
ATOM      4  O   UNL A   1      36.319  23.442  22.925  1.00  0.00    -0.273 OA
ATOM      5  H   UNL A   1      37.414  21.373  23.219  1.00  0.00     0.163 HD
BRANCH   3   6
ATOM      6  C   UNL A   1      35.114  23.130  24.986  1.00  0.00     0.226 C 
BRANCH   6   7
ATOM      7  N   UNL A   1      33.672  22.882  24.997  1.00  0.00    -0.296 N 
BRANCH   7   8
ATOM      8  C   UNL A   1      32.678  23.891  25.158  1.00  0.00     0.269 C 
ATOM      9  O   UNL A   1      31.832  23.715  26.046  1.00  0.00    -0.268 OA
BRANCH   8  10
ATOM     10  C   UNL A   1      32.610  25.206  24.419  1.00  0.00     0.096 A 
ATOM     11  C   UNL A   1      32.920  26.571  24.574  1.00  0.00    -0.025 A 
ATOM     12  C   UNL A   1      32.573  27.341  23.392  1.00  0.00     0.016 A 
ATOM     13  C   UNL A   1      32.055  26.598  22.372  1.00  0.00     0.066 A 
ATOM     14  S   UNL A   1      31.934  24.973  22.796  1.00  0.00    -0.138 S 
BRANCH  11  15
ATOM     15  C   UNL A   1      33.536  27.351  25.712  1.00  0.00     0.034 C 
ATOM     16  C   UNL A   1      32.570  28.410  26.256  1.00  0.00     0.009 C 
ENDBRANCH  11  15
ENDBRANCH   8  10
ENDBRANCH   7   8
BRANCH   7  17
ATOM     17  C   UNL A   1      33.303  21.476  24.726  1.00  0.00     0.068 A 
ATOM     18  C   UNL A   1      32.842  21.132  23.433  1.00  0.00     0.028 A 
ATOM     19  C   UNL A   1      33.318  20.427  25.688  1.00  0.00     0.056 A 
ATOM     20  C   UNL A   1      32.371  19.856  23.107  1.00  0.00     0.002 A 
ATOM     21  C   UNL A   1      32.794  19.159  25.352  1.00  0.00     0.028 A 
ATOM     22  C   UNL A   1      32.335  18.869  24.073  1.00  0.00     0.002 A 
BRANCH  19  23
ATOM     23  N   UNL A   1      33.637  20.610  27.047  1.00  0.00    -0.397 N 
ATOM     24  H   UNL A   1      33.188  20.066  27.735  1.00  0.00     0.156 HD
ATOM     25  H   UNL A   1      34.309  21.280  27.309  1.00  0.00     0.156 HD
ENDBRANCH  19  23
ENDBRANCH   7  17
ENDBRANCH   6   7
ENDBRANCH   3   6
ENDBRANCH   1   2
BRANCH   1  26
ATOM     26  C   UNL A   1      38.078  19.696  24.975  1.00  0.00     0.042 C 
BRANCH  26  27
ATOM     27  C   UNL A   1      39.110  20.039  26.038  1.00  0.00     0.118 C 
BRANCH  27  28
ATOM     28  N   UNL A   1      40.302  19.201  25.952  1.00  0.00    -0.352 N 
ATOM     29  C   UNL A   1      41.627  19.563  26.020  1.00  0.00     0.251 C 
ATOM     30  H   UNL A   1      40.133  18.238  25.828  1.00  0.00     0.163 HD
ATOM     31  O   UNL A   1      42.501  18.757  25.749  1.00  0.00    -0.269 OA
BRANCH  29  32
ATOM     32  C   UNL A   1      41.968  20.944  26.417  1.00  0.00     0.039 A 
ATOM     33  C   UNL A   1      42.223  21.225  27.760  1.00  0.00     0.014 A 
ATOM     34  C   UNL A   1      42.056  21.948  25.449  1.00  0.00     0.014 A 
ATOM     35  C   UNL A   1      42.625  22.511  28.127  1.00  0.00     0.010 A 
ATOM     36  C   UNL A   1      42.540  23.198  25.803  1.00  0.00     0.010 A 
ATOM     37  C   UNL A   1      42.814  23.497  27.147  1.00  0.00    -0.014 A 
BRANCH  37  38
ATOM     38  C   UNL A   1      43.275  24.865  27.484  1.00  0.00     0.031 A 
ATOM     39  C   UNL A   1      42.302  25.845  28.078  1.00  0.00     0.074 A 
ATOM     40  C   UNL A   1      44.518  25.256  27.143  1.00  0.00     0.049 A 
ATOM     41  N   UNL A   1      42.453  27.123  28.308  1.00  0.00    -0.248 NA
ATOM     42  C   UNL A   1      40.965  25.329  28.421  1.00  0.00     0.031 C 
ATOM     43  C   UNL A   1      45.524  24.415  26.490  1.00  0.00     0.029 A 
ATOM     44  N   UNL A   1      45.133  26.476  27.261  1.00  0.00    -0.354 N 
ATOM     45  C   UNL A   1      41.221  27.571  28.767  1.00  0.00     0.074 A 
ATOM     46  C   UNL A   1      40.323  26.438  28.753  1.00  0.00     0.031 C 
ATOM     47  C   UNL A   1      46.626  25.145  26.261  1.00  0.00     0.029 A 
ATOM     48  C   UNL A   1      46.396  26.511  26.719  1.00  0.00     0.049 A 
ATOM     49  H   UNL A   1      44.710  27.253  27.693  1.00  0.00     0.167 HD
ATOM     50  C   UNL A   1      40.875  28.810  29.189  1.00  0.00     0.034 A 
ATOM     51  C   UNL A   1      47.265  27.534  26.594  1.00  0.00     0.034 A 
ATOM     52  C   UNL A   1      41.791  29.913  29.259  1.00  0.00     0.049 A 
ATOM     53  C   UNL A   1      46.879  28.885  27.131  1.00  0.00     0.074 A 
ATOM     54  C   UNL A   1      41.573  31.182  29.765  1.00  0.00     0.029 A 
ATOM     55  N   UNL A   1      43.103  29.878  28.812  1.00  0.00    -0.354 N 
ATOM     56  N   UNL A   1      45.758  29.257  27.701  1.00  0.00    -0.248 NA
ATOM     57  C   UNL A   1      47.888  29.951  27.042  1.00  0.00     0.031 C 
ATOM     58  C   UNL A   1      42.752  31.920  29.608  1.00  0.00     0.029 A 
ATOM     59  C   UNL A   1      43.709  31.103  29.027  1.00  0.00     0.049 A 
ATOM     60  H   UNL A   1      43.539  29.097  28.401  1.00  0.00     0.167 HD
ATOM     61  C   UNL A   1      45.941  30.583  28.077  1.00  0.00     0.074 A 
ATOM     62  C   UNL A   1      47.286  30.947  27.679  1.00  0.00     0.031 C 
ATOM     63  C   UNL A   1      45.070  31.425  28.686  1.00  0.00     0.034 A 
BRANCH  50  64
ATOM     64  C   UNL A   1      39.460  29.017  29.661  1.00  0.00     0.023 A 
ATOM     65  C   UNL A   1      39.100  28.639  30.972  1.00  0.00     0.012 A 
ATOM     66  C   UNL A   1      38.498  29.622  28.829  1.00  0.00     0.148 A 
ATOM     67  C   UNL A   1      37.797  28.821  31.432  1.00  0.00     0.002 A 
ATOM     68  C   UNL A   1      37.213  29.843  29.312  1.00  0.00     0.091 A 
ATOM     69  F   UNL A   1      38.849  29.953  27.579  1.00  0.00    -0.205 F 
ATOM     70  C   UNL A   1      36.858  29.431  30.606  1.00  0.00     0.022 A 
BRANCH  68  71
ATOM     71  S   UNL A   1      35.954  30.695  28.354  1.00  0.00     0.127 S 
ATOM     72  O   UNL A   1      34.919  30.920  29.361  1.00  0.00    -0.237 OA
ATOM     73  O   UNL A   1      36.659  31.903  27.923  1.00  0.00    -0.237 OA
ATOM     74  O   UNL A   1      35.592  29.788  27.273  1.00  0.00    -0.744 OA
ENDBRANCH  68  71
ENDBRANCH  50  64
BRANCH  51  75
ATOM     75  C   UNL A   1      48.611  27.295  26.002  1.00  0.00     0.023 A 
ATOM     76  C   UNL A   1      49.642  26.797  26.821  1.00  0.00     0.012 A 
ATOM     77  C   UNL A   1      48.866  27.517  24.635  1.00  0.00     0.148 A 
ATOM     78  C   UNL A   1      50.912  26.550  26.297  1.00  0.00     0.002 A 
ATOM     79  C   UNL A   1      50.119  27.221  24.108  1.00  0.00     0.091 A 
ATOM     80  F   UNL A   1      47.873  27.998  23.873  1.00  0.00    -0.205 F 
ATOM     81  C   UNL A   1      51.146  26.752  24.940  1.00  0.00     0.022 A 
BRANCH  79  82
ATOM     82  S   UNL A   1      50.481  27.332  22.352  1.00  0.00     0.127 S 
ATOM     83  O   UNL A   1      51.852  26.828  22.298  1.00  0.00    -0.237 OA
ATOM     84  O   UNL A   1      49.474  26.439  21.779  1.00  0.00    -0.237 OA
ATOM     85  O   UNL A   1      50.311  28.735  22.003  1.00  0.00    -0.744 OA
ENDBRANCH  79  82
ENDBRANCH  51  75
BRANCH  63  86
ATOM     86  C   UNL A   1      45.550  32.812  29.016  1.00  0.00     0.023 A 
ATOM     87  C   UNL A   1      46.315  33.034  30.177  1.00  0.00     0.012 A 
ATOM     88  C   UNL A   1      45.330  33.874  28.115  1.00  0.00     0.148 A 
ATOM     89  C   UNL A   1      46.836  34.299  30.448  1.00  0.00     0.002 A 
ATOM     90  C   UNL A   1      45.895  35.118  28.368  1.00  0.00     0.091 A 
ATOM     91  F   UNL A   1      44.585  33.644  27.025  1.00  0.00    -0.205 F 
ATOM     92  C   UNL A   1      46.639  35.335  29.538  1.00  0.00     0.022 A 
BRANCH  90  93
ATOM     93  S   UNL A   1      45.778  36.481  27.203  1.00  0.00     0.127 S 
ATOM     94  O   UNL A   1      46.500  37.538  27.910  1.00  0.00    -0.237 OA
ATOM     95  O   UNL A   1      46.472  35.947  26.030  1.00  0.00    -0.237 OA
ATOM     96  O   UNL A   1      44.355  36.722  27.006  1.00  0.00    -0.744 OA
ENDBRANCH  90  93
ENDBRANCH  63  86
ENDBRANCH  37  38
ENDBRANCH  29  32
ENDBRANCH  27  28
ENDBRANCH  26  27
ENDBRANCH   1  26
TORSDOF 19
ENDMDL
