MODEL 1
REMARK VINA RESULT:     -13.0      0.000      0.000
REMARK SMILES Cc1ccccc1SCC(=O)N[C@H]1C=C[C@H](C(=O)NCCCNC(=O)c2ccc(-c3c4nc(c(-c5cccc(S(=O)(=O)[O-])c5F)c5ccc([nH]5)c(-c5cccc(S(=O)(=O)[O-])c5F)c5nc(c(-c6cccc(S(=O)(=O)[O-])c6F)c6ccc3[nH]6)C=C5)C=C4)cc2)C1
REMARK SMILES IDX 20 1 19 2 17 3 18 4 16 6 13 7 14 8 89 9 15 10 12 11 10 12
REMARK SMILES IDX 11 13 9 15 8 16 7 17 1 18 2 19 3 20 4 21 6 22 5 23 21 24
REMARK SMILES IDX 22 25 23 26 24 27 25 29 26 30 27 31 88 32 28 33 87 34 29 35
REMARK SMILES IDX 30 36 31 37 81 38 32 39 86 40 80 41 82 42 33 43 85 44 79 45
REMARK SMILES IDX 78 46 34 48 66 49 46 50 65 51 47 52 50 53 64 54 83 55 48 56
REMARK SMILES IDX 49 57 63 59 84 60 51 61 35 62 36 63 44 64 37 65 39 66 45 67
REMARK SMILES IDX 38 68 40 69 41 70 42 71 43 72 67 73 68 74 76 75 69 76 71 77
REMARK SMILES IDX 77 78 70 79 72 80 73 81 74 82 75 83 52 84 53 85 61 86 54 87
REMARK SMILES IDX 56 88 62 89 55 90 57 91 58 92 59 93 60 94
REMARK H PARENT 19 5 12 14 23 28 82 47 50 58
REMARK Flexibility Score: inf
ROOT
ATOM      1  C   UNL A   1      33.348  29.908  26.518  1.00  0.00     0.117 C 
ENDROOT
BRANCH   1   2
ATOM      2  N   UNL A   1      33.413  29.389  25.146  1.00  0.00    -0.356 N 
ATOM      3  C   UNL A   1      32.440  28.768  24.402  1.00  0.00     0.227 C 
ATOM      4  O   UNL A   1      32.583  28.675  23.183  1.00  0.00    -0.274 OA
ATOM      5  H   UNL A   1      34.279  29.503  24.693  1.00  0.00     0.163 HD
BRANCH   3   6
ATOM      6  C   UNL A   1      31.204  28.224  25.118  1.00  0.00     0.103 C 
ATOM      7  C   UNL A   1      31.166  25.767  25.415  1.00  0.00     0.106 C 
ATOM      8  C   UNL A   1      30.253  26.219  24.318  1.00  0.00    -0.006 C 
ATOM      9  C   UNL A   1      31.549  27.087  26.098  1.00  0.00     0.047 C 
ATOM     10  C   UNL A   1      30.277  27.547  24.153  1.00  0.00    -0.016 C 
BRANCH   7  11
ATOM     11  N   UNL A   1      30.414  24.867  26.266  1.00  0.00    -0.349 N 
ATOM     12  C   UNL A   1      30.775  23.675  26.811  1.00  0.00     0.230 C 
ATOM     13  O   UNL A   1      29.932  23.103  27.512  1.00  0.00    -0.274 OA
ATOM     14  H   UNL A   1      29.502  25.165  26.483  1.00  0.00     0.164 HD
BRANCH  12  15
ATOM     15  C   UNL A   1      32.184  23.137  26.712  1.00  0.00     0.174 C 
BRANCH  15  16
ATOM     16  S   UNL A   1      32.532  21.970  25.375  1.00  0.00    -0.116 SA
BRANCH  16  17
ATOM     17  C   UNL A   1      34.205  22.191  24.775  1.00  0.00     0.011 A 
ATOM     18  C   UNL A   1      33.917  23.960  22.908  1.00  0.00     0.045 C 
ATOM     19  C   UNL A   1      34.709  22.996  23.739  1.00  0.00    -0.038 A 
ATOM     20  C   UNL A   1      36.088  22.926  23.423  1.00  0.00     0.004 A 
ATOM     21  C   UNL A   1      36.948  22.038  24.064  1.00  0.00     0.000 A 
ATOM     22  C   UNL A   1      35.102  21.297  25.409  1.00  0.00     0.015 A 
ATOM     23  C   UNL A   1      36.450  21.213  25.057  1.00  0.00     0.001 A 
ENDBRANCH  16  17
ENDBRANCH  15  16
ENDBRANCH  12  15
ENDBRANCH   7  11
ENDBRANCH   3   6
ENDBRANCH   1   2
BRANCH   1  24
ATOM     24  C   UNL A   1      34.653  29.813  27.342  1.00  0.00     0.042 C 
BRANCH  24  25
ATOM     25  C   UNL A   1      34.974  31.086  28.126  1.00  0.00     0.118 C 
BRANCH  25  26
ATOM     26  N   UNL A   1      35.091  31.062  29.601  1.00  0.00    -0.352 N 
ATOM     27  C   UNL A   1      36.108  30.533  30.457  1.00  0.00     0.251 C 
ATOM     28  H   UNL A   1      34.338  31.483  30.075  1.00  0.00     0.163 HD
ATOM     29  O   UNL A   1      35.805  30.318  31.629  1.00  0.00    -0.269 OA
BRANCH  27  30
ATOM     30  C   UNL A   1      37.535  30.390  29.970  1.00  0.00     0.039 A 
ATOM     31  C   UNL A   1      38.151  30.496  28.113  1.00  0.00     0.014 A 
ATOM     32  C   UNL A   1      38.385  29.076  31.120  1.00  0.00     0.014 A 
ATOM     33  C   UNL A   1      39.330  29.147  27.285  1.00  0.00     0.010 A 
ATOM     34  C   UNL A   1      39.740  27.954  30.373  1.00  0.00     0.010 A 
ATOM     35  C   UNL A   1      40.162  27.845  28.492  1.00  0.00    -0.014 A 
BRANCH  35  36
ATOM     36  C   UNL A   1      41.313  26.952  28.457  1.00  0.00     0.031 A 
ATOM     37  C   UNL A   1      41.108  25.526  28.298  1.00  0.00     0.074 A 
ATOM     38  C   UNL A   1      42.525  27.494  28.135  1.00  0.00     0.049 A 
ATOM     39  N   UNL A   1      41.751  24.624  28.946  1.00  0.00    -0.248 NA
ATOM     40  C   UNL A   1      40.233  25.018  27.246  1.00  0.00     0.031 C 
ATOM     41  C   UNL A   1      43.854  26.916  27.984  1.00  0.00     0.029 A 
ATOM     42  N   UNL A   1      42.848  28.861  28.078  1.00  0.00    -0.354 N 
ATOM     43  C   UNL A   1      41.669  23.490  28.165  1.00  0.00     0.074 A 
ATOM     44  C   UNL A   1      40.592  23.729  27.225  1.00  0.00     0.031 C 
ATOM     45  C   UNL A   1      44.757  27.845  28.396  1.00  0.00     0.029 A 
ATOM     46  C   UNL A   1      44.005  29.020  28.836  1.00  0.00     0.049 A 
ATOM     47  H   UNL A   1      42.354  29.565  27.598  1.00  0.00     0.167 HD
ATOM     48  C   UNL A   1      42.697  22.593  28.184  1.00  0.00     0.034 A 
ATOM     49  C   UNL A   1      43.822  29.507  30.111  1.00  0.00     0.034 A 
ATOM     50  C   UNL A   1      43.848  23.153  28.932  1.00  0.00     0.049 A 
ATOM     51  C   UNL A   1      44.120  28.459  31.148  1.00  0.00     0.074 A 
ATOM     52  C   UNL A   1      45.050  23.699  28.507  1.00  0.00     0.029 A 
ATOM     53  N   UNL A   1      43.703  23.550  30.263  1.00  0.00    -0.354 N 
ATOM     54  N   UNL A   1      44.232  27.196  30.859  1.00  0.00    -0.248 NA
ATOM     55  C   UNL A   1      44.368  28.725  32.559  1.00  0.00     0.031 C 
ATOM     56  C   UNL A   1      45.553  24.534  29.544  1.00  0.00     0.029 A 
ATOM     57  C   UNL A   1      44.671  24.484  30.609  1.00  0.00     0.049 A 
ATOM     58  H   UNL A   1      43.007  23.212  30.873  1.00  0.00     0.167 HD
ATOM     59  C   UNL A   1      44.537  26.477  31.969  1.00  0.00     0.074 A 
ATOM     60  C   UNL A   1      44.651  27.487  33.011  1.00  0.00     0.031 C 
ATOM     61  C   UNL A   1      44.656  25.115  31.927  1.00  0.00     0.034 A 
BRANCH  48  62
ATOM     62  C   UNL A   1      42.819  21.417  27.226  1.00  0.00     0.023 A 
ATOM     63  C   UNL A   1      41.968  20.308  27.438  1.00  0.00     0.012 A 
ATOM     64  C   UNL A   1      43.688  21.329  26.110  1.00  0.00     0.148 A 
ATOM     65  C   UNL A   1      42.030  19.147  26.664  1.00  0.00     0.002 A 
ATOM     66  C   UNL A   1      43.783  20.148  25.361  1.00  0.00     0.091 A 
ATOM     67  F   UNL A   1      44.372  22.412  25.720  1.00  0.00    -0.205 F 
ATOM     68  C   UNL A   1      42.956  19.055  25.640  1.00  0.00     0.022 A 
BRANCH  66  69
ATOM     69  S   UNL A   1      44.977  19.914  24.031  1.00  0.00     0.127 S 
ATOM     70  O   UNL A   1      44.596  20.964  23.083  1.00  0.00    -0.237 OA
ATOM     71  O   UNL A   1      46.250  20.151  24.709  1.00  0.00    -0.237 OA
ATOM     72  O   UNL A   1      44.769  18.560  23.534  1.00  0.00    -0.744 OA
ENDBRANCH  66  69
ENDBRANCH  48  62
BRANCH  49  73
ATOM     73  C   UNL A   1      42.678  30.523  30.166  1.00  0.00     0.023 A 
ATOM     74  C   UNL A   1      41.774  30.336  31.230  1.00  0.00     0.012 A 
ATOM     75  C   UNL A   1      43.011  31.859  29.843  1.00  0.00     0.148 A 
ATOM     76  C   UNL A   1      41.448  31.402  32.076  1.00  0.00     0.002 A 
ATOM     77  C   UNL A   1      42.961  32.855  30.845  1.00  0.00     0.091 A 
ATOM     78  F   UNL A   1      43.536  32.096  28.630  1.00  0.00    -0.205 F 
ATOM     79  C   UNL A   1      42.078  32.639  31.912  1.00  0.00     0.022 A 
BRANCH  77  80
ATOM     80  S   UNL A   1      43.458  34.570  30.476  1.00  0.00     0.127 S 
ATOM     81  O   UNL A   1      44.496  35.803  31.304  1.00  0.00    -0.237 OA
ATOM     82  O   UNL A   1      45.096  35.352  30.639  1.00  0.00    -0.237 OA
ATOM     83  O   UNL A   1      42.330  34.842  29.554  1.00  0.00    -0.744 OA
ENDBRANCH  77  80
ENDBRANCH  49  73
BRANCH  61  84
ATOM     84  C   UNL A   1      44.799  24.245  33.143  1.00  0.00     0.023 A 
ATOM     85  C   UNL A   1      43.774  23.378  33.563  1.00  0.00     0.012 A 
ATOM     86  C   UNL A   1      46.045  24.154  33.807  1.00  0.00     0.148 A 
ATOM     87  C   UNL A   1      43.952  22.510  34.642  1.00  0.00     0.002 A 
ATOM     88  C   UNL A   1      46.255  23.199  34.789  1.00  0.00     0.091 A 
ATOM     89  F   UNL A   1      47.033  25.011  33.504  1.00  0.00    -0.205 F 
ATOM     90  C   UNL A   1      45.201  22.401  35.238  1.00  0.00     0.022 A 
BRANCH  88  91
ATOM     91  S   UNL A   1      47.914  22.843  35.378  1.00  0.00     0.127 S 
ATOM     92  O   UNL A   1      47.660  21.837  36.406  1.00  0.00    -0.237 OA
ATOM     93  O   UNL A   1      48.568  22.332  34.172  1.00  0.00    -0.237 OA
ATOM     94  O   UNL A   1      48.437  24.120  35.842  1.00  0.00    -0.744 OA
ENDBRANCH  88  91
ENDBRANCH  61  84
ENDBRANCH  35  36
ENDBRANCH  27  30
ENDBRANCH  25  26
ENDBRANCH  24  25
ENDBRANCH   1  24
TORSDOF 17
ENDMDL
MODEL 2
REMARK VINA RESULT:     -12.8      2.680      3.704
REMARK SMILES Cc1ccccc1SCC(=O)N[C@H]1C=C[C@H](C(=O)NCCCNC(=O)c2ccc(-c3c4nc(c(-c5cccc(S(=O)(=O)[O-])c5F)c5ccc([nH]5)c(-c5cccc(S(=O)(=O)[O-])c5F)c5nc(c(-c6cccc(S(=O)(=O)[O-])c6F)c6ccc3[nH]6)C=C5)C=C4)cc2)C1
REMARK SMILES IDX 20 1 19 2 17 3 18 4 16 6 13 7 14 8 89 9 15 10 12 11 10 12
REMARK SMILES IDX 11 13 9 15 8 16 7 17 1 18 2 19 3 20 4 21 6 22 5 23 21 24
REMARK SMILES IDX 22 25 23 26 24 27 25 29 26 30 27 31 88 32 28 33 87 34 29 35
REMARK SMILES IDX 30 36 31 37 81 38 32 39 86 40 80 41 82 42 33 43 85 44 79 45
REMARK SMILES IDX 78 46 34 48 66 49 46 50 65 51 47 52 50 53 64 54 83 55 48 56
REMARK SMILES IDX 49 57 63 59 84 60 51 61 35 62 36 63 44 64 37 65 39 66 45 67
REMARK SMILES IDX 38 68 40 69 41 70 42 71 43 72 67 73 68 74 76 75 69 76 71 77
REMARK SMILES IDX 77 78 70 79 72 80 73 81 74 82 75 83 52 84 53 85 61 86 54 87
REMARK SMILES IDX 56 88 62 89 55 90 57 91 58 92 59 93 60 94
REMARK H PARENT 19 5 12 14 23 28 82 47 50 58
REMARK Flexibility Score: inf
ROOT
ATOM      1  C   UNL A   1      33.685  30.936  27.449  1.00  0.00     0.117 C 
ENDROOT
BRANCH   1   2
ATOM      2  N   UNL A   1      34.141  30.027  26.390  1.00  0.00    -0.356 N 
ATOM      3  C   UNL A   1      33.439  29.070  25.700  1.00  0.00     0.227 C 
ATOM      4  O   UNL A   1      33.905  28.621  24.652  1.00  0.00    -0.274 OA
ATOM      5  H   UNL A   1      35.088  30.119  26.136  1.00  0.00     0.163 HD
BRANCH   3   6
ATOM      6  C   UNL A   1      32.093  28.605  26.255  1.00  0.00     0.103 C 
ATOM      7  C   UNL A   1      31.667  26.175  26.062  1.00  0.00     0.106 C 
ATOM      8  C   UNL A   1      30.904  26.966  25.046  1.00  0.00    -0.006 C 
ATOM      9  C   UNL A   1      32.201  27.263  27.003  1.00  0.00     0.047 C 
ATOM     10  C   UNL A   1      31.137  28.280  25.146  1.00  0.00    -0.016 C 
BRANCH   7  11
ATOM     11  N   UNL A   1      30.737  25.262  26.695  1.00  0.00    -0.349 N 
ATOM     12  C   UNL A   1      30.697  23.903  26.675  1.00  0.00     0.230 C 
ATOM     13  O   UNL A   1      29.785  23.362  27.311  1.00  0.00    -0.274 OA
ATOM     14  H   UNL A   1      30.025  25.692  27.221  1.00  0.00     0.164 HD
BRANCH  12  15
ATOM     15  C   UNL A   1      31.794  23.073  26.049  1.00  0.00     0.174 C 
BRANCH  15  16
ATOM     16  S   UNL A   1      33.322  22.873  26.995  1.00  0.00    -0.116 SA
BRANCH  16  17
ATOM     17  C   UNL A   1      34.730  22.776  25.892  1.00  0.00     0.011 A 
ATOM     18  C   UNL A   1      34.641  25.042  24.645  1.00  0.00     0.045 C 
ATOM     19  C   UNL A   1      35.204  23.682  24.927  1.00  0.00    -0.038 A 
ATOM     20  C   UNL A   1      36.317  23.317  24.131  1.00  0.00     0.004 A 
ATOM     21  C   UNL A   1      36.918  22.065  24.231  1.00  0.00     0.000 A 
ATOM     22  C   UNL A   1      35.359  21.510  25.971  1.00  0.00     0.015 A 
ATOM     23  C   UNL A   1      36.431  21.153  25.150  1.00  0.00     0.001 A 
ENDBRANCH  16  17
ENDBRANCH  15  16
ENDBRANCH  12  15
ENDBRANCH   7  11
ENDBRANCH   3   6
ENDBRANCH   1   2
BRANCH   1  24
ATOM     24  C   UNL A   1      34.795  31.634  28.269  1.00  0.00     0.042 C 
BRANCH  24  25
ATOM     25  C   UNL A   1      34.427  33.051  28.711  1.00  0.00     0.118 C 
BRANCH  25  26
ATOM     26  N   UNL A   1      33.945  33.318  30.085  1.00  0.00    -0.352 N 
ATOM     27  C   UNL A   1      34.565  33.113  31.357  1.00  0.00     0.251 C 
ATOM     28  H   UNL A   1      33.041  33.705  30.129  1.00  0.00     0.163 HD
ATOM     29  O   UNL A   1      33.832  33.077  32.344  1.00  0.00    -0.269 OA
BRANCH  27  30
ATOM     30  C   UNL A   1      36.073  33.092  31.492  1.00  0.00     0.039 A 
ATOM     31  C   UNL A   1      37.354  34.125  30.429  1.00  0.00     0.014 A 
ATOM     32  C   UNL A   1      36.564  31.273  31.965  1.00  0.00     0.014 A 
ATOM     33  C   UNL A   1      38.932  33.322  29.556  1.00  0.00     0.010 A 
ATOM     34  C   UNL A   1      38.240  30.594  31.346  1.00  0.00     0.010 A 
ATOM     35  C   UNL A   1      39.383  31.484  30.069  1.00  0.00    -0.014 A 
BRANCH  35  36
ATOM     36  C   UNL A   1      40.560  30.628  30.019  1.00  0.00     0.031 A 
ATOM     37  C   UNL A   1      40.465  29.315  29.411  1.00  0.00     0.074 A 
ATOM     38  C   UNL A   1      41.784  31.227  30.130  1.00  0.00     0.049 A 
ATOM     39  N   UNL A   1      41.008  28.254  29.889  1.00  0.00    -0.248 NA
ATOM     40  C   UNL A   1      39.850  29.150  28.099  1.00  0.00     0.031 C 
ATOM     41  C   UNL A   1      43.143  30.703  30.099  1.00  0.00     0.029 A 
ATOM     42  N   UNL A   1      42.041  32.545  30.542  1.00  0.00    -0.354 N 
ATOM     43  C   UNL A   1      41.144  27.402  28.813  1.00  0.00     0.074 A 
ATOM     44  C   UNL A   1      40.272  27.921  27.779  1.00  0.00     0.031 C 
ATOM     45  C   UNL A   1      43.894  31.459  30.944  1.00  0.00     0.029 A 
ATOM     46  C   UNL A   1      43.009  32.460  31.539  1.00  0.00     0.049 A 
ATOM     47  H   UNL A   1      41.620  33.366  30.196  1.00  0.00     0.167 HD
ATOM     48  C   UNL A   1      42.191  26.528  28.786  1.00  0.00     0.034 A 
ATOM     49  C   UNL A   1      42.546  32.551  32.832  1.00  0.00     0.034 A 
ATOM     50  C   UNL A   1      43.135  26.828  29.889  1.00  0.00     0.049 A 
ATOM     51  C   UNL A   1      42.680  31.240  33.557  1.00  0.00     0.074 A 
ATOM     52  C   UNL A   1      44.370  27.462  29.902  1.00  0.00     0.029 A 
ATOM     53  N   UNL A   1      42.702  26.816  31.215  1.00  0.00    -0.354 N 
ATOM     54  N   UNL A   1      42.912  30.118  32.944  1.00  0.00    -0.248 NA
ATOM     55  C   UNL A   1      42.620  31.075  35.005  1.00  0.00     0.031 C 
ATOM     56  C   UNL A   1      44.607  27.947  31.219  1.00  0.00     0.029 A 
ATOM     57  C   UNL A   1      43.531  27.595  32.014  1.00  0.00     0.049 A 
ATOM     58  H   UNL A   1      41.915  26.322  31.541  1.00  0.00     0.167 HD
ATOM     59  C   UNL A   1      43.021  29.099  33.835  1.00  0.00     0.074 A 
ATOM     60  C   UNL A   1      42.868  29.756  35.125  1.00  0.00     0.031 C 
ATOM     61  C   UNL A   1      43.215  27.810  33.425  1.00  0.00     0.034 A 
BRANCH  48  62
ATOM     62  C   UNL A   1      42.566  25.685  27.575  1.00  0.00     0.023 A 
ATOM     63  C   UNL A   1      43.113  26.353  26.455  1.00  0.00     0.012 A 
ATOM     64  C   UNL A   1      42.449  24.277  27.463  1.00  0.00     0.148 A 
ATOM     65  C   UNL A   1      43.437  25.695  25.266  1.00  0.00     0.002 A 
ATOM     66  C   UNL A   1      42.732  23.623  26.256  1.00  0.00     0.091 A 
ATOM     67  F   UNL A   1      42.139  23.553  28.547  1.00  0.00    -0.205 F 
ATOM     68  C   UNL A   1      43.222  24.333  25.155  1.00  0.00     0.022 A 
BRANCH  66  69
ATOM     69  S   UNL A   1      42.456  21.860  25.998  1.00  0.00     0.127 S 
ATOM     70  O   UNL A   1      41.003  21.798  25.813  1.00  0.00    -0.237 OA
ATOM     71  O   UNL A   1      43.228  21.597  24.786  1.00  0.00    -0.237 OA
ATOM     72  O   UNL A   1      42.930  21.197  27.206  1.00  0.00    -0.744 OA
ENDBRANCH  66  69
ENDBRANCH  48  62
BRANCH  49  73
ATOM     73  C   UNL A   1      41.365  33.519  32.939  1.00  0.00     0.023 A 
ATOM     74  C   UNL A   1      40.102  32.901  33.022  1.00  0.00     0.012 A 
ATOM     75  C   UNL A   1      41.565  34.666  33.742  1.00  0.00     0.148 A 
ATOM     76  C   UNL A   1      39.209  33.253  34.043  1.00  0.00     0.002 A 
ATOM     77  C   UNL A   1      40.842  34.811  34.948  1.00  0.00     0.091 A 
ATOM     78  F   UNL A   1      42.572  35.490  33.412  1.00  0.00    -0.205 F 
ATOM     79  C   UNL A   1      39.601  34.166  35.026  1.00  0.00     0.022 A 
BRANCH  77  80
ATOM     80  S   UNL A   1      41.136  36.241  36.040  1.00  0.00     0.127 S 
ATOM     81  O   UNL A   1      42.295  36.599  37.388  1.00  0.00    -0.237 OA
ATOM     82  O   UNL A   1      42.718  36.981  36.563  1.00  0.00    -0.237 OA
ATOM     83  O   UNL A   1      39.792  36.835  35.851  1.00  0.00    -0.744 OA
ENDBRANCH  77  80
ENDBRANCH  49  73
BRANCH  61  84
ATOM     84  C   UNL A   1      43.151  26.617  34.336  1.00  0.00     0.023 A 
ATOM     85  C   UNL A   1      41.977  26.270  35.027  1.00  0.00     0.012 A 
ATOM     86  C   UNL A   1      44.236  25.711  34.394  1.00  0.00     0.148 A 
ATOM     87  C   UNL A   1      41.905  25.111  35.801  1.00  0.00     0.002 A 
ATOM     88  C   UNL A   1      44.112  24.500  35.057  1.00  0.00     0.091 A 
ATOM     89  F   UNL A   1      45.408  26.028  33.823  1.00  0.00    -0.205 F 
ATOM     90  C   UNL A   1      42.962  24.212  35.795  1.00  0.00     0.022 A 
BRANCH  88  91
ATOM     91  S   UNL A   1      45.339  23.208  34.838  1.00  0.00     0.127 S 
ATOM     92  O   UNL A   1      46.587  23.938  35.046  1.00  0.00    -0.237 OA
ATOM     93  O   UNL A   1      44.995  22.269  35.907  1.00  0.00    -0.237 OA
ATOM     94  O   UNL A   1      45.113  22.689  33.495  1.00  0.00    -0.744 OA
ENDBRANCH  88  91
ENDBRANCH  61  84
ENDBRANCH  35  36
ENDBRANCH  27  30
ENDBRANCH  25  26
ENDBRANCH  24  25
ENDBRANCH   1  24
TORSDOF 17
ENDMDL
MODEL 3
REMARK VINA RESULT:     -12.3      2.998      4.266
REMARK SMILES Cc1ccccc1SCC(=O)N[C@H]1C=C[C@H](C(=O)NCCCNC(=O)c2ccc(-c3c4nc(c(-c5cccc(S(=O)(=O)[O-])c5F)c5ccc([nH]5)c(-c5cccc(S(=O)(=O)[O-])c5F)c5nc(c(-c6cccc(S(=O)(=O)[O-])c6F)c6ccc3[nH]6)C=C5)C=C4)cc2)C1
REMARK SMILES IDX 20 1 19 2 17 3 18 4 16 6 13 7 14 8 89 9 15 10 12 11 10 12
REMARK SMILES IDX 11 13 9 15 8 16 7 17 1 18 2 19 3 20 4 21 6 22 5 23 21 24
REMARK SMILES IDX 22 25 23 26 24 27 25 29 26 30 27 31 88 32 28 33 87 34 29 35
REMARK SMILES IDX 30 36 31 37 81 38 32 39 86 40 80 41 82 42 33 43 85 44 79 45
REMARK SMILES IDX 78 46 34 48 66 49 46 50 65 51 47 52 50 53 64 54 83 55 48 56
REMARK SMILES IDX 49 57 63 59 84 60 51 61 35 62 36 63 44 64 37 65 39 66 45 67
REMARK SMILES IDX 38 68 40 69 41 70 42 71 43 72 67 73 68 74 76 75 69 76 71 77
REMARK SMILES IDX 77 78 70 79 72 80 73 81 74 82 75 83 52 84 53 85 61 86 54 87
REMARK SMILES IDX 56 88 62 89 55 90 57 91 58 92 59 93 60 94
REMARK H PARENT 19 5 12 14 23 28 82 47 50 58
REMARK Flexibility Score: inf
ROOT
ATOM      1  C   UNL A   1      34.493  30.206  27.635  1.00  0.00     0.117 C 
ENDROOT
BRANCH   1   2
ATOM      2  N   UNL A   1      33.355  30.797  26.919  1.00  0.00    -0.356 N 
ATOM      3  C   UNL A   1      32.482  30.212  26.036  1.00  0.00     0.227 C 
ATOM      4  O   UNL A   1      31.422  30.780  25.773  1.00  0.00    -0.274 OA
ATOM      5  H   UNL A   1      33.194  31.751  27.100  1.00  0.00     0.163 HD
BRANCH   3   6
ATOM      6  C   UNL A   1      32.856  28.865  25.419  1.00  0.00     0.103 C 
ATOM      7  C   UNL A   1      32.016  28.500  23.119  1.00  0.00     0.106 C 
ATOM      8  C   UNL A   1      31.224  27.743  24.138  1.00  0.00    -0.006 C 
ATOM      9  C   UNL A   1      33.226  28.987  23.929  1.00  0.00     0.047 C 
ATOM     10  C   UNL A   1      31.673  27.942  25.382  1.00  0.00    -0.016 C 
BRANCH   7  11
ATOM     11  N   UNL A   1      32.359  27.577  22.057  1.00  0.00    -0.349 N 
ATOM     12  C   UNL A   1      33.162  26.480  22.078  1.00  0.00     0.230 C 
ATOM     13  O   UNL A   1      33.283  25.857  21.016  1.00  0.00    -0.274 OA
ATOM     14  H   UNL A   1      31.946  27.774  21.185  1.00  0.00     0.164 HD
BRANCH  12  15
ATOM     15  C   UNL A   1      33.754  25.939  23.359  1.00  0.00     0.174 C 
BRANCH  15  16
ATOM     16  S   UNL A   1      34.010  24.152  23.461  1.00  0.00    -0.116 SA
BRANCH  16  17
ATOM     17  C   UNL A   1      33.436  23.530  25.040  1.00  0.00     0.011 A 
ATOM     18  C   UNL A   1      30.867  23.795  24.863  1.00  0.00     0.045 C 
ATOM     19  C   UNL A   1      32.138  23.438  25.573  1.00  0.00    -0.038 A 
ATOM     20  C   UNL A   1      31.971  22.962  26.896  1.00  0.00     0.004 A 
ATOM     21  C   UNL A   1      33.056  22.643  27.708  1.00  0.00     0.000 A 
ATOM     22  C   UNL A   1      34.520  23.199  25.888  1.00  0.00     0.015 A 
ATOM     23  C   UNL A   1      34.339  22.769  27.204  1.00  0.00     0.001 A 
ENDBRANCH  16  17
ENDBRANCH  15  16
ENDBRANCH  12  15
ENDBRANCH   7  11
ENDBRANCH   3   6
ENDBRANCH   1   2
BRANCH   1  24
ATOM     24  C   UNL A   1      35.299  31.167  28.540  1.00  0.00     0.042 C 
BRANCH  24  25
ATOM     25  C   UNL A   1      34.606  32.510  28.772  1.00  0.00     0.118 C 
BRANCH  25  26
ATOM     26  N   UNL A   1      34.033  32.853  30.093  1.00  0.00    -0.352 N 
ATOM     27  C   UNL A   1      34.582  32.763  31.410  1.00  0.00     0.251 C 
ATOM     28  H   UNL A   1      33.113  33.204  30.057  1.00  0.00     0.163 HD
ATOM     29  O   UNL A   1      33.793  32.765  32.354  1.00  0.00    -0.269 OA
BRANCH  27  30
ATOM     30  C   UNL A   1      36.079  32.815  31.632  1.00  0.00     0.039 A 
ATOM     31  C   UNL A   1      37.360  33.958  30.688  1.00  0.00     0.014 A 
ATOM     32  C   UNL A   1      36.641  31.005  32.059  1.00  0.00     0.014 A 
ATOM     33  C   UNL A   1      39.026  33.277  29.878  1.00  0.00     0.010 A 
ATOM     34  C   UNL A   1      38.384  30.441  31.513  1.00  0.00     0.010 A 
ATOM     35  C   UNL A   1      39.546  31.443  30.342  1.00  0.00    -0.014 A 
BRANCH  35  36
ATOM     36  C   UNL A   1      40.770  30.653  30.326  1.00  0.00     0.031 A 
ATOM     37  C   UNL A   1      40.809  29.409  29.582  1.00  0.00     0.074 A 
ATOM     38  C   UNL A   1      41.941  31.292  30.623  1.00  0.00     0.049 A 
ATOM     39  N   UNL A   1      41.361  28.330  30.002  1.00  0.00    -0.248 NA
ATOM     40  C   UNL A   1      40.335  29.358  28.203  1.00  0.00     0.031 C 
ATOM     41  C   UNL A   1      43.323  30.838  30.679  1.00  0.00     0.029 A 
ATOM     42  N   UNL A   1      42.082  32.569  31.192  1.00  0.00    -0.354 N 
ATOM     43  C   UNL A   1      41.650  27.605  28.864  1.00  0.00     0.074 A 
ATOM     44  C   UNL A   1      40.854  28.191  27.804  1.00  0.00     0.031 C 
ATOM     45  C   UNL A   1      43.945  31.532  31.670  1.00  0.00     0.029 A 
ATOM     46  C   UNL A   1      42.952  32.423  32.269  1.00  0.00     0.049 A 
ATOM     47  H   UNL A   1      41.651  33.402  30.889  1.00  0.00     0.167 HD
ATOM     48  C   UNL A   1      42.742  26.788  28.856  1.00  0.00     0.034 A 
ATOM     49  C   UNL A   1      42.360  32.353  33.510  1.00  0.00     0.034 A 
ATOM     50  C   UNL A   1      43.555  27.011  30.075  1.00  0.00     0.049 A 
ATOM     51  C   UNL A   1      42.496  30.979  34.108  1.00  0.00     0.074 A 
ATOM     52  C   UNL A   1      44.745  27.695  30.280  1.00  0.00     0.029 A 
ATOM     53  N   UNL A   1      42.996  26.837  31.342  1.00  0.00    -0.354 N 
ATOM     54  N   UNL A   1      42.850  29.941  33.410  1.00  0.00    -0.248 NA
ATOM     55  C   UNL A   1      42.305  30.658  35.517  1.00  0.00     0.031 C 
ATOM     56  C   UNL A   1      44.825  28.047  31.657  1.00  0.00     0.029 A 
ATOM     57  C   UNL A   1      43.698  27.563  32.296  1.00  0.00     0.049 A 
ATOM     58  H   UNL A   1      42.210  26.276  31.533  1.00  0.00     0.167 HD
ATOM     59  C   UNL A   1      42.929  28.839  34.199  1.00  0.00     0.074 A 
ATOM     60  C   UNL A   1      42.614  29.346  35.527  1.00  0.00     0.031 C 
ATOM     61  C   UNL A   1      43.234  27.611  33.682  1.00  0.00     0.034 A 
BRANCH  48  62
ATOM     62  C   UNL A   1      43.280  26.097  27.611  1.00  0.00     0.023 A 
ATOM     63  C   UNL A   1      44.108  26.852  26.749  1.00  0.00     0.012 A 
ATOM     64  C   UNL A   1      43.058  24.748  27.236  1.00  0.00     0.148 A 
ATOM     65  C   UNL A   1      44.610  26.347  25.547  1.00  0.00     0.002 A 
ATOM     66  C   UNL A   1      43.524  24.255  26.009  1.00  0.00     0.091 A 
ATOM     67  F   UNL A   1      42.462  23.914  28.098  1.00  0.00    -0.205 F 
ATOM     68  C   UNL A   1      44.296  25.055  25.162  1.00  0.00     0.022 A 
BRANCH  66  69
ATOM     69  S   UNL A   1      43.143  22.600  25.401  1.00  0.00     0.127 S 
ATOM     70  O   UNL A   1      44.050  21.763  26.192  1.00  0.00    -0.237 OA
ATOM     71  O   UNL A   1      41.732  22.456  25.753  1.00  0.00    -0.237 OA
ATOM     72  O   UNL A   1      43.440  22.617  23.975  1.00  0.00    -0.744 OA
ENDBRANCH  66  69
ENDBRANCH  48  62
BRANCH  49  73
ATOM     73  C   UNL A   1      41.121  33.249  33.593  1.00  0.00     0.023 A 
ATOM     74  C   UNL A   1      39.896  32.556  33.662  1.00  0.00     0.012 A 
ATOM     75  C   UNL A   1      41.240  34.411  34.390  1.00  0.00     0.148 A 
ATOM     76  C   UNL A   1      38.969  32.859  34.667  1.00  0.00     0.002 A 
ATOM     77  C   UNL A   1      40.492  34.519  35.585  1.00  0.00     0.091 A 
ATOM     78  F   UNL A   1      42.200  35.292  34.070  1.00  0.00    -0.205 F 
ATOM     79  C   UNL A   1      39.290  33.801  35.649  1.00  0.00     0.022 A 
BRANCH  77  80
ATOM     80  S   UNL A   1      40.683  35.971  36.671  1.00  0.00     0.127 S 
ATOM     81  O   UNL A   1      41.116  36.211  38.414  1.00  0.00    -0.237 OA
ATOM     82  O   UNL A   1      41.975  36.318  37.909  1.00  0.00    -0.237 OA
ATOM     83  O   UNL A   1      39.860  36.876  35.834  1.00  0.00    -0.744 OA
ENDBRANCH  77  80
ENDBRANCH  49  73
BRANCH  61  84
ATOM     84  C   UNL A   1      43.150  26.326  34.456  1.00  0.00     0.023 A 
ATOM     85  C   UNL A   1      41.918  25.776  34.853  1.00  0.00     0.012 A 
ATOM     86  C   UNL A   1      44.311  25.546  34.663  1.00  0.00     0.148 A 
ATOM     87  C   UNL A   1      41.847  24.538  35.494  1.00  0.00     0.002 A 
ATOM     88  C   UNL A   1      44.219  24.264  35.180  1.00  0.00     0.091 A 
ATOM     89  F   UNL A   1      45.521  26.053  34.379  1.00  0.00    -0.205 F 
ATOM     90  C   UNL A   1      42.994  23.769  35.634  1.00  0.00     0.022 A 
BRANCH  88  91
ATOM     91  S   UNL A   1      45.625  23.148  35.115  1.00  0.00     0.127 S 
ATOM     92  O   UNL A   1      45.050  21.907  35.627  1.00  0.00    -0.237 OA
ATOM     93  O   UNL A   1      45.942  23.131  33.686  1.00  0.00    -0.237 OA
ATOM     94  O   UNL A   1      46.647  23.773  35.943  1.00  0.00    -0.744 OA
ENDBRANCH  88  91
ENDBRANCH  61  84
ENDBRANCH  35  36
ENDBRANCH  27  30
ENDBRANCH  25  26
ENDBRANCH  24  25
ENDBRANCH   1  24
TORSDOF 17
ENDMDL
