MODEL 1
REMARK VINA RESULT:     -12.6      0.000      0.000
REMARK SMILES C=C1c2ccccc2C(=O)N1[C@](C)(C(=O)NCCCNC(=O)c1ccc(-c2c3nc(c(-c4cccc(S(=O)(=O)[O-])c4F)c4ccc([nH]4)c(-c4cccc(S(=O)(=O)[O-])c4F)c4nc(c(-c5cccc(S(=O)(=O)[O-])c5F)c5ccc2[nH]5)C=C4)C=C3)cc1)C(F)(F)F
REMARK SMILES IDX 19 1 18 2 17 3 16 4 14 5 15 6 12 8 13 9 11 10 1 11 2 12 3 13
REMARK SMILES IDX 4 14 8 15 9 16 5 17 7 18 10 19 6 20 86 21 87 22 88 23 89 24
REMARK SMILES IDX 20 25 21 26 22 28 23 29 24 30 85 31 25 32 84 33 26 34 27 35
REMARK SMILES IDX 28 36 78 37 29 38 83 39 77 40 79 41 30 42 82 43 76 44 75 45
REMARK SMILES IDX 31 47 63 48 43 49 62 50 44 51 47 52 61 53 80 54 45 55 46 56
REMARK SMILES IDX 60 58 81 59 48 60 32 61 33 62 41 63 34 64 36 65 42 66 35 67
REMARK SMILES IDX 37 68 38 69 39 70 40 71 64 72 65 73 73 74 66 75 68 76 74 77
REMARK SMILES IDX 67 78 69 79 70 80 71 81 72 82 49 83 50 84 58 85 51 86 53 87
REMARK SMILES IDX 59 88 52 89 54 90 55 91 56 92 57 93
REMARK H PARENT 16 7 20 27 79 46 47 57
REMARK Flexibility Score: inf
ROOT
ATOM      1  C   UNL A   1      32.500  29.933  25.767  1.00  0.00     0.118 C 
ENDROOT
BRANCH   1   2
ATOM      2  C   UNL A   1      31.418  28.982  26.251  1.00  0.00     0.042 C 
BRANCH   2   3
ATOM      3  C   UNL A   1      31.937  27.639  26.730  1.00  0.00     0.117 C 
BRANCH   3   4
ATOM      4  N   UNL A   1      30.940  26.580  26.773  1.00  0.00    -0.354 N 
ATOM      5  C   UNL A   1      30.723  25.515  25.949  1.00  0.00     0.255 C 
ATOM      6  O   UNL A   1      30.208  24.546  26.527  1.00  0.00    -0.272 OA
ATOM      7  H   UNL A   1      30.313  26.644  27.529  1.00  0.00     0.163 HD
BRANCH   5   8
ATOM      8  C   UNL A   1      31.150  25.420  24.451  1.00  0.00     0.219 C 
ATOM      9  C   UNL A   1      30.753  24.103  23.749  1.00  0.00     0.056 C 
BRANCH   8  10
ATOM     10  N   UNL A   1      30.605  26.624  23.729  1.00  0.00    -0.285 N 
ATOM     11  C   UNL A   1      32.482  27.638  22.444  1.00  0.00     0.038 C 
ATOM     12  C   UNL A   1      31.240  27.577  22.926  1.00  0.00     0.046 C 
ATOM     13  C   UNL A   1      30.239  28.605  22.590  1.00  0.00     0.010 A 
ATOM     14  C   UNL A   1      30.285  29.798  21.886  1.00  0.00     0.011 A 
ATOM     15  C   UNL A   1      29.035  28.210  23.148  1.00  0.00     0.049 A 
ATOM     16  C   UNL A   1      29.244  26.934  23.805  1.00  0.00     0.260 C 
ATOM     17  C   UNL A   1      29.114  30.568  21.781  1.00  0.00     0.001 A 
ATOM     18  C   UNL A   1      27.863  28.947  23.072  1.00  0.00     0.014 A 
ATOM     19  O   UNL A   1      28.308  26.319  24.284  1.00  0.00    -0.269 OA
ATOM     20  C   UNL A   1      27.912  30.149  22.378  1.00  0.00     0.001 A 
ENDBRANCH   8  10
BRANCH   8  21
ATOM     21  C   UNL A   1      32.693  25.307  24.612  1.00  0.00     0.420 C 
ATOM     22  F   UNL A   1      33.027  24.543  25.687  1.00  0.00    -0.168 F 
ATOM     23  F   UNL A   1      33.256  24.680  23.542  1.00  0.00    -0.168 F 
ATOM     24  F   UNL A   1      33.349  26.482  24.749  1.00  0.00    -0.168 F 
ENDBRANCH   8  21
ENDBRANCH   5   8
ENDBRANCH   3   4
ENDBRANCH   2   3
ENDBRANCH   1   2
BRANCH   1  25
ATOM     25  N   UNL A   1      32.372  31.290  26.292  1.00  0.00    -0.352 N 
ATOM     26  C   UNL A   1      33.124  32.001  27.200  1.00  0.00     0.251 C 
ATOM     27  H   UNL A   1      31.605  31.789  25.929  1.00  0.00     0.163 HD
ATOM     28  O   UNL A   1      32.728  33.105  27.570  1.00  0.00    -0.269 OA
BRANCH  26  29
ATOM     29  C   UNL A   1      34.377  31.448  27.764  1.00  0.00     0.039 A 
ATOM     30  C   UNL A   1      35.457  32.308  27.998  1.00  0.00     0.014 A 
ATOM     31  C   UNL A   1      34.509  30.092  28.052  1.00  0.00     0.014 A 
ATOM     32  C   UNL A   1      36.618  31.823  28.610  1.00  0.00     0.010 A 
ATOM     33  C   UNL A   1      35.608  29.639  28.773  1.00  0.00     0.010 A 
ATOM     34  C   UNL A   1      36.682  30.494  29.055  1.00  0.00    -0.014 A 
BRANCH  34  35
ATOM     35  C   UNL A   1      37.849  29.960  29.810  1.00  0.00     0.031 A 
ATOM     36  C   UNL A   1      38.119  30.437  31.215  1.00  0.00     0.074 A 
ATOM     37  C   UNL A   1      38.734  29.150  29.193  1.00  0.00     0.049 A 
ATOM     38  N   UNL A   1      39.162  30.224  31.974  1.00  0.00    -0.248 NA
ATOM     39  C   UNL A   1      37.101  31.307  31.834  1.00  0.00     0.031 C 
ATOM     40  C   UNL A   1      38.642  28.687  27.806  1.00  0.00     0.029 A 
ATOM     41  N   UNL A   1      39.908  28.600  29.644  1.00  0.00    -0.354 N 
ATOM     42  C   UNL A   1      38.957  30.979  33.124  1.00  0.00     0.074 A 
ATOM     43  C   UNL A   1      37.706  31.683  32.951  1.00  0.00     0.031 C 
ATOM     44  C   UNL A   1      39.704  27.915  27.525  1.00  0.00     0.029 A 
ATOM     45  C   UNL A   1      40.572  27.855  28.695  1.00  0.00     0.049 A 
ATOM     46  H   UNL A   1      40.245  28.725  30.561  1.00  0.00     0.167 HD
ATOM     47  C   UNL A   1      39.717  31.050  34.243  1.00  0.00     0.034 A 
ATOM     48  C   UNL A   1      41.748  27.199  28.760  1.00  0.00     0.034 A 
ATOM     49  C   UNL A   1      40.908  30.275  34.453  1.00  0.00     0.049 A 
ATOM     50  C   UNL A   1      42.521  27.216  30.052  1.00  0.00     0.074 A 
ATOM     51  C   UNL A   1      41.697  30.199  35.587  1.00  0.00     0.029 A 
ATOM     52  N   UNL A   1      41.470  29.422  33.517  1.00  0.00    -0.354 N 
ATOM     53  N   UNL A   1      42.233  27.823  31.177  1.00  0.00    -0.248 NA
ATOM     54  C   UNL A   1      43.761  26.427  30.095  1.00  0.00     0.031 C 
ATOM     55  C   UNL A   1      42.732  29.294  35.339  1.00  0.00     0.029 A 
ATOM     56  C   UNL A   1      42.586  28.804  34.050  1.00  0.00     0.049 A 
ATOM     57  H   UNL A   1      41.125  29.277  32.606  1.00  0.00     0.167 HD
ATOM     58  C   UNL A   1      43.234  27.462  32.071  1.00  0.00     0.074 A 
ATOM     59  C   UNL A   1      44.124  26.565  31.363  1.00  0.00     0.031 C 
ATOM     60  C   UNL A   1      43.415  27.855  33.355  1.00  0.00     0.034 A 
BRANCH  47  61
ATOM     61  C   UNL A   1      39.234  31.931  35.365  1.00  0.00     0.023 A 
ATOM     62  C   UNL A   1      38.299  31.418  36.286  1.00  0.00     0.012 A 
ATOM     63  C   UNL A   1      39.741  33.232  35.546  1.00  0.00     0.148 A 
ATOM     64  C   UNL A   1      37.851  32.195  37.353  1.00  0.00     0.002 A 
ATOM     65  C   UNL A   1      39.321  33.987  36.637  1.00  0.00     0.091 A 
ATOM     66  F   UNL A   1      40.615  33.709  34.649  1.00  0.00    -0.205 F 
ATOM     67  C   UNL A   1      38.369  33.474  37.533  1.00  0.00     0.022 A 
BRANCH  65  68
ATOM     68  S   UNL A   1      39.981  35.617  37.003  1.00  0.00     0.127 S 
ATOM     69  O   UNL A   1      39.279  35.949  38.241  1.00  0.00    -0.237 OA
ATOM     70  O   UNL A   1      41.410  35.341  37.166  1.00  0.00    -0.237 OA
ATOM     71  O   UNL A   1      39.652  36.451  35.855  1.00  0.00    -0.744 OA
ENDBRANCH  65  68
ENDBRANCH  47  61
BRANCH  48  72
ATOM     72  C   UNL A   1      42.222  26.394  27.598  1.00  0.00     0.023 A 
ATOM     73  C   UNL A   1      43.011  27.020  26.612  1.00  0.00     0.012 A 
ATOM     74  C   UNL A   1      41.924  25.026  27.469  1.00  0.00     0.148 A 
ATOM     75  C   UNL A   1      43.464  26.307  25.502  1.00  0.00     0.002 A 
ATOM     76  C   UNL A   1      42.421  24.308  26.385  1.00  0.00     0.091 A 
ATOM     77  F   UNL A   1      41.158  24.447  28.405  1.00  0.00    -0.205 F 
ATOM     78  C   UNL A   1      43.177  24.950  25.392  1.00  0.00     0.022 A 
BRANCH  76  79
ATOM     79  S   UNL A   1      42.203  22.529  26.247  1.00  0.00     0.127 S 
ATOM     80  O   UNL A   1      40.750  22.407  26.181  1.00  0.00    -0.237 OA
ATOM     81  O   UNL A   1      42.903  22.225  24.997  1.00  0.00    -0.237 OA
ATOM     82  O   UNL A   1      42.842  21.975  27.433  1.00  0.00    -0.744 OA
ENDBRANCH  76  79
ENDBRANCH  48  72
BRANCH  60  83
ATOM     83  C   UNL A   1      44.595  27.292  34.099  1.00  0.00     0.023 A 
ATOM     84  C   UNL A   1      45.836  27.953  34.034  1.00  0.00     0.012 A 
ATOM     85  C   UNL A   1      44.451  26.164  34.930  1.00  0.00     0.148 A 
ATOM     86  C   UNL A   1      46.926  27.485  34.766  1.00  0.00     0.002 A 
ATOM     87  C   UNL A   1      45.530  25.727  35.689  1.00  0.00     0.091 A 
ATOM     88  F   UNL A   1      43.266  25.536  34.961  1.00  0.00    -0.205 F 
ATOM     89  C   UNL A   1      46.770  26.382  35.602  1.00  0.00     0.022 A 
BRANCH  87  90
ATOM     90  S   UNL A   1      45.389  24.371  36.858  1.00  0.00     0.127 S 
ATOM     91  O   UNL A   1      46.717  24.364  37.470  1.00  0.00    -0.237 OA
ATOM     92  O   UNL A   1      44.314  24.826  37.741  1.00  0.00    -0.237 OA
ATOM     93  O   UNL A   1      45.056  23.196  36.064  1.00  0.00    -0.744 OA
ENDBRANCH  87  90
ENDBRANCH  60  83
ENDBRANCH  34  35
ENDBRANCH  26  29
ENDBRANCH   1  25
TORSDOF 15
ENDMDL
MODEL 2
REMARK VINA RESULT:     -12.5      1.522      7.684
REMARK SMILES C=C1c2ccccc2C(=O)N1[C@](C)(C(=O)NCCCNC(=O)c1ccc(-c2c3nc(c(-c4cccc(S(=O)(=O)[O-])c4F)c4ccc([nH]4)c(-c4cccc(S(=O)(=O)[O-])c4F)c4nc(c(-c5cccc(S(=O)(=O)[O-])c5F)c5ccc2[nH]5)C=C4)C=C3)cc1)C(F)(F)F
REMARK SMILES IDX 19 1 18 2 17 3 16 4 14 5 15 6 12 8 13 9 11 10 1 11 2 12 3 13
REMARK SMILES IDX 4 14 8 15 9 16 5 17 7 18 10 19 6 20 86 21 87 22 88 23 89 24
REMARK SMILES IDX 20 25 21 26 22 28 23 29 24 30 85 31 25 32 84 33 26 34 27 35
REMARK SMILES IDX 28 36 78 37 29 38 83 39 77 40 79 41 30 42 82 43 76 44 75 45
REMARK SMILES IDX 31 47 63 48 43 49 62 50 44 51 47 52 61 53 80 54 45 55 46 56
REMARK SMILES IDX 60 58 81 59 48 60 32 61 33 62 41 63 34 64 36 65 42 66 35 67
REMARK SMILES IDX 37 68 38 69 39 70 40 71 64 72 65 73 73 74 66 75 68 76 74 77
REMARK SMILES IDX 67 78 69 79 70 80 71 81 72 82 49 83 50 84 58 85 51 86 53 87
REMARK SMILES IDX 59 88 52 89 54 90 55 91 56 92 57 93
REMARK H PARENT 16 7 20 27 79 46 47 57
REMARK Flexibility Score: inf
ROOT
ATOM      1  C   UNL A   1      32.362  29.996  25.829  1.00  0.00     0.118 C 
ENDROOT
BRANCH   1   2
ATOM      2  C   UNL A   1      31.476  28.957  26.494  1.00  0.00     0.042 C 
BRANCH   2   3
ATOM      3  C   UNL A   1      32.230  27.781  27.085  1.00  0.00     0.117 C 
BRANCH   3   4
ATOM      4  N   UNL A   1      31.496  26.524  27.085  1.00  0.00    -0.354 N 
ATOM      5  C   UNL A   1      31.609  25.416  26.298  1.00  0.00     0.255 C 
ATOM      6  O   UNL A   1      31.266  24.371  26.871  1.00  0.00    -0.272 OA
ATOM      7  H   UNL A   1      30.795  26.464  27.774  1.00  0.00     0.163 HD
BRANCH   5   8
ATOM      8  C   UNL A   1      32.199  25.381  24.853  1.00  0.00     0.219 C 
ATOM      9  C   UNL A   1      32.110  24.007  24.153  1.00  0.00     0.056 C 
BRANCH   8  10
ATOM     10  N   UNL A   1      31.533  26.464  24.047  1.00  0.00    -0.285 N 
ATOM     11  C   UNL A   1      33.293  27.548  22.656  1.00  0.00     0.038 C 
ATOM     12  C   UNL A   1      32.066  27.406  23.161  1.00  0.00     0.046 C 
ATOM     13  C   UNL A   1      30.967  28.302  22.759  1.00  0.00     0.010 A 
ATOM     14  C   UNL A   1      30.891  29.433  21.962  1.00  0.00     0.011 A 
ATOM     15  C   UNL A   1      29.811  27.838  23.365  1.00  0.00     0.049 A 
ATOM     16  C   UNL A   1      30.149  26.645  24.118  1.00  0.00     0.260 C 
ATOM     17  C   UNL A   1      29.649  30.075  21.814  1.00  0.00     0.001 A 
ATOM     18  C   UNL A   1      28.573  28.450  23.249  1.00  0.00     0.014 A 
ATOM     19  O   UNL A   1      29.282  25.983  24.660  1.00  0.00    -0.269 OA
ATOM     20  C   UNL A   1      28.499  29.591  22.461  1.00  0.00     0.001 A 
ENDBRANCH   8  10
BRANCH   8  21
ATOM     21  C   UNL A   1      33.714  25.539  25.172  1.00  0.00     0.420 C 
ATOM     22  F   UNL A   1      34.036  26.836  25.427  1.00  0.00    -0.168 F 
ATOM     23  F   UNL A   1      34.053  24.860  26.303  1.00  0.00    -0.168 F 
ATOM     24  F   UNL A   1      34.557  25.110  24.207  1.00  0.00    -0.168 F 
ENDBRANCH   8  21
ENDBRANCH   5   8
ENDBRANCH   3   4
ENDBRANCH   2   3
ENDBRANCH   1   2
BRANCH   1  25
ATOM     25  N   UNL A   1      32.106  31.364  26.274  1.00  0.00    -0.352 N 
ATOM     26  C   UNL A   1      32.796  32.202  27.119  1.00  0.00     0.251 C 
ATOM     27  H   UNL A   1      31.286  31.760  25.898  1.00  0.00     0.163 HD
ATOM     28  O   UNL A   1      32.296  33.282  27.431  1.00  0.00    -0.269 OA
BRANCH  26  29
ATOM     29  C   UNL A   1      34.108  31.815  27.687  1.00  0.00     0.039 A 
ATOM     30  C   UNL A   1      35.086  32.799  27.878  1.00  0.00     0.014 A 
ATOM     31  C   UNL A   1      34.394  30.494  28.022  1.00  0.00     0.014 A 
ATOM     32  C   UNL A   1      36.299  32.470  28.492  1.00  0.00     0.010 A 
ATOM     33  C   UNL A   1      35.544  30.193  28.744  1.00  0.00     0.010 A 
ATOM     34  C   UNL A   1      36.516  31.173  28.984  1.00  0.00    -0.014 A 
BRANCH  34  35
ATOM     35  C   UNL A   1      37.742  30.802  29.742  1.00  0.00     0.031 A 
ATOM     36  C   UNL A   1      38.752  29.865  29.128  1.00  0.00     0.074 A 
ATOM     37  C   UNL A   1      37.885  31.199  31.023  1.00  0.00     0.049 A 
ATOM     38  N   UNL A   1      39.791  29.293  29.679  1.00  0.00    -0.248 NA
ATOM     39  C   UNL A   1      38.541  29.484  27.719  1.00  0.00     0.031 C 
ATOM     40  C   UNL A   1      36.937  32.030  31.769  1.00  0.00     0.029 A 
ATOM     41  N   UNL A   1      38.872  30.926  31.939  1.00  0.00    -0.354 N 
ATOM     42  C   UNL A   1      40.315  28.443  28.711  1.00  0.00     0.074 A 
ATOM     43  C   UNL A   1      39.462  28.547  27.548  1.00  0.00     0.031 C 
ATOM     44  C   UNL A   1      37.392  32.209  33.020  1.00  0.00     0.029 A 
ATOM     45  C   UNL A   1      38.645  31.480  33.179  1.00  0.00     0.049 A 
ATOM     46  H   UNL A   1      39.668  30.386  31.730  1.00  0.00     0.167 HD
ATOM     47  C   UNL A   1      41.429  27.675  28.765  1.00  0.00     0.034 A 
ATOM     48  C   UNL A   1      39.363  31.405  34.318  1.00  0.00     0.034 A 
ATOM     49  C   UNL A   1      42.330  27.648  29.884  1.00  0.00     0.049 A 
ATOM     50  C   UNL A   1      40.650  30.625  34.317  1.00  0.00     0.074 A 
ATOM     51  C   UNL A   1      43.536  26.980  30.002  1.00  0.00     0.029 A 
ATOM     52  N   UNL A   1      42.135  28.336  31.071  1.00  0.00    -0.354 N 
ATOM     53  N   UNL A   1      41.201  29.943  33.342  1.00  0.00    -0.248 NA
ATOM     54  C   UNL A   1      41.434  30.633  35.560  1.00  0.00     0.031 C 
ATOM     55  C   UNL A   1      44.075  27.272  31.259  1.00  0.00     0.029 A 
ATOM     56  C   UNL A   1      43.204  28.123  31.922  1.00  0.00     0.049 A 
ATOM     57  H   UNL A   1      41.350  28.895  31.278  1.00  0.00     0.167 HD
ATOM     58  C   UNL A   1      42.409  29.473  33.841  1.00  0.00     0.074 A 
ATOM     59  C   UNL A   1      42.522  29.966  35.198  1.00  0.00     0.031 C 
ATOM     60  C   UNL A   1      43.333  28.685  33.240  1.00  0.00     0.034 A 
BRANCH  47  61
ATOM     61  C   UNL A   1      41.788  26.869  27.544  1.00  0.00     0.023 A 
ATOM     62  C   UNL A   1      42.323  27.530  26.419  1.00  0.00     0.012 A 
ATOM     63  C   UNL A   1      41.655  25.468  27.524  1.00  0.00     0.148 A 
ATOM     64  C   UNL A   1      42.692  26.813  25.282  1.00  0.00     0.002 A 
ATOM     65  C   UNL A   1      42.063  24.755  26.402  1.00  0.00     0.091 A 
ATOM     66  F   UNL A   1      41.125  24.860  28.595  1.00  0.00    -0.205 F 
ATOM     67  C   UNL A   1      42.571  25.426  25.277  1.00  0.00     0.022 A 
BRANCH  65  68
ATOM     68  S   UNL A   1      42.020  22.961  26.321  1.00  0.00     0.127 S 
ATOM     69  O   UNL A   1      40.583  22.697  26.378  1.00  0.00    -0.237 OA
ATOM     70  O   UNL A   1      42.638  22.695  25.021  1.00  0.00    -0.237 OA
ATOM     71  O   UNL A   1      42.787  22.488  27.466  1.00  0.00    -0.744 OA
ENDBRANCH  65  68
ENDBRANCH  47  61
BRANCH  48  72
ATOM     72  C   UNL A   1      38.933  32.165  35.526  1.00  0.00     0.023 A 
ATOM     73  C   UNL A   1      39.140  33.558  35.565  1.00  0.00     0.012 A 
ATOM     74  C   UNL A   1      38.306  31.535  36.617  1.00  0.00     0.148 A 
ATOM     75  C   UNL A   1      38.764  34.304  36.683  1.00  0.00     0.002 A 
ATOM     76  C   UNL A   1      37.887  32.293  37.707  1.00  0.00     0.091 A 
ATOM     77  F   UNL A   1      38.130  30.207  36.573  1.00  0.00    -0.205 F 
ATOM     78  C   UNL A   1      38.129  33.674  37.749  1.00  0.00     0.022 A 
BRANCH  76  79
ATOM     79  S   UNL A   1      36.946  31.571  39.056  1.00  0.00     0.127 S 
ATOM     80  O   UNL A   1      37.875  31.703  40.176  1.00  0.00    -0.237 OA
ATOM     81  O   UNL A   1      35.774  32.445  39.123  1.00  0.00    -0.237 OA
ATOM     82  O   UNL A   1      36.648  30.211  38.627  1.00  0.00    -0.744 OA
ENDBRANCH  76  79
ENDBRANCH  48  72
BRANCH  60  83
ATOM     83  C   UNL A   1      44.568  28.334  34.023  1.00  0.00     0.023 A 
ATOM     84  C   UNL A   1      45.692  29.181  33.966  1.00  0.00     0.012 A 
ATOM     85  C   UNL A   1      44.585  27.217  34.882  1.00  0.00     0.148 A 
ATOM     86  C   UNL A   1      46.823  28.909  34.732  1.00  0.00     0.002 A 
ATOM     87  C   UNL A   1      45.700  26.975  35.674  1.00  0.00     0.091 A 
ATOM     88  F   UNL A   1      43.513  26.410  34.905  1.00  0.00    -0.205 F 
ATOM     89  C   UNL A   1      46.822  27.815  35.595  1.00  0.00     0.022 A 
BRANCH  87  90
ATOM     90  S   UNL A   1      45.746  25.642  36.877  1.00  0.00     0.127 S 
ATOM     91  O   UNL A   1      45.675  24.461  36.018  1.00  0.00    -0.237 OA
ATOM     92  O   UNL A   1      47.042  25.847  37.526  1.00  0.00    -0.237 OA
ATOM     93  O   UNL A   1      44.599  25.855  37.750  1.00  0.00    -0.744 OA
ENDBRANCH  87  90
ENDBRANCH  60  83
ENDBRANCH  34  35
ENDBRANCH  26  29
ENDBRANCH   1  25
TORSDOF 15
ENDMDL
MODEL 3
REMARK VINA RESULT:     -12.4      5.216      9.920
REMARK SMILES C=C1c2ccccc2C(=O)N1[C@](C)(C(=O)NCCCNC(=O)c1ccc(-c2c3nc(c(-c4cccc(S(=O)(=O)[O-])c4F)c4ccc([nH]4)c(-c4cccc(S(=O)(=O)[O-])c4F)c4nc(c(-c5cccc(S(=O)(=O)[O-])c5F)c5ccc2[nH]5)C=C4)C=C3)cc1)C(F)(F)F
REMARK SMILES IDX 19 1 18 2 17 3 16 4 14 5 15 6 12 8 13 9 11 10 1 11 2 12 3 13
REMARK SMILES IDX 4 14 8 15 9 16 5 17 7 18 10 19 6 20 86 21 87 22 88 23 89 24
REMARK SMILES IDX 20 25 21 26 22 28 23 29 24 30 85 31 25 32 84 33 26 34 27 35
REMARK SMILES IDX 28 36 78 37 29 38 83 39 77 40 79 41 30 42 82 43 76 44 75 45
REMARK SMILES IDX 31 47 63 48 43 49 62 50 44 51 47 52 61 53 80 54 45 55 46 56
REMARK SMILES IDX 60 58 81 59 48 60 32 61 33 62 41 63 34 64 36 65 42 66 35 67
REMARK SMILES IDX 37 68 38 69 39 70 40 71 64 72 65 73 73 74 66 75 68 76 74 77
REMARK SMILES IDX 67 78 69 79 70 80 71 81 72 82 49 83 50 84 58 85 51 86 53 87
REMARK SMILES IDX 59 88 52 89 54 90 55 91 56 92 57 93
REMARK H PARENT 16 7 20 27 79 46 47 57
REMARK Flexibility Score: inf
ROOT
ATOM      1  C   UNL A   1      36.828  21.866  25.275  1.00  0.00     0.118 C 
ENDROOT
BRANCH   1   2
ATOM      2  C   UNL A   1      35.574  21.654  26.106  1.00  0.00     0.042 C 
BRANCH   2   3
ATOM      3  C   UNL A   1      34.663  22.865  26.179  1.00  0.00     0.117 C 
BRANCH   3   4
ATOM      4  N   UNL A   1      33.250  22.555  26.337  1.00  0.00    -0.354 N 
ATOM      5  C   UNL A   1      32.206  22.641  25.463  1.00  0.00     0.255 C 
ATOM      6  O   UNL A   1      31.305  21.821  25.694  1.00  0.00    -0.272 OA
ATOM      7  H   UNL A   1      33.005  22.226  27.232  1.00  0.00     0.163 HD
BRANCH   5   8
ATOM      8  C   UNL A   1      32.137  23.577  24.215  1.00  0.00     0.219 C 
ATOM      9  C   UNL A   1      30.808  23.510  23.432  1.00  0.00     0.056 C 
BRANCH   8  10
ATOM     10  N   UNL A   1      32.453  24.980  24.663  1.00  0.00    -0.285 N 
ATOM     11  C   UNL A   1      33.681  26.098  22.805  1.00  0.00     0.038 C 
ATOM     12  C   UNL A   1      33.173  26.002  24.036  1.00  0.00     0.046 C 
ATOM     13  C   UNL A   1      33.274  27.119  24.992  1.00  0.00     0.010 A 
ATOM     14  C   UNL A   1      33.901  28.354  24.965  1.00  0.00     0.011 A 
ATOM     15  C   UNL A   1      32.567  26.757  26.127  1.00  0.00     0.049 A 
ATOM     16  C   UNL A   1      31.994  25.445  25.898  1.00  0.00     0.260 C 
ATOM     17  C   UNL A   1      33.812  29.184  26.096  1.00  0.00     0.001 A 
ATOM     18  C   UNL A   1      32.466  27.545  27.264  1.00  0.00     0.014 A 
ATOM     19  O   UNL A   1      31.235  24.946  26.710  1.00  0.00    -0.269 OA
ATOM     20  C   UNL A   1      33.106  28.778  27.242  1.00  0.00     0.001 A 
ENDBRANCH   8  10
BRANCH   8  21
ATOM     21  C   UNL A   1      33.158  22.865  23.281  1.00  0.00     0.420 C 
ATOM     22  F   UNL A   1      33.153  21.519  23.473  1.00  0.00    -0.168 F 
ATOM     23  F   UNL A   1      32.829  23.039  21.970  1.00  0.00    -0.168 F 
ATOM     24  F   UNL A   1      34.440  23.274  23.406  1.00  0.00    -0.168 F 
ENDBRANCH   8  21
ENDBRANCH   5   8
ENDBRANCH   3   4
ENDBRANCH   2   3
ENDBRANCH   1   2
BRANCH   1  25
ATOM     25  N   UNL A   1      37.908  20.932  25.584  1.00  0.00    -0.352 N 
ATOM     26  C   UNL A   1      39.166  21.120  26.110  1.00  0.00     0.251 C 
ATOM     27  H   UNL A   1      37.697  19.992  25.378  1.00  0.00     0.163 HD
ATOM     28  O   UNL A   1      39.942  20.167  26.160  1.00  0.00    -0.269 OA
BRANCH  26  29
ATOM     29  C   UNL A   1      39.613  22.451  26.583  1.00  0.00     0.039 A 
ATOM     30  C   UNL A   1      40.657  22.529  27.512  1.00  0.00     0.014 A 
ATOM     31  C   UNL A   1      39.009  23.623  26.134  1.00  0.00     0.014 A 
ATOM     32  C   UNL A   1      41.152  23.778  27.905  1.00  0.00     0.010 A 
ATOM     33  C   UNL A   1      39.581  24.856  26.426  1.00  0.00     0.010 A 
ATOM     34  C   UNL A   1      40.655  24.953  27.321  1.00  0.00    -0.014 A 
BRANCH  34  35
ATOM     35  C   UNL A   1      41.222  26.296  27.622  1.00  0.00     0.031 A 
ATOM     36  C   UNL A   1      42.639  26.622  27.219  1.00  0.00     0.074 A 
ATOM     37  C   UNL A   1      40.516  27.172  28.366  1.00  0.00     0.049 A 
ATOM     38  N   UNL A   1      43.368  27.662  27.531  1.00  0.00    -0.248 NA
ATOM     39  C   UNL A   1      43.346  25.626  26.393  1.00  0.00     0.031 C 
ATOM     40  C   UNL A   1      39.170  26.946  28.900  1.00  0.00     0.029 A 
ATOM     41  N   UNL A   1      40.848  28.420  28.833  1.00  0.00    -0.354 N 
ATOM     42  C   UNL A   1      44.629  27.416  26.998  1.00  0.00     0.074 A 
ATOM     43  C   UNL A   1      44.578  26.114  26.371  1.00  0.00     0.031 C 
ATOM     44  C   UNL A   1      38.788  28.021  29.608  1.00  0.00     0.029 A 
ATOM     45  C   UNL A   1      39.870  28.999  29.610  1.00  0.00     0.049 A 
ATOM     46  H   UNL A   1      41.705  28.861  28.631  1.00  0.00     0.167 HD
ATOM     47  C   UNL A   1      45.722  28.216  26.991  1.00  0.00     0.034 A 
ATOM     48  C   UNL A   1      39.849  30.182  30.255  1.00  0.00     0.034 A 
ATOM     49  C   UNL A   1      45.742  29.549  27.527  1.00  0.00     0.049 A 
ATOM     50  C   UNL A   1      41.042  31.093  30.146  1.00  0.00     0.074 A 
ATOM     51  C   UNL A   1      46.766  30.478  27.484  1.00  0.00     0.029 A 
ATOM     52  N   UNL A   1      44.681  30.151  28.184  1.00  0.00    -0.354 N 
ATOM     53  N   UNL A   1      42.174  30.898  29.513  1.00  0.00    -0.248 NA
ATOM     54  C   UNL A   1      40.943  32.403  30.806  1.00  0.00     0.031 C 
ATOM     55  C   UNL A   1      46.321  31.647  28.109  1.00  0.00     0.029 A 
ATOM     56  C   UNL A   1      45.019  31.445  28.539  1.00  0.00     0.049 A 
ATOM     57  H   UNL A   1      43.815  29.722  28.370  1.00  0.00     0.167 HD
ATOM     58  C   UNL A   1      42.904  32.070  29.668  1.00  0.00     0.074 A 
ATOM     59  C   UNL A   1      42.079  32.979  30.436  1.00  0.00     0.031 C 
ATOM     60  C   UNL A   1      44.155  32.360  29.235  1.00  0.00     0.034 A 
BRANCH  47  61
ATOM     61  C   UNL A   1      46.961  27.707  26.302  1.00  0.00     0.023 A 
ATOM     62  C   UNL A   1      47.894  26.951  27.040  1.00  0.00     0.012 A 
ATOM     63  C   UNL A   1      47.176  27.920  24.927  1.00  0.00     0.148 A 
ATOM     64  C   UNL A   1      49.038  26.440  26.429  1.00  0.00     0.002 A 
ATOM     65  C   UNL A   1      48.299  27.372  24.315  1.00  0.00     0.091 A 
ATOM     66  F   UNL A   1      46.288  28.658  24.246  1.00  0.00    -0.205 F 
ATOM     67  C   UNL A   1      49.235  26.642  25.066  1.00  0.00     0.022 A 
BRANCH  65  68
ATOM     68  S   UNL A   1      48.608  27.510  22.550  1.00  0.00     0.127 S 
ATOM     69  O   UNL A   1      49.908  28.180  22.530  1.00  0.00    -0.237 OA
ATOM     70  O   UNL A   1      48.639  26.108  22.132  1.00  0.00    -0.237 OA
ATOM     71  O   UNL A   1      47.499  28.281  22.007  1.00  0.00    -0.744 OA
ENDBRANCH  65  68
ENDBRANCH  47  61
BRANCH  48  72
ATOM     72  C   UNL A   1      38.623  30.616  30.985  1.00  0.00     0.023 A 
ATOM     73  C   UNL A   1      38.522  30.351  32.366  1.00  0.00     0.012 A 
ATOM     74  C   UNL A   1      37.576  31.300  30.341  1.00  0.00     0.148 A 
ATOM     75  C   UNL A   1      37.386  30.728  33.083  1.00  0.00     0.002 A 
ATOM     76  C   UNL A   1      36.468  31.718  31.072  1.00  0.00     0.091 A 
ATOM     77  F   UNL A   1      37.678  31.530  29.024  1.00  0.00    -0.205 F 
ATOM     78  C   UNL A   1      36.364  31.419  32.439  1.00  0.00     0.022 A 
BRANCH  76  79
ATOM     79  S   UNL A   1      35.175  32.727  30.339  1.00  0.00     0.127 S 
ATOM     80  O   UNL A   1      35.917  33.915  29.927  1.00  0.00    -0.237 OA
ATOM     81  O   UNL A   1      34.705  31.883  29.239  1.00  0.00    -0.237 OA
ATOM     82  O   UNL A   1      34.195  32.918  31.400  1.00  0.00    -0.744 OA
ENDBRANCH  76  79
ENDBRANCH  48  72
BRANCH  60  83
ATOM     83  C   UNL A   1      44.700  33.728  29.542  1.00  0.00     0.023 A 
ATOM     84  C   UNL A   1      45.386  33.947  30.753  1.00  0.00     0.012 A 
ATOM     85  C   UNL A   1      44.612  34.768  28.596  1.00  0.00     0.148 A 
ATOM     86  C   UNL A   1      45.954  35.188  31.029  1.00  0.00     0.002 A 
ATOM     87  C   UNL A   1      45.217  35.991  28.861  1.00  0.00     0.091 A 
ATOM     88  F   UNL A   1      43.937  34.546  27.459  1.00  0.00    -0.205 F 
ATOM     89  C   UNL A   1      45.882  36.205  30.079  1.00  0.00     0.022 A 
BRANCH  87  90
ATOM     90  S   UNL A   1      45.249  37.322  27.655  1.00  0.00     0.127 S 
ATOM     91  O   UNL A   1      45.980  36.706  26.549  1.00  0.00    -0.237 OA
ATOM     92  O   UNL A   1      43.826  37.546  27.395  1.00  0.00    -0.237 OA
ATOM     93  O   UNL A   1      45.921  38.436  28.311  1.00  0.00    -0.744 OA
ENDBRANCH  87  90
ENDBRANCH  60  83
ENDBRANCH  34  35
ENDBRANCH  26  29
ENDBRANCH   1  25
TORSDOF 15
ENDMDL
