MODEL 1
REMARK VINA RESULT:     -12.6      0.000      0.000
REMARK SMILES Cc1ccc(NC(=O)NC[C@@H]2CC[C@@H](C(=O)NCCCNC(=O)c3ccc(-c4c5nc(c(-c6cccc(S(=O)(=O)[O-])c6F)c6ccc([nH]6)c(-c6cccc(S(=O)(=O)[O-])c6F)c6nc(c(-c7cccc(S(=O)(=O)[O-])c7F)c7ccc4[nH]7)C=C6)C=C5)cc3)O2)c(F)c1
REMARK SMILES IDX 19 1 18 2 17 3 15 4 16 5 14 7 11 8 12 9 87 10 13 11 10 12
REMARK SMILES IDX 9 13 6 14 7 15 8 17 5 19 1 20 2 21 3 22 90 23 4 24 88 25
REMARK SMILES IDX 89 26 20 27 21 28 22 29 23 31 24 32 25 33 86 34 26 35 85 36
REMARK SMILES IDX 27 37 28 38 29 39 79 40 30 41 84 42 78 43 80 44 31 45 83 46
REMARK SMILES IDX 77 47 76 48 32 50 64 51 44 52 63 53 45 54 48 55 62 56 81 57
REMARK SMILES IDX 46 58 47 59 61 61 82 62 49 63 33 64 34 65 42 66 35 67 37 68
REMARK SMILES IDX 43 69 36 70 38 71 39 72 40 73 41 74 65 75 66 76 74 77 67 78
REMARK SMILES IDX 69 79 75 80 68 81 70 82 71 83 72 84 73 85 50 86 51 87 59 88
REMARK SMILES IDX 52 89 54 90 60 91 53 92 55 93 56 94 57 95 58 96
REMARK H PARENT 17 6 6 16 9 18 21 30 80 49 48 60
REMARK Flexibility Score: inf
ROOT
ATOM      1  C   UNL A   1      37.306  19.517  25.003  1.00  0.00     0.042 C 
ENDROOT
BRANCH   1   2
ATOM      2  C   UNL A   1      36.093  20.427  24.946  1.00  0.00     0.117 C 
BRANCH   2   3
ATOM      3  N   UNL A   1      34.856  19.667  25.001  1.00  0.00    -0.354 N 
ATOM      4  C   UNL A   1      33.585  20.155  25.131  1.00  0.00     0.249 C 
ATOM      5  O   UNL A   1      32.653  19.363  25.265  1.00  0.00    -0.272 OA
ATOM      6  H   UNL A   1      34.942  18.688  24.936  1.00  0.00     0.163 HD
BRANCH   4   7
ATOM      7  C   UNL A   1      33.413  21.676  25.145  1.00  0.00     0.207 C 
ATOM      8  C   UNL A   1      31.393  22.802  24.781  1.00  0.00     0.138 C 
ATOM      9  C   UNL A   1      32.039  23.361  26.034  1.00  0.00     0.037 C 
ATOM     10  O   UNL A   1      32.454  22.081  24.144  1.00  0.00    -0.363 OA
ATOM     11  C   UNL A   1      32.913  22.215  26.470  1.00  0.00     0.045 C 
BRANCH   8  12
ATOM     12  C   UNL A   1      30.814  23.845  23.805  1.00  0.00     0.149 C 
BRANCH  12  13
ATOM     13  N   UNL A   1      31.624  23.940  22.588  1.00  0.00    -0.335 N 
ATOM     14  N   UNL A   1      33.364  25.540  22.949  1.00  0.00    -0.305 N 
ATOM     15  C   UNL A   1      32.738  24.592  22.227  1.00  0.00     0.319 C 
ATOM     16  H   UNL A   1      34.304  25.661  22.681  1.00  0.00     0.171 HD
ATOM     17  O   UNL A   1      33.296  24.219  21.187  1.00  0.00    -0.249 OA
ATOM     18  H   UNL A   1      31.262  23.389  21.856  1.00  0.00     0.165 HD
BRANCH  14  19
ATOM     19  C   UNL A   1      32.989  26.399  23.994  1.00  0.00     0.078 A 
ATOM     20  C   UNL A   1      31.502  28.275  27.571  1.00  0.00     0.044 C 
ATOM     21  C   UNL A   1      32.110  27.755  26.302  1.00  0.00    -0.048 A 
ATOM     22  C   UNL A   1      33.325  27.064  26.307  1.00  0.00     0.006 A 
ATOM     23  C   UNL A   1      31.429  27.892  25.096  1.00  0.00     0.045 A 
ATOM     24  C   UNL A   1      33.767  26.395  25.155  1.00  0.00     0.029 A 
ATOM     25  C   UNL A   1      31.910  27.268  23.946  1.00  0.00     0.147 A 
ATOM     26  F   UNL A   1      31.327  27.553  22.777  1.00  0.00    -0.205 F 
ENDBRANCH  14  19
ENDBRANCH  12  13
ENDBRANCH   8  12
ENDBRANCH   4   7
ENDBRANCH   2   3
ENDBRANCH   1   2
BRANCH   1  27
ATOM     27  C   UNL A   1      38.561  20.243  25.453  1.00  0.00     0.118 C 
BRANCH  27  28
ATOM     28  N   UNL A   1      39.637  19.321  25.800  1.00  0.00    -0.352 N 
ATOM     29  C   UNL A   1      40.924  19.587  26.193  1.00  0.00     0.251 C 
ATOM     30  H   UNL A   1      39.406  18.366  25.744  1.00  0.00     0.163 HD
ATOM     31  O   UNL A   1      41.754  18.688  26.230  1.00  0.00    -0.269 OA
BRANCH  29  32
ATOM     32  C   UNL A   1      41.294  20.969  26.556  1.00  0.00     0.039 A 
ATOM     33  C   UNL A   1      42.106  21.185  27.670  1.00  0.00     0.014 A 
ATOM     34  C   UNL A   1      40.851  22.042  25.779  1.00  0.00     0.014 A 
ATOM     35  C   UNL A   1      42.524  22.482  27.968  1.00  0.00     0.010 A 
ATOM     36  C   UNL A   1      41.355  23.313  26.014  1.00  0.00     0.010 A 
ATOM     37  C   UNL A   1      42.180  23.549  27.122  1.00  0.00    -0.014 A 
BRANCH  37  38
ATOM     38  C   UNL A   1      42.669  24.925  27.375  1.00  0.00     0.031 A 
ATOM     39  C   UNL A   1      41.771  25.932  28.037  1.00  0.00     0.074 A 
ATOM     40  C   UNL A   1      43.886  25.288  26.928  1.00  0.00     0.049 A 
ATOM     41  N   UNL A   1      42.004  27.189  28.310  1.00  0.00    -0.248 NA
ATOM     42  C   UNL A   1      40.421  25.478  28.412  1.00  0.00     0.031 C 
ATOM     43  C   UNL A   1      44.817  24.419  26.205  1.00  0.00     0.029 A 
ATOM     44  N   UNL A   1      44.543  26.489  27.003  1.00  0.00    -0.354 N 
ATOM     45  C   UNL A   1      40.823  27.684  28.849  1.00  0.00     0.074 A 
ATOM     46  C   UNL A   1      39.861  26.605  28.821  1.00  0.00     0.031 C 
ATOM     47  C   UNL A   1      45.935  25.108  25.927  1.00  0.00     0.029 A 
ATOM     48  C   UNL A   1      45.786  26.474  26.417  1.00  0.00     0.049 A 
ATOM     49  H   UNL A   1      44.159  27.287  27.434  1.00  0.00     0.167 HD
ATOM     50  C   UNL A   1      40.569  28.916  29.352  1.00  0.00     0.034 A 
ATOM     51  C   UNL A   1      46.703  27.453  26.291  1.00  0.00     0.034 A 
ATOM     52  C   UNL A   1      41.542  29.972  29.403  1.00  0.00     0.049 A 
ATOM     53  C   UNL A   1      46.406  28.808  26.871  1.00  0.00     0.074 A 
ATOM     54  C   UNL A   1      41.421  31.227  29.975  1.00  0.00     0.029 A 
ATOM     55  N   UNL A   1      42.810  29.908  28.845  1.00  0.00    -0.354 N 
ATOM     56  N   UNL A   1      45.343  29.212  27.522  1.00  0.00    -0.248 NA
ATOM     57  C   UNL A   1      47.450  29.832  26.724  1.00  0.00     0.031 C 
ATOM     58  C   UNL A   1      42.603  31.933  29.725  1.00  0.00     0.029 A 
ATOM     59  C   UNL A   1      43.476  31.106  29.037  1.00  0.00     0.049 A 
ATOM     60  H   UNL A   1      43.182  29.123  28.381  1.00  0.00     0.167 HD
ATOM     61  C   UNL A   1      45.604  30.525  27.899  1.00  0.00     0.074 A 
ATOM     62  C   UNL A   1      46.933  30.840  27.413  1.00  0.00     0.031 C 
ATOM     63  C   UNL A   1      44.813  31.392  28.580  1.00  0.00     0.034 A 
BRANCH  50  64
ATOM     64  C   UNL A   1      39.190  29.164  29.908  1.00  0.00     0.023 A 
ATOM     65  C   UNL A   1      38.874  28.742  31.218  1.00  0.00     0.012 A 
ATOM     66  C   UNL A   1      38.208  29.821  29.143  1.00  0.00     0.148 A 
ATOM     67  C   UNL A   1      37.589  28.916  31.732  1.00  0.00     0.002 A 
ATOM     68  C   UNL A   1      36.946  30.040  29.683  1.00  0.00     0.091 A 
ATOM     69  F   UNL A   1      38.514  30.198  27.893  1.00  0.00    -0.205 F 
ATOM     70  C   UNL A   1      36.628  29.572  30.969  1.00  0.00     0.022 A 
BRANCH  68  71
ATOM     71  S   UNL A   1      35.669  30.951  28.808  1.00  0.00     0.127 S 
ATOM     72  O   UNL A   1      36.466  31.880  28.007  1.00  0.00    -0.237 OA
ATOM     73  O   UNL A   1      35.009  29.896  28.039  1.00  0.00    -0.237 OA
ATOM     74  O   UNL A   1      34.837  31.560  29.837  1.00  0.00    -0.744 OA
ENDBRANCH  68  71
ENDBRANCH  50  64
BRANCH  51  75
ATOM     75  C   UNL A   1      48.022  27.152  25.668  1.00  0.00     0.023 A 
ATOM     76  C   UNL A   1      49.027  26.550  26.452  1.00  0.00     0.012 A 
ATOM     77  C   UNL A   1      48.272  27.405  24.306  1.00  0.00     0.148 A 
ATOM     78  C   UNL A   1      50.265  26.230  25.897  1.00  0.00     0.002 A 
ATOM     79  C   UNL A   1      49.489  27.036  23.747  1.00  0.00     0.091 A 
ATOM     80  F   UNL A   1      47.301  27.978  23.580  1.00  0.00    -0.205 F 
ATOM     81  C   UNL A   1      50.493  26.463  24.543  1.00  0.00     0.022 A 
BRANCH  79  82
ATOM     82  S   UNL A   1      49.833  27.181  21.989  1.00  0.00     0.127 S 
ATOM     83  O   UNL A   1      48.827  26.294  21.412  1.00  0.00    -0.237 OA
ATOM     84  O   UNL A   1      49.605  28.607  21.759  1.00  0.00    -0.237 OA
ATOM     85  O   UNL A   1      51.216  26.753  21.819  1.00  0.00    -0.744 OA
ENDBRANCH  79  82
ENDBRANCH  51  75
BRANCH  63  86
ATOM     86  C   UNL A   1      45.373  32.760  28.877  1.00  0.00     0.023 A 
ATOM     87  C   UNL A   1      46.183  32.960  30.013  1.00  0.00     0.012 A 
ATOM     88  C   UNL A   1      45.153  33.831  27.988  1.00  0.00     0.148 A 
ATOM     89  C   UNL A   1      46.735  34.213  30.278  1.00  0.00     0.002 A 
ATOM     90  C   UNL A   1      45.751  35.062  28.229  1.00  0.00     0.091 A 
ATOM     91  F   UNL A   1      44.365  33.626  26.922  1.00  0.00    -0.205 F 
ATOM     92  C   UNL A   1      46.530  35.258  29.381  1.00  0.00     0.022 A 
BRANCH  90  93
ATOM     93  S   UNL A   1      45.626  36.435  27.079  1.00  0.00     0.127 S 
ATOM     94  O   UNL A   1      44.185  36.493  26.839  1.00  0.00    -0.237 OA
ATOM     95  O   UNL A   1      46.158  37.548  27.868  1.00  0.00    -0.237 OA
ATOM     96  O   UNL A   1      46.437  36.071  25.925  1.00  0.00    -0.744 OA
ENDBRANCH  90  93
ENDBRANCH  63  86
ENDBRANCH  37  38
ENDBRANCH  29  32
ENDBRANCH  27  28
ENDBRANCH   1  27
TORSDOF 16
ENDMDL
MODEL 2
REMARK VINA RESULT:     -12.5      1.288      2.049
REMARK SMILES Cc1ccc(NC(=O)NC[C@@H]2CC[C@@H](C(=O)NCCCNC(=O)c3ccc(-c4c5nc(c(-c6cccc(S(=O)(=O)[O-])c6F)c6ccc([nH]6)c(-c6cccc(S(=O)(=O)[O-])c6F)c6nc(c(-c7cccc(S(=O)(=O)[O-])c7F)c7ccc4[nH]7)C=C6)C=C5)cc3)O2)c(F)c1
REMARK SMILES IDX 19 1 18 2 17 3 15 4 16 5 14 7 11 8 12 9 87 10 13 11 10 12
REMARK SMILES IDX 9 13 6 14 7 15 8 17 5 19 1 20 2 21 3 22 90 23 4 24 88 25
REMARK SMILES IDX 89 26 20 27 21 28 22 29 23 31 24 32 25 33 86 34 26 35 85 36
REMARK SMILES IDX 27 37 28 38 29 39 79 40 30 41 84 42 78 43 80 44 31 45 83 46
REMARK SMILES IDX 77 47 76 48 32 50 64 51 44 52 63 53 45 54 48 55 62 56 81 57
REMARK SMILES IDX 46 58 47 59 61 61 82 62 49 63 33 64 34 65 42 66 35 67 37 68
REMARK SMILES IDX 43 69 36 70 38 71 39 72 40 73 41 74 65 75 66 76 74 77 67 78
REMARK SMILES IDX 69 79 75 80 68 81 70 82 71 83 72 84 73 85 50 86 51 87 59 88
REMARK SMILES IDX 52 89 54 90 60 91 53 92 55 93 56 94 57 95 58 96
REMARK H PARENT 17 6 6 16 9 18 21 30 80 49 48 60
REMARK Flexibility Score: inf
ROOT
ATOM      1  C   UNL A   1      37.367  19.511  25.002  1.00  0.00     0.042 C 
ENDROOT
BRANCH   1   2
ATOM      2  C   UNL A   1      36.150  20.412  24.906  1.00  0.00     0.117 C 
BRANCH   2   3
ATOM      3  N   UNL A   1      36.451  21.761  25.356  1.00  0.00    -0.354 N 
ATOM      4  C   UNL A   1      35.869  22.926  24.938  1.00  0.00     0.249 C 
ATOM      5  O   UNL A   1      36.317  23.997  25.349  1.00  0.00    -0.272 OA
ATOM      6  H   UNL A   1      37.153  21.846  26.041  1.00  0.00     0.163 HD
BRANCH   4   7
ATOM      7  C   UNL A   1      34.713  22.818  23.940  1.00  0.00     0.207 C 
ATOM      8  C   UNL A   1      32.536  23.591  24.319  1.00  0.00     0.138 C 
ATOM      9  C   UNL A   1      33.001  24.099  22.968  1.00  0.00     0.037 C 
ATOM     10  O   UNL A   1      33.474  22.556  24.635  1.00  0.00    -0.363 OA
ATOM     11  C   UNL A   1      34.498  24.079  23.127  1.00  0.00     0.045 C 
BRANCH   8  12
ATOM     12  C   UNL A   1      31.104  23.025  24.365  1.00  0.00     0.149 C 
BRANCH  12  13
ATOM     13  N   UNL A   1      30.646  22.849  25.745  1.00  0.00    -0.335 N 
ATOM     14  N   UNL A   1      29.662  24.896  26.492  1.00  0.00    -0.305 N 
ATOM     15  C   UNL A   1      29.978  23.595  26.636  1.00  0.00     0.319 C 
ATOM     16  H   UNL A   1      28.919  25.171  27.077  1.00  0.00     0.171 HD
ATOM     17  O   UNL A   1      29.525  23.014  27.629  1.00  0.00    -0.249 OA
ATOM     18  H   UNL A   1      30.887  21.965  26.107  1.00  0.00     0.165 HD
BRANCH  14  19
ATOM     19  C   UNL A   1      30.146  25.952  25.706  1.00  0.00     0.078 A 
ATOM     20  C   UNL A   1      31.953  28.527  22.768  1.00  0.00     0.044 C 
ATOM     21  C   UNL A   1      31.239  27.760  23.841  1.00  0.00    -0.048 A 
ATOM     22  C   UNL A   1      29.994  27.168  23.607  1.00  0.00     0.006 A 
ATOM     23  C   UNL A   1      31.846  27.563  25.078  1.00  0.00     0.045 A 
ATOM     24  C   UNL A   1      29.446  26.274  24.539  1.00  0.00     0.029 A 
ATOM     25  C   UNL A   1      31.261  26.716  26.017  1.00  0.00     0.147 A 
ATOM     26  F   UNL A   1      31.780  26.677  27.249  1.00  0.00    -0.205 F 
ENDBRANCH  14  19
ENDBRANCH  12  13
ENDBRANCH   8  12
ENDBRANCH   4   7
ENDBRANCH   2   3
ENDBRANCH   1   2
BRANCH   1  27
ATOM     27  C   UNL A   1      38.609  20.254  25.460  1.00  0.00     0.118 C 
BRANCH  27  28
ATOM     28  N   UNL A   1      39.691  19.346  25.827  1.00  0.00    -0.352 N 
ATOM     29  C   UNL A   1      40.973  19.628  26.224  1.00  0.00     0.251 C 
ATOM     30  H   UNL A   1      39.467  18.388  25.784  1.00  0.00     0.163 HD
ATOM     31  O   UNL A   1      41.810  18.736  26.279  1.00  0.00    -0.269 OA
BRANCH  29  32
ATOM     32  C   UNL A   1      41.330  21.018  26.568  1.00  0.00     0.039 A 
ATOM     33  C   UNL A   1      42.072  21.263  27.723  1.00  0.00     0.014 A 
ATOM     34  C   UNL A   1      40.944  22.070  25.733  1.00  0.00     0.014 A 
ATOM     35  C   UNL A   1      42.480  22.565  28.008  1.00  0.00     0.010 A 
ATOM     36  C   UNL A   1      41.442  23.344  25.961  1.00  0.00     0.010 A 
ATOM     37  C   UNL A   1      42.199  23.609  27.111  1.00  0.00    -0.014 A 
BRANCH  37  38
ATOM     38  C   UNL A   1      42.681  24.988  27.353  1.00  0.00     0.031 A 
ATOM     39  C   UNL A   1      41.780  25.996  28.011  1.00  0.00     0.074 A 
ATOM     40  C   UNL A   1      43.895  25.355  26.901  1.00  0.00     0.049 A 
ATOM     41  N   UNL A   1      42.007  27.256  28.275  1.00  0.00    -0.248 NA
ATOM     42  C   UNL A   1      40.433  25.537  28.393  1.00  0.00     0.031 C 
ATOM     43  C   UNL A   1      44.828  24.485  26.180  1.00  0.00     0.029 A 
ATOM     44  N   UNL A   1      44.546  26.560  26.965  1.00  0.00    -0.354 N 
ATOM     45  C   UNL A   1      40.825  27.748  28.814  1.00  0.00     0.074 A 
ATOM     46  C   UNL A   1      39.869  26.664  28.796  1.00  0.00     0.031 C 
ATOM     47  C   UNL A   1      45.942  25.178  25.895  1.00  0.00     0.029 A 
ATOM     48  C   UNL A   1      45.787  26.547  26.376  1.00  0.00     0.049 A 
ATOM     49  H   UNL A   1      44.159  27.359  27.392  1.00  0.00     0.167 HD
ATOM     50  C   UNL A   1      40.566  28.982  29.309  1.00  0.00     0.034 A 
ATOM     51  C   UNL A   1      46.698  27.529  26.240  1.00  0.00     0.034 A 
ATOM     52  C   UNL A   1      41.534  30.044  29.350  1.00  0.00     0.049 A 
ATOM     53  C   UNL A   1      46.397  28.887  26.811  1.00  0.00     0.074 A 
ATOM     54  C   UNL A   1      41.408  31.302  29.913  1.00  0.00     0.029 A 
ATOM     55  N   UNL A   1      42.801  29.982  28.789  1.00  0.00    -0.354 N 
ATOM     56  N   UNL A   1      45.333  29.290  27.463  1.00  0.00    -0.248 NA
ATOM     57  C   UNL A   1      47.434  29.915  26.654  1.00  0.00     0.031 C 
ATOM     58  C   UNL A   1      42.586  32.013  29.656  1.00  0.00     0.029 A 
ATOM     59  C   UNL A   1      43.461  31.185  28.971  1.00  0.00     0.049 A 
ATOM     60  H   UNL A   1      43.176  29.196  28.329  1.00  0.00     0.167 HD
ATOM     61  C   UNL A   1      45.589  30.607  27.830  1.00  0.00     0.074 A 
ATOM     62  C   UNL A   1      46.914  30.926  27.338  1.00  0.00     0.031 C 
ATOM     63  C   UNL A   1      44.796  31.475  28.508  1.00  0.00     0.034 A 
BRANCH  50  64
ATOM     64  C   UNL A   1      39.188  29.227  29.868  1.00  0.00     0.023 A 
ATOM     65  C   UNL A   1      38.871  28.794  31.174  1.00  0.00     0.012 A 
ATOM     66  C   UNL A   1      38.206  29.892  29.108  1.00  0.00     0.148 A 
ATOM     67  C   UNL A   1      37.586  28.965  31.690  1.00  0.00     0.002 A 
ATOM     68  C   UNL A   1      36.944  30.107  29.650  1.00  0.00     0.091 A 
ATOM     69  F   UNL A   1      38.513  30.279  27.862  1.00  0.00    -0.205 F 
ATOM     70  C   UNL A   1      36.627  29.629  30.932  1.00  0.00     0.022 A 
BRANCH  68  71
ATOM     71  S   UNL A   1      35.669  31.028  28.783  1.00  0.00     0.127 S 
ATOM     72  O   UNL A   1      35.016  29.972  28.011  1.00  0.00    -0.237 OA
ATOM     73  O   UNL A   1      34.867  31.559  29.888  1.00  0.00    -0.237 OA
ATOM     74  O   UNL A   1      36.367  32.040  28.003  1.00  0.00    -0.744 OA
ENDBRANCH  68  71
ENDBRANCH  50  64
BRANCH  51  75
ATOM     75  C   UNL A   1      48.017  27.231  25.615  1.00  0.00     0.023 A 
ATOM     76  C   UNL A   1      49.036  26.663  26.406  1.00  0.00     0.012 A 
ATOM     77  C   UNL A   1      48.254  27.453  24.245  1.00  0.00     0.148 A 
ATOM     78  C   UNL A   1      50.275  26.346  25.851  1.00  0.00     0.002 A 
ATOM     79  C   UNL A   1      49.472  27.086  23.687  1.00  0.00     0.091 A 
ATOM     80  F   UNL A   1      47.270  27.994  23.512  1.00  0.00    -0.205 F 
ATOM     81  C   UNL A   1      50.490  26.548  24.490  1.00  0.00     0.022 A 
BRANCH  79  82
ATOM     82  S   UNL A   1      49.802  27.191  21.923  1.00  0.00     0.127 S 
ATOM     83  O   UNL A   1      51.181  26.716  21.848  1.00  0.00    -0.237 OA
ATOM     84  O   UNL A   1      48.802  26.274  21.378  1.00  0.00    -0.237 OA
ATOM     85  O   UNL A   1      49.601  28.589  21.565  1.00  0.00    -0.744 OA
ENDBRANCH  79  82
ENDBRANCH  51  75
BRANCH  63  86
ATOM     86  C   UNL A   1      45.349  32.848  28.794  1.00  0.00     0.023 A 
ATOM     87  C   UNL A   1      46.151  33.062  29.932  1.00  0.00     0.012 A 
ATOM     88  C   UNL A   1      45.131  33.908  27.891  1.00  0.00     0.148 A 
ATOM     89  C   UNL A   1      46.697  34.320  30.188  1.00  0.00     0.002 A 
ATOM     90  C   UNL A   1      45.724  35.143  28.123  1.00  0.00     0.091 A 
ATOM     91  F   UNL A   1      44.352  33.689  26.823  1.00  0.00    -0.205 F 
ATOM     92  C   UNL A   1      46.494  35.355  29.278  1.00  0.00     0.022 A 
BRANCH  90  93
ATOM     93  S   UNL A   1      45.603  36.504  26.958  1.00  0.00     0.127 S 
ATOM     94  O   UNL A   1      46.400  37.536  27.620  1.00  0.00    -0.237 OA
ATOM     95  O   UNL A   1      46.218  35.937  25.756  1.00  0.00    -0.237 OA
ATOM     96  O   UNL A   1      44.183  36.800  26.828  1.00  0.00    -0.744 OA
ENDBRANCH  90  93
ENDBRANCH  63  86
ENDBRANCH  37  38
ENDBRANCH  29  32
ENDBRANCH  27  28
ENDBRANCH   1  27
TORSDOF 16
ENDMDL
MODEL 3
REMARK VINA RESULT:     -12.5      5.369      8.583
REMARK SMILES Cc1ccc(NC(=O)NC[C@@H]2CC[C@@H](C(=O)NCCCNC(=O)c3ccc(-c4c5nc(c(-c6cccc(S(=O)(=O)[O-])c6F)c6ccc([nH]6)c(-c6cccc(S(=O)(=O)[O-])c6F)c6nc(c(-c7cccc(S(=O)(=O)[O-])c7F)c7ccc4[nH]7)C=C6)C=C5)cc3)O2)c(F)c1
REMARK SMILES IDX 19 1 18 2 17 3 15 4 16 5 14 7 11 8 12 9 87 10 13 11 10 12
REMARK SMILES IDX 9 13 6 14 7 15 8 17 5 19 1 20 2 21 3 22 90 23 4 24 88 25
REMARK SMILES IDX 89 26 20 27 21 28 22 29 23 31 24 32 25 33 86 34 26 35 85 36
REMARK SMILES IDX 27 37 28 38 29 39 79 40 30 41 84 42 78 43 80 44 31 45 83 46
REMARK SMILES IDX 77 47 76 48 32 50 64 51 44 52 63 53 45 54 48 55 62 56 81 57
REMARK SMILES IDX 46 58 47 59 61 61 82 62 49 63 33 64 34 65 42 66 35 67 37 68
REMARK SMILES IDX 43 69 36 70 38 71 39 72 40 73 41 74 65 75 66 76 74 77 67 78
REMARK SMILES IDX 69 79 75 80 68 81 70 82 71 83 72 84 73 85 50 86 51 87 59 88
REMARK SMILES IDX 52 89 54 90 60 91 53 92 55 93 56 94 57 95 58 96
REMARK H PARENT 17 6 6 16 9 18 21 30 80 49 48 60
REMARK Flexibility Score: inf
ROOT
ATOM      1  C   UNL A   1      32.988  29.352  25.258  1.00  0.00     0.042 C 
ENDROOT
BRANCH   1   2
ATOM      2  C   UNL A   1      33.396  27.891  25.211  1.00  0.00     0.117 C 
BRANCH   2   3
ATOM      3  N   UNL A   1      32.660  27.103  26.185  1.00  0.00    -0.354 N 
ATOM      4  C   UNL A   1      31.873  26.010  25.947  1.00  0.00     0.249 C 
ATOM      5  O   UNL A   1      31.235  25.519  26.878  1.00  0.00    -0.272 OA
ATOM      6  H   UNL A   1      32.737  27.387  27.125  1.00  0.00     0.163 HD
BRANCH   4   7
ATOM      7  C   UNL A   1      31.806  25.491  24.508  1.00  0.00     0.207 C 
ATOM      8  C   UNL A   1      31.676  23.234  23.899  1.00  0.00     0.138 C 
ATOM      9  C   UNL A   1      30.604  24.000  23.147  1.00  0.00     0.037 C 
ATOM     10  O   UNL A   1      32.550  24.260  24.383  1.00  0.00    -0.363 OA
ATOM     11  C   UNL A   1      30.396  25.196  24.038  1.00  0.00     0.045 C 
BRANCH   8  12
ATOM     12  C   UNL A   1      32.480  22.217  23.066  1.00  0.00     0.149 C 
BRANCH  12  13
ATOM     13  N   UNL A   1      32.317  20.858  23.586  1.00  0.00    -0.335 N 
ATOM     14  N   UNL A   1      33.604  20.645  25.590  1.00  0.00    -0.305 N 
ATOM     15  C   UNL A   1      32.722  20.194  24.678  1.00  0.00     0.319 C 
ATOM     16  H   UNL A   1      33.529  20.176  26.453  1.00  0.00     0.171 HD
ATOM     17  O   UNL A   1      32.162  19.119  24.923  1.00  0.00    -0.249 OA
ATOM     18  H   UNL A   1      31.776  20.292  22.988  1.00  0.00     0.165 HD
BRANCH  14  19
ATOM     19  C   UNL A   1      34.607  21.626  25.599  1.00  0.00     0.078 A 
ATOM     20  C   UNL A   1      38.139  24.029  26.126  1.00  0.00     0.044 C 
ATOM     21  C   UNL A   1      36.869  23.292  25.821  1.00  0.00    -0.048 A 
ATOM     22  C   UNL A   1      36.827  22.279  24.859  1.00  0.00     0.006 A 
ATOM     23  C   UNL A   1      35.715  23.561  26.551  1.00  0.00     0.045 A 
ATOM     24  C   UNL A   1      35.699  21.454  24.743  1.00  0.00     0.029 A 
ATOM     25  C   UNL A   1      34.580  22.768  26.385  1.00  0.00     0.147 A 
ATOM     26  F   UNL A   1      33.444  23.152  26.976  1.00  0.00    -0.205 F 
ENDBRANCH  14  19
ENDBRANCH  12  13
ENDBRANCH   8  12
ENDBRANCH   4   7
ENDBRANCH   2   3
ENDBRANCH   1   2
BRANCH   1  27
ATOM     27  C   UNL A   1      32.661  29.823  26.664  1.00  0.00     0.118 C 
BRANCH  27  28
ATOM     28  N   UNL A   1      32.685  31.277  26.778  1.00  0.00    -0.352 N 
ATOM     29  C   UNL A   1      33.558  32.086  27.461  1.00  0.00     0.251 C 
ATOM     30  H   UNL A   1      31.969  31.748  26.294  1.00  0.00     0.163 HD
ATOM     31  O   UNL A   1      33.296  33.271  27.627  1.00  0.00    -0.269 OA
BRANCH  29  32
ATOM     32  C   UNL A   1      34.803  31.507  28.000  1.00  0.00     0.039 A 
ATOM     33  C   UNL A   1      35.939  32.311  28.098  1.00  0.00     0.014 A 
ATOM     34  C   UNL A   1      34.833  30.177  28.425  1.00  0.00     0.014 A 
ATOM     35  C   UNL A   1      37.094  31.791  28.683  1.00  0.00     0.010 A 
ATOM     36  C   UNL A   1      35.944  29.698  29.102  1.00  0.00     0.010 A 
ATOM     37  C   UNL A   1      37.093  30.493  29.221  1.00  0.00    -0.014 A 
BRANCH  37  38
ATOM     38  C   UNL A   1      38.282  29.941  29.911  1.00  0.00     0.031 A 
ATOM     39  C   UNL A   1      38.636  30.411  31.294  1.00  0.00     0.074 A 
ATOM     40  C   UNL A   1      39.090  29.085  29.256  1.00  0.00     0.049 A 
ATOM     41  N   UNL A   1      39.652  30.074  32.044  1.00  0.00    -0.248 NA
ATOM     42  C   UNL A   1      37.750  31.418  31.903  1.00  0.00     0.031 C 
ATOM     43  C   UNL A   1      38.891  28.615  27.883  1.00  0.00     0.029 A 
ATOM     44  N   UNL A   1      40.249  28.471  29.653  1.00  0.00    -0.354 N 
ATOM     45  C   UNL A   1      39.551  30.853  33.190  1.00  0.00     0.074 A 
ATOM     46  C   UNL A   1      38.401  31.713  33.016  1.00  0.00     0.031 C 
ATOM     47  C   UNL A   1      39.879  27.764  27.564  1.00  0.00     0.029 A 
ATOM     48  C   UNL A   1      40.799  27.659  28.690  1.00  0.00     0.049 A 
ATOM     49  H   UNL A   1      40.650  28.600  30.544  1.00  0.00     0.167 HD
ATOM     50  C   UNL A   1      40.324  30.834  34.302  1.00  0.00     0.034 A 
ATOM     51  C   UNL A   1      41.921  26.913  28.715  1.00  0.00     0.034 A 
ATOM     52  C   UNL A   1      41.447  29.953  34.477  1.00  0.00     0.049 A 
ATOM     53  C   UNL A   1      42.756  26.894  29.965  1.00  0.00     0.074 A 
ATOM     54  C   UNL A   1      42.241  29.784  35.597  1.00  0.00     0.029 A 
ATOM     55  N   UNL A   1      41.948  29.106  33.500  1.00  0.00    -0.354 N 
ATOM     56  N   UNL A   1      42.555  27.515  31.101  1.00  0.00    -0.248 NA
ATOM     57  C   UNL A   1      43.956  26.046  29.945  1.00  0.00     0.031 C 
ATOM     58  C   UNL A   1      43.248  28.864  35.281  1.00  0.00     0.029 A 
ATOM     59  C   UNL A   1      43.054  28.428  33.980  1.00  0.00     0.049 A 
ATOM     60  H   UNL A   1      41.570  29.002  32.596  1.00  0.00     0.167 HD
ATOM     61  C   UNL A   1      43.579  27.104  31.947  1.00  0.00     0.074 A 
ATOM     62  C   UNL A   1      44.390  26.169  31.192  1.00  0.00     0.031 C 
ATOM     63  C   UNL A   1      43.830  27.471  33.229  1.00  0.00     0.034 A 
BRANCH  50  64
ATOM     64  C   UNL A   1      39.955  31.778  35.417  1.00  0.00     0.023 A 
ATOM     65  C   UNL A   1      40.598  33.032  35.519  1.00  0.00     0.012 A 
ATOM     66  C   UNL A   1      38.969  31.434  36.362  1.00  0.00     0.148 A 
ATOM     67  C   UNL A   1      40.308  33.898  36.573  1.00  0.00     0.002 A 
ATOM     68  C   UNL A   1      38.647  32.326  37.378  1.00  0.00     0.091 A 
ATOM     69  F   UNL A   1      38.382  30.233  36.266  1.00  0.00    -0.205 F 
ATOM     70  C   UNL A   1      39.327  33.549  37.496  1.00  0.00     0.022 A 
BRANCH  68  71
ATOM     71  S   UNL A   1      37.337  32.002  38.563  1.00  0.00     0.127 S 
ATOM     72  O   UNL A   1      37.970  32.404  39.819  1.00  0.00    -0.237 OA
ATOM     73  O   UNL A   1      36.276  32.898  38.102  1.00  0.00    -0.237 OA
ATOM     74  O   UNL A   1      37.028  30.585  38.439  1.00  0.00    -0.744 OA
ENDBRANCH  68  71
ENDBRANCH  50  64
BRANCH  51  75
ATOM     75  C   UNL A   1      42.260  26.053  27.548  1.00  0.00     0.023 A 
ATOM     76  C   UNL A   1      42.975  26.614  26.470  1.00  0.00     0.012 A 
ATOM     77  C   UNL A   1      41.932  24.684  27.516  1.00  0.00     0.148 A 
ATOM     78  C   UNL A   1      43.334  25.834  25.372  1.00  0.00     0.002 A 
ATOM     79  C   UNL A   1      42.338  23.901  26.443  1.00  0.00     0.091 A 
ATOM     80  F   UNL A   1      41.252  24.172  28.552  1.00  0.00    -0.205 F 
ATOM     81  C   UNL A   1      43.024  24.476  25.362  1.00  0.00     0.022 A 
BRANCH  79  82
ATOM     82  S   UNL A   1      42.096  22.121  26.394  1.00  0.00     0.127 S 
ATOM     83  O   UNL A   1      40.647  22.019  26.248  1.00  0.00    -0.237 OA
ATOM     84  O   UNL A   1      42.864  21.749  25.206  1.00  0.00    -0.237 OA
ATOM     85  O   UNL A   1      42.636  21.612  27.649  1.00  0.00    -0.744 OA
ENDBRANCH  79  82
ENDBRANCH  51  75
BRANCH  63  86
ATOM     86  C   UNL A   1      45.010  26.836  33.919  1.00  0.00     0.023 A 
ATOM     87  C   UNL A   1      46.281  27.438  33.841  1.00  0.00     0.012 A 
ATOM     88  C   UNL A   1      44.840  25.679  34.705  1.00  0.00     0.148 A 
ATOM     89  C   UNL A   1      47.373  26.878  34.504  1.00  0.00     0.002 A 
ATOM     90  C   UNL A   1      45.920  25.157  35.407  1.00  0.00     0.091 A 
ATOM     91  F   UNL A   1      43.626  25.110  34.753  1.00  0.00    -0.205 F 
ATOM     92  C   UNL A   1      47.189  25.747  35.296  1.00  0.00     0.022 A 
BRANCH  90  93
ATOM     93  S   UNL A   1      45.757  23.766  36.530  1.00  0.00     0.127 S 
ATOM     94  O   UNL A   1      47.150  23.513  36.895  1.00  0.00    -0.237 OA
ATOM     95  O   UNL A   1      44.939  24.330  37.604  1.00  0.00    -0.237 OA
ATOM     96  O   UNL A   1      45.110  22.706  35.770  1.00  0.00    -0.744 OA
ENDBRANCH  90  93
ENDBRANCH  63  86
ENDBRANCH  37  38
ENDBRANCH  29  32
ENDBRANCH  27  28
ENDBRANCH   1  27
TORSDOF 16
ENDMDL
