MODEL 1
REMARK VINA RESULT:     -13.0      0.000      0.000
REMARK SMILES C[NH+]1CCC([NH+]2CCC(Oc3ccc4ccccc4c3)(C(=O)NCCCNC(=O)c3ccc(-c4c5nc(c(-c6cccc(S(=O)(=O)[O-])c6F)c6ccc([nH]6)c(-c6cccc(S(=O)(=O)[O-])c6F)c6nc(c(-c7cccc(S(=O)(=O)[O-])c7F)c7ccc4[nH]7)C=C6)C=C5)cc3)CC2)CC1
REMARK SMILES IDX 25 1 24 2 23 3 21 4 22 5 9 7 6 8 7 9 94 10 8 12 93 13 5 14
REMARK SMILES IDX 1 15 2 16 3 17 96 18 4 20 95 21 10 22 11 23 12 24 20 25
REMARK SMILES IDX 13 26 19 27 14 28 18 29 15 30 17 31 16 32 26 33 27 34 28 35
REMARK SMILES IDX 29 37 30 38 31 39 92 40 32 41 91 42 33 43 34 44 35 45 85 46
REMARK SMILES IDX 36 47 90 48 84 49 86 50 37 51 89 52 83 53 82 54 38 56 70 57
REMARK SMILES IDX 50 58 69 59 51 60 54 61 68 62 87 63 52 64 53 65 67 67 88 68
REMARK SMILES IDX 55 69 39 70 40 71 48 72 41 73 43 74 49 75 42 76 44 77 45 78
REMARK SMILES IDX 46 79 47 80 71 81 72 82 80 83 73 84 75 85 81 86 74 87 76 88
REMARK SMILES IDX 77 89 78 90 79 91 56 92 57 93 65 94 58 95 60 96 66 97 59 98
REMARK SMILES IDX 61 99 62 100 63 101 64 102
REMARK H PARENT 23 6 6 11 2 19 27 36 86 55 54 66
REMARK Flexibility Score: inf
ROOT
ATOM      1  C   UNL A   1      38.576  21.732  26.386  1.00  0.00     0.042 C 
ENDROOT
BRANCH   1   2
ATOM      2  C   UNL A   1      38.007  23.026  25.811  1.00  0.00     0.118 C 
BRANCH   2   3
ATOM      3  N   UNL A   1      37.560  22.870  24.437  1.00  0.00    -0.353 N 
ATOM      4  C   UNL A   1      36.318  23.015  23.882  1.00  0.00     0.264 C 
ATOM      5  O   UNL A   1      36.271  22.953  22.648  1.00  0.00    -0.270 OA
ATOM      6  H   UNL A   1      38.267  22.620  23.800  1.00  0.00     0.163 HD
BRANCH   4   7
ATOM      7  C   UNL A   1      35.048  23.248  24.757  1.00  0.00     0.197 C 
ATOM      8  N   UNL A   1      33.733  20.613  24.888  1.00  0.00    -0.332 N 
ATOM      9  C   UNL A   1      34.999  20.866  25.585  1.00  0.00     0.267 C 
ATOM     10  C   UNL A   1      33.629  21.417  23.659  1.00  0.00     0.267 C 
ATOM     11  H   UNL A   1      32.991  20.922  25.517  1.00  0.00     0.348 HD
ATOM     12  C   UNL A   1      35.058  22.333  25.986  1.00  0.00     0.120 C 
ATOM     13  C   UNL A   1      33.786  22.925  23.929  1.00  0.00     0.120 C 
BRANCH   8  14
ATOM     14  C   UNL A   1      33.459  19.171  24.658  1.00  0.00     0.195 C 
ATOM     15  C   UNL A   1      33.231  14.922  25.376  1.00  0.00     0.332 C 
ATOM     16  N   UNL A   1      33.491  16.356  25.451  1.00  0.00    -0.337 N 
ATOM     17  C   UNL A   1      32.240  17.116  25.526  1.00  0.00     0.268 C 
ATOM     18  C   UNL A   1      34.315  16.809  24.326  1.00  0.00     0.268 C 
ATOM     19  H   UNL A   1      34.016  16.530  26.307  1.00  0.00     0.347 HD
ATOM     20  C   UNL A   1      32.528  18.600  25.748  1.00  0.00     0.126 C 
ATOM     21  C   UNL A   1      34.703  18.279  24.502  1.00  0.00     0.126 C 
ENDBRANCH   8  14
BRANCH   7  22
ATOM     22  O   UNL A   1      35.169  24.667  25.030  1.00  0.00    -0.477 OA
BRANCH  22  23
ATOM     23  C   UNL A   1      34.055  25.452  25.020  1.00  0.00     0.121 A 
ATOM     24  C   UNL A   1      33.199  25.557  26.109  1.00  0.00     0.047 A 
ATOM     25  C   UNL A   1      33.888  26.298  23.924  1.00  0.00     0.055 A 
ATOM     26  C   UNL A   1      32.101  26.415  26.058  1.00  0.00     0.012 A 
ATOM     27  C   UNL A   1      32.813  27.200  23.873  1.00  0.00    -0.015 A 
ATOM     28  C   UNL A   1      31.890  27.237  24.944  1.00  0.00    -0.018 A 
ATOM     29  C   UNL A   1      32.635  28.073  22.788  1.00  0.00     0.009 A 
ATOM     30  C   UNL A   1      30.797  28.114  24.885  1.00  0.00     0.009 A 
ATOM     31  C   UNL A   1      31.552  28.954  22.751  1.00  0.00     0.001 A 
ATOM     32  C   UNL A   1      30.629  28.966  23.793  1.00  0.00     0.001 A 
ENDBRANCH  22  23
ENDBRANCH   7  22
ENDBRANCH   4   7
ENDBRANCH   2   3
ENDBRANCH   1   2
BRANCH   1  33
ATOM     33  C   UNL A   1      38.714  20.602  25.373  1.00  0.00     0.118 C 
BRANCH  33  34
ATOM     34  N   UNL A   1      39.730  19.631  25.753  1.00  0.00    -0.352 N 
ATOM     35  C   UNL A   1      41.028  19.816  26.158  1.00  0.00     0.251 C 
ATOM     36  H   UNL A   1      39.439  18.690  25.713  1.00  0.00     0.163 HD
ATOM     37  O   UNL A   1      41.772  18.839  26.243  1.00  0.00    -0.269 OA
BRANCH  35  38
ATOM     38  C   UNL A   1      41.544  21.165  26.479  1.00  0.00     0.039 A 
ATOM     39  C   UNL A   1      41.946  21.997  25.429  1.00  0.00     0.014 A 
ATOM     40  C   UNL A   1      41.673  21.603  27.799  1.00  0.00     0.014 A 
ATOM     41  C   UNL A   1      42.423  23.282  25.701  1.00  0.00     0.010 A 
ATOM     42  C   UNL A   1      42.072  22.912  28.065  1.00  0.00     0.010 A 
ATOM     43  C   UNL A   1      42.460  23.763  27.020  1.00  0.00    -0.014 A 
BRANCH  43  44
ATOM     44  C   UNL A   1      42.885  25.156  27.318  1.00  0.00     0.031 A 
ATOM     45  C   UNL A   1      41.936  26.124  27.973  1.00  0.00     0.074 A 
ATOM     46  C   UNL A   1      44.104  25.575  26.924  1.00  0.00     0.049 A 
ATOM     47  N   UNL A   1      42.121  27.383  28.274  1.00  0.00    -0.248 NA
ATOM     48  C   UNL A   1      40.593  25.621  28.308  1.00  0.00     0.031 C 
ATOM     49  C   UNL A   1      45.083  24.761  26.201  1.00  0.00     0.029 A 
ATOM     50  N   UNL A   1      44.716  26.797  27.048  1.00  0.00    -0.354 N 
ATOM     51  C   UNL A   1      40.914  27.833  28.797  1.00  0.00     0.074 A 
ATOM     52  C   UNL A   1      39.993  26.720  28.744  1.00  0.00     0.031 C 
ATOM     53  C   UNL A   1      46.173  25.504  25.948  1.00  0.00     0.029 A 
ATOM     54  C   UNL A   1      45.961  26.853  26.465  1.00  0.00     0.049 A 
ATOM     55  H   UNL A   1      44.303  27.562  27.510  1.00  0.00     0.167 HD
ATOM     56  C   UNL A   1      40.608  29.053  29.303  1.00  0.00     0.034 A 
ATOM     57  C   UNL A   1      46.833  27.874  26.352  1.00  0.00     0.034 A 
ATOM     58  C   UNL A   1      41.540  30.144  29.397  1.00  0.00     0.049 A 
ATOM     59  C   UNL A   1      46.488  29.202  26.971  1.00  0.00     0.074 A 
ATOM     60  C   UNL A   1      41.358  31.383  29.985  1.00  0.00     0.029 A 
ATOM     61  N   UNL A   1      42.827  30.133  28.881  1.00  0.00    -0.354 N 
ATOM     62  N   UNL A   1      45.405  29.553  27.620  1.00  0.00    -0.248 NA
ATOM     63  C   UNL A   1      47.502  30.262  26.877  1.00  0.00     0.031 C 
ATOM     64  C   UNL A   1      42.527  32.131  29.804  1.00  0.00     0.029 A 
ATOM     65  C   UNL A   1      43.447  31.348  29.126  1.00  0.00     0.049 A 
ATOM     66  H   UNL A   1      43.240  29.374  28.410  1.00  0.00     0.167 HD
ATOM     67  C   UNL A   1      45.619  30.862  28.039  1.00  0.00     0.074 A 
ATOM     68  C   UNL A   1      46.946  31.230  27.592  1.00  0.00     0.031 C 
ATOM     69  C   UNL A   1      44.785  31.688  28.718  1.00  0.00     0.034 A 
BRANCH  56  70
ATOM     70  C   UNL A   1      39.217  29.256  29.847  1.00  0.00     0.023 A 
ATOM     71  C   UNL A   1      38.914  28.836  31.158  1.00  0.00     0.012 A 
ATOM     72  C   UNL A   1      38.229  29.916  29.088  1.00  0.00     0.148 A 
ATOM     73  C   UNL A   1      37.642  29.035  31.693  1.00  0.00     0.002 A 
ATOM     74  C   UNL A   1      36.976  30.150  29.645  1.00  0.00     0.091 A 
ATOM     75  F   UNL A   1      38.527  30.290  27.836  1.00  0.00    -0.205 F 
ATOM     76  C   UNL A   1      36.679  29.701  30.942  1.00  0.00     0.022 A 
BRANCH  74  77
ATOM     77  S   UNL A   1      35.693  31.070  28.789  1.00  0.00     0.127 S 
ATOM     78  O   UNL A   1      34.959  31.661  29.908  1.00  0.00    -0.237 OA
ATOM     79  O   UNL A   1      36.472  32.026  28.001  1.00  0.00    -0.237 OA
ATOM     80  O   UNL A   1      34.955  30.093  28.002  1.00  0.00    -0.744 OA
ENDBRANCH  74  77
ENDBRANCH  56  70
BRANCH  57  81
ATOM     81  C   UNL A   1      48.145  27.657  25.682  1.00  0.00     0.023 A 
ATOM     82  C   UNL A   1      49.277  27.347  26.460  1.00  0.00     0.012 A 
ATOM     83  C   UNL A   1      48.272  27.722  24.281  1.00  0.00     0.148 A 
ATOM     84  C   UNL A   1      50.518  27.135  25.858  1.00  0.00     0.002 A 
ATOM     85  C   UNL A   1      49.499  27.453  23.684  1.00  0.00     0.091 A 
ATOM     86  F   UNL A   1      47.186  28.030  23.558  1.00  0.00    -0.205 F 
ATOM     87  C   UNL A   1      50.626  27.178  24.471  1.00  0.00     0.022 A 
BRANCH  85  88
ATOM     88  S   UNL A   1      49.697  27.351  21.901  1.00  0.00     0.127 S 
ATOM     89  O   UNL A   1      48.658  26.387  21.540  1.00  0.00    -0.237 OA
ATOM     90  O   UNL A   1      49.424  28.730  21.488  1.00  0.00    -0.237 OA
ATOM     91  O   UNL A   1      51.067  26.920  21.681  1.00  0.00    -0.744 OA
ENDBRANCH  85  88
ENDBRANCH  57  81
BRANCH  69  92
ATOM     92  C   UNL A   1      45.289  33.069  29.047  1.00  0.00     0.023 A 
ATOM     93  C   UNL A   1      45.960  33.297  30.266  1.00  0.00     0.012 A 
ATOM     94  C   UNL A   1      45.156  34.124  28.124  1.00  0.00     0.148 A 
ATOM     95  C   UNL A   1      46.458  34.563  30.574  1.00  0.00     0.002 A 
ATOM     96  C   UNL A   1      45.699  35.369  28.416  1.00  0.00     0.091 A 
ATOM     97  F   UNL A   1      44.498  33.893  26.978  1.00  0.00    -0.205 F 
ATOM     98  C   UNL A   1      46.338  35.594  29.646  1.00  0.00     0.022 A 
BRANCH  96  99
ATOM     99  S   UNL A   1      45.676  36.729  27.241  1.00  0.00     0.127 S 
ATOM    100  O   UNL A   1      44.241  36.957  27.078  1.00  0.00    -0.237 OA
ATOM    101  O   UNL A   1      46.382  37.783  27.970  1.00  0.00    -0.237 OA
ATOM    102  O   UNL A   1      46.373  36.245  26.057  1.00  0.00    -0.744 OA
ENDBRANCH  96  99
ENDBRANCH  69  92
ENDBRANCH  43  44
ENDBRANCH  35  38
ENDBRANCH  33  34
ENDBRANCH   1  33
TORSDOF 16
ENDMDL
MODEL 2
REMARK VINA RESULT:     -12.7      2.015      8.757
REMARK SMILES C[NH+]1CCC([NH+]2CCC(Oc3ccc4ccccc4c3)(C(=O)NCCCNC(=O)c3ccc(-c4c5nc(c(-c6cccc(S(=O)(=O)[O-])c6F)c6ccc([nH]6)c(-c6cccc(S(=O)(=O)[O-])c6F)c6nc(c(-c7cccc(S(=O)(=O)[O-])c7F)c7ccc4[nH]7)C=C6)C=C5)cc3)CC2)CC1
REMARK SMILES IDX 25 1 24 2 23 3 21 4 22 5 9 7 6 8 7 9 94 10 8 12 93 13 5 14
REMARK SMILES IDX 1 15 2 16 3 17 96 18 4 20 95 21 10 22 11 23 12 24 20 25
REMARK SMILES IDX 13 26 19 27 14 28 18 29 15 30 17 31 16 32 26 33 27 34 28 35
REMARK SMILES IDX 29 37 30 38 31 39 92 40 32 41 91 42 33 43 34 44 35 45 85 46
REMARK SMILES IDX 36 47 90 48 84 49 86 50 37 51 89 52 83 53 82 54 38 56 70 57
REMARK SMILES IDX 50 58 69 59 51 60 54 61 68 62 87 63 52 64 53 65 67 67 88 68
REMARK SMILES IDX 55 69 39 70 40 71 48 72 41 73 43 74 49 75 42 76 44 77 45 78
REMARK SMILES IDX 46 79 47 80 71 81 72 82 80 83 73 84 75 85 81 86 74 87 76 88
REMARK SMILES IDX 77 89 78 90 79 91 56 92 57 93 65 94 58 95 60 96 66 97 59 98
REMARK SMILES IDX 61 99 62 100 63 101 64 102
REMARK H PARENT 23 6 6 11 2 19 27 36 86 55 54 66
REMARK Flexibility Score: inf
ROOT
ATOM      1  C   UNL A   1      36.378  22.133  24.022  1.00  0.00     0.042 C 
ENDROOT
BRANCH   1   2
ATOM      2  C   UNL A   1      35.412  23.199  23.514  1.00  0.00     0.118 C 
BRANCH   2   3
ATOM      3  N   UNL A   1      35.123  24.207  24.520  1.00  0.00    -0.353 N 
ATOM      4  C   UNL A   1      34.009  24.408  25.286  1.00  0.00     0.264 C 
ATOM      5  O   UNL A   1      34.109  25.274  26.164  1.00  0.00    -0.270 OA
ATOM      6  H   UNL A   1      35.850  24.853  24.676  1.00  0.00     0.163 HD
BRANCH   4   7
ATOM      7  C   UNL A   1      32.700  23.591  25.064  1.00  0.00     0.197 C 
ATOM      8  N   UNL A   1      30.865  25.463  23.716  1.00  0.00    -0.332 N 
ATOM      9  C   UNL A   1      32.040  24.919  23.025  1.00  0.00     0.267 C 
ATOM     10  C   UNL A   1      31.111  25.600  25.160  1.00  0.00     0.267 C 
ATOM     11  H   UNL A   1      30.118  24.777  23.598  1.00  0.00     0.348 HD
ATOM     12  C   UNL A   1      32.339  23.533  23.576  1.00  0.00     0.120 C 
ATOM     13  C   UNL A   1      31.534  24.271  25.813  1.00  0.00     0.120 C 
BRANCH   8  14
ATOM     14  C   UNL A   1      30.336  26.707  23.100  1.00  0.00     0.195 C 
ATOM     15  C   UNL A   1      29.091  30.820  22.694  1.00  0.00     0.332 C 
ATOM     16  N   UNL A   1      29.545  29.521  23.184  1.00  0.00    -0.337 N 
ATOM     17  C   UNL A   1      30.825  29.146  22.576  1.00  0.00     0.268 C 
ATOM     18  C   UNL A   1      28.534  28.484  22.964  1.00  0.00     0.268 C 
ATOM     19  H   UNL A   1      29.688  29.604  24.191  1.00  0.00     0.347 HD
ATOM     20  C   UNL A   1      31.358  27.858  23.204  1.00  0.00     0.126 C 
ATOM     21  C   UNL A   1      28.962  27.169  23.619  1.00  0.00     0.126 C 
ENDBRANCH   8  14
BRANCH   7  22
ATOM     22  O   UNL A   1      33.069  22.326  25.671  1.00  0.00    -0.477 OA
BRANCH  22  23
ATOM     23  C   UNL A   1      32.966  21.176  24.948  1.00  0.00     0.121 A 
ATOM     24  C   UNL A   1      32.201  21.080  23.792  1.00  0.00     0.047 A 
ATOM     25  C   UNL A   1      33.805  20.124  25.313  1.00  0.00     0.055 A 
ATOM     26  C   UNL A   1      32.174  19.888  23.067  1.00  0.00     0.012 A 
ATOM     27  C   UNL A   1      33.824  18.932  24.570  1.00  0.00    -0.015 A 
ATOM     28  C   UNL A   1      32.974  18.804  23.448  1.00  0.00    -0.018 A 
ATOM     29  C   UNL A   1      34.674  17.867  24.909  1.00  0.00     0.009 A 
ATOM     30  C   UNL A   1      32.966  17.605  22.720  1.00  0.00     0.009 A 
ATOM     31  C   UNL A   1      34.668  16.686  24.164  1.00  0.00     0.001 A 
ATOM     32  C   UNL A   1      33.807  16.551  23.078  1.00  0.00     0.001 A 
ENDBRANCH  22  23
ENDBRANCH   7  22
ENDBRANCH   4   7
ENDBRANCH   2   3
ENDBRANCH   1   2
BRANCH   1  33
ATOM     33  C   UNL A   1      36.959  22.417  25.402  1.00  0.00     0.118 C 
BRANCH  33  34
ATOM     34  N   UNL A   1      37.938  21.421  25.814  1.00  0.00    -0.352 N 
ATOM     35  C   UNL A   1      39.201  21.577  26.325  1.00  0.00     0.251 C 
ATOM     36  H   UNL A   1      37.646  20.486  25.708  1.00  0.00     0.163 HD
ATOM     37  O   UNL A   1      39.932  20.591  26.423  1.00  0.00    -0.269 OA
BRANCH  35  38
ATOM     38  C   UNL A   1      39.697  22.906  26.747  1.00  0.00     0.039 A 
ATOM     39  C   UNL A   1      40.661  22.972  27.759  1.00  0.00     0.014 A 
ATOM     40  C   UNL A   1      39.196  24.084  26.188  1.00  0.00     0.014 A 
ATOM     41  C   UNL A   1      41.159  24.212  28.167  1.00  0.00     0.010 A 
ATOM     42  C   UNL A   1      39.751  25.314  26.539  1.00  0.00     0.010 A 
ATOM     43  C   UNL A   1      40.732  25.393  27.539  1.00  0.00    -0.014 A 
BRANCH  43  44
ATOM     44  C   UNL A   1      41.313  26.711  27.903  1.00  0.00     0.031 A 
ATOM     45  C   UNL A   1      42.757  27.021  27.610  1.00  0.00     0.074 A 
ATOM     46  C   UNL A   1      40.558  27.605  28.575  1.00  0.00     0.049 A 
ATOM     47  N   UNL A   1      43.441  28.101  27.888  1.00  0.00    -0.248 NA
ATOM     48  C   UNL A   1      43.544  25.971  26.941  1.00  0.00     0.031 C 
ATOM     49  C   UNL A   1      39.173  27.390  28.997  1.00  0.00     0.029 A 
ATOM     50  N   UNL A   1      40.859  28.858  29.047  1.00  0.00    -0.354 N 
ATOM     51  C   UNL A   1      44.741  27.849  27.466  1.00  0.00     0.074 A 
ATOM     52  C   UNL A   1      44.759  26.502  26.940  1.00  0.00     0.031 C 
ATOM     53  C   UNL A   1      38.743  28.474  29.663  1.00  0.00     0.029 A 
ATOM     54  C   UNL A   1      39.827  29.449  29.738  1.00  0.00     0.049 A 
ATOM     55  H   UNL A   1      41.730  29.293  28.903  1.00  0.00     0.167 HD
ATOM     56  C   UNL A   1      45.816  28.674  27.486  1.00  0.00     0.034 A 
ATOM     57  C   UNL A   1      39.761  30.638  30.369  1.00  0.00     0.034 A 
ATOM     58  C   UNL A   1      45.785  30.029  27.967  1.00  0.00     0.049 A 
ATOM     59  C   UNL A   1      40.952  31.555  30.329  1.00  0.00     0.074 A 
ATOM     60  C   UNL A   1      46.792  30.977  27.935  1.00  0.00     0.029 A 
ATOM     61  N   UNL A   1      44.693  30.628  28.576  1.00  0.00    -0.354 N 
ATOM     62  N   UNL A   1      42.121  31.365  29.766  1.00  0.00    -0.248 NA
ATOM     63  C   UNL A   1      40.804  32.867  30.976  1.00  0.00     0.031 C 
ATOM     64  C   UNL A   1      46.318  32.142  28.548  1.00  0.00     0.029 A 
ATOM     65  C   UNL A   1      45.005  31.929  28.937  1.00  0.00     0.049 A 
ATOM     66  H   UNL A   1      43.823  30.194  28.730  1.00  0.00     0.167 HD
ATOM     67  C   UNL A   1      42.835  32.542  29.963  1.00  0.00     0.074 A 
ATOM     68  C   UNL A   1      41.957  33.447  30.673  1.00  0.00     0.031 C 
ATOM     69  C   UNL A   1      44.108  32.839  29.601  1.00  0.00     0.034 A 
BRANCH  56  70
ATOM     70  C   UNL A   1      47.112  28.149  26.921  1.00  0.00     0.023 A 
ATOM     71  C   UNL A   1      48.125  27.709  27.798  1.00  0.00     0.012 A 
ATOM     72  C   UNL A   1      47.304  28.035  25.530  1.00  0.00     0.148 A 
ATOM     73  C   UNL A   1      49.322  27.196  27.300  1.00  0.00     0.002 A 
ATOM     74  C   UNL A   1      48.484  27.481  25.043  1.00  0.00     0.091 A 
ATOM     75  F   UNL A   1      46.340  28.477  24.711  1.00  0.00    -0.205 F 
ATOM     76  C   UNL A   1      49.497  27.073  25.925  1.00  0.00     0.022 A 
BRANCH  74  77
ATOM     77  S   UNL A   1      48.771  27.204  23.291  1.00  0.00     0.127 S 
ATOM     78  O   UNL A   1      50.233  27.216  23.227  1.00  0.00    -0.237 OA
ATOM     79  O   UNL A   1      48.165  25.889  23.083  1.00  0.00    -0.237 OA
ATOM     80  O   UNL A   1      48.106  28.296  22.597  1.00  0.00    -0.744 OA
ENDBRANCH  74  77
ENDBRANCH  56  70
BRANCH  57  81
ATOM     81  C   UNL A   1      38.494  31.054  31.034  1.00  0.00     0.023 A 
ATOM     82  C   UNL A   1      38.349  30.870  32.422  1.00  0.00     0.012 A 
ATOM     83  C   UNL A   1      37.450  31.660  30.309  1.00  0.00     0.148 A 
ATOM     84  C   UNL A   1      37.175  31.255  33.072  1.00  0.00     0.002 A 
ATOM     85  C   UNL A   1      36.307  32.092  30.971  1.00  0.00     0.091 A 
ATOM     86  F   UNL A   1      37.603  31.815  28.986  1.00  0.00    -0.205 F 
ATOM     87  C   UNL A   1      36.160  31.874  32.349  1.00  0.00     0.022 A 
BRANCH  85  88
ATOM     88  S   UNL A   1      35.011  33.022  30.143  1.00  0.00     0.127 S 
ATOM     89  O   UNL A   1      34.453  32.017  29.240  1.00  0.00    -0.237 OA
ATOM     90  O   UNL A   1      34.142  33.390  31.264  1.00  0.00    -0.237 OA
ATOM     91  O   UNL A   1      35.678  34.146  29.509  1.00  0.00    -0.744 OA
ENDBRANCH  85  88
ENDBRANCH  57  81
BRANCH  69  92
ATOM     92  C   UNL A   1      44.627  34.211  29.942  1.00  0.00     0.023 A 
ATOM     93  C   UNL A   1      45.358  34.409  31.131  1.00  0.00     0.012 A 
ATOM     94  C   UNL A   1      44.447  35.290  29.055  1.00  0.00     0.148 A 
ATOM     95  C   UNL A   1      45.870  35.666  31.447  1.00  0.00     0.002 A 
ATOM     96  C   UNL A   1      45.003  36.529  29.353  1.00  0.00     0.091 A 
ATOM     97  F   UNL A   1      43.732  35.089  27.938  1.00  0.00    -0.205 F 
ATOM     98  C   UNL A   1      45.703  36.722  30.555  1.00  0.00     0.022 A 
BRANCH  96  99
ATOM     99  S   UNL A   1      44.919  37.919  28.217  1.00  0.00     0.127 S 
ATOM    100  O   UNL A   1      43.483  38.191  28.184  1.00  0.00    -0.237 OA
ATOM    101  O   UNL A   1      45.716  38.934  28.908  1.00  0.00    -0.237 OA
ATOM    102  O   UNL A   1      45.497  37.447  26.966  1.00  0.00    -0.744 OA
ENDBRANCH  96  99
ENDBRANCH  69  92
ENDBRANCH  43  44
ENDBRANCH  35  38
ENDBRANCH  33  34
ENDBRANCH   1  33
TORSDOF 16
ENDMDL
MODEL 3
REMARK VINA RESULT:     -12.6      3.003      7.916
REMARK SMILES C[NH+]1CCC([NH+]2CCC(Oc3ccc4ccccc4c3)(C(=O)NCCCNC(=O)c3ccc(-c4c5nc(c(-c6cccc(S(=O)(=O)[O-])c6F)c6ccc([nH]6)c(-c6cccc(S(=O)(=O)[O-])c6F)c6nc(c(-c7cccc(S(=O)(=O)[O-])c7F)c7ccc4[nH]7)C=C6)C=C5)cc3)CC2)CC1
REMARK SMILES IDX 25 1 24 2 23 3 21 4 22 5 9 7 6 8 7 9 94 10 8 12 93 13 5 14
REMARK SMILES IDX 1 15 2 16 3 17 96 18 4 20 95 21 10 22 11 23 12 24 20 25
REMARK SMILES IDX 13 26 19 27 14 28 18 29 15 30 17 31 16 32 26 33 27 34 28 35
REMARK SMILES IDX 29 37 30 38 31 39 92 40 32 41 91 42 33 43 34 44 35 45 85 46
REMARK SMILES IDX 36 47 90 48 84 49 86 50 37 51 89 52 83 53 82 54 38 56 70 57
REMARK SMILES IDX 50 58 69 59 51 60 54 61 68 62 87 63 52 64 53 65 67 67 88 68
REMARK SMILES IDX 55 69 39 70 40 71 48 72 41 73 43 74 49 75 42 76 44 77 45 78
REMARK SMILES IDX 46 79 47 80 71 81 72 82 80 83 73 84 75 85 81 86 74 87 76 88
REMARK SMILES IDX 77 89 78 90 79 91 56 92 57 93 65 94 58 95 60 96 66 97 59 98
REMARK SMILES IDX 61 99 62 100 63 101 64 102
REMARK H PARENT 23 6 6 11 2 19 27 36 86 55 54 66
REMARK Flexibility Score: inf
ROOT
ATOM      1  C   UNL A   1      36.256  23.996  25.692  1.00  0.00     0.042 C 
ENDROOT
BRANCH   1   2
ATOM      2  C   UNL A   1      34.860  24.132  25.089  1.00  0.00     0.118 C 
BRANCH   2   3
ATOM      3  N   UNL A   1      34.840  23.826  23.669  1.00  0.00    -0.353 N 
ATOM      4  C   UNL A   1      33.802  23.490  22.844  1.00  0.00     0.264 C 
ATOM      5  O   UNL A   1      34.074  23.422  21.639  1.00  0.00    -0.270 OA
ATOM      6  H   UNL A   1      35.719  23.868  23.227  1.00  0.00     0.163 HD
BRANCH   4   7
ATOM      7  C   UNL A   1      32.370  23.215  23.395  1.00  0.00     0.197 C 
ATOM      8  N   UNL A   1      32.434  20.407  24.287  1.00  0.00    -0.332 N 
ATOM      9  C   UNL A   1      33.168  21.452  25.011  1.00  0.00     0.267 C 
ATOM     10  C   UNL A   1      32.351  20.711  22.849  1.00  0.00     0.267 C 
ATOM     11  H   UNL A   1      31.483  20.415  24.656  1.00  0.00     0.348 HD
ATOM     12  C   UNL A   1      32.425  22.771  24.860  1.00  0.00     0.120 C 
ATOM     13  C   UNL A   1      31.712  22.084  22.576  1.00  0.00     0.120 C 
BRANCH   8  14
ATOM     14  C   UNL A   1      32.933  19.034  24.558  1.00  0.00     0.195 C 
ATOM     15  C   UNL A   1      32.920  14.764  25.184  1.00  0.00     0.332 C 
ATOM     16  N   UNL A   1      32.561  16.163  24.977  1.00  0.00    -0.337 N 
ATOM     17  C   UNL A   1      33.057  16.649  23.685  1.00  0.00     0.268 C 
ATOM     18  C   UNL A   1      33.040  17.006  26.076  1.00  0.00     0.268 C 
ATOM     19  H   UNL A   1      31.543  16.222  24.964  1.00  0.00     0.347 HD
ATOM     20  C   UNL A   1      32.552  18.067  23.418  1.00  0.00     0.126 C 
ATOM     21  C   UNL A   1      32.524  18.438  25.918  1.00  0.00     0.126 C 
ENDBRANCH   8  14
BRANCH   7  22
ATOM     22  O   UNL A   1      31.740  24.498  23.150  1.00  0.00    -0.477 OA
BRANCH  22  23
ATOM     23  C   UNL A   1      31.605  25.389  24.172  1.00  0.00     0.121 A 
ATOM     24  C   UNL A   1      30.673  25.231  25.190  1.00  0.00     0.047 A 
ATOM     25  C   UNL A   1      32.567  26.395  24.264  1.00  0.00     0.055 A 
ATOM     26  C   UNL A   1      30.615  26.151  26.237  1.00  0.00     0.012 A 
ATOM     27  C   UNL A   1      32.552  27.304  25.334  1.00  0.00    -0.015 A 
ATOM     28  C   UNL A   1      31.544  27.197  26.319  1.00  0.00    -0.018 A 
ATOM     29  C   UNL A   1      33.521  28.314  25.456  1.00  0.00     0.009 A 
ATOM     30  C   UNL A   1      31.505  28.121  27.373  1.00  0.00     0.009 A 
ATOM     31  C   UNL A   1      33.480  29.216  26.521  1.00  0.00     0.001 A 
ATOM     32  C   UNL A   1      32.468  29.126  27.471  1.00  0.00     0.001 A 
ENDBRANCH  22  23
ENDBRANCH   7  22
ENDBRANCH   4   7
ENDBRANCH   2   3
ENDBRANCH   1   2
BRANCH   1  33
ATOM     33  C   UNL A   1      37.260  23.279  24.798  1.00  0.00     0.118 C 
BRANCH  33  34
ATOM     34  N   UNL A   1      38.102  22.349  25.535  1.00  0.00    -0.352 N 
ATOM     35  C   UNL A   1      39.185  22.582  26.346  1.00  0.00     0.251 C 
ATOM     36  H   UNL A   1      37.856  21.400  25.437  1.00  0.00     0.163 HD
ATOM     37  O   UNL A   1      39.870  21.629  26.715  1.00  0.00    -0.269 OA
BRANCH  35  38
ATOM     38  C   UNL A   1      39.542  23.955  26.768  1.00  0.00     0.039 A 
ATOM     39  C   UNL A   1      39.300  24.334  28.092  1.00  0.00     0.014 A 
ATOM     40  C   UNL A   1      40.073  24.881  25.867  1.00  0.00     0.014 A 
ATOM     41  C   UNL A   1      39.642  25.618  28.523  1.00  0.00     0.010 A 
ATOM     42  C   UNL A   1      40.487  26.134  26.317  1.00  0.00     0.010 A 
ATOM     43  C   UNL A   1      40.268  26.520  27.648  1.00  0.00    -0.014 A 
BRANCH  43  44
ATOM     44  C   UNL A   1      40.714  27.859  28.113  1.00  0.00     0.031 A 
ATOM     45  C   UNL A   1      42.178  28.209  28.157  1.00  0.00     0.074 A 
ATOM     46  C   UNL A   1      39.801  28.737  28.576  1.00  0.00     0.049 A 
ATOM     47  N   UNL A   1      42.749  29.311  28.567  1.00  0.00    -0.248 NA
ATOM     48  C   UNL A   1      43.126  27.175  27.708  1.00  0.00     0.031 C 
ATOM     49  C   UNL A   1      38.361  28.486  28.670  1.00  0.00     0.029 A 
ATOM     50  N   UNL A   1      39.950  30.004  29.082  1.00  0.00    -0.354 N 
ATOM     51  C   UNL A   1      44.118  29.094  28.462  1.00  0.00     0.074 A 
ATOM     52  C   UNL A   1      44.293  27.742  27.979  1.00  0.00     0.031 C 
ATOM     53  C   UNL A   1      37.760  29.565  29.198  1.00  0.00     0.029 A 
ATOM     54  C   UNL A   1      38.771  30.572  29.505  1.00  0.00     0.049 A 
ATOM     55  H   UNL A   1      40.820  30.463  29.136  1.00  0.00     0.167 HD
ATOM     56  C   UNL A   1      45.138  29.950  28.716  1.00  0.00     0.034 A 
ATOM     57  C   UNL A   1      38.529  31.765  30.081  1.00  0.00     0.034 A 
ATOM     58  C   UNL A   1      44.960  31.309  29.152  1.00  0.00     0.049 A 
ATOM     59  C   UNL A   1      39.672  32.717  30.302  1.00  0.00     0.074 A 
ATOM     60  C   UNL A   1      45.922  32.286  29.338  1.00  0.00     0.029 A 
ATOM     61  N   UNL A   1      43.741  31.882  29.480  1.00  0.00    -0.354 N 
ATOM     62  N   UNL A   1      40.945  32.556  30.029  1.00  0.00    -0.248 NA
ATOM     63  C   UNL A   1      39.344  34.031  30.873  1.00  0.00     0.031 C 
ATOM     64  C   UNL A   1      45.287  33.444  29.802  1.00  0.00     0.029 A 
ATOM     65  C   UNL A   1      43.927  33.196  29.880  1.00  0.00     0.049 A 
ATOM     66  H   UNL A   1      42.871  31.424  29.437  1.00  0.00     0.167 HD
ATOM     67  C   UNL A   1      41.562  33.755  30.365  1.00  0.00     0.074 A 
ATOM     68  C   UNL A   1      40.519  34.642  30.836  1.00  0.00     0.031 C 
ATOM     69  C   UNL A   1      42.876  34.086  30.303  1.00  0.00     0.034 A 
BRANCH  56  70
ATOM     70  C   UNL A   1      46.543  29.458  28.476  1.00  0.00     0.023 A 
ATOM     71  C   UNL A   1      47.155  29.686  27.227  1.00  0.00     0.012 A 
ATOM     72  C   UNL A   1      47.276  28.827  29.500  1.00  0.00     0.148 A 
ATOM     73  C   UNL A   1      48.462  29.263  26.988  1.00  0.00     0.002 A 
ATOM     74  C   UNL A   1      48.595  28.448  29.268  1.00  0.00     0.091 A 
ATOM     75  F   UNL A   1      46.672  28.600  30.674  1.00  0.00    -0.205 F 
ATOM     76  C   UNL A   1      49.184  28.655  28.010  1.00  0.00     0.022 A 
BRANCH  74  77
ATOM     77  S   UNL A   1      49.635  27.731  30.545  1.00  0.00     0.127 S 
ATOM     78  O   UNL A   1      49.726  28.833  31.503  1.00  0.00    -0.237 OA
ATOM     79  O   UNL A   1      48.829  26.597  30.998  1.00  0.00    -0.237 OA
ATOM     80  O   UNL A   1      50.882  27.366  29.890  1.00  0.00    -0.744 OA
ENDBRANCH  74  77
ENDBRANCH  56  70
BRANCH  57  81
ATOM     81  C   UNL A   1      37.132  32.151  30.427  1.00  0.00     0.023 A 
ATOM     82  C   UNL A   1      36.658  31.936  31.735  1.00  0.00     0.012 A 
ATOM     83  C   UNL A   1      36.283  32.759  29.482  1.00  0.00     0.148 A 
ATOM     84  C   UNL A   1      35.356  32.291  32.089  1.00  0.00     0.002 A 
ATOM     85  C   UNL A   1      35.007  33.163  29.856  1.00  0.00     0.091 A 
ATOM     86  F   UNL A   1      36.749  32.945  28.238  1.00  0.00    -0.205 F 
ATOM     87  C   UNL A   1      34.535  32.913  31.153  1.00  0.00     0.022 A 
BRANCH  85  88
ATOM     88  S   UNL A   1      33.934  34.094  28.755  1.00  0.00     0.127 S 
ATOM     89  O   UNL A   1      32.903  34.572  29.677  1.00  0.00    -0.237 OA
ATOM     90  O   UNL A   1      34.840  35.132  28.258  1.00  0.00    -0.237 OA
ATOM     91  O   UNL A   1      33.492  33.149  27.744  1.00  0.00    -0.744 OA
ENDBRANCH  85  88
ENDBRANCH  57  81
BRANCH  69  92
ATOM     92  C   UNL A   1      43.265  35.477  30.729  1.00  0.00     0.023 A 
ATOM     93  C   UNL A   1      43.665  35.716  32.060  1.00  0.00     0.012 A 
ATOM     94  C   UNL A   1      43.297  36.534  29.799  1.00  0.00     0.148 A 
ATOM     95  C   UNL A   1      44.055  36.991  32.465  1.00  0.00     0.002 A 
ATOM     96  C   UNL A   1      43.736  37.791  30.198  1.00  0.00     0.091 A 
ATOM     97  F   UNL A   1      42.895  36.293  28.542  1.00  0.00    -0.205 F 
ATOM     98  C   UNL A   1      44.102  38.025  31.533  1.00  0.00     0.022 A 
BRANCH  96  99
ATOM     99  S   UNL A   1      43.919  39.156  29.043  1.00  0.00     0.127 S 
ATOM    100  O   UNL A   1      44.741  38.553  27.996  1.00  0.00    -0.237 OA
ATOM    101  O   UNL A   1      42.533  39.423  28.654  1.00  0.00    -0.237 OA
ATOM    102  O   UNL A   1      44.551  40.232  29.795  1.00  0.00    -0.744 OA
ENDBRANCH  96  99
ENDBRANCH  69  92
ENDBRANCH  43  44
ENDBRANCH  35  38
ENDBRANCH  33  34
ENDBRANCH   1  33
TORSDOF 16
ENDMDL
