MODEL 1
REMARK VINA RESULT:     -12.7      0.000      0.000
REMARK SMILES C#Cc1cc(Cl)c2c(c1)C=C(C(=O)NCCCNC(=O)c1ccc(-c3c4nc(c(-c5cccc(S(=O)(=O)[O-])c5F)c5ccc([nH]5)c(-c5cccc(S(=O)(=O)[O-])c5F)c5nc(c(-c6cccc(S(=O)(=O)[O-])c6F)c6ccc3[nH]6)C=C5)C=C4)cc1)[C@@H](C(F)(F)F)O2
REMARK SMILES IDX 17 1 16 2 15 3 14 4 12 5 13 6 11 8 3 9 4 10 9 11 5 12 8 13
REMARK SMILES IDX 6 14 7 15 10 16 89 17 84 18 2 19 1 20 85 21 86 22 87 23
REMARK SMILES IDX 88 24 18 25 19 26 20 28 21 29 22 30 83 31 23 32 82 33 24 34
REMARK SMILES IDX 25 35 26 36 76 37 27 38 81 39 75 40 77 41 28 42 80 43 74 44
REMARK SMILES IDX 73 45 29 47 61 48 41 49 60 50 42 51 45 52 59 53 78 54 43 55
REMARK SMILES IDX 44 56 58 58 79 59 46 60 30 61 31 62 39 63 32 64 34 65 40 66
REMARK SMILES IDX 33 67 35 68 36 69 37 70 38 71 62 72 63 73 71 74 64 75 66 76
REMARK SMILES IDX 72 77 65 78 67 79 68 80 69 81 70 82 47 83 48 84 56 85 49 86
REMARK SMILES IDX 51 87 57 88 50 89 52 90 53 91 54 92 55 93
REMARK H PARENT 14 7 18 27 77 46 45 57
REMARK Flexibility Score: inf
ROOT
ATOM      1  C   UNL A   1      32.889  32.711  27.259  1.00  0.00     0.118 C 
ENDROOT
BRANCH   1   2
ATOM      2  C   UNL A   1      31.602  32.103  26.725  1.00  0.00     0.042 C 
BRANCH   2   3
ATOM      3  C   UNL A   1      31.772  30.631  26.399  1.00  0.00     0.118 C 
BRANCH   3   4
ATOM      4  N   UNL A   1      31.408  30.327  25.022  1.00  0.00    -0.352 N 
ATOM      5  C   UNL A   1      31.263  29.217  24.259  1.00  0.00     0.251 C 
ATOM      6  O   UNL A   1      30.880  29.412  23.101  1.00  0.00    -0.270 OA
ATOM      7  H   UNL A   1      31.217  31.146  24.510  1.00  0.00     0.163 HD
BRANCH   5   8
ATOM      8  C   UNL A   1      31.523  27.826  24.729  1.00  0.00     0.067 C 
ATOM      9  C   UNL A   1      34.714  24.338  25.755  1.00  0.00     0.027 A 
ATOM     10  C   UNL A   1      33.687  23.532  26.247  1.00  0.00     0.041 A 
ATOM     11  C   UNL A   1      34.436  25.625  25.282  1.00  0.00     0.029 A 
ATOM     12  C   UNL A   1      32.382  24.012  26.267  1.00  0.00     0.084 A 
ATOM     13  C   UNL A   1      33.123  26.110  25.298  1.00  0.00     0.020 A 
ATOM     14  Cl  UNL A   1      31.133  22.986  26.878  1.00  0.00    -0.080 Cl
ATOM     15  C   UNL A   1      32.098  25.296  25.791  1.00  0.00     0.146 A 
ATOM     16  C   UNL A   1      32.814  27.464  24.852  1.00  0.00     0.025 C 
ATOM     17  O   UNL A   1      30.808  25.730  25.872  1.00  0.00    -0.474 OA
ATOM     18  C   UNL A   1      30.431  26.842  25.029  1.00  0.00     0.314 C 
BRANCH   9  19
ATOM     19  C   UNL A   1      36.053  23.839  25.755  1.00  0.00    -0.070 C 
ATOM     20  C   UNL A   1      37.191  23.455  25.749  1.00  0.00     0.010 C 
ENDBRANCH   9  19
BRANCH  18  21
ATOM     21  C   UNL A   1      29.766  26.301  23.746  1.00  0.00     0.429 C 
ATOM     22  F   UNL A   1      30.557  26.517  22.668  1.00  0.00    -0.167 F 
ATOM     23  F   UNL A   1      29.540  24.966  23.792  1.00  0.00    -0.167 F 
ATOM     24  F   UNL A   1      28.570  26.885  23.499  1.00  0.00    -0.167 F 
ENDBRANCH  18  21
ENDBRANCH   5   8
ENDBRANCH   3   4
ENDBRANCH   2   3
ENDBRANCH   1   2
BRANCH   1  25
ATOM     25  N   UNL A   1      32.714  34.116  27.626  1.00  0.00    -0.352 N 
ATOM     26  C   UNL A   1      33.210  34.818  28.695  1.00  0.00     0.251 C 
ATOM     27  H   UNL A   1      32.153  34.640  27.010  1.00  0.00     0.163 HD
ATOM     28  O   UNL A   1      32.733  35.912  28.984  1.00  0.00    -0.269 OA
BRANCH  26  29
ATOM     29  C   UNL A   1      34.314  34.248  29.486  1.00  0.00     0.039 A 
ATOM     30  C   UNL A   1      34.027  33.444  30.590  1.00  0.00     0.014 A 
ATOM     31  C   UNL A   1      35.637  34.512  29.125  1.00  0.00     0.014 A 
ATOM     32  C   UNL A   1      35.076  32.853  31.293  1.00  0.00     0.010 A 
ATOM     33  C   UNL A   1      36.667  33.828  29.746  1.00  0.00     0.010 A 
ATOM     34  C   UNL A   1      36.400  33.014  30.852  1.00  0.00    -0.014 A 
BRANCH  34  35
ATOM     35  C   UNL A   1      37.531  32.366  31.557  1.00  0.00     0.031 A 
ATOM     36  C   UNL A   1      38.257  31.222  30.905  1.00  0.00     0.074 A 
ATOM     37  C   UNL A   1      37.858  32.769  32.799  1.00  0.00     0.049 A 
ATOM     38  N   UNL A   1      39.246  30.507  31.371  1.00  0.00    -0.248 NA
ATOM     39  C   UNL A   1      37.799  30.807  29.566  1.00  0.00     0.031 C 
ATOM     40  C   UNL A   1      37.177  33.825  33.553  1.00  0.00     0.029 A 
ATOM     41  N   UNL A   1      38.838  32.332  33.653  1.00  0.00    -0.354 N 
ATOM     42  C   UNL A   1      39.511  29.552  30.398  1.00  0.00     0.074 A 
ATOM     43  C   UNL A   1      38.544  29.736  29.342  1.00  0.00     0.031 C 
ATOM     44  C   UNL A   1      37.779  33.973  34.743  1.00  0.00     0.029 A 
ATOM     45  C   UNL A   1      38.858  32.997  34.857  1.00  0.00     0.049 A 
ATOM     46  H   UNL A   1      39.468  31.610  33.426  1.00  0.00     0.167 HD
ATOM     47  C   UNL A   1      40.499  28.630  30.369  1.00  0.00     0.034 A 
ATOM     48  C   UNL A   1      39.655  32.835  35.931  1.00  0.00     0.034 A 
ATOM     49  C   UNL A   1      41.479  28.479  31.409  1.00  0.00     0.049 A 
ATOM     50  C   UNL A   1      40.746  31.800  35.873  1.00  0.00     0.074 A 
ATOM     51  C   UNL A   1      42.560  27.620  31.446  1.00  0.00     0.029 A 
ATOM     52  N   UNL A   1      41.493  29.197  32.595  1.00  0.00    -0.354 N 
ATOM     53  N   UNL A   1      41.069  30.997  34.887  1.00  0.00    -0.248 NA
ATOM     54  C   UNL A   1      41.602  31.667  37.060  1.00  0.00     0.031 C 
ATOM     55  C   UNL A   1      43.203  27.785  32.675  1.00  0.00     0.029 A 
ATOM     56  C   UNL A   1      42.553  28.785  33.382  1.00  0.00     0.049 A 
ATOM     57  H   UNL A   1      40.844  29.896  32.840  1.00  0.00     0.167 HD
ATOM     58  C   UNL A   1      42.182  30.286  35.322  1.00  0.00     0.074 A 
ATOM     59  C   UNL A   1      42.493  30.773  36.650  1.00  0.00     0.031 C 
ATOM     60  C   UNL A   1      42.875  29.310  34.685  1.00  0.00     0.034 A 
BRANCH  47  61
ATOM     61  C   UNL A   1      40.609  27.746  29.153  1.00  0.00     0.023 A 
ATOM     62  C   UNL A   1      39.744  26.640  29.016  1.00  0.00     0.012 A 
ATOM     63  C   UNL A   1      41.501  28.060  28.110  1.00  0.00     0.148 A 
ATOM     64  C   UNL A   1      39.782  25.846  27.871  1.00  0.00     0.002 A 
ATOM     65  C   UNL A   1      41.495  27.297  26.949  1.00  0.00     0.091 A 
ATOM     66  F   UNL A   1      42.330  29.100  28.269  1.00  0.00    -0.205 F 
ATOM     67  C   UNL A   1      40.645  26.183  26.832  1.00  0.00     0.022 A 
BRANCH  65  68
ATOM     68  S   UNL A   1      42.498  27.701  25.516  1.00  0.00     0.127 S 
ATOM     69  O   UNL A   1      43.835  27.773  26.103  1.00  0.00    -0.237 OA
ATOM     70  O   UNL A   1      42.274  26.542  24.651  1.00  0.00    -0.237 OA
ATOM     71  O   UNL A   1      41.980  28.960  25.000  1.00  0.00    -0.744 OA
ENDBRANCH  65  68
ENDBRANCH  47  61
BRANCH  48  72
ATOM     72  C   UNL A   1      39.489  33.723  37.118  1.00  0.00     0.023 A 
ATOM     73  C   UNL A   1      39.924  35.060  37.047  1.00  0.00     0.012 A 
ATOM     74  C   UNL A   1      38.854  33.269  38.290  1.00  0.00     0.148 A 
ATOM     75  C   UNL A   1      39.754  35.922  38.131  1.00  0.00     0.002 A 
ATOM     76  C   UNL A   1      38.632  34.149  39.342  1.00  0.00     0.091 A 
ATOM     77  F   UNL A   1      38.452  31.991  38.340  1.00  0.00    -0.205 F 
ATOM     78  C   UNL A   1      39.097  35.471  39.273  1.00  0.00     0.022 A 
BRANCH  76  79
ATOM     79  S   UNL A   1      37.672  33.699  40.792  1.00  0.00     0.127 S 
ATOM     80  O   UNL A   1      36.483  33.098  40.191  1.00  0.00    -0.237 OA
ATOM     81  O   UNL A   1      38.569  32.756  41.461  1.00  0.00    -0.237 OA
ATOM     82  O   UNL A   1      37.448  34.940  41.521  1.00  0.00    -0.744 OA
ENDBRANCH  76  79
ENDBRANCH  48  72
BRANCH  60  83
ATOM     83  C   UNL A   1      44.056  28.700  35.395  1.00  0.00     0.023 A 
ATOM     84  C   UNL A   1      45.339  29.254  35.222  1.00  0.00     0.012 A 
ATOM     85  C   UNL A   1      43.871  27.661  36.330  1.00  0.00     0.148 A 
ATOM     86  C   UNL A   1      46.424  28.768  35.949  1.00  0.00     0.002 A 
ATOM     87  C   UNL A   1      44.945  27.223  37.094  1.00  0.00     0.091 A 
ATOM     88  F   UNL A   1      42.644  27.140  36.472  1.00  0.00    -0.205 F 
ATOM     89  C   UNL A   1      46.226  27.765  36.894  1.00  0.00     0.022 A 
BRANCH  87  90
ATOM     90  S   UNL A   1      44.767  26.019  38.415  1.00  0.00     0.127 S 
ATOM     91  O   UNL A   1      43.782  26.669  39.279  1.00  0.00    -0.237 OA
ATOM     92  O   UNL A   1      44.267  24.847  37.696  1.00  0.00    -0.237 OA
ATOM     93  O   UNL A   1      46.091  25.857  38.999  1.00  0.00    -0.744 OA
ENDBRANCH  87  90
ENDBRANCH  60  83
ENDBRANCH  34  35
ENDBRANCH  26  29
ENDBRANCH   1  25
TORSDOF 15
ENDMDL
MODEL 2
REMARK VINA RESULT:     -12.6      2.594      8.060
REMARK SMILES C#Cc1cc(Cl)c2c(c1)C=C(C(=O)NCCCNC(=O)c1ccc(-c3c4nc(c(-c5cccc(S(=O)(=O)[O-])c5F)c5ccc([nH]5)c(-c5cccc(S(=O)(=O)[O-])c5F)c5nc(c(-c6cccc(S(=O)(=O)[O-])c6F)c6ccc3[nH]6)C=C5)C=C4)cc1)[C@@H](C(F)(F)F)O2
REMARK SMILES IDX 17 1 16 2 15 3 14 4 12 5 13 6 11 8 3 9 4 10 9 11 5 12 8 13
REMARK SMILES IDX 6 14 7 15 10 16 89 17 84 18 2 19 1 20 85 21 86 22 87 23
REMARK SMILES IDX 88 24 18 25 19 26 20 28 21 29 22 30 83 31 23 32 82 33 24 34
REMARK SMILES IDX 25 35 26 36 76 37 27 38 81 39 75 40 77 41 28 42 80 43 74 44
REMARK SMILES IDX 73 45 29 47 61 48 41 49 60 50 42 51 45 52 59 53 78 54 43 55
REMARK SMILES IDX 44 56 58 58 79 59 46 60 30 61 31 62 39 63 32 64 34 65 40 66
REMARK SMILES IDX 33 67 35 68 36 69 37 70 38 71 62 72 63 73 71 74 64 75 66 76
REMARK SMILES IDX 72 77 65 78 67 79 68 80 69 81 70 82 47 83 48 84 56 85 49 86
REMARK SMILES IDX 51 87 57 88 50 89 52 90 53 91 54 92 55 93
REMARK H PARENT 14 7 18 27 77 46 45 57
REMARK Flexibility Score: inf
ROOT
ATOM      1  C   UNL A   1      33.084  29.184  25.525  1.00  0.00     0.118 C 
ENDROOT
BRANCH   1   2
ATOM      2  C   UNL A   1      33.329  29.056  24.030  1.00  0.00     0.042 C 
BRANCH   2   3
ATOM      3  C   UNL A   1      32.168  28.376  23.329  1.00  0.00     0.118 C 
BRANCH   3   4
ATOM      4  N   UNL A   1      32.606  27.539  22.221  1.00  0.00    -0.352 N 
ATOM      5  C   UNL A   1      33.039  26.268  22.051  1.00  0.00     0.251 C 
ATOM      6  O   UNL A   1      33.274  25.934  20.885  1.00  0.00    -0.270 OA
ATOM      7  H   UNL A   1      32.581  28.030  21.367  1.00  0.00     0.163 HD
BRANCH   5   8
ATOM      8  C   UNL A   1      33.231  25.283  23.155  1.00  0.00     0.067 C 
ATOM      9  C   UNL A   1      35.834  21.691  25.084  1.00  0.00     0.027 A 
ATOM     10  C   UNL A   1      35.032  21.712  26.226  1.00  0.00     0.041 A 
ATOM     11  C   UNL A   1      35.606  22.599  24.045  1.00  0.00     0.029 A 
ATOM     12  C   UNL A   1      34.001  22.641  26.329  1.00  0.00     0.084 A 
ATOM     13  C   UNL A   1      34.568  23.533  24.144  1.00  0.00     0.020 A 
ATOM     14  Cl  UNL A   1      33.023  22.634  27.753  1.00  0.00    -0.080 Cl
ATOM     15  C   UNL A   1      33.767  23.547  25.290  1.00  0.00     0.146 A 
ATOM     16  C   UNL A   1      34.338  24.520  23.094  1.00  0.00     0.025 C 
ATOM     17  O   UNL A   1      32.769  24.461  25.462  1.00  0.00    -0.474 OA
ATOM     18  C   UNL A   1      32.250  25.104  24.276  1.00  0.00     0.314 C 
BRANCH   9  19
ATOM     19  C   UNL A   1      36.900  20.743  24.998  1.00  0.00    -0.070 C 
ATOM     20  C   UNL A   1      37.775  19.926  24.900  1.00  0.00     0.010 C 
ENDBRANCH   9  19
BRANCH  18  21
ATOM     21  C   UNL A   1      30.974  24.366  23.819  1.00  0.00     0.429 C 
ATOM     22  F   UNL A   1      31.247  23.528  22.791  1.00  0.00    -0.167 F 
ATOM     23  F   UNL A   1      30.427  23.605  24.797  1.00  0.00    -0.167 F 
ATOM     24  F   UNL A   1      30.005  25.216  23.407  1.00  0.00    -0.167 F 
ENDBRANCH  18  21
ENDBRANCH   5   8
ENDBRANCH   3   4
ENDBRANCH   2   3
ENDBRANCH   1   2
BRANCH   1  25
ATOM     25  N   UNL A   1      32.763  30.560  25.905  1.00  0.00    -0.352 N 
ATOM     26  C   UNL A   1      33.284  31.346  26.902  1.00  0.00     0.251 C 
ATOM     27  H   UNL A   1      32.063  30.989  25.362  1.00  0.00     0.163 HD
ATOM     28  O   UNL A   1      32.699  32.369  27.244  1.00  0.00    -0.269 OA
BRANCH  26  29
ATOM     29  C   UNL A   1      34.544  30.948  27.553  1.00  0.00     0.039 A 
ATOM     30  C   UNL A   1      35.558  31.892  27.727  1.00  0.00     0.014 A 
ATOM     31  C   UNL A   1      34.714  29.634  27.995  1.00  0.00     0.014 A 
ATOM     32  C   UNL A   1      36.720  31.525  28.404  1.00  0.00     0.010 A 
ATOM     33  C   UNL A   1      35.812  29.308  28.772  1.00  0.00     0.010 A 
ATOM     34  C   UNL A   1      36.838  30.241  28.961  1.00  0.00    -0.014 A 
BRANCH  34  35
ATOM     35  C   UNL A   1      38.045  29.837  29.719  1.00  0.00     0.031 A 
ATOM     36  C   UNL A   1      38.276  30.388  31.099  1.00  0.00     0.074 A 
ATOM     37  C   UNL A   1      38.952  29.028  29.141  1.00  0.00     0.049 A 
ATOM     38  N   UNL A   1      39.282  30.182  31.906  1.00  0.00    -0.248 NA
ATOM     39  C   UNL A   1      37.260  31.312  31.636  1.00  0.00     0.031 C 
ATOM     40  C   UNL A   1      38.861  28.489  27.782  1.00  0.00     0.029 A 
ATOM     41  N   UNL A   1      40.137  28.527  29.617  1.00  0.00    -0.354 N 
ATOM     42  C   UNL A   1      39.032  30.961  33.027  1.00  0.00     0.074 A 
ATOM     43  C   UNL A   1      37.811  31.691  32.778  1.00  0.00     0.031 C 
ATOM     44  C   UNL A   1      39.926  27.709  27.546  1.00  0.00     0.029 A 
ATOM     45  C   UNL A   1      40.799  27.727  28.716  1.00  0.00     0.049 A 
ATOM     46  H   UNL A   1      40.480  28.721  30.519  1.00  0.00     0.167 HD
ATOM     47  C   UNL A   1      39.735  31.030  34.180  1.00  0.00     0.034 A 
ATOM     48  C   UNL A   1      41.977  27.082  28.822  1.00  0.00     0.034 A 
ATOM     49  C   UNL A   1      40.928  30.272  34.432  1.00  0.00     0.049 A 
ATOM     50  C   UNL A   1      42.740  27.177  30.115  1.00  0.00     0.074 A 
ATOM     51  C   UNL A   1      41.679  30.219  35.591  1.00  0.00     0.029 A 
ATOM     52  N   UNL A   1      41.548  29.440  33.512  1.00  0.00    -0.354 N 
ATOM     53  N   UNL A   1      42.418  27.811  31.218  1.00  0.00    -0.248 NA
ATOM     54  C   UNL A   1      44.013  26.446  30.193  1.00  0.00     0.031 C 
ATOM     55  C   UNL A   1      42.779  29.391  35.357  1.00  0.00     0.029 A 
ATOM     56  C   UNL A   1      42.685  28.886  34.070  1.00  0.00     0.049 A 
ATOM     57  H   UNL A   1      41.226  29.270  32.597  1.00  0.00     0.167 HD
ATOM     58  C   UNL A   1      43.430  27.531  32.129  1.00  0.00     0.074 A 
ATOM     59  C   UNL A   1      44.362  26.649  31.457  1.00  0.00     0.031 C 
ATOM     60  C   UNL A   1      43.581  27.975  33.402  1.00  0.00     0.034 A 
BRANCH  47  61
ATOM     61  C   UNL A   1      39.206  31.914  35.281  1.00  0.00     0.023 A 
ATOM     62  C   UNL A   1      38.264  31.399  36.196  1.00  0.00     0.012 A 
ATOM     63  C   UNL A   1      39.706  33.217  35.463  1.00  0.00     0.148 A 
ATOM     64  C   UNL A   1      37.808  32.175  37.259  1.00  0.00     0.002 A 
ATOM     65  C   UNL A   1      39.288  33.965  36.557  1.00  0.00     0.091 A 
ATOM     66  F   UNL A   1      40.583  33.697  34.571  1.00  0.00    -0.205 F 
ATOM     67  C   UNL A   1      38.331  33.451  37.449  1.00  0.00     0.022 A 
BRANCH  65  68
ATOM     68  S   UNL A   1      39.969  35.580  36.947  1.00  0.00     0.127 S 
ATOM     69  O   UNL A   1      39.255  35.912  38.179  1.00  0.00    -0.237 OA
ATOM     70  O   UNL A   1      41.388  35.277  37.127  1.00  0.00    -0.237 OA
ATOM     71  O   UNL A   1      39.664  36.434  35.807  1.00  0.00    -0.744 OA
ENDBRANCH  65  68
ENDBRANCH  47  61
BRANCH  48  72
ATOM     72  C   UNL A   1      42.464  26.237  27.693  1.00  0.00     0.023 A 
ATOM     73  C   UNL A   1      43.450  26.744  26.825  1.00  0.00     0.012 A 
ATOM     74  C   UNL A   1      41.998  24.921  27.508  1.00  0.00     0.148 A 
ATOM     75  C   UNL A   1      43.946  25.965  25.779  1.00  0.00     0.002 A 
ATOM     76  C   UNL A   1      42.540  24.130  26.503  1.00  0.00     0.091 A 
ATOM     77  F   UNL A   1      41.054  24.459  28.341  1.00  0.00    -0.205 F 
ATOM     78  C   UNL A   1      43.501  24.655  25.626  1.00  0.00     0.022 A 
BRANCH  76  79
ATOM     79  S   UNL A   1      42.133  22.390  26.317  1.00  0.00     0.127 S 
ATOM     80  O   UNL A   1      42.918  22.023  25.140  1.00  0.00    -0.237 OA
ATOM     81  O   UNL A   1      42.620  21.834  27.580  1.00  0.00    -0.237 OA
ATOM     82  O   UNL A   1      40.688  22.336  26.150  1.00  0.00    -0.744 OA
ENDBRANCH  76  79
ENDBRANCH  48  72
BRANCH  60  83
ATOM     83  C   UNL A   1      44.787  27.511  34.177  1.00  0.00     0.023 A 
ATOM     84  C   UNL A   1      45.944  28.313  34.216  1.00  0.00     0.012 A 
ATOM     85  C   UNL A   1      44.726  26.345  34.968  1.00  0.00     0.148 A 
ATOM     86  C   UNL A   1      47.031  27.949  35.009  1.00  0.00     0.002 A 
ATOM     87  C   UNL A   1      45.788  26.022  35.801  1.00  0.00     0.091 A 
ATOM     88  F   UNL A   1      43.619  25.591  34.908  1.00  0.00    -0.205 F 
ATOM     89  C   UNL A   1      46.948  26.815  35.812  1.00  0.00     0.022 A 
BRANCH  87  90
ATOM     90  S   UNL A   1      45.730  24.647  36.956  1.00  0.00     0.127 S 
ATOM     91  O   UNL A   1      44.564  24.993  37.770  1.00  0.00    -0.237 OA
ATOM     92  O   UNL A   1      45.532  23.505  36.063  1.00  0.00    -0.237 OA
ATOM     93  O   UNL A   1      47.003  24.656  37.663  1.00  0.00    -0.744 OA
ENDBRANCH  87  90
ENDBRANCH  60  83
ENDBRANCH  34  35
ENDBRANCH  26  29
ENDBRANCH   1  25
TORSDOF 15
ENDMDL
MODEL 3
REMARK VINA RESULT:     -12.5      2.454      8.210
REMARK SMILES C#Cc1cc(Cl)c2c(c1)C=C(C(=O)NCCCNC(=O)c1ccc(-c3c4nc(c(-c5cccc(S(=O)(=O)[O-])c5F)c5ccc([nH]5)c(-c5cccc(S(=O)(=O)[O-])c5F)c5nc(c(-c6cccc(S(=O)(=O)[O-])c6F)c6ccc3[nH]6)C=C5)C=C4)cc1)[C@@H](C(F)(F)F)O2
REMARK SMILES IDX 17 1 16 2 15 3 14 4 12 5 13 6 11 8 3 9 4 10 9 11 5 12 8 13
REMARK SMILES IDX 6 14 7 15 10 16 89 17 84 18 2 19 1 20 85 21 86 22 87 23
REMARK SMILES IDX 88 24 18 25 19 26 20 28 21 29 22 30 83 31 23 32 82 33 24 34
REMARK SMILES IDX 25 35 26 36 76 37 27 38 81 39 75 40 77 41 28 42 80 43 74 44
REMARK SMILES IDX 73 45 29 47 61 48 41 49 60 50 42 51 45 52 59 53 78 54 43 55
REMARK SMILES IDX 44 56 58 58 79 59 46 60 30 61 31 62 39 63 32 64 34 65 40 66
REMARK SMILES IDX 33 67 35 68 36 69 37 70 38 71 62 72 63 73 71 74 64 75 66 76
REMARK SMILES IDX 72 77 65 78 67 79 68 80 69 81 70 82 47 83 48 84 56 85 49 86
REMARK SMILES IDX 51 87 57 88 50 89 52 90 53 91 54 92 55 93
REMARK H PARENT 14 7 18 27 77 46 45 57
REMARK Flexibility Score: inf
ROOT
ATOM      1  C   UNL A   1      32.950  29.156  25.646  1.00  0.00     0.118 C 
ENDROOT
BRANCH   1   2
ATOM      2  C   UNL A   1      33.259  29.016  24.164  1.00  0.00     0.042 C 
BRANCH   2   3
ATOM      3  C   UNL A   1      32.112  28.366  23.413  1.00  0.00     0.118 C 
BRANCH   3   4
ATOM      4  N   UNL A   1      32.574  27.552  22.298  1.00  0.00    -0.352 N 
ATOM      5  C   UNL A   1      33.024  26.288  22.114  1.00  0.00     0.251 C 
ATOM      6  O   UNL A   1      33.278  25.976  20.946  1.00  0.00    -0.270 OA
ATOM      7  H   UNL A   1      32.555  28.056  21.451  1.00  0.00     0.163 HD
BRANCH   5   8
ATOM      8  C   UNL A   1      33.212  25.289  23.205  1.00  0.00     0.067 C 
ATOM      9  C   UNL A   1      35.811  21.672  25.094  1.00  0.00     0.027 A 
ATOM     10  C   UNL A   1      35.003  21.676  26.232  1.00  0.00     0.041 A 
ATOM     11  C   UNL A   1      35.586  22.595  24.067  1.00  0.00     0.029 A 
ATOM     12  C   UNL A   1      33.972  22.602  26.344  1.00  0.00     0.084 A 
ATOM     13  C   UNL A   1      34.547  23.526  24.175  1.00  0.00     0.020 A 
ATOM     14  Cl  UNL A   1      32.988  22.575  27.764  1.00  0.00    -0.080 Cl
ATOM     15  C   UNL A   1      33.740  23.523  25.318  1.00  0.00     0.146 A 
ATOM     16  C   UNL A   1      34.320  24.527  23.137  1.00  0.00     0.025 C 
ATOM     17  O   UNL A   1      32.741  24.434  25.498  1.00  0.00    -0.474 OA
ATOM     18  C   UNL A   1      32.226  25.093  24.319  1.00  0.00     0.314 C 
BRANCH   9  19
ATOM     19  C   UNL A   1      36.878  20.726  24.999  1.00  0.00    -0.070 C 
ATOM     20  C   UNL A   1      37.782  19.937  24.956  1.00  0.00     0.010 C 
ENDBRANCH   9  19
BRANCH  18  21
ATOM     21  C   UNL A   1      30.953  24.360  23.847  1.00  0.00     0.429 C 
ATOM     22  F   UNL A   1      29.989  25.247  23.502  1.00  0.00    -0.167 F 
ATOM     23  F   UNL A   1      31.165  23.584  22.756  1.00  0.00    -0.167 F 
ATOM     24  F   UNL A   1      30.440  23.549  24.801  1.00  0.00    -0.167 F 
ENDBRANCH  18  21
ENDBRANCH   5   8
ENDBRANCH   3   4
ENDBRANCH   2   3
ENDBRANCH   1   2
BRANCH   1  25
ATOM     25  N   UNL A   1      32.656  30.541  26.010  1.00  0.00    -0.352 N 
ATOM     26  C   UNL A   1      33.226  31.344  26.966  1.00  0.00     0.251 C 
ATOM     27  H   UNL A   1      31.937  30.964  25.489  1.00  0.00     0.163 HD
ATOM     28  O   UNL A   1      32.664  32.379  27.311  1.00  0.00    -0.269 OA
BRANCH  26  29
ATOM     29  C   UNL A   1      34.511  30.950  27.570  1.00  0.00     0.039 A 
ATOM     30  C   UNL A   1      35.526  31.898  27.710  1.00  0.00     0.014 A 
ATOM     31  C   UNL A   1      34.702  29.636  28.001  1.00  0.00     0.014 A 
ATOM     32  C   UNL A   1      36.714  31.534  28.343  1.00  0.00     0.010 A 
ATOM     33  C   UNL A   1      35.829  29.312  28.737  1.00  0.00     0.010 A 
ATOM     34  C   UNL A   1      36.857  30.249  28.892  1.00  0.00    -0.014 A 
BRANCH  34  35
ATOM     35  C   UNL A   1      38.092  29.848  29.604  1.00  0.00     0.031 A 
ATOM     36  C   UNL A   1      38.388  30.422  30.962  1.00  0.00     0.074 A 
ATOM     37  C   UNL A   1      38.967  29.021  29.002  1.00  0.00     0.049 A 
ATOM     38  N   UNL A   1      39.427  30.221  31.729  1.00  0.00    -0.248 NA
ATOM     39  C   UNL A   1      37.404  31.364  31.525  1.00  0.00     0.031 C 
ATOM     40  C   UNL A   1      38.812  28.458  27.659  1.00  0.00     0.029 A 
ATOM     41  N   UNL A   1      40.167  28.517  29.436  1.00  0.00    -0.354 N 
ATOM     42  C   UNL A   1      39.232  31.024  32.845  1.00  0.00     0.074 A 
ATOM     43  C   UNL A   1      38.007  31.760  32.635  1.00  0.00     0.031 C 
ATOM     44  C   UNL A   1      39.861  27.664  27.391  1.00  0.00     0.029 A 
ATOM     45  C   UNL A   1      40.783  27.695  28.522  1.00  0.00     0.049 A 
ATOM     46  H   UNL A   1      40.551  28.725  30.319  1.00  0.00     0.167 HD
ATOM     47  C   UNL A   1      39.984  31.107  33.965  1.00  0.00     0.034 A 
ATOM     48  C   UNL A   1      41.959  27.042  28.589  1.00  0.00     0.034 A 
ATOM     49  C   UNL A   1      41.181  30.343  34.179  1.00  0.00     0.049 A 
ATOM     50  C   UNL A   1      42.779  27.154  29.846  1.00  0.00     0.074 A 
ATOM     51  C   UNL A   1      41.981  30.305  35.305  1.00  0.00     0.029 A 
ATOM     52  N   UNL A   1      41.754  29.489  33.249  1.00  0.00    -0.354 N 
ATOM     53  N   UNL A   1      42.510  27.810  30.950  1.00  0.00    -0.248 NA
ATOM     54  C   UNL A   1      44.048  26.413  29.883  1.00  0.00     0.031 C 
ATOM     55  C   UNL A   1      43.063  29.463  35.039  1.00  0.00     0.029 A 
ATOM     56  C   UNL A   1      42.910  28.935  33.767  1.00  0.00     0.049 A 
ATOM     57  H   UNL A   1      41.390  29.305  32.352  1.00  0.00     0.167 HD
ATOM     58  C   UNL A   1      43.558  27.538  31.821  1.00  0.00     0.074 A 
ATOM     59  C   UNL A   1      44.453  26.636  31.126  1.00  0.00     0.031 C 
ATOM     60  C   UNL A   1      43.768  28.004  33.078  1.00  0.00     0.034 A 
BRANCH  47  61
ATOM     61  C   UNL A   1      39.511  32.015  35.071  1.00  0.00     0.023 A 
ATOM     62  C   UNL A   1      39.662  33.412  34.937  1.00  0.00     0.012 A 
ATOM     63  C   UNL A   1      38.840  31.497  36.194  1.00  0.00     0.148 A 
ATOM     64  C   UNL A   1      39.176  34.276  35.916  1.00  0.00     0.002 A 
ATOM     65  C   UNL A   1      38.310  32.367  37.139  1.00  0.00     0.091 A 
ATOM     66  F   UNL A   1      38.727  30.167  36.314  1.00  0.00    -0.205 F 
ATOM     67  C   UNL A   1      38.486  33.755  37.008  1.00  0.00     0.022 A 
BRANCH  65  68
ATOM     68  S   UNL A   1      37.324  31.807  38.531  1.00  0.00     0.127 S 
ATOM     69  O   UNL A   1      38.230  32.055  39.652  1.00  0.00    -0.237 OA
ATOM     70  O   UNL A   1      36.171  32.704  38.469  1.00  0.00    -0.237 OA
ATOM     71  O   UNL A   1      37.025  30.405  38.277  1.00  0.00    -0.744 OA
ENDBRANCH  65  68
ENDBRANCH  47  61
BRANCH  48  72
ATOM     72  C   UNL A   1      42.390  26.173  27.456  1.00  0.00     0.023 A 
ATOM     73  C   UNL A   1      43.267  26.689  26.483  1.00  0.00     0.012 A 
ATOM     74  C   UNL A   1      41.981  24.828  27.367  1.00  0.00     0.148 A 
ATOM     75  C   UNL A   1      43.711  25.889  25.429  1.00  0.00     0.002 A 
ATOM     76  C   UNL A   1      42.475  24.020  26.351  1.00  0.00     0.091 A 
ATOM     77  F   UNL A   1      41.140  24.357  28.300  1.00  0.00    -0.205 F 
ATOM     78  C   UNL A   1      43.325  24.552  25.369  1.00  0.00     0.022 A 
BRANCH  76  79
ATOM     79  S   UNL A   1      42.148  22.255  26.273  1.00  0.00     0.127 S 
ATOM     80  O   UNL A   1      42.645  21.800  27.570  1.00  0.00    -0.237 OA
ATOM     81  O   UNL A   1      40.693  22.228  26.127  1.00  0.00    -0.237 OA
ATOM     82  O   UNL A   1      42.881  21.766  25.114  1.00  0.00    -0.744 OA
ENDBRANCH  76  79
ENDBRANCH  48  72
BRANCH  60  83
ATOM     83  C   UNL A   1      45.003  27.543  33.808  1.00  0.00     0.023 A 
ATOM     84  C   UNL A   1      46.167  28.336  33.784  1.00  0.00     0.012 A 
ATOM     85  C   UNL A   1      44.966  26.392  34.622  1.00  0.00     0.148 A 
ATOM     86  C   UNL A   1      47.284  27.977  34.536  1.00  0.00     0.002 A 
ATOM     87  C   UNL A   1      46.061  26.074  35.415  1.00  0.00     0.091 A 
ATOM     88  F   UNL A   1      43.852  25.646  34.624  1.00  0.00    -0.205 F 
ATOM     89  C   UNL A   1      47.227  26.857  35.362  1.00  0.00     0.022 A 
BRANCH  87  90
ATOM     90  S   UNL A   1      46.042  24.721  36.596  1.00  0.00     0.127 S 
ATOM     91  O   UNL A   1      45.903  23.560  35.716  1.00  0.00    -0.237 OA
ATOM     92  O   UNL A   1      47.353  24.850  37.231  1.00  0.00    -0.237 OA
ATOM     93  O   UNL A   1      44.909  24.968  37.478  1.00  0.00    -0.744 OA
ENDBRANCH  87  90
ENDBRANCH  60  83
ENDBRANCH  34  35
ENDBRANCH  26  29
ENDBRANCH   1  25
TORSDOF 15
ENDMDL
