MODEL 1
REMARK VINA RESULT:     -13.0      0.000      0.000
REMARK SMILES Cc1ccc(/C=C(\NC(=O)c2cccc(C)c2)C(=O)NCCCNC(=O)c2ccc(-c3c4nc(c(-c5cccc(S(=O)(=O)[O-])c5F)c5ccc([nH]5)c(-c5cccc(S(=O)(=O)[O-])c5F)c5nc(c(-c6cccc(S(=O)(=O)[O-])c6F)c6ccc3[nH]6)C=C5)C=C4)cc2)cc1
REMARK SMILES IDX 22 1 21 2 20 3 18 4 19 5 7 7 6 8 5 9 1 10 2 11 3 12 91 13
REMARK SMILES IDX 4 14 90 15 8 16 9 17 10 19 11 20 12 21 17 22 13 23 15 24
REMARK SMILES IDX 14 25 16 26 23 27 24 28 25 29 26 31 27 32 28 33 89 34 29 35
REMARK SMILES IDX 88 36 30 37 31 38 32 39 82 40 33 41 87 42 81 43 83 44 34 45
REMARK SMILES IDX 86 46 80 47 79 48 35 50 67 51 47 52 66 53 48 54 51 55 65 56
REMARK SMILES IDX 84 57 49 58 50 59 64 61 85 62 52 63 36 64 37 65 45 66 38 67
REMARK SMILES IDX 40 68 46 69 39 70 41 71 42 72 43 73 44 74 68 75 69 76 77 77
REMARK SMILES IDX 70 78 72 79 78 80 71 81 73 82 74 83 75 84 76 85 53 86 54 87
REMARK SMILES IDX 62 88 55 89 57 90 63 91 56 92 58 93 59 94 60 95 61 96
REMARK H PARENT 20 6 8 18 24 30 83 49 51 60
REMARK Flexibility Score: inf
ROOT
ATOM      1  C   UNL A   1      36.377  23.296  25.957  1.00  0.00     0.042 C 
ENDROOT
BRANCH   1   2
ATOM      2  C   UNL A   1      35.514  22.524  24.973  1.00  0.00     0.118 C 
BRANCH   2   3
ATOM      3  N   UNL A   1      34.123  22.320  25.292  1.00  0.00    -0.351 N 
ATOM      4  C   UNL A   1      33.028  23.049  24.926  1.00  0.00     0.267 C 
ATOM      5  O   UNL A   1      31.941  22.467  24.871  1.00  0.00    -0.268 OA
ATOM      6  H   UNL A   1      33.934  21.539  25.859  1.00  0.00     0.163 HD
BRANCH   4   7
ATOM      7  C   UNL A   1      33.101  24.551  24.760  1.00  0.00     0.107 C 
ATOM      8  C   UNL A   1      32.930  25.241  25.913  1.00  0.00     0.040 C 
BRANCH   8   9
ATOM      9  C   UNL A   1      33.001  26.702  26.187  1.00  0.00    -0.023 A 
ATOM     10  C   UNL A   1      33.096  30.913  27.222  1.00  0.00     0.044 C 
ATOM     11  C   UNL A   1      33.024  29.465  26.857  1.00  0.00    -0.051 A 
ATOM     12  C   UNL A   1      34.189  28.822  26.455  1.00  0.00     0.004 A 
ATOM     13  C   UNL A   1      31.835  28.733  26.900  1.00  0.00     0.004 A 
ATOM     14  C   UNL A   1      34.164  27.478  26.091  1.00  0.00     0.008 A 
ATOM     15  C   UNL A   1      31.827  27.366  26.579  1.00  0.00     0.008 A 
ENDBRANCH   8   9
BRANCH   7  16
ATOM     16  N   UNL A   1      33.503  25.195  23.619  1.00  0.00    -0.317 N 
ATOM     17  C   UNL A   1      33.005  26.215  22.837  1.00  0.00     0.255 C 
ATOM     18  H   UNL A   1      34.356  24.845  23.275  1.00  0.00     0.170 HD
ATOM     19  O   UNL A   1      33.729  26.634  21.932  1.00  0.00    -0.269 OA
BRANCH  17  20
ATOM     20  C   UNL A   1      31.619  26.738  22.950  1.00  0.00     0.040 A 
ATOM     21  C   UNL A   1      30.629  25.780  23.238  1.00  0.00     0.014 A 
ATOM     22  C   UNL A   1      31.301  28.094  22.974  1.00  0.00     0.017 A 
ATOM     23  C   UNL A   1      29.351  26.178  23.614  1.00  0.00     0.001 A 
ATOM     24  C   UNL A   1      30.020  28.501  23.374  1.00  0.00    -0.050 A 
ATOM     25  C   UNL A   1      29.051  27.536  23.686  1.00  0.00     0.003 A 
ATOM     26  C   UNL A   1      29.690  29.955  23.533  1.00  0.00     0.044 C 
ENDBRANCH  17  20
ENDBRANCH   7  16
ENDBRANCH   4   7
ENDBRANCH   2   3
ENDBRANCH   1   2
BRANCH   1  27
ATOM     27  C   UNL A   1      37.845  23.261  25.540  1.00  0.00     0.118 C 
BRANCH  27  28
ATOM     28  N   UNL A   1      38.731  22.695  26.587  1.00  0.00    -0.352 N 
ATOM     29  C   UNL A   1      39.763  23.285  27.305  1.00  0.00     0.251 C 
ATOM     30  H   UNL A   1      38.560  21.752  26.808  1.00  0.00     0.163 HD
ATOM     31  O   UNL A   1      40.572  22.577  27.915  1.00  0.00    -0.269 OA
BRANCH  29  32
ATOM     32  C   UNL A   1      39.799  24.747  27.415  1.00  0.00     0.039 A 
ATOM     33  C   UNL A   1      40.161  25.662  26.422  1.00  0.00     0.014 A 
ATOM     34  C   UNL A   1      39.513  25.202  28.685  1.00  0.00     0.014 A 
ATOM     35  C   UNL A   1      40.292  27.004  26.787  1.00  0.00     0.010 A 
ATOM     36  C   UNL A   1      39.190  26.490  28.882  1.00  0.00     0.010 A 
ATOM     37  C   UNL A   1      39.873  27.368  28.060  1.00  0.00    -0.014 A 
BRANCH  37  38
ATOM     38  C   UNL A   1      40.185  28.562  28.817  1.00  0.00     0.031 A 
ATOM     39  C   UNL A   1      39.261  29.680  28.731  1.00  0.00     0.074 A 
ATOM     40  C   UNL A   1      40.964  28.299  29.897  1.00  0.00     0.049 A 
ATOM     41  N   UNL A   1      39.405  30.771  29.384  1.00  0.00    -0.248 NA
ATOM     42  C   UNL A   1      38.077  29.643  27.885  1.00  0.00     0.031 C 
ATOM     43  C   UNL A   1      40.902  28.823  31.255  1.00  0.00     0.029 A 
ATOM     44  N   UNL A   1      41.970  27.337  29.985  1.00  0.00    -0.354 N 
ATOM     45  C   UNL A   1      38.204  31.439  29.303  1.00  0.00     0.074 A 
ATOM     46  C   UNL A   1      37.490  30.790  28.233  1.00  0.00     0.031 C 
ATOM     47  C   UNL A   1      41.984  28.392  31.939  1.00  0.00     0.029 A 
ATOM     48  C   UNL A   1      42.861  27.730  30.982  1.00  0.00     0.049 A 
ATOM     49  H   UNL A   1      42.040  26.522  29.438  1.00  0.00     0.167 HD
ATOM     50  C   UNL A   1      37.913  32.331  30.289  1.00  0.00     0.034 A 
ATOM     51  C   UNL A   1      44.081  28.192  30.560  1.00  0.00     0.034 A 
ATOM     52  C   UNL A   1      39.064  32.438  31.215  1.00  0.00     0.049 A 
ATOM     53  C   UNL A   1      44.200  29.695  30.745  1.00  0.00     0.074 A 
ATOM     54  C   UNL A   1      39.334  31.880  32.456  1.00  0.00     0.029 A 
ATOM     55  N   UNL A   1      40.289  32.887  30.723  1.00  0.00    -0.354 N 
ATOM     56  N   UNL A   1      43.209  30.481  31.069  1.00  0.00    -0.248 NA
ATOM     57  C   UNL A   1      45.455  30.425  30.617  1.00  0.00     0.031 C 
ATOM     58  C   UNL A   1      40.750  31.897  32.647  1.00  0.00     0.029 A 
ATOM     59  C   UNL A   1      41.341  32.496  31.544  1.00  0.00     0.049 A 
ATOM     60  H   UNL A   1      40.395  33.413  29.899  1.00  0.00     0.167 HD
ATOM     61  C   UNL A   1      43.610  31.785  31.067  1.00  0.00     0.074 A 
ATOM     62  C   UNL A   1      45.050  31.685  30.867  1.00  0.00     0.031 C 
ATOM     63  C   UNL A   1      42.722  32.825  31.172  1.00  0.00     0.034 A 
BRANCH  50  64
ATOM     64  C   UNL A   1      36.540  32.916  30.597  1.00  0.00     0.023 A 
ATOM     65  C   UNL A   1      35.967  32.565  31.839  1.00  0.00     0.012 A 
ATOM     66  C   UNL A   1      35.739  33.749  29.773  1.00  0.00     0.148 A 
ATOM     67  C   UNL A   1      34.681  32.966  32.220  1.00  0.00     0.002 A 
ATOM     68  C   UNL A   1      34.450  34.146  30.145  1.00  0.00     0.091 A 
ATOM     69  F   UNL A   1      36.205  34.205  28.615  1.00  0.00    -0.205 F 
ATOM     70  C   UNL A   1      33.916  33.750  31.370  1.00  0.00     0.022 A 
BRANCH  68  71
ATOM     71  S   UNL A   1      33.397  35.161  29.085  1.00  0.00     0.127 S 
ATOM     72  O   UNL A   1      32.736  34.153  28.255  1.00  0.00    -0.237 OA
ATOM     73  O   UNL A   1      32.523  35.819  30.053  1.00  0.00    -0.237 OA
ATOM     74  O   UNL A   1      34.283  36.054  28.347  1.00  0.00    -0.744 OA
ENDBRANCH  68  71
ENDBRANCH  50  64
BRANCH  51  75
ATOM     75  C   UNL A   1      44.559  27.403  29.355  1.00  0.00     0.023 A 
ATOM     76  C   UNL A   1      44.662  25.997  29.537  1.00  0.00     0.012 A 
ATOM     77  C   UNL A   1      44.370  27.893  28.048  1.00  0.00     0.148 A 
ATOM     78  C   UNL A   1      44.337  25.117  28.498  1.00  0.00     0.002 A 
ATOM     79  C   UNL A   1      44.077  27.001  27.011  1.00  0.00     0.091 A 
ATOM     80  F   UNL A   1      44.406  29.215  27.843  1.00  0.00    -0.205 F 
ATOM     81  C   UNL A   1      43.991  25.622  27.250  1.00  0.00     0.022 A 
BRANCH  79  82
ATOM     82  S   UNL A   1      43.710  27.599  25.355  1.00  0.00     0.127 S 
ATOM     83  O   UNL A   1      45.049  27.879  24.842  1.00  0.00    -0.237 OA
ATOM     84  O   UNL A   1      43.046  26.460  24.720  1.00  0.00    -0.237 OA
ATOM     85  O   UNL A   1      42.842  28.750  25.560  1.00  0.00    -0.744 OA
ENDBRANCH  79  82
ENDBRANCH  51  75
BRANCH  63  86
ATOM     86  C   UNL A   1      43.073  34.278  30.902  1.00  0.00     0.023 A 
ATOM     87  C   UNL A   1      43.488  35.156  31.920  1.00  0.00     0.012 A 
ATOM     88  C   UNL A   1      43.146  34.773  29.574  1.00  0.00     0.148 A 
ATOM     89  C   UNL A   1      43.869  36.474  31.656  1.00  0.00     0.002 A 
ATOM     90  C   UNL A   1      43.670  36.031  29.304  1.00  0.00     0.091 A 
ATOM     91  F   UNL A   1      42.686  34.035  28.554  1.00  0.00    -0.205 F 
ATOM     92  C   UNL A   1      43.988  36.904  30.344  1.00  0.00     0.022 A 
BRANCH  90  93
ATOM     93  S   UNL A   1      44.122  36.511  27.632  1.00  0.00     0.127 S 
ATOM     94  O   UNL A   1      45.025  35.430  27.243  1.00  0.00    -0.237 OA
ATOM     95  O   UNL A   1      42.828  36.501  26.946  1.00  0.00    -0.237 OA
ATOM     96  O   UNL A   1      44.720  37.833  27.758  1.00  0.00    -0.744 OA
ENDBRANCH  90  93
ENDBRANCH  63  86
ENDBRANCH  37  38
ENDBRANCH  29  32
ENDBRANCH  27  28
ENDBRANCH   1  27
TORSDOF 16
ENDMDL
MODEL 2
REMARK VINA RESULT:     -12.9      1.591      2.732
REMARK SMILES Cc1ccc(/C=C(\NC(=O)c2cccc(C)c2)C(=O)NCCCNC(=O)c2ccc(-c3c4nc(c(-c5cccc(S(=O)(=O)[O-])c5F)c5ccc([nH]5)c(-c5cccc(S(=O)(=O)[O-])c5F)c5nc(c(-c6cccc(S(=O)(=O)[O-])c6F)c6ccc3[nH]6)C=C5)C=C4)cc2)cc1
REMARK SMILES IDX 22 1 21 2 20 3 18 4 19 5 7 7 6 8 5 9 1 10 2 11 3 12 91 13
REMARK SMILES IDX 4 14 90 15 8 16 9 17 10 19 11 20 12 21 17 22 13 23 15 24
REMARK SMILES IDX 14 25 16 26 23 27 24 28 25 29 26 31 27 32 28 33 89 34 29 35
REMARK SMILES IDX 88 36 30 37 31 38 32 39 82 40 33 41 87 42 81 43 83 44 34 45
REMARK SMILES IDX 86 46 80 47 79 48 35 50 67 51 47 52 66 53 48 54 51 55 65 56
REMARK SMILES IDX 84 57 49 58 50 59 64 61 85 62 52 63 36 64 37 65 45 66 38 67
REMARK SMILES IDX 40 68 46 69 39 70 41 71 42 72 43 73 44 74 68 75 69 76 77 77
REMARK SMILES IDX 70 78 72 79 78 80 71 81 73 82 74 83 75 84 76 85 53 86 54 87
REMARK SMILES IDX 62 88 55 89 57 90 63 91 56 92 58 93 59 94 60 95 61 96
REMARK H PARENT 20 6 8 18 24 30 83 49 51 60
REMARK Flexibility Score: inf
ROOT
ATOM      1  C   UNL A   1      36.138  23.298  26.111  1.00  0.00     0.042 C 
ENDROOT
BRANCH   1   2
ATOM      2  C   UNL A   1      35.269  24.276  25.337  1.00  0.00     0.118 C 
BRANCH   2   3
ATOM      3  N   UNL A   1      34.718  23.854  24.075  1.00  0.00    -0.351 N 
ATOM      4  C   UNL A   1      33.835  24.491  23.250  1.00  0.00     0.267 C 
ATOM      5  O   UNL A   1      33.874  24.222  22.046  1.00  0.00    -0.268 OA
ATOM      6  H   UNL A   1      35.023  22.973  23.759  1.00  0.00     0.163 HD
BRANCH   4   7
ATOM      7  C   UNL A   1      32.732  25.367  23.803  1.00  0.00     0.107 C 
ATOM      8  C   UNL A   1      32.262  26.281  22.921  1.00  0.00     0.040 C 
BRANCH   8   9
ATOM      9  C   UNL A   1      31.152  27.264  23.045  1.00  0.00    -0.023 A 
ATOM     10  C   UNL A   1      27.988  30.229  23.171  1.00  0.00     0.044 C 
ATOM     11  C   UNL A   1      29.106  29.235  23.138  1.00  0.00    -0.051 A 
ATOM     12  C   UNL A   1      28.801  27.889  23.297  1.00  0.00     0.004 A 
ATOM     13  C   UNL A   1      30.441  29.605  22.957  1.00  0.00     0.004 A 
ATOM     14  C   UNL A   1      29.812  26.931  23.289  1.00  0.00     0.008 A 
ATOM     15  C   UNL A   1      31.449  28.630  22.901  1.00  0.00     0.008 A 
ENDBRANCH   8   9
BRANCH   7  16
ATOM     16  N   UNL A   1      32.093  25.163  24.998  1.00  0.00    -0.317 N 
ATOM     17  C   UNL A   1      31.783  25.940  26.093  1.00  0.00     0.255 C 
ATOM     18  H   UNL A   1      31.779  24.236  25.098  1.00  0.00     0.170 HD
ATOM     19  O   UNL A   1      31.059  25.434  26.954  1.00  0.00    -0.269 OA
BRANCH  17  20
ATOM     20  C   UNL A   1      32.366  27.283  26.342  1.00  0.00     0.040 A 
ATOM     21  C   UNL A   1      33.771  27.356  26.287  1.00  0.00     0.014 A 
ATOM     22  C   UNL A   1      31.613  28.452  26.432  1.00  0.00     0.017 A 
ATOM     23  C   UNL A   1      34.411  28.590  26.251  1.00  0.00     0.001 A 
ATOM     24  C   UNL A   1      32.254  29.698  26.374  1.00  0.00    -0.050 A 
ATOM     25  C   UNL A   1      33.652  29.756  26.290  1.00  0.00     0.003 A 
ATOM     26  C   UNL A   1      31.460  30.970  26.338  1.00  0.00     0.044 C 
ENDBRANCH  17  20
ENDBRANCH   7  16
ENDBRANCH   4   7
ENDBRANCH   2   3
ENDBRANCH   1   2
BRANCH   1  27
ATOM     27  C   UNL A   1      37.593  23.384  25.657  1.00  0.00     0.118 C 
BRANCH  27  28
ATOM     28  N   UNL A   1      38.535  22.743  26.608  1.00  0.00    -0.352 N 
ATOM     29  C   UNL A   1      39.664  23.252  27.234  1.00  0.00     0.251 C 
ATOM     30  H   UNL A   1      38.325  21.807  26.830  1.00  0.00     0.163 HD
ATOM     31  O   UNL A   1      40.481  22.483  27.754  1.00  0.00    -0.269 OA
BRANCH  29  32
ATOM     32  C   UNL A   1      39.804  24.707  27.360  1.00  0.00     0.039 A 
ATOM     33  C   UNL A   1      40.330  25.592  26.415  1.00  0.00     0.014 A 
ATOM     34  C   UNL A   1      39.435  25.181  28.602  1.00  0.00     0.014 A 
ATOM     35  C   UNL A   1      40.530  26.919  26.803  1.00  0.00     0.010 A 
ATOM     36  C   UNL A   1      39.197  26.490  28.779  1.00  0.00     0.010 A 
ATOM     37  C   UNL A   1      40.021  27.313  28.035  1.00  0.00    -0.014 A 
BRANCH  37  38
ATOM     38  C   UNL A   1      40.352  28.477  28.829  1.00  0.00     0.031 A 
ATOM     39  C   UNL A   1      39.455  29.618  28.766  1.00  0.00     0.074 A 
ATOM     40  C   UNL A   1      41.112  28.165  29.909  1.00  0.00     0.049 A 
ATOM     41  N   UNL A   1      39.617  30.686  29.451  1.00  0.00    -0.248 NA
ATOM     42  C   UNL A   1      38.280  29.633  27.907  1.00  0.00     0.031 C 
ATOM     43  C   UNL A   1      41.047  28.651  31.281  1.00  0.00     0.029 A 
ATOM     44  N   UNL A   1      42.096  27.178  29.980  1.00  0.00    -0.354 N 
ATOM     45  C   UNL A   1      38.433  31.384  29.377  1.00  0.00     0.074 A 
ATOM     46  C   UNL A   1      37.716  30.783  28.281  1.00  0.00     0.031 C 
ATOM     47  C   UNL A   1      42.111  28.175  31.963  1.00  0.00     0.029 A 
ATOM     48  C   UNL A   1      42.984  27.521  30.997  1.00  0.00     0.049 A 
ATOM     49  H   UNL A   1      42.153  26.377  29.410  1.00  0.00     0.167 HD
ATOM     50  C   UNL A   1      38.151  32.254  30.385  1.00  0.00     0.034 A 
ATOM     51  C   UNL A   1      44.219  27.967  30.601  1.00  0.00     0.034 A 
ATOM     52  C   UNL A   1      39.294  32.307  31.326  1.00  0.00     0.049 A 
ATOM     53  C   UNL A   1      44.371  29.461  30.831  1.00  0.00     0.074 A 
ATOM     54  C   UNL A   1      39.537  31.709  32.553  1.00  0.00     0.029 A 
ATOM     55  N   UNL A   1      40.534  32.741  30.860  1.00  0.00    -0.354 N 
ATOM     56  N   UNL A   1      43.394  30.260  31.167  1.00  0.00    -0.248 NA
ATOM     57  C   UNL A   1      45.643  30.164  30.738  1.00  0.00     0.031 C 
ATOM     58  C   UNL A   1      40.951  31.687  32.760  1.00  0.00     0.029 A 
ATOM     59  C   UNL A   1      41.568  32.303  31.681  1.00  0.00     0.049 A 
ATOM     60  H   UNL A   1      40.662  33.289  30.053  1.00  0.00     0.167 HD
ATOM     61  C   UNL A   1      43.825  31.553  31.207  1.00  0.00     0.074 A 
ATOM     62  C   UNL A   1      45.264  31.425  31.019  1.00  0.00     0.031 C 
ATOM     63  C   UNL A   1      42.960  32.610  31.333  1.00  0.00     0.034 A 
BRANCH  50  64
ATOM     64  C   UNL A   1      36.788  32.862  30.695  1.00  0.00     0.023 A 
ATOM     65  C   UNL A   1      36.314  32.709  32.016  1.00  0.00     0.012 A 
ATOM     66  C   UNL A   1      35.911  33.538  29.810  1.00  0.00     0.148 A 
ATOM     67  C   UNL A   1      35.048  33.149  32.422  1.00  0.00     0.002 A 
ATOM     68  C   UNL A   1      34.641  33.972  30.207  1.00  0.00     0.091 A 
ATOM     69  F   UNL A   1      36.281  33.807  28.562  1.00  0.00    -0.205 F 
ATOM     70  C   UNL A   1      34.205  33.773  31.516  1.00  0.00     0.022 A 
BRANCH  68  71
ATOM     71  S   UNL A   1      33.490  34.787  29.078  1.00  0.00     0.127 S 
ATOM     72  O   UNL A   1      32.414  35.198  29.981  1.00  0.00    -0.237 OA
ATOM     73  O   UNL A   1      34.296  35.886  28.551  1.00  0.00    -0.237 OA
ATOM     74  O   UNL A   1      33.092  33.788  28.092  1.00  0.00    -0.744 OA
ENDBRANCH  68  71
ENDBRANCH  50  64
BRANCH  51  75
ATOM     75  C   UNL A   1      44.692  27.201  29.380  1.00  0.00     0.023 A 
ATOM     76  C   UNL A   1      44.761  25.789  29.521  1.00  0.00     0.012 A 
ATOM     77  C   UNL A   1      44.529  27.732  28.085  1.00  0.00     0.148 A 
ATOM     78  C   UNL A   1      44.428  24.947  28.454  1.00  0.00     0.002 A 
ATOM     79  C   UNL A   1      44.227  26.878  27.020  1.00  0.00     0.091 A 
ATOM     80  F   UNL A   1      44.598  29.059  27.919  1.00  0.00    -0.205 F 
ATOM     81  C   UNL A   1      44.107  25.495  27.218  1.00  0.00     0.022 A 
BRANCH  79  82
ATOM     82  S   UNL A   1      43.893  27.532  25.378  1.00  0.00     0.127 S 
ATOM     83  O   UNL A   1      43.124  28.734  25.692  1.00  0.00    -0.237 OA
ATOM     84  O   UNL A   1      45.228  27.793  24.837  1.00  0.00    -0.237 OA
ATOM     85  O   UNL A   1      43.176  26.466  24.693  1.00  0.00    -0.744 OA
ENDBRANCH  79  82
ENDBRANCH  51  75
BRANCH  63  86
ATOM     86  C   UNL A   1      43.347  34.062  31.109  1.00  0.00     0.023 A 
ATOM     87  C   UNL A   1      43.305  34.668  29.840  1.00  0.00     0.012 A 
ATOM     88  C   UNL A   1      43.621  34.918  32.208  1.00  0.00     0.148 A 
ATOM     89  C   UNL A   1      43.602  36.020  29.651  1.00  0.00     0.002 A 
ATOM     90  C   UNL A   1      43.765  36.289  32.032  1.00  0.00     0.091 A 
ATOM     91  F   UNL A   1      43.767  34.408  33.439  1.00  0.00    -0.205 F 
ATOM     92  C   UNL A   1      43.804  36.838  30.750  1.00  0.00     0.022 A 
BRANCH  90  93
ATOM     93  S   UNL A   1      43.725  37.416  33.432  1.00  0.00     0.127 S 
ATOM     94  O   UNL A   1      43.596  38.712  32.771  1.00  0.00    -0.237 OA
ATOM     95  O   UNL A   1      42.527  36.975  34.149  1.00  0.00    -0.237 OA
ATOM     96  O   UNL A   1      44.970  37.183  34.151  1.00  0.00    -0.744 OA
ENDBRANCH  90  93
ENDBRANCH  63  86
ENDBRANCH  37  38
ENDBRANCH  29  32
ENDBRANCH  27  28
ENDBRANCH   1  27
TORSDOF 16
ENDMDL
MODEL 3
REMARK VINA RESULT:     -12.9      3.925      9.298
REMARK SMILES Cc1ccc(/C=C(\NC(=O)c2cccc(C)c2)C(=O)NCCCNC(=O)c2ccc(-c3c4nc(c(-c5cccc(S(=O)(=O)[O-])c5F)c5ccc([nH]5)c(-c5cccc(S(=O)(=O)[O-])c5F)c5nc(c(-c6cccc(S(=O)(=O)[O-])c6F)c6ccc3[nH]6)C=C5)C=C4)cc2)cc1
REMARK SMILES IDX 22 1 21 2 20 3 18 4 19 5 7 7 6 8 5 9 1 10 2 11 3 12 91 13
REMARK SMILES IDX 4 14 90 15 8 16 9 17 10 19 11 20 12 21 17 22 13 23 15 24
REMARK SMILES IDX 14 25 16 26 23 27 24 28 25 29 26 31 27 32 28 33 89 34 29 35
REMARK SMILES IDX 88 36 30 37 31 38 32 39 82 40 33 41 87 42 81 43 83 44 34 45
REMARK SMILES IDX 86 46 80 47 79 48 35 50 67 51 47 52 66 53 48 54 51 55 65 56
REMARK SMILES IDX 84 57 49 58 50 59 64 61 85 62 52 63 36 64 37 65 45 66 38 67
REMARK SMILES IDX 40 68 46 69 39 70 41 71 42 72 43 73 44 74 68 75 69 76 77 77
REMARK SMILES IDX 70 78 72 79 78 80 71 81 73 82 74 83 75 84 76 85 53 86 54 87
REMARK SMILES IDX 62 88 55 89 57 90 63 91 56 92 58 93 59 94 60 95 61 96
REMARK H PARENT 20 6 8 18 24 30 83 49 51 60
REMARK Flexibility Score: inf
ROOT
ATOM      1  C   UNL A   1      34.106  28.583  26.030  1.00  0.00     0.042 C 
ENDROOT
BRANCH   1   2
ATOM      2  C   UNL A   1      33.702  27.142  26.297  1.00  0.00     0.118 C 
BRANCH   2   3
ATOM      3  N   UNL A   1      32.303  26.801  26.242  1.00  0.00    -0.351 N 
ATOM      4  C   UNL A   1      31.707  25.580  26.099  1.00  0.00     0.267 C 
ATOM      5  O   UNL A   1      30.571  25.436  26.562  1.00  0.00    -0.268 OA
ATOM      6  H   UNL A   1      31.683  27.561  26.319  1.00  0.00     0.163 HD
BRANCH   4   7
ATOM      7  C   UNL A   1      32.335  24.491  25.258  1.00  0.00     0.107 C 
ATOM      8  C   UNL A   1      32.137  23.241  25.741  1.00  0.00     0.040 C 
BRANCH   8   9
ATOM      9  C   UNL A   1      32.521  21.916  25.183  1.00  0.00    -0.023 A 
ATOM     10  C   UNL A   1      33.550  17.942  23.782  1.00  0.00     0.044 C 
ATOM     11  C   UNL A   1      33.228  19.312  24.289  1.00  0.00    -0.051 A 
ATOM     12  C   UNL A   1      32.425  20.136  23.509  1.00  0.00     0.004 A 
ATOM     13  C   UNL A   1      33.703  19.797  25.509  1.00  0.00     0.004 A 
ATOM     14  C   UNL A   1      32.114  21.425  23.935  1.00  0.00     0.008 A 
ATOM     15  C   UNL A   1      33.344  21.079  25.955  1.00  0.00     0.008 A 
ENDBRANCH   8   9
BRANCH   7  16
ATOM     16  N   UNL A   1      32.880  24.676  24.014  1.00  0.00    -0.317 N 
ATOM     17  C   UNL A   1      34.053  24.309  23.390  1.00  0.00     0.255 C 
ATOM     18  H   UNL A   1      32.292  25.198  23.423  1.00  0.00     0.170 HD
ATOM     19  O   UNL A   1      34.145  24.547  22.184  1.00  0.00    -0.269 OA
BRANCH  17  20
ATOM     20  C   UNL A   1      35.233  23.766  24.108  1.00  0.00     0.040 A 
ATOM     21  C   UNL A   1      35.624  24.474  25.260  1.00  0.00     0.014 A 
ATOM     22  C   UNL A   1      35.822  22.536  23.816  1.00  0.00     0.017 A 
ATOM     23  C   UNL A   1      36.545  23.926  26.147  1.00  0.00     0.001 A 
ATOM     24  C   UNL A   1      36.733  21.970  24.719  1.00  0.00    -0.050 A 
ATOM     25  C   UNL A   1      37.093  22.675  25.877  1.00  0.00     0.003 A 
ATOM     26  C   UNL A   1      37.284  20.593  24.494  1.00  0.00     0.044 C 
ENDBRANCH  17  20
ENDBRANCH   7  16
ENDBRANCH   4   7
ENDBRANCH   2   3
ENDBRANCH   1   2
BRANCH   1  27
ATOM     27  C   UNL A   1      33.994  29.425  27.299  1.00  0.00     0.118 C 
BRANCH  27  28
ATOM     28  N   UNL A   1      34.687  30.732  27.190  1.00  0.00    -0.352 N 
ATOM     29  C   UNL A   1      35.846  31.188  27.803  1.00  0.00     0.251 C 
ATOM     30  H   UNL A   1      34.257  31.379  26.586  1.00  0.00     0.163 HD
ATOM     31  O   UNL A   1      36.100  32.398  27.818  1.00  0.00    -0.269 OA
BRANCH  29  32
ATOM     32  C   UNL A   1      36.801  30.205  28.324  1.00  0.00     0.039 A 
ATOM     33  C   UNL A   1      36.722  29.504  29.530  1.00  0.00     0.014 A 
ATOM     34  C   UNL A   1      37.920  30.063  27.529  1.00  0.00     0.014 A 
ATOM     35  C   UNL A   1      37.826  28.739  29.916  1.00  0.00     0.010 A 
ATOM     36  C   UNL A   1      38.722  28.997  27.680  1.00  0.00     0.010 A 
ATOM     37  C   UNL A   1      38.850  28.577  28.991  1.00  0.00    -0.014 A 
BRANCH  37  38
ATOM     38  C   UNL A   1      40.215  28.147  29.208  1.00  0.00     0.031 A 
ATOM     39  C   UNL A   1      40.537  26.755  28.948  1.00  0.00     0.074 A 
ATOM     40  C   UNL A   1      41.102  29.169  29.089  1.00  0.00     0.049 A 
ATOM     41  N   UNL A   1      41.714  26.265  29.063  1.00  0.00    -0.248 NA
ATOM     42  C   UNL A   1      39.529  25.793  28.527  1.00  0.00     0.031 C 
ATOM     43  C   UNL A   1      42.413  29.211  28.455  1.00  0.00     0.029 A 
ATOM     44  N   UNL A   1      40.899  30.497  29.463  1.00  0.00    -0.354 N 
ATOM     45  C   UNL A   1      41.692  25.039  28.439  1.00  0.00     0.074 A 
ATOM     46  C   UNL A   1      40.293  24.725  28.286  1.00  0.00     0.031 C 
ATOM     47  C   UNL A   1      42.992  30.400  28.730  1.00  0.00     0.029 A 
ATOM     48  C   UNL A   1      42.143  31.077  29.701  1.00  0.00     0.049 A 
ATOM     49  H   UNL A   1      40.027  30.948  29.544  1.00  0.00     0.167 HD
ATOM     50  C   UNL A   1      42.872  24.550  27.970  1.00  0.00     0.034 A 
ATOM     51  C   UNL A   1      42.460  31.319  31.013  1.00  0.00     0.034 A 
ATOM     52  C   UNL A   1      43.972  25.469  28.345  1.00  0.00     0.049 A 
ATOM     53  C   UNL A   1      43.522  30.355  31.515  1.00  0.00     0.074 A 
ATOM     54  C   UNL A   1      44.655  26.458  27.653  1.00  0.00     0.029 A 
ATOM     55  N   UNL A   1      44.230  25.700  29.696  1.00  0.00    -0.354 N 
ATOM     56  N   UNL A   1      43.935  29.303  30.859  1.00  0.00    -0.248 NA
ATOM     57  C   UNL A   1      44.228  30.521  32.778  1.00  0.00     0.031 C 
ATOM     58  C   UNL A   1      45.228  27.350  28.612  1.00  0.00     0.029 A 
ATOM     59  C   UNL A   1      44.928  26.887  29.885  1.00  0.00     0.049 A 
ATOM     60  H   UNL A   1      43.953  25.097  30.423  1.00  0.00     0.167 HD
ATOM     61  C   UNL A   1      44.821  28.589  31.610  1.00  0.00     0.074 A 
ATOM     62  C   UNL A   1      45.038  29.447  32.768  1.00  0.00     0.031 C 
ATOM     63  C   UNL A   1      45.251  27.339  31.243  1.00  0.00     0.034 A 
BRANCH  50  64
ATOM     64  C   UNL A   1      43.042  23.414  26.968  1.00  0.00     0.023 A 
ATOM     65  C   UNL A   1      43.690  23.733  25.754  1.00  0.00     0.012 A 
ATOM     66  C   UNL A   1      42.598  22.072  27.084  1.00  0.00     0.148 A 
ATOM     67  C   UNL A   1      43.846  22.809  24.714  1.00  0.00     0.002 A 
ATOM     68  C   UNL A   1      42.743  21.147  26.045  1.00  0.00     0.091 A 
ATOM     69  F   UNL A   1      42.042  21.637  28.211  1.00  0.00    -0.205 F 
ATOM     70  C   UNL A   1      43.365  21.516  24.853  1.00  0.00     0.022 A 
BRANCH  68  71
ATOM     71  S   UNL A   1      42.135  19.449  26.156  1.00  0.00     0.127 S 
ATOM     72  O   UNL A   1      42.989  18.754  25.192  1.00  0.00    -0.237 OA
ATOM     73  O   UNL A   1      42.399  19.115  27.554  1.00  0.00    -0.237 OA
ATOM     74  O   UNL A   1      40.724  19.485  25.787  1.00  0.00    -0.744 OA
ENDBRANCH  68  71
ENDBRANCH  50  64
BRANCH  51  75
ATOM     75  C   UNL A   1      41.231  31.768  31.781  1.00  0.00     0.023 A 
ATOM     76  C   UNL A   1      40.561  32.911  31.265  1.00  0.00     0.012 A 
ATOM     77  C   UNL A   1      40.489  30.856  32.557  1.00  0.00     0.148 A 
ATOM     78  C   UNL A   1      39.165  33.001  31.310  1.00  0.00     0.002 A 
ATOM     79  C   UNL A   1      39.096  30.975  32.620  1.00  0.00     0.091 A 
ATOM     80  F   UNL A   1      41.133  29.850  33.161  1.00  0.00    -0.205 F 
ATOM     81  C   UNL A   1      38.430  32.004  31.940  1.00  0.00     0.022 A 
BRANCH  79  82
ATOM     82  S   UNL A   1      38.106  29.759  33.501  1.00  0.00     0.127 S 
ATOM     83  O   UNL A   1      36.772  30.025  32.967  1.00  0.00    -0.237 OA
ATOM     84  O   UNL A   1      38.681  28.481  33.080  1.00  0.00    -0.237 OA
ATOM     85  O   UNL A   1      38.311  30.065  34.910  1.00  0.00    -0.744 OA
ENDBRANCH  79  82
ENDBRANCH  51  75
BRANCH  63  86
ATOM     86  C   UNL A   1      46.010  26.393  32.159  1.00  0.00     0.023 A 
ATOM     87  C   UNL A   1      47.416  26.345  32.196  1.00  0.00     0.012 A 
ATOM     88  C   UNL A   1      45.326  25.623  33.135  1.00  0.00     0.148 A 
ATOM     89  C   UNL A   1      48.108  25.518  33.085  1.00  0.00     0.002 A 
ATOM     90  C   UNL A   1      46.021  24.922  34.114  1.00  0.00     0.091 A 
ATOM     91  F   UNL A   1      43.988  25.543  33.113  1.00  0.00    -0.205 F 
ATOM     92  C   UNL A   1      47.411  24.828  34.064  1.00  0.00     0.022 A 
BRANCH  90  93
ATOM     93  S   UNL A   1      45.182  24.271  35.564  1.00  0.00     0.127 S 
ATOM     94  O   UNL A   1      46.288  23.674  36.308  1.00  0.00    -0.237 OA
ATOM     95  O   UNL A   1      44.624  25.484  36.169  1.00  0.00    -0.237 OA
ATOM     96  O   UNL A   1      44.181  23.348  35.049  1.00  0.00    -0.744 OA
ENDBRANCH  90  93
ENDBRANCH  63  86
ENDBRANCH  37  38
ENDBRANCH  29  32
ENDBRANCH  27  28
ENDBRANCH   1  27
TORSDOF 16
ENDMDL
