MODEL 1
REMARK VINA RESULT:     -10.7      0.000      0.000
REMARK SMILES CO[C@@H]1C[C@@H](C(=O)NCCCNC(=O)c2ccc(-c3c4nc(c(-c5cccc(S(=O)(=O)[O-])c5F)c5ccc([nH]5)c(-c5cccc(S(=O)(=O)[O-])c5F)c5nc(c(-c6cccc(S(=O)(=O)[O-])c6F)c6ccc3[nH]6)C=C5)C=C4)cc2)N(C(=O)CSc2cccs2)C1
REMARK SMILES IDX 9 1 8 2 6 3 7 4 5 6 3 7 4 8 88 9 78 10 2 11 1 12 79 13 80 14
REMARK SMILES IDX 81 15 82 16 83 17 84 18 87 19 85 20 86 21 10 22 11 23 12 24
REMARK SMILES IDX 13 25 14 27 15 28 16 29 77 30 17 31 76 32 18 33 19 34 20 35
REMARK SMILES IDX 70 36 21 37 75 38 69 39 71 40 22 41 74 42 68 43 67 44 23 46
REMARK SMILES IDX 55 47 35 48 54 49 36 50 39 51 53 52 72 53 37 54 38 55 52 57
REMARK SMILES IDX 73 58 40 59 24 60 25 61 33 62 26 63 28 64 34 65 27 66 29 67
REMARK SMILES IDX 30 68 31 69 32 70 56 71 57 72 65 73 58 74 60 75 66 76 59 77
REMARK SMILES IDX 61 78 62 79 63 80 64 81 41 82 42 83 50 84 43 85 45 86 51 87
REMARK SMILES IDX 44 88 46 89 47 90 48 91 49 92
REMARK H PARENT 8 5 12 26 71 45 39 56
REMARK Flexibility Score: inf
ROOT
ATOM      1  C   UNL A   1      31.532  30.492  25.734  1.00  0.00     0.117 C 
ENDROOT
BRANCH   1   2
ATOM      2  N   UNL A   1      32.055  29.437  26.589  1.00  0.00    -0.354 N 
ATOM      3  C   UNL A   1      31.622  28.143  26.702  1.00  0.00     0.242 C 
ATOM      4  O   UNL A   1      31.442  27.765  27.861  1.00  0.00    -0.273 OA
ATOM      5  H   UNL A   1      32.818  29.686  27.160  1.00  0.00     0.163 HD
BRANCH   3   6
ATOM      6  C   UNL A   1      31.628  27.171  25.484  1.00  0.00     0.177 C 
ATOM      7  C   UNL A   1      30.204  26.294  23.692  1.00  0.00     0.139 C 
ATOM      8  C   UNL A   1      30.556  27.556  24.454  1.00  0.00     0.069 C 
ATOM      9  C   UNL A   1      30.489  25.175  24.681  1.00  0.00     0.152 C 
ATOM     10  N   UNL A   1      31.390  25.717  25.698  1.00  0.00    -0.327 N 
BRANCH   7  11
ATOM     11  O   UNL A   1      30.844  26.192  22.420  1.00  0.00    -0.380 OA
ATOM     12  C   UNL A   1      31.504  27.341  21.918  1.00  0.00     0.195 C 
ENDBRANCH   7  11
BRANCH  10  13
ATOM     13  C   UNL A   1      32.076  24.781  26.457  1.00  0.00     0.233 C 
ATOM     14  O   UNL A   1      31.449  24.013  27.203  1.00  0.00    -0.274 OA
BRANCH  13  15
ATOM     15  C   UNL A   1      33.589  24.700  26.487  1.00  0.00     0.175 C 
BRANCH  15  16
ATOM     16  S   UNL A   1      34.213  23.033  26.155  1.00  0.00    -0.105 SA
BRANCH  16  17
ATOM     17  C   UNL A   1      33.457  22.710  24.606  1.00  0.00     0.060 A 
ATOM     18  C   UNL A   1      33.729  23.334  23.407  1.00  0.00     0.027 A 
ATOM     19  S   UNL A   1      32.227  21.535  24.448  1.00  0.00    -0.137 S 
ATOM     20  C   UNL A   1      32.930  22.823  22.342  1.00  0.00     0.013 A 
ATOM     21  C   UNL A   1      32.075  21.834  22.770  1.00  0.00     0.066 A 
ENDBRANCH  16  17
ENDBRANCH  15  16
ENDBRANCH  13  15
ENDBRANCH  10  13
ENDBRANCH   3   6
ENDBRANCH   1   2
BRANCH   1  22
ATOM     22  C   UNL A   1      31.364  31.803  26.504  1.00  0.00     0.042 C 
BRANCH  22  23
ATOM     23  C   UNL A   1      32.651  32.285  27.173  1.00  0.00     0.118 C 
BRANCH  23  24
ATOM     24  N   UNL A   1      32.575  33.693  27.547  1.00  0.00    -0.352 N 
ATOM     25  C   UNL A   1      33.233  34.371  28.539  1.00  0.00     0.251 C 
ATOM     26  H   UNL A   1      31.956  34.237  27.008  1.00  0.00     0.163 HD
ATOM     27  O   UNL A   1      32.836  35.487  28.877  1.00  0.00    -0.269 OA
BRANCH  25  28
ATOM     28  C   UNL A   1      34.410  33.771  29.198  1.00  0.00     0.039 A 
ATOM     29  C   UNL A   1      35.687  34.230  28.864  1.00  0.00     0.014 A 
ATOM     30  C   UNL A   1      34.255  32.731  30.119  1.00  0.00     0.014 A 
ATOM     31  C   UNL A   1      36.805  33.682  29.495  1.00  0.00     0.010 A 
ATOM     32  C   UNL A   1      35.363  32.239  30.800  1.00  0.00     0.010 A 
ATOM     33  C   UNL A   1      36.650  32.701  30.489  1.00  0.00    -0.014 A 
BRANCH  33  34
ATOM     34  C   UNL A   1      37.818  32.147  31.220  1.00  0.00     0.031 A 
ATOM     35  C   UNL A   1      38.609  31.010  30.633  1.00  0.00     0.074 A 
ATOM     36  C   UNL A   1      38.101  32.604  32.457  1.00  0.00     0.049 A 
ATOM     37  N   UNL A   1      39.608  30.347  31.154  1.00  0.00    -0.248 NA
ATOM     38  C   UNL A   1      38.207  30.533  29.298  1.00  0.00     0.031 C 
ATOM     39  C   UNL A   1      37.352  33.643  33.167  1.00  0.00     0.029 A 
ATOM     40  N   UNL A   1      39.075  32.231  33.348  1.00  0.00    -0.354 N 
ATOM     41  C   UNL A   1      39.926  29.352  30.235  1.00  0.00     0.074 A 
ATOM     42  C   UNL A   1      38.995  29.479  29.135  1.00  0.00     0.031 C 
ATOM     43  C   UNL A   1      37.893  33.823  34.383  1.00  0.00     0.029 A 
ATOM     44  C   UNL A   1      39.008  32.896  34.551  1.00  0.00     0.049 A 
ATOM     45  H   UNL A   1      39.759  31.551  33.147  1.00  0.00     0.167 HD
ATOM     46  C   UNL A   1      40.921  28.436  30.288  1.00  0.00     0.034 A 
ATOM     47  C   UNL A   1      39.755  32.769  35.664  1.00  0.00     0.034 A 
ATOM     48  C   UNL A   1      41.880  28.353  31.356  1.00  0.00     0.049 A 
ATOM     49  C   UNL A   1      40.894  31.786  35.667  1.00  0.00     0.074 A 
ATOM     50  C   UNL A   1      42.987  27.529  31.455  1.00  0.00     0.029 A 
ATOM     51  N   UNL A   1      41.847  29.120  32.510  1.00  0.00    -0.354 N 
ATOM     52  N   UNL A   1      41.284  30.971  34.717  1.00  0.00    -0.248 NA
ATOM     53  C   UNL A   1      41.722  31.731  36.881  1.00  0.00     0.031 C 
ATOM     54  C   UNL A   1      43.615  27.787  32.678  1.00  0.00     0.029 A 
ATOM     55  C   UNL A   1      42.910  28.785  33.330  1.00  0.00     0.049 A 
ATOM     56  H   UNL A   1      41.168  29.802  32.715  1.00  0.00     0.167 HD
ATOM     57  C   UNL A   1      42.421  30.335  35.201  1.00  0.00     0.074 A 
ATOM     58  C   UNL A   1      42.671  30.877  36.521  1.00  0.00     0.031 C 
ATOM     59  C   UNL A   1      43.180  29.378  34.614  1.00  0.00     0.034 A 
BRANCH  46  60
ATOM     60  C   UNL A   1      41.069  27.486  29.127  1.00  0.00     0.023 A 
ATOM     61  C   UNL A   1      40.321  26.291  29.112  1.00  0.00     0.012 A 
ATOM     62  C   UNL A   1      41.881  27.808  28.023  1.00  0.00     0.148 A 
ATOM     63  C   UNL A   1      40.400  25.417  28.030  1.00  0.00     0.002 A 
ATOM     64  C   UNL A   1      41.921  26.952  26.927  1.00  0.00     0.091 A 
ATOM     65  F   UNL A   1      42.599  28.939  28.063  1.00  0.00    -0.205 F 
ATOM     66  C   UNL A   1      41.190  25.752  26.934  1.00  0.00     0.022 A 
BRANCH  64  67
ATOM     67  S   UNL A   1      42.845  27.329  25.433  1.00  0.00     0.127 S 
ATOM     68  O   UNL A   1      44.180  27.589  25.971  1.00  0.00    -0.237 OA
ATOM     69  O   UNL A   1      42.726  26.083  24.676  1.00  0.00    -0.237 OA
ATOM     70  O   UNL A   1      42.183  28.475  24.828  1.00  0.00    -0.744 OA
ENDBRANCH  64  67
ENDBRANCH  46  60
BRANCH  47  71
ATOM     71  C   UNL A   1      39.497  33.645  36.841  1.00  0.00     0.023 A 
ATOM     72  C   UNL A   1      39.849  35.008  36.778  1.00  0.00     0.012 A 
ATOM     73  C   UNL A   1      38.888  33.149  38.010  1.00  0.00     0.148 A 
ATOM     74  C   UNL A   1      39.633  35.851  37.868  1.00  0.00     0.002 A 
ATOM     75  C   UNL A   1      38.625  34.007  39.072  1.00  0.00     0.091 A 
ATOM     76  F   UNL A   1      38.573  31.847  38.059  1.00  0.00    -0.205 F 
ATOM     77  C   UNL A   1      39.012  35.354  39.011  1.00  0.00     0.022 A 
BRANCH  75  78
ATOM     78  S   UNL A   1      37.704  33.477  40.521  1.00  0.00     0.127 S 
ATOM     79  O   UNL A   1      37.583  34.727  41.270  1.00  0.00    -0.237 OA
ATOM     80  O   UNL A   1      36.457  32.989  39.931  1.00  0.00    -0.237 OA
ATOM     81  O   UNL A   1      38.516  32.439  41.138  1.00  0.00    -0.744 OA
ENDBRANCH  75  78
ENDBRANCH  47  71
BRANCH  59  82
ATOM     82  C   UNL A   1      44.379  28.876  35.372  1.00  0.00     0.023 A 
ATOM     83  C   UNL A   1      45.637  29.480  35.174  1.00  0.00     0.012 A 
ATOM     84  C   UNL A   1      44.243  27.862  36.340  1.00  0.00     0.148 A 
ATOM     85  C   UNL A   1      46.747  29.060  35.905  1.00  0.00     0.002 A 
ATOM     86  C   UNL A   1      45.344  27.481  37.099  1.00  0.00     0.091 A 
ATOM     87  F   UNL A   1      43.042  27.286  36.500  1.00  0.00    -0.205 F 
ATOM     88  C   UNL A   1      46.598  28.070  36.875  1.00  0.00     0.022 A 
BRANCH  86  89
ATOM     89  S   UNL A   1      45.221  26.286  38.434  1.00  0.00     0.127 S 
ATOM     90  O   UNL A   1      44.795  25.083  37.720  1.00  0.00    -0.237 OA
ATOM     91  O   UNL A   1      46.595  26.240  38.937  1.00  0.00    -0.237 OA
ATOM     92  O   UNL A   1      44.253  26.833  39.375  1.00  0.00    -0.744 OA
ENDBRANCH  86  89
ENDBRANCH  59  82
ENDBRANCH  33  34
ENDBRANCH  25  28
ENDBRANCH  23  24
ENDBRANCH  22  23
ENDBRANCH   1  22
TORSDOF 18
ENDMDL
MODEL 2
REMARK VINA RESULT:     -10.6      1.789      2.390
REMARK SMILES CO[C@@H]1C[C@@H](C(=O)NCCCNC(=O)c2ccc(-c3c4nc(c(-c5cccc(S(=O)(=O)[O-])c5F)c5ccc([nH]5)c(-c5cccc(S(=O)(=O)[O-])c5F)c5nc(c(-c6cccc(S(=O)(=O)[O-])c6F)c6ccc3[nH]6)C=C5)C=C4)cc2)N(C(=O)CSc2cccs2)C1
REMARK SMILES IDX 9 1 8 2 6 3 7 4 5 6 3 7 4 8 88 9 78 10 2 11 1 12 79 13 80 14
REMARK SMILES IDX 81 15 82 16 83 17 84 18 87 19 85 20 86 21 10 22 11 23 12 24
REMARK SMILES IDX 13 25 14 27 15 28 16 29 77 30 17 31 76 32 18 33 19 34 20 35
REMARK SMILES IDX 70 36 21 37 75 38 69 39 71 40 22 41 74 42 68 43 67 44 23 46
REMARK SMILES IDX 55 47 35 48 54 49 36 50 39 51 53 52 72 53 37 54 38 55 52 57
REMARK SMILES IDX 73 58 40 59 24 60 25 61 33 62 26 63 28 64 34 65 27 66 29 67
REMARK SMILES IDX 30 68 31 69 32 70 56 71 57 72 65 73 58 74 60 75 66 76 59 77
REMARK SMILES IDX 61 78 62 79 63 80 64 81 41 82 42 83 50 84 43 85 45 86 51 87
REMARK SMILES IDX 44 88 46 89 47 90 48 91 49 92
REMARK H PARENT 8 5 12 26 71 45 39 56
REMARK Flexibility Score: inf
ROOT
ATOM      1  C   UNL A   1      31.604  30.221  26.606  1.00  0.00     0.117 C 
ENDROOT
BRANCH   1   2
ATOM      2  N   UNL A   1      32.810  29.800  25.909  1.00  0.00    -0.354 N 
ATOM      3  C   UNL A   1      32.956  28.786  25.000  1.00  0.00     0.242 C 
ATOM      4  O   UNL A   1      33.898  28.027  25.232  1.00  0.00    -0.273 OA
ATOM      5  H   UNL A   1      33.627  30.309  26.119  1.00  0.00     0.163 HD
BRANCH   3   6
ATOM      6  C   UNL A   1      32.165  28.773  23.658  1.00  0.00     0.177 C 
ATOM      7  C   UNL A   1      29.920  28.451  22.729  1.00  0.00     0.139 C 
ATOM      8  C   UNL A   1      30.677  29.081  23.880  1.00  0.00     0.069 C 
ATOM      9  C   UNL A   1      30.794  27.279  22.311  1.00  0.00     0.152 C 
ATOM     10  N   UNL A   1      32.139  27.538  22.828  1.00  0.00    -0.327 N 
BRANCH   7  11
ATOM     11  O   UNL A   1      29.564  29.373  21.699  1.00  0.00    -0.380 OA
ATOM     12  C   UNL A   1      29.252  30.702  22.081  1.00  0.00     0.195 C 
ENDBRANCH   7  11
BRANCH  10  13
ATOM     13  C   UNL A   1      33.162  26.809  22.241  1.00  0.00     0.233 C 
ATOM     14  O   UNL A   1      34.047  27.395  21.599  1.00  0.00    -0.274 OA
BRANCH  13  15
ATOM     15  C   UNL A   1      33.209  25.294  22.271  1.00  0.00     0.175 C 
BRANCH  15  16
ATOM     16  S   UNL A   1      34.185  24.648  23.653  1.00  0.00    -0.105 SA
BRANCH  16  17
ATOM     17  C   UNL A   1      32.913  24.285  24.804  1.00  0.00     0.060 A 
ATOM     18  C   UNL A   1      33.005  24.334  26.179  1.00  0.00     0.027 A 
ATOM     19  S   UNL A   1      31.364  23.786  24.285  1.00  0.00    -0.137 S 
ATOM     20  C   UNL A   1      31.777  23.979  26.811  1.00  0.00     0.013 A 
ATOM     21  C   UNL A   1      30.799  23.665  25.895  1.00  0.00     0.066 A 
ENDBRANCH  16  17
ENDBRANCH  15  16
ENDBRANCH  13  15
ENDBRANCH  10  13
ENDBRANCH   3   6
ENDBRANCH   1   2
BRANCH   1  22
ATOM     22  C   UNL A   1      31.481  31.745  26.640  1.00  0.00     0.042 C 
BRANCH  22  23
ATOM     23  C   UNL A   1      32.810  32.458  26.885  1.00  0.00     0.118 C 
BRANCH  23  24
ATOM     24  N   UNL A   1      32.616  33.815  27.381  1.00  0.00    -0.352 N 
ATOM     25  C   UNL A   1      33.167  34.436  28.472  1.00  0.00     0.251 C 
ATOM     26  H   UNL A   1      31.995  34.370  26.854  1.00  0.00     0.163 HD
ATOM     27  O   UNL A   1      32.674  35.487  28.883  1.00  0.00    -0.269 OA
BRANCH  25  28
ATOM     28  C   UNL A   1      34.340  33.850  29.148  1.00  0.00     0.039 A 
ATOM     29  C   UNL A   1      34.150  32.824  30.078  1.00  0.00     0.014 A 
ATOM     30  C   UNL A   1      35.624  34.339  28.892  1.00  0.00     0.014 A 
ATOM     31  C   UNL A   1      35.256  32.252  30.711  1.00  0.00     0.010 A 
ATOM     32  C   UNL A   1      36.728  33.717  29.466  1.00  0.00     0.010 A 
ATOM     33  C   UNL A   1      36.557  32.675  30.389  1.00  0.00    -0.014 A 
BRANCH  33  34
ATOM     34  C   UNL A   1      37.751  32.039  30.999  1.00  0.00     0.031 A 
ATOM     35  C   UNL A   1      38.527  30.999  30.237  1.00  0.00     0.074 A 
ATOM     36  C   UNL A   1      38.075  32.328  32.275  1.00  0.00     0.049 A 
ATOM     37  N   UNL A   1      39.547  30.281  30.629  1.00  0.00    -0.248 NA
ATOM     38  C   UNL A   1      38.081  30.702  28.864  1.00  0.00     0.031 C 
ATOM     39  C   UNL A   1      37.347  33.255  33.144  1.00  0.00     0.029 A 
ATOM     40  N   UNL A   1      39.082  31.848  33.074  1.00  0.00    -0.354 N 
ATOM     41  C   UNL A   1      39.837  29.422  29.574  1.00  0.00     0.074 A 
ATOM     42  C   UNL A   1      38.867  29.687  28.534  1.00  0.00     0.031 C 
ATOM     43  C   UNL A   1      37.929  33.275  34.354  1.00  0.00     0.029 A 
ATOM     44  C   UNL A   1      39.054  32.344  34.357  1.00  0.00     0.049 A 
ATOM     45  H   UNL A   1      39.761  31.207  32.760  1.00  0.00     0.167 HD
ATOM     46  C   UNL A   1      40.838  28.517  29.469  1.00  0.00     0.034 A 
ATOM     47  C   UNL A   1      39.840  32.076  35.417  1.00  0.00     0.034 A 
ATOM     48  C   UNL A   1      41.834  28.300  30.483  1.00  0.00     0.049 A 
ATOM     49  C   UNL A   1      40.983  31.112  35.248  1.00  0.00     0.074 A 
ATOM     50  C   UNL A   1      42.947  27.480  30.432  1.00  0.00     0.029 A 
ATOM     51  N   UNL A   1      41.837  28.904  31.731  1.00  0.00    -0.354 N 
ATOM     52  N   UNL A   1      41.343  30.436  34.185  1.00  0.00    -0.248 NA
ATOM     53  C   UNL A   1      41.853  30.902  36.415  1.00  0.00     0.031 C 
ATOM     54  C   UNL A   1      43.616  27.577  31.657  1.00  0.00     0.029 A 
ATOM     55  C   UNL A   1      42.930  28.472  32.461  1.00  0.00     0.049 A 
ATOM     56  H   UNL A   1      41.162  29.545  32.049  1.00  0.00     0.167 HD
ATOM     57  C   UNL A   1      42.500  29.752  34.540  1.00  0.00     0.074 A 
ATOM     58  C   UNL A   1      42.793  30.113  35.911  1.00  0.00     0.031 C 
ATOM     59  C   UNL A   1      43.242  28.889  33.803  1.00  0.00     0.034 A 
BRANCH  46  60
ATOM     60  C   UNL A   1      40.949  27.733  28.187  1.00  0.00     0.023 A 
ATOM     61  C   UNL A   1      41.556  28.328  27.062  1.00  0.00     0.012 A 
ATOM     62  C   UNL A   1      40.529  26.391  28.117  1.00  0.00     0.148 A 
ATOM     63  C   UNL A   1      41.717  27.611  25.878  1.00  0.00     0.002 A 
ATOM     64  C   UNL A   1      40.732  25.667  26.946  1.00  0.00     0.091 A 
ATOM     65  F   UNL A   1      39.937  25.848  29.190  1.00  0.00    -0.205 F 
ATOM     66  C   UNL A   1      41.316  26.279  25.824  1.00  0.00     0.022 A 
BRANCH  64  67
ATOM     67  S   UNL A   1      40.325  23.924  26.798  1.00  0.00     0.127 S 
ATOM     68  O   UNL A   1      40.424  23.479  28.189  1.00  0.00    -0.237 OA
ATOM     69  O   UNL A   1      38.960  23.971  26.272  1.00  0.00    -0.237 OA
ATOM     70  O   UNL A   1      41.309  23.355  25.891  1.00  0.00    -0.744 OA
ENDBRANCH  64  67
ENDBRANCH  46  60
BRANCH  47  71
ATOM     71  C   UNL A   1      39.619  32.783  36.710  1.00  0.00     0.023 A 
ATOM     72  C   UNL A   1      40.354  33.951  36.991  1.00  0.00     0.012 A 
ATOM     73  C   UNL A   1      38.676  32.325  37.649  1.00  0.00     0.148 A 
ATOM     74  C   UNL A   1      40.180  34.629  38.199  1.00  0.00     0.002 A 
ATOM     75  C   UNL A   1      38.467  33.035  38.825  1.00  0.00     0.091 A 
ATOM     76  F   UNL A   1      37.994  31.203  37.370  1.00  0.00    -0.205 F 
ATOM     77  C   UNL A   1      39.230  34.177  39.111  1.00  0.00     0.022 A 
BRANCH  75  78
ATOM     78  S   UNL A   1      37.166  32.600  39.986  1.00  0.00     0.127 S 
ATOM     79  O   UNL A   1      35.985  32.599  39.125  1.00  0.00    -0.237 OA
ATOM     80  O   UNL A   1      37.595  31.277  40.445  1.00  0.00    -0.237 OA
ATOM     81  O   UNL A   1      37.206  33.628  41.015  1.00  0.00    -0.744 OA
ENDBRANCH  75  78
ENDBRANCH  47  71
BRANCH  59  82
ATOM     82  C   UNL A   1      44.470  28.301  34.446  1.00  0.00     0.023 A 
ATOM     83  C   UNL A   1      45.700  28.982  34.360  1.00  0.00     0.012 A 
ATOM     84  C   UNL A   1      44.385  27.116  35.203  1.00  0.00     0.148 A 
ATOM     85  C   UNL A   1      46.835  28.476  34.992  1.00  0.00     0.002 A 
ATOM     86  C   UNL A   1      45.509  26.643  35.870  1.00  0.00     0.091 A 
ATOM     87  F   UNL A   1      43.210  26.472  35.256  1.00  0.00    -0.205 F 
ATOM     88  C   UNL A   1      46.737  27.314  35.756  1.00  0.00     0.022 A 
BRANCH  86  89
ATOM     89  S   UNL A   1      45.451  25.211  36.953  1.00  0.00     0.127 S 
ATOM     90  O   UNL A   1      46.857  25.061  37.326  1.00  0.00    -0.237 OA
ATOM     91  O   UNL A   1      44.579  25.674  38.034  1.00  0.00    -0.237 OA
ATOM     92  O   UNL A   1      44.895  24.127  36.154  1.00  0.00    -0.744 OA
ENDBRANCH  86  89
ENDBRANCH  59  82
ENDBRANCH  33  34
ENDBRANCH  25  28
ENDBRANCH  23  24
ENDBRANCH  22  23
ENDBRANCH   1  22
TORSDOF 18
ENDMDL
MODEL 3
REMARK VINA RESULT:     -10.4      1.563      7.895
REMARK SMILES CO[C@@H]1C[C@@H](C(=O)NCCCNC(=O)c2ccc(-c3c4nc(c(-c5cccc(S(=O)(=O)[O-])c5F)c5ccc([nH]5)c(-c5cccc(S(=O)(=O)[O-])c5F)c5nc(c(-c6cccc(S(=O)(=O)[O-])c6F)c6ccc3[nH]6)C=C5)C=C4)cc2)N(C(=O)CSc2cccs2)C1
REMARK SMILES IDX 9 1 8 2 6 3 7 4 5 6 3 7 4 8 88 9 78 10 2 11 1 12 79 13 80 14
REMARK SMILES IDX 81 15 82 16 83 17 84 18 87 19 85 20 86 21 10 22 11 23 12 24
REMARK SMILES IDX 13 25 14 27 15 28 16 29 77 30 17 31 76 32 18 33 19 34 20 35
REMARK SMILES IDX 70 36 21 37 75 38 69 39 71 40 22 41 74 42 68 43 67 44 23 46
REMARK SMILES IDX 55 47 35 48 54 49 36 50 39 51 53 52 72 53 37 54 38 55 52 57
REMARK SMILES IDX 73 58 40 59 24 60 25 61 33 62 26 63 28 64 34 65 27 66 29 67
REMARK SMILES IDX 30 68 31 69 32 70 56 71 57 72 65 73 58 74 60 75 66 76 59 77
REMARK SMILES IDX 61 78 62 79 63 80 64 81 41 82 42 83 50 84 43 85 45 86 51 87
REMARK SMILES IDX 44 88 46 89 47 90 48 91 49 92
REMARK H PARENT 8 5 12 26 71 45 39 56
REMARK Flexibility Score: inf
ROOT
ATOM      1  C   UNL A   1      31.464  30.426  25.594  1.00  0.00     0.117 C 
ENDROOT
BRANCH   1   2
ATOM      2  N   UNL A   1      32.763  29.831  25.875  1.00  0.00    -0.354 N 
ATOM      3  C   UNL A   1      33.099  28.504  25.910  1.00  0.00     0.242 C 
ATOM      4  O   UNL A   1      33.723  28.164  26.917  1.00  0.00    -0.273 OA
ATOM      5  H   UNL A   1      33.493  30.464  26.065  1.00  0.00     0.163 HD
BRANCH   3   6
ATOM      6  C   UNL A   1      32.941  27.588  24.659  1.00  0.00     0.177 C 
ATOM      7  C   UNL A   1      32.759  27.653  22.216  1.00  0.00     0.139 C 
ATOM      8  C   UNL A   1      33.486  28.267  23.394  1.00  0.00     0.069 C 
ATOM      9  C   UNL A   1      31.421  27.220  22.793  1.00  0.00     0.152 C 
ATOM     10  N   UNL A   1      31.585  27.132  24.245  1.00  0.00    -0.327 N 
BRANCH   7  11
ATOM     11  O   UNL A   1      33.509  26.645  21.537  1.00  0.00    -0.380 OA
ATOM     12  C   UNL A   1      32.883  25.393  21.314  1.00  0.00     0.195 C 
ENDBRANCH   7  11
BRANCH  10  13
ATOM     13  C   UNL A   1      30.625  26.392  24.917  1.00  0.00     0.233 C 
ATOM     14  O   UNL A   1      29.473  26.319  24.464  1.00  0.00    -0.274 OA
BRANCH  13  15
ATOM     15  C   UNL A   1      30.893  25.721  26.250  1.00  0.00     0.175 C 
BRANCH  15  16
ATOM     16  S   UNL A   1      30.777  23.916  26.166  1.00  0.00    -0.105 SA
BRANCH  16  17
ATOM     17  C   UNL A   1      32.258  23.538  25.305  1.00  0.00     0.060 A 
ATOM     18  C   UNL A   1      32.374  22.803  24.145  1.00  0.00     0.027 A 
ATOM     19  S   UNL A   1      33.778  24.063  25.882  1.00  0.00    -0.137 S 
ATOM     20  C   UNL A   1      33.729  22.690  23.714  1.00  0.00     0.013 A 
ATOM     21  C   UNL A   1      34.595  23.337  24.566  1.00  0.00     0.066 A 
ENDBRANCH  16  17
ENDBRANCH  15  16
ENDBRANCH  13  15
ENDBRANCH  10  13
ENDBRANCH   3   6
ENDBRANCH   1   2
BRANCH   1  22
ATOM     22  C   UNL A   1      31.323  31.797  26.257  1.00  0.00     0.042 C 
BRANCH  22  23
ATOM     23  C   UNL A   1      32.521  32.181  27.123  1.00  0.00     0.118 C 
BRANCH  23  24
ATOM     24  N   UNL A   1      32.530  33.604  27.439  1.00  0.00    -0.352 N 
ATOM     25  C   UNL A   1      33.235  34.284  28.398  1.00  0.00     0.251 C 
ATOM     26  H   UNL A   1      31.941  34.162  26.880  1.00  0.00     0.163 HD
ATOM     27  O   UNL A   1      32.906  35.434  28.690  1.00  0.00    -0.269 OA
BRANCH  25  28
ATOM     28  C   UNL A   1      34.380  33.644  29.075  1.00  0.00     0.039 A 
ATOM     29  C   UNL A   1      34.139  32.709  30.086  1.00  0.00     0.014 A 
ATOM     30  C   UNL A   1      35.690  33.992  28.738  1.00  0.00     0.014 A 
ATOM     31  C   UNL A   1      35.214  32.085  30.721  1.00  0.00     0.010 A 
ATOM     32  C   UNL A   1      36.758  33.316  29.318  1.00  0.00     0.010 A 
ATOM     33  C   UNL A   1      36.533  32.363  30.322  1.00  0.00    -0.014 A 
BRANCH  33  34
ATOM     34  C   UNL A   1      37.691  31.666  30.936  1.00  0.00     0.031 A 
ATOM     35  C   UNL A   1      38.092  31.969  32.355  1.00  0.00     0.074 A 
ATOM     36  C   UNL A   1      38.439  30.836  30.181  1.00  0.00     0.049 A 
ATOM     37  N   UNL A   1      39.115  31.521  33.035  1.00  0.00    -0.248 NA
ATOM     38  C   UNL A   1      37.253  32.925  33.098  1.00  0.00     0.031 C 
ATOM     39  C   UNL A   1      38.202  30.531  28.769  1.00  0.00     0.029 A 
ATOM     40  N   UNL A   1      39.570  30.122  30.488  1.00  0.00    -0.354 N 
ATOM     41  C   UNL A   1      39.067  32.168  34.265  1.00  0.00     0.074 A 
ATOM     42  C   UNL A   1      37.931  33.063  34.229  1.00  0.00     0.031 C 
ATOM     43  C   UNL A   1      39.157  29.694  28.332  1.00  0.00     0.029 A 
ATOM     44  C   UNL A   1      40.089  29.424  29.422  1.00  0.00     0.049 A 
ATOM     45  H   UNL A   1      39.974  30.110  31.387  1.00  0.00     0.167 HD
ATOM     46  C   UNL A   1      39.878  32.010  35.338  1.00  0.00     0.034 A 
ATOM     47  C   UNL A   1      41.194  28.659  29.330  1.00  0.00     0.034 A 
ATOM     48  C   UNL A   1      40.970  31.075  35.388  1.00  0.00     0.049 A 
ATOM     49  C   UNL A   1      42.039  28.453  30.559  1.00  0.00     0.074 A 
ATOM     50  C   UNL A   1      41.787  30.766  36.461  1.00  0.00     0.029 A 
ATOM     51  N   UNL A   1      41.399  30.302  34.320  1.00  0.00    -0.354 N 
ATOM     52  N   UNL A   1      41.877  28.942  31.764  1.00  0.00    -0.248 NA
ATOM     53  C   UNL A   1      43.197  27.556  30.426  1.00  0.00     0.031 C 
ATOM     54  C   UNL A   1      42.721  29.815  36.037  1.00  0.00     0.029 A 
ATOM     55  C   UNL A   1      42.472  29.519  34.707  1.00  0.00     0.049 A 
ATOM     56  H   UNL A   1      40.999  30.309  33.422  1.00  0.00     0.167 HD
ATOM     57  C   UNL A   1      42.886  28.386  32.541  1.00  0.00     0.074 A 
ATOM     58  C   UNL A   1      43.641  27.505  31.676  1.00  0.00     0.031 C 
ATOM     59  C   UNL A   1      43.173  28.599  33.849  1.00  0.00     0.034 A 
BRANCH  46  60
ATOM     60  C   UNL A   1      39.579  32.818  36.574  1.00  0.00     0.023 A 
ATOM     61  C   UNL A   1      40.177  34.084  36.734  1.00  0.00     0.012 A 
ATOM     62  C   UNL A   1      38.654  32.364  37.533  1.00  0.00     0.148 A 
ATOM     63  C   UNL A   1      39.882  34.875  37.843  1.00  0.00     0.002 A 
ATOM     64  C   UNL A   1      38.330  33.177  38.615  1.00  0.00     0.091 A 
ATOM     65  F   UNL A   1      38.109  31.149  37.374  1.00  0.00    -0.205 F 
ATOM     66  C   UNL A   1      38.951  34.426  38.776  1.00  0.00     0.022 A 
BRANCH  64  67
ATOM     67  S   UNL A   1      37.086  32.727  39.830  1.00  0.00     0.127 S 
ATOM     68  O   UNL A   1      37.608  31.455  40.329  1.00  0.00    -0.237 OA
ATOM     69  O   UNL A   1      37.173  33.835  40.782  1.00  0.00    -0.237 OA
ATOM     70  O   UNL A   1      35.827  32.643  39.106  1.00  0.00    -0.744 OA
ENDBRANCH  64  67
ENDBRANCH  46  60
BRANCH  47  71
ATOM     71  C   UNL A   1      41.525  27.974  28.050  1.00  0.00     0.023 A 
ATOM     72  C   UNL A   1      42.007  28.733  26.965  1.00  0.00     0.012 A 
ATOM     73  C   UNL A   1      41.387  26.581  27.902  1.00  0.00     0.148 A 
ATOM     74  C   UNL A   1      42.312  28.123  25.748  1.00  0.00     0.002 A 
ATOM     75  C   UNL A   1      41.746  25.971  26.705  1.00  0.00     0.091 A 
ATOM     76  F   UNL A   1      40.914  25.875  28.940  1.00  0.00    -0.205 F 
ATOM     77  C   UNL A   1      42.191  26.742  25.621  1.00  0.00     0.022 A 
BRANCH  75  78
ATOM     78  S   UNL A   1      41.752  24.185  26.507  1.00  0.00     0.127 S 
ATOM     79  O   UNL A   1      42.529  24.024  25.279  1.00  0.00    -0.237 OA
ATOM     80  O   UNL A   1      42.431  23.744  27.727  1.00  0.00    -0.237 OA
ATOM     81  O   UNL A   1      40.352  23.799  26.432  1.00  0.00    -0.744 OA
ENDBRANCH  75  78
ENDBRANCH  47  71
BRANCH  59  82
ATOM     82  C   UNL A   1      44.330  27.840  34.442  1.00  0.00     0.023 A 
ATOM     83  C   UNL A   1      45.620  28.406  34.427  1.00  0.00     0.012 A 
ATOM     84  C   UNL A   1      44.122  26.604  35.085  1.00  0.00     0.148 A 
ATOM     85  C   UNL A   1      46.692  27.738  35.016  1.00  0.00     0.002 A 
ATOM     86  C   UNL A   1      45.186  25.967  35.712  1.00  0.00     0.091 A 
ATOM     87  F   UNL A   1      42.891  26.073  35.071  1.00  0.00    -0.205 F 
ATOM     88  C   UNL A   1      46.473  26.526  35.669  1.00  0.00     0.022 A 
BRANCH  86  89
ATOM     89  S   UNL A   1      44.976  24.454  36.658  1.00  0.00     0.127 S 
ATOM     90  O   UNL A   1      44.122  24.904  37.756  1.00  0.00    -0.237 OA
ATOM     91  O   UNL A   1      44.315  23.574  35.693  1.00  0.00    -0.237 OA
ATOM     92  O   UNL A   1      46.317  24.031  37.039  1.00  0.00    -0.744 OA
ENDBRANCH  86  89
ENDBRANCH  59  82
ENDBRANCH  33  34
ENDBRANCH  25  28
ENDBRANCH  23  24
ENDBRANCH  22  23
ENDBRANCH   1  22
TORSDOF 18
ENDMDL
