MODEL 1
REMARK VINA RESULT:     -11.8      0.000      0.000
REMARK SMILES C[C@@H](Sc1nc2ccccc2c(=O)n1N)C(=O)NCCCNC(=O)c1ccc(-c2c3nc(c(-c4cccc(S(=O)(=O)[O-])c4F)c4ccc([nH]4)c(-c4cccc(S(=O)(=O)[O-])c4F)c4nc(c(-c5cccc(S(=O)(=O)[O-])c5F)c5ccc2[nH]5)C=C4)C=C3)cc1
REMARK SMILES IDX 20 1 19 2 18 3 16 4 17 5 2 7 1 8 3 9 4 10 5 11 14 12 6 13
REMARK SMILES IDX 12 14 7 15 11 16 13 17 8 18 10 19 9 20 15 21 21 24 22 25
REMARK SMILES IDX 23 26 24 28 25 29 26 30 87 31 27 32 86 33 28 34 29 35 30 36
REMARK SMILES IDX 80 37 31 38 85 39 79 40 81 41 32 42 84 43 78 44 77 45 33 47
REMARK SMILES IDX 65 48 45 49 64 50 46 51 49 52 63 53 82 54 47 55 48 56 62 58
REMARK SMILES IDX 83 59 50 60 34 61 35 62 43 63 36 64 38 65 44 66 37 67 39 68
REMARK SMILES IDX 40 69 41 70 42 71 66 72 67 73 75 74 68 75 70 76 76 77 69 78
REMARK SMILES IDX 71 79 72 80 73 81 74 82 51 83 52 84 60 85 53 86 55 87 61 88
REMARK SMILES IDX 54 89 56 90 57 91 58 92 59 93
REMARK H PARENT 18 6 15 22 15 23 22 27 81 46 49 57
REMARK Flexibility Score: inf
ROOT
ATOM      1  C   UNL A   1      31.869  28.159  26.331  1.00  0.00     0.042 C 
ENDROOT
BRANCH   1   2
ATOM      2  C   UNL A   1      32.428  26.744  26.408  1.00  0.00     0.117 C 
BRANCH   2   3
ATOM      3  N   UNL A   1      31.433  25.791  26.872  1.00  0.00    -0.355 N 
ATOM      4  C   UNL A   1      31.348  24.441  26.697  1.00  0.00     0.233 C 
ATOM      5  O   UNL A   1      30.411  23.856  27.251  1.00  0.00    -0.274 OA
ATOM      6  H   UNL A   1      30.701  26.185  27.399  1.00  0.00     0.163 HD
BRANCH   4   7
ATOM      7  C   UNL A   1      32.364  23.662  25.858  1.00  0.00     0.141 C 
ATOM      8  C   UNL A   1      32.970  22.490  26.622  1.00  0.00     0.030 C 
BRANCH   7   9
ATOM      9  S   UNL A   1      31.600  23.288  24.237  1.00  0.00    -0.073 SA
BRANCH   9  10
ATOM     10  C   UNL A   1      31.415  24.885  23.561  1.00  0.00     0.191 A 
ATOM     11  N   UNL A   1      30.278  25.474  23.738  1.00  0.00    -0.222 NA
ATOM     12  N   UNL A   1      32.515  25.478  22.952  1.00  0.00    -0.202 N 
ATOM     13  C   UNL A   1      30.147  26.801  23.300  1.00  0.00     0.079 A 
ATOM     14  C   UNL A   1      32.482  26.805  22.526  1.00  0.00     0.280 A 
ATOM     15  C   UNL A   1      28.930  27.457  23.500  1.00  0.00     0.029 A 
ATOM     16  C   UNL A   1      31.199  27.506  22.713  1.00  0.00     0.068 A 
ATOM     17  O   UNL A   1      33.457  27.391  22.054  1.00  0.00    -0.267 OA
ATOM     18  C   UNL A   1      28.773  28.796  23.128  1.00  0.00     0.002 A 
ATOM     19  C   UNL A   1      31.053  28.846  22.336  1.00  0.00     0.016 A 
ATOM     20  C   UNL A   1      29.835  29.490  22.548  1.00  0.00     0.001 A 
BRANCH  12  21
ATOM     21  N   UNL A   1      33.746  24.768  22.762  1.00  0.00    -0.334 N 
ATOM     22  H   UNL A   1      34.570  25.261  22.545  1.00  0.00     0.178 HD
ATOM     23  H   UNL A   1      33.765  23.787  22.847  1.00  0.00     0.178 HD
ENDBRANCH  12  21
ENDBRANCH   9  10
ENDBRANCH   7   9
ENDBRANCH   4   7
ENDBRANCH   2   3
ENDBRANCH   1   2
BRANCH   1  24
ATOM     24  C   UNL A   1      32.814  29.159  25.678  1.00  0.00     0.118 C 
BRANCH  24  25
ATOM     25  N   UNL A   1      32.501  30.536  26.032  1.00  0.00    -0.352 N 
ATOM     26  C   UNL A   1      33.068  31.363  26.966  1.00  0.00     0.251 C 
ATOM     27  H   UNL A   1      31.763  30.936  25.518  1.00  0.00     0.163 HD
ATOM     28  O   UNL A   1      32.510  32.425  27.238  1.00  0.00    -0.269 OA
BRANCH  26  29
ATOM     29  C   UNL A   1      34.329  30.996  27.647  1.00  0.00     0.039 A 
ATOM     30  C   UNL A   1      34.471  29.695  28.139  1.00  0.00     0.014 A 
ATOM     31  C   UNL A   1      35.346  31.932  27.859  1.00  0.00     0.014 A 
ATOM     32  C   UNL A   1      35.638  29.328  28.813  1.00  0.00     0.010 A 
ATOM     33  C   UNL A   1      36.544  31.541  28.449  1.00  0.00     0.010 A 
ATOM     34  C   UNL A   1      36.692  30.245  28.962  1.00  0.00    -0.014 A 
BRANCH  34  35
ATOM     35  C   UNL A   1      37.934  29.870  29.685  1.00  0.00     0.031 A 
ATOM     36  C   UNL A   1      38.203  30.416  31.064  1.00  0.00     0.074 A 
ATOM     37  C   UNL A   1      38.846  29.083  29.082  1.00  0.00     0.049 A 
ATOM     38  N   UNL A   1      39.224  30.197  31.852  1.00  0.00    -0.248 NA
ATOM     39  C   UNL A   1      37.212  31.353  31.620  1.00  0.00     0.031 C 
ATOM     40  C   UNL A   1      38.747  28.567  27.715  1.00  0.00     0.029 A 
ATOM     41  N   UNL A   1      40.044  28.592  29.535  1.00  0.00    -0.354 N 
ATOM     42  C   UNL A   1      39.017  30.991  32.974  1.00  0.00     0.074 A 
ATOM     43  C   UNL A   1      37.796  31.731  32.748  1.00  0.00     0.031 C 
ATOM     44  C   UNL A   1      39.830  27.820  27.447  1.00  0.00     0.029 A 
ATOM     45  C   UNL A   1      40.707  27.816  28.614  1.00  0.00     0.049 A 
ATOM     46  H   UNL A   1      40.395  28.777  30.436  1.00  0.00     0.167 HD
ATOM     47  C   UNL A   1      39.754  31.072  34.107  1.00  0.00     0.034 A 
ATOM     48  C   UNL A   1      41.883  27.165  28.706  1.00  0.00     0.034 A 
ATOM     49  C   UNL A   1      40.937  30.292  34.354  1.00  0.00     0.049 A 
ATOM     50  C   UNL A   1      42.636  27.200  30.008  1.00  0.00     0.074 A 
ATOM     51  C   UNL A   1      41.709  30.235  35.500  1.00  0.00     0.029 A 
ATOM     52  N   UNL A   1      41.515  29.427  33.438  1.00  0.00    -0.354 N 
ATOM     53  N   UNL A   1      42.337  27.828  31.119  1.00  0.00    -0.248 NA
ATOM     54  C   UNL A   1      43.863  26.394  30.086  1.00  0.00     0.031 C 
ATOM     55  C   UNL A   1      42.763  29.341  35.273  1.00  0.00     0.029 A 
ATOM     56  C   UNL A   1      42.632  28.826  33.993  1.00  0.00     0.049 A 
ATOM     57  H   UNL A   1      41.182  29.264  32.527  1.00  0.00     0.167 HD
ATOM     58  C   UNL A   1      43.311  27.460  32.040  1.00  0.00     0.074 A 
ATOM     59  C   UNL A   1      44.197  26.537  31.361  1.00  0.00     0.031 C 
ATOM     60  C   UNL A   1      43.467  27.862  33.326  1.00  0.00     0.034 A 
BRANCH  47  61
ATOM     61  C   UNL A   1      39.262  31.990  35.197  1.00  0.00     0.023 A 
ATOM     62  C   UNL A   1      38.301  31.520  36.118  1.00  0.00     0.012 A 
ATOM     63  C   UNL A   1      39.777  33.292  35.344  1.00  0.00     0.148 A 
ATOM     64  C   UNL A   1      37.834  32.342  37.142  1.00  0.00     0.002 A 
ATOM     65  C   UNL A   1      39.340  34.090  36.396  1.00  0.00     0.091 A 
ATOM     66  F   UNL A   1      40.672  33.731  34.448  1.00  0.00    -0.205 F 
ATOM     67  C   UNL A   1      38.360  33.623  37.287  1.00  0.00     0.022 A 
BRANCH  65  68
ATOM     68  S   UNL A   1      40.016  35.724  36.717  1.00  0.00     0.127 S 
ATOM     69  O   UNL A   1      41.443  35.433  36.849  1.00  0.00    -0.237 OA
ATOM     70  O   UNL A   1      39.653  36.453  35.501  1.00  0.00    -0.237 OA
ATOM     71  O   UNL A   1      39.359  36.198  37.926  1.00  0.00    -0.744 OA
ENDBRANCH  65  68
ENDBRANCH  47  61
BRANCH  48  72
ATOM     72  C   UNL A   1      42.365  26.339  27.562  1.00  0.00     0.023 A 
ATOM     73  C   UNL A   1      43.235  26.913  26.615  1.00  0.00     0.012 A 
ATOM     74  C   UNL A   1      41.992  24.988  27.422  1.00  0.00     0.148 A 
ATOM     75  C   UNL A   1      43.699  26.169  25.530  1.00  0.00     0.002 A 
ATOM     76  C   UNL A   1      42.503  24.236  26.369  1.00  0.00     0.091 A 
ATOM     77  F   UNL A   1      41.156  24.462  28.328  1.00  0.00    -0.205 F 
ATOM     78  C   UNL A   1      43.341  24.829  25.412  1.00  0.00     0.022 A 
BRANCH  76  79
ATOM     79  S   UNL A   1      42.200  22.472  26.217  1.00  0.00     0.127 S 
ATOM     80  O   UNL A   1      42.759  21.964  27.469  1.00  0.00    -0.237 OA
ATOM     81  O   UNL A   1      40.739  22.421  26.131  1.00  0.00    -0.237 OA
ATOM     82  O   UNL A   1      42.884  22.060  25.002  1.00  0.00    -0.744 OA
ENDBRANCH  76  79
ENDBRANCH  48  72
BRANCH  60  83
ATOM     83  C   UNL A   1      44.613  27.271  34.104  1.00  0.00     0.023 A 
ATOM     84  C   UNL A   1      45.888  27.864  34.038  1.00  0.00     0.012 A 
ATOM     85  C   UNL A   1      44.411  26.158  34.945  1.00  0.00     0.148 A 
ATOM     86  C   UNL A   1      46.956  27.335  34.764  1.00  0.00     0.002 A 
ATOM     87  C   UNL A   1      45.467  25.667  35.704  1.00  0.00     0.091 A 
ATOM     88  F   UNL A   1      43.196  25.592  34.980  1.00  0.00    -0.205 F 
ATOM     89  C   UNL A   1      46.743  26.245  35.605  1.00  0.00     0.022 A 
BRANCH  87  90
ATOM     90  S   UNL A   1      45.247  24.328  36.881  1.00  0.00     0.127 S 
ATOM     91  O   UNL A   1      44.142  24.828  37.699  1.00  0.00    -0.237 OA
ATOM     92  O   UNL A   1      44.902  23.200  36.016  1.00  0.00    -0.237 OA
ATOM     93  O   UNL A   1      46.526  24.190  37.563  1.00  0.00    -0.744 OA
ENDBRANCH  87  90
ENDBRANCH  60  83
ENDBRANCH  34  35
ENDBRANCH  26  29
ENDBRANCH  24  25
ENDBRANCH   1  24
TORSDOF 16
ENDMDL
MODEL 2
REMARK VINA RESULT:     -11.7      4.964      9.873
REMARK SMILES C[C@@H](Sc1nc2ccccc2c(=O)n1N)C(=O)NCCCNC(=O)c1ccc(-c2c3nc(c(-c4cccc(S(=O)(=O)[O-])c4F)c4ccc([nH]4)c(-c4cccc(S(=O)(=O)[O-])c4F)c4nc(c(-c5cccc(S(=O)(=O)[O-])c5F)c5ccc2[nH]5)C=C4)C=C3)cc1
REMARK SMILES IDX 20 1 19 2 18 3 16 4 17 5 2 7 1 8 3 9 4 10 5 11 14 12 6 13
REMARK SMILES IDX 12 14 7 15 11 16 13 17 8 18 10 19 9 20 15 21 21 24 22 25
REMARK SMILES IDX 23 26 24 28 25 29 26 30 87 31 27 32 86 33 28 34 29 35 30 36
REMARK SMILES IDX 80 37 31 38 85 39 79 40 81 41 32 42 84 43 78 44 77 45 33 47
REMARK SMILES IDX 65 48 45 49 64 50 46 51 49 52 63 53 82 54 47 55 48 56 62 58
REMARK SMILES IDX 83 59 50 60 34 61 35 62 43 63 36 64 38 65 44 66 37 67 39 68
REMARK SMILES IDX 40 69 41 70 42 71 66 72 67 73 75 74 68 75 70 76 76 77 69 78
REMARK SMILES IDX 71 79 72 80 73 81 74 82 51 83 52 84 60 85 53 86 55 87 61 88
REMARK SMILES IDX 54 89 56 90 57 91 58 92 59 93
REMARK H PARENT 18 6 15 22 15 23 22 27 81 46 49 57
REMARK Flexibility Score: inf
ROOT
ATOM      1  C   UNL A   1      36.107  21.860  24.635  1.00  0.00     0.042 C 
ENDROOT
BRANCH   1   2
ATOM      2  C   UNL A   1      34.900  21.079  25.137  1.00  0.00     0.117 C 
BRANCH   2   3
ATOM      3  N   UNL A   1      33.695  21.399  24.390  1.00  0.00    -0.355 N 
ATOM      4  C   UNL A   1      32.711  22.309  24.640  1.00  0.00     0.233 C 
ATOM      5  O   UNL A   1      31.811  22.414  23.800  1.00  0.00    -0.274 OA
ATOM      6  H   UNL A   1      33.569  20.871  23.568  1.00  0.00     0.163 HD
BRANCH   4   7
ATOM      7  C   UNL A   1      32.706  23.179  25.899  1.00  0.00     0.141 C 
ATOM      8  C   UNL A   1      33.700  24.333  25.811  1.00  0.00     0.030 C 
BRANCH   7   9
ATOM      9  S   UNL A   1      30.970  23.610  26.288  1.00  0.00    -0.073 SA
BRANCH   9  10
ATOM     10  C   UNL A   1      30.930  25.305  25.875  1.00  0.00     0.191 A 
ATOM     11  N   UNL A   1      31.332  26.142  26.774  1.00  0.00    -0.222 NA
ATOM     12  N   UNL A   1      30.559  25.663  24.584  1.00  0.00    -0.202 N 
ATOM     13  C   UNL A   1      31.414  27.498  26.423  1.00  0.00     0.079 A 
ATOM     14  C   UNL A   1      30.649  26.983  24.143  1.00  0.00     0.280 A 
ATOM     15  C   UNL A   1      31.864  28.413  27.377  1.00  0.00     0.029 A 
ATOM     16  C   UNL A   1      31.105  27.964  25.143  1.00  0.00     0.068 A 
ATOM     17  O   UNL A   1      30.406  27.330  22.986  1.00  0.00    -0.267 OA
ATOM     18  C   UNL A   1      32.012  29.765  27.054  1.00  0.00     0.002 A 
ATOM     19  C   UNL A   1      31.248  29.315  24.809  1.00  0.00     0.016 A 
ATOM     20  C   UNL A   1      31.706  30.215  25.770  1.00  0.00     0.001 A 
BRANCH  12  21
ATOM     21  N   UNL A   1      30.098  24.693  23.635  1.00  0.00    -0.334 N 
ATOM     22  H   UNL A   1      30.597  23.855  23.505  1.00  0.00     0.178 HD
ATOM     23  H   UNL A   1      29.282  24.867  23.112  1.00  0.00     0.178 HD
ENDBRANCH  12  21
ENDBRANCH   9  10
ENDBRANCH   7   9
ENDBRANCH   4   7
ENDBRANCH   2   3
ENDBRANCH   1   2
BRANCH   1  24
ATOM     24  C   UNL A   1      37.075  22.273  25.736  1.00  0.00     0.118 C 
BRANCH  24  25
ATOM     25  N   UNL A   1      38.116  21.281  25.965  1.00  0.00    -0.352 N 
ATOM     26  C   UNL A   1      39.431  21.440  26.319  1.00  0.00     0.251 C 
ATOM     27  H   UNL A   1      37.830  20.347  25.844  1.00  0.00     0.163 HD
ATOM     28  O   UNL A   1      40.185  20.471  26.259  1.00  0.00    -0.269 OA
BRANCH  26  29
ATOM     29  C   UNL A   1      39.949  22.752  26.766  1.00  0.00     0.039 A 
ATOM     30  C   UNL A   1      39.549  23.901  26.075  1.00  0.00     0.014 A 
ATOM     31  C   UNL A   1      40.867  22.859  27.814  1.00  0.00     0.014 A 
ATOM     32  C   UNL A   1      40.045  25.150  26.455  1.00  0.00     0.010 A 
ATOM     33  C   UNL A   1      41.289  24.111  28.250  1.00  0.00     0.010 A 
ATOM     34  C   UNL A   1      40.910  25.268  27.556  1.00  0.00    -0.014 A 
BRANCH  34  35
ATOM     35  C   UNL A   1      41.452  26.590  27.963  1.00  0.00     0.031 A 
ATOM     36  C   UNL A   1      42.888  26.942  27.673  1.00  0.00     0.074 A 
ATOM     37  C   UNL A   1      40.670  27.451  28.641  1.00  0.00     0.049 A 
ATOM     38  N   UNL A   1      43.536  28.046  27.943  1.00  0.00    -0.248 NA
ATOM     39  C   UNL A   1      43.714  25.912  27.020  1.00  0.00     0.031 C 
ATOM     40  C   UNL A   1      39.292  27.191  29.065  1.00  0.00     0.029 A 
ATOM     41  N   UNL A   1      40.927  28.716  29.108  1.00  0.00    -0.354 N 
ATOM     42  C   UNL A   1      44.846  27.830  27.530  1.00  0.00     0.074 A 
ATOM     43  C   UNL A   1      44.913  26.476  27.029  1.00  0.00     0.031 C 
ATOM     44  C   UNL A   1      38.822  28.267  29.716  1.00  0.00     0.029 A 
ATOM     45  C   UNL A   1      39.865  29.287  29.769  1.00  0.00     0.049 A 
ATOM     46  H   UNL A   1      41.790  29.171  28.981  1.00  0.00     0.167 HD
ATOM     47  C   UNL A   1      45.892  28.692  27.530  1.00  0.00     0.034 A 
ATOM     48  C   UNL A   1      39.743  30.500  30.341  1.00  0.00     0.034 A 
ATOM     49  C   UNL A   1      45.808  30.057  27.974  1.00  0.00     0.049 A 
ATOM     50  C   UNL A   1      40.891  31.469  30.247  1.00  0.00     0.074 A 
ATOM     51  C   UNL A   1      46.783  31.037  27.939  1.00  0.00     0.029 A 
ATOM     52  N   UNL A   1      44.678  30.636  28.532  1.00  0.00    -0.354 N 
ATOM     53  N   UNL A   1      42.071  31.301  29.702  1.00  0.00    -0.248 NA
ATOM     54  C   UNL A   1      40.671  32.813  30.802  1.00  0.00     0.031 C 
ATOM     55  C   UNL A   1      46.246  32.209  28.485  1.00  0.00     0.029 A 
ATOM     56  C   UNL A   1      44.929  31.961  28.840  1.00  0.00     0.049 A 
ATOM     57  H   UNL A   1      43.824  30.173  28.687  1.00  0.00     0.167 HD
ATOM     58  C   UNL A   1      42.718  32.527  29.808  1.00  0.00     0.074 A 
ATOM     59  C   UNL A   1      41.790  33.433  30.451  1.00  0.00     0.031 C 
ATOM     60  C   UNL A   1      43.973  32.868  29.423  1.00  0.00     0.034 A 
BRANCH  47  61
ATOM     61  C   UNL A   1      47.201  28.201  26.968  1.00  0.00     0.023 A 
ATOM     62  C   UNL A   1      48.251  27.864  27.849  1.00  0.00     0.012 A 
ATOM     63  C   UNL A   1      47.382  28.025  25.582  1.00  0.00     0.148 A 
ATOM     64  C   UNL A   1      49.470  27.399  27.359  1.00  0.00     0.002 A 
ATOM     65  C   UNL A   1      48.585  27.516  25.104  1.00  0.00     0.091 A 
ATOM     66  F   UNL A   1      46.383  28.371  24.758  1.00  0.00    -0.205 F 
ATOM     67  C   UNL A   1      49.633  27.215  25.989  1.00  0.00     0.022 A 
BRANCH  65  68
ATOM     68  S   UNL A   1      48.865  27.168  23.365  1.00  0.00     0.127 S 
ATOM     69  O   UNL A   1      50.319  27.020  23.323  1.00  0.00    -0.237 OA
ATOM     70  O   UNL A   1      48.121  25.922  23.175  1.00  0.00    -0.237 OA
ATOM     71  O   UNL A   1      48.330  28.309  22.636  1.00  0.00    -0.744 OA
ENDBRANCH  65  68
ENDBRANCH  47  61
BRANCH  48  72
ATOM     72  C   UNL A   1      38.448  30.902  30.960  1.00  0.00     0.023 A 
ATOM     73  C   UNL A   1      38.232  30.654  32.330  1.00  0.00     0.012 A 
ATOM     74  C   UNL A   1      37.446  31.551  30.213  1.00  0.00     0.148 A 
ATOM     75  C   UNL A   1      37.029  31.012  32.938  1.00  0.00     0.002 A 
ATOM     76  C   UNL A   1      36.271  31.955  30.838  1.00  0.00     0.091 A 
ATOM     77  F   UNL A   1      37.666  31.769  28.909  1.00  0.00    -0.205 F 
ATOM     78  C   UNL A   1      36.053  31.671  32.195  1.00  0.00     0.022 A 
BRANCH  76  79
ATOM     79  S   UNL A   1      35.019  32.925  29.990  1.00  0.00     0.127 S 
ATOM     80  O   UNL A   1      34.488  31.956  29.033  1.00  0.00    -0.237 OA
ATOM     81  O   UNL A   1      34.110  33.271  31.085  1.00  0.00    -0.237 OA
ATOM     82  O   UNL A   1      35.725  34.062  29.420  1.00  0.00    -0.744 OA
ENDBRANCH  76  79
ENDBRANCH  48  72
BRANCH  60  83
ATOM     83  C   UNL A   1      44.404  34.294  29.641  1.00  0.00     0.023 A 
ATOM     84  C   UNL A   1      44.946  34.683  30.881  1.00  0.00     0.012 A 
ATOM     85  C   UNL A   1      44.323  35.237  28.596  1.00  0.00     0.148 A 
ATOM     86  C   UNL A   1      45.361  35.998  31.093  1.00  0.00     0.002 A 
ATOM     87  C   UNL A   1      44.784  36.532  28.799  1.00  0.00     0.091 A 
ATOM     88  F   UNL A   1      43.784  34.856  27.429  1.00  0.00    -0.205 F 
ATOM     89  C   UNL A   1      45.292  36.918  30.049  1.00  0.00     0.022 A 
BRANCH  87  90
ATOM     90  S   UNL A   1      44.817  37.745  27.475  1.00  0.00     0.127 S 
ATOM     91  O   UNL A   1      43.416  37.770  27.056  1.00  0.00    -0.237 OA
ATOM     92  O   UNL A   1      45.267  38.955  28.165  1.00  0.00    -0.237 OA
ATOM     93  O   UNL A   1      45.761  37.231  26.493  1.00  0.00    -0.744 OA
ENDBRANCH  87  90
ENDBRANCH  60  83
ENDBRANCH  34  35
ENDBRANCH  26  29
ENDBRANCH  24  25
ENDBRANCH   1  24
TORSDOF 16
ENDMDL
MODEL 3
REMARK VINA RESULT:     -11.6      1.799      3.374
REMARK SMILES C[C@@H](Sc1nc2ccccc2c(=O)n1N)C(=O)NCCCNC(=O)c1ccc(-c2c3nc(c(-c4cccc(S(=O)(=O)[O-])c4F)c4ccc([nH]4)c(-c4cccc(S(=O)(=O)[O-])c4F)c4nc(c(-c5cccc(S(=O)(=O)[O-])c5F)c5ccc2[nH]5)C=C4)C=C3)cc1
REMARK SMILES IDX 20 1 19 2 18 3 16 4 17 5 2 7 1 8 3 9 4 10 5 11 14 12 6 13
REMARK SMILES IDX 12 14 7 15 11 16 13 17 8 18 10 19 9 20 15 21 21 24 22 25
REMARK SMILES IDX 23 26 24 28 25 29 26 30 87 31 27 32 86 33 28 34 29 35 30 36
REMARK SMILES IDX 80 37 31 38 85 39 79 40 81 41 32 42 84 43 78 44 77 45 33 47
REMARK SMILES IDX 65 48 45 49 64 50 46 51 49 52 63 53 82 54 47 55 48 56 62 58
REMARK SMILES IDX 83 59 50 60 34 61 35 62 43 63 36 64 38 65 44 66 37 67 39 68
REMARK SMILES IDX 40 69 41 70 42 71 66 72 67 73 75 74 68 75 70 76 76 77 69 78
REMARK SMILES IDX 71 79 72 80 73 81 74 82 51 83 52 84 60 85 53 86 55 87 61 88
REMARK SMILES IDX 54 89 56 90 57 91 58 92 59 93
REMARK H PARENT 18 6 15 22 15 23 22 27 81 46 49 57
REMARK Flexibility Score: inf
ROOT
ATOM      1  C   UNL A   1      32.493  29.703  25.432  1.00  0.00     0.042 C 
ENDROOT
BRANCH   1   2
ATOM      2  C   UNL A   1      33.250  28.410  25.158  1.00  0.00     0.117 C 
BRANCH   2   3
ATOM      3  N   UNL A   1      33.843  28.398  23.830  1.00  0.00    -0.355 N 
ATOM      4  C   UNL A   1      33.451  27.764  22.689  1.00  0.00     0.233 C 
ATOM      5  O   UNL A   1      34.117  27.969  21.669  1.00  0.00    -0.274 OA
ATOM      6  H   UNL A   1      34.662  28.937  23.741  1.00  0.00     0.163 HD
BRANCH   4   7
ATOM      7  C   UNL A   1      32.233  26.837  22.649  1.00  0.00     0.141 C 
ATOM      8  C   UNL A   1      30.921  27.606  22.547  1.00  0.00     0.030 C 
BRANCH   7   9
ATOM      9  S   UNL A   1      32.538  25.549  21.384  1.00  0.00    -0.073 SA
BRANCH   9  10
ATOM     10  C   UNL A   1      33.117  24.227  22.365  1.00  0.00     0.191 A 
ATOM     11  N   UNL A   1      34.398  24.070  22.449  1.00  0.00    -0.222 NA
ATOM     12  N   UNL A   1      32.190  23.472  23.073  1.00  0.00    -0.202 N 
ATOM     13  C   UNL A   1      34.885  23.085  23.320  1.00  0.00     0.079 A 
ATOM     14  C   UNL A   1      32.592  22.501  23.989  1.00  0.00     0.280 A 
ATOM     15  C   UNL A   1      36.267  22.914  23.435  1.00  0.00     0.029 A 
ATOM     16  C   UNL A   1      34.046  22.297  24.110  1.00  0.00     0.068 A 
ATOM     17  O   UNL A   1      31.806  21.866  24.694  1.00  0.00    -0.267 OA
ATOM     18  C   UNL A   1      36.798  21.982  24.331  1.00  0.00     0.002 A 
ATOM     19  C   UNL A   1      34.566  21.359  25.009  1.00  0.00     0.016 A 
ATOM     20  C   UNL A   1      35.947  21.206  25.119  1.00  0.00     0.001 A 
BRANCH  12  21
ATOM     21  N   UNL A   1      30.779  23.675  22.923  1.00  0.00    -0.334 N 
ATOM     22  H   UNL A   1      30.218  22.966  22.535  1.00  0.00     0.178 HD
ATOM     23  H   UNL A   1      30.372  24.526  23.206  1.00  0.00     0.178 HD
ENDBRANCH  12  21
ENDBRANCH   9  10
ENDBRANCH   7   9
ENDBRANCH   4   7
ENDBRANCH   2   3
ENDBRANCH   1   2
BRANCH   1  24
ATOM     24  C   UNL A   1      32.666  30.227  26.852  1.00  0.00     0.118 C 
BRANCH  24  25
ATOM     25  N   UNL A   1      32.745  31.680  26.904  1.00  0.00    -0.352 N 
ATOM     26  C   UNL A   1      33.608  32.498  27.587  1.00  0.00     0.251 C 
ATOM     27  H   UNL A   1      32.071  32.149  26.363  1.00  0.00     0.163 HD
ATOM     28  O   UNL A   1      33.364  33.702  27.647  1.00  0.00    -0.269 OA
BRANCH  26  29
ATOM     29  C   UNL A   1      34.815  31.954  28.248  1.00  0.00     0.039 A 
ATOM     30  C   UNL A   1      35.996  32.703  28.205  1.00  0.00     0.014 A 
ATOM     31  C   UNL A   1      34.814  30.695  28.855  1.00  0.00     0.014 A 
ATOM     32  C   UNL A   1      37.159  32.201  28.794  1.00  0.00     0.010 A 
ATOM     33  C   UNL A   1      35.948  30.238  29.519  1.00  0.00     0.010 A 
ATOM     34  C   UNL A   1      37.142  30.969  29.469  1.00  0.00    -0.014 A 
BRANCH  34  35
ATOM     35  C   UNL A   1      38.375  30.421  30.089  1.00  0.00     0.031 A 
ATOM     36  C   UNL A   1      38.794  30.866  31.466  1.00  0.00     0.074 A 
ATOM     37  C   UNL A   1      39.148  29.565  29.393  1.00  0.00     0.049 A 
ATOM     38  N   UNL A   1      39.831  30.495  32.173  1.00  0.00    -0.248 NA
ATOM     39  C   UNL A   1      37.957  31.883  32.127  1.00  0.00     0.031 C 
ATOM     40  C   UNL A   1      38.902  29.128  28.017  1.00  0.00     0.029 A 
ATOM     41  N   UNL A   1      40.308  28.920  29.743  1.00  0.00    -0.354 N 
ATOM     42  C   UNL A   1      39.791  31.254  33.337  1.00  0.00     0.074 A 
ATOM     43  C   UNL A   1      38.653  32.138  33.226  1.00  0.00     0.031 C 
ATOM     44  C   UNL A   1      39.871  28.277  27.645  1.00  0.00     0.029 A 
ATOM     45  C   UNL A   1      40.815  28.118  28.748  1.00  0.00     0.049 A 
ATOM     46  H   UNL A   1      40.735  29.021  30.624  1.00  0.00     0.167 HD
ATOM     47  C   UNL A   1      40.604  31.197  34.419  1.00  0.00     0.034 A 
ATOM     48  C   UNL A   1      41.910  27.333  28.732  1.00  0.00     0.034 A 
ATOM     49  C   UNL A   1      41.700  30.276  34.552  1.00  0.00     0.049 A 
ATOM     50  C   UNL A   1      42.744  27.220  29.979  1.00  0.00     0.074 A 
ATOM     51  C   UNL A   1      42.533  30.077  35.638  1.00  0.00     0.029 A 
ATOM     52  N   UNL A   1      42.114  29.395  33.564  1.00  0.00    -0.354 N 
ATOM     53  N   UNL A   1      42.592  27.825  31.132  1.00  0.00    -0.248 NA
ATOM     54  C   UNL A   1      43.871  26.276  29.940  1.00  0.00     0.031 C 
ATOM     55  C   UNL A   1      43.458  29.081  35.304  1.00  0.00     0.029 A 
ATOM     56  C   UNL A   1      43.186  28.645  34.016  1.00  0.00     0.049 A 
ATOM     57  H   UNL A   1      41.705  29.314  32.673  1.00  0.00     0.167 HD
ATOM     58  C   UNL A   1      43.574  27.305  31.968  1.00  0.00     0.074 A 
ATOM     59  C   UNL A   1      44.300  26.321  31.194  1.00  0.00     0.031 C 
ATOM     60  C   UNL A   1      43.858  27.625  33.255  1.00  0.00     0.034 A 
BRANCH  47  61
ATOM     61  C   UNL A   1      40.293  32.112  35.576  1.00  0.00     0.023 A 
ATOM     62  C   UNL A   1      41.050  33.290  35.751  1.00  0.00     0.012 A 
ATOM     63  C   UNL A   1      39.230  31.839  36.458  1.00  0.00     0.148 A 
ATOM     64  C   UNL A   1      40.780  34.160  36.806  1.00  0.00     0.002 A 
ATOM     65  C   UNL A   1      38.937  32.736  37.480  1.00  0.00     0.091 A 
ATOM     66  F   UNL A   1      38.535  30.705  36.291  1.00  0.00    -0.205 F 
ATOM     67  C   UNL A   1      39.718  33.889  37.663  1.00  0.00     0.022 A 
BRANCH  65  68
ATOM     68  S   UNL A   1      37.539  32.518  38.587  1.00  0.00     0.127 S 
ATOM     69  O   UNL A   1      36.425  32.953  37.746  1.00  0.00    -0.237 OA
ATOM     70  O   UNL A   1      37.576  31.079  38.852  1.00  0.00    -0.237 OA
ATOM     71  O   UNL A   1      37.813  33.354  39.746  1.00  0.00    -0.744 OA
ENDBRANCH  65  68
ENDBRANCH  47  61
BRANCH  48  72
ATOM     72  C   UNL A   1      42.217  26.512  27.526  1.00  0.00     0.023 A 
ATOM     73  C   UNL A   1      42.867  27.113  26.430  1.00  0.00     0.012 A 
ATOM     74  C   UNL A   1      41.898  25.142  27.467  1.00  0.00     0.148 A 
ATOM     75  C   UNL A   1      43.164  26.375  25.284  1.00  0.00     0.002 A 
ATOM     76  C   UNL A   1      42.246  24.399  26.344  1.00  0.00     0.091 A 
ATOM     77  F   UNL A   1      41.271  24.591  28.516  1.00  0.00    -0.205 F 
ATOM     78  C   UNL A   1      42.862  25.017  25.245  1.00  0.00     0.022 A 
BRANCH  76  79
ATOM     79  S   UNL A   1      42.016  22.619  26.264  1.00  0.00     0.127 S 
ATOM     80  O   UNL A   1      42.706  22.174  27.474  1.00  0.00    -0.237 OA
ATOM     81  O   UNL A   1      40.556  22.500  26.310  1.00  0.00    -0.237 OA
ATOM     82  O   UNL A   1      42.609  22.203  25.004  1.00  0.00    -0.744 OA
ENDBRANCH  76  79
ENDBRANCH  48  72
BRANCH  60  83
ATOM     83  C   UNL A   1      44.975  26.871  33.928  1.00  0.00     0.023 A 
ATOM     84  C   UNL A   1      46.308  27.294  33.765  1.00  0.00     0.012 A 
ATOM     85  C   UNL A   1      44.696  25.773  34.767  1.00  0.00     0.148 A 
ATOM     86  C   UNL A   1      47.350  26.614  34.394  1.00  0.00     0.002 A 
ATOM     87  C   UNL A   1      45.735  25.130  35.429  1.00  0.00     0.091 A 
ATOM     88  F   UNL A   1      43.424  25.369  34.893  1.00  0.00    -0.205 F 
ATOM     89  C   UNL A   1      47.064  25.540  35.234  1.00  0.00     0.022 A 
BRANCH  87  90
ATOM     90  S   UNL A   1      45.436  23.803  36.602  1.00  0.00     0.127 S 
ATOM     91  O   UNL A   1      46.778  23.563  37.131  1.00  0.00    -0.237 OA
ATOM     92  O   UNL A   1      44.510  24.423  37.551  1.00  0.00    -0.237 OA
ATOM     93  O   UNL A   1      44.857  22.716  35.826  1.00  0.00    -0.744 OA
ENDBRANCH  87  90
ENDBRANCH  60  83
ENDBRANCH  34  35
ENDBRANCH  26  29
ENDBRANCH  24  25
ENDBRANCH   1  24
TORSDOF 16
ENDMDL
