MODEL 1
REMARK VINA RESULT:     -11.3      0.000      0.000
REMARK SMILES O=C(/C=C/c1c(Cl)cccc1Cl)NCC(=O)NCCCNC(=O)c1ccc(-c2c3nc(c(-c4cccc(S(=O)(=O)[O-])c4F)c4ccc([nH]4)c(-c4cccc(S(=O)(=O)[O-])c4F)c4nc(c(-c5cccc(S(=O)(=O)[O-])c5F)c5ccc2[nH]5)C=C4)C=C3)cc1
REMARK SMILES IDX 19 1 18 2 17 3 15 4 16 5 14 7 13 8 1 9 2 10 3 12 4 13 5 14
REMARK SMILES IDX 6 15 11 16 7 17 8 18 10 19 12 20 9 21 20 22 21 23 22 24
REMARK SMILES IDX 23 26 24 27 25 28 86 29 26 30 85 31 27 32 28 33 29 34 79 35
REMARK SMILES IDX 30 36 84 37 78 38 80 39 31 40 83 41 77 42 76 43 32 45 64 46
REMARK SMILES IDX 44 47 63 48 45 49 48 50 62 51 81 52 46 53 47 54 61 56 82 57
REMARK SMILES IDX 49 58 33 59 34 60 42 61 35 62 37 63 43 64 36 65 38 66 39 67
REMARK SMILES IDX 40 68 41 69 65 70 66 71 74 72 67 73 69 74 75 75 68 76 70 77
REMARK SMILES IDX 71 78 72 79 73 80 50 81 51 82 59 83 52 84 54 85 60 86 53 87
REMARK SMILES IDX 55 88 56 89 57 90 58 91
REMARK H PARENT 17 6 13 11 21 25 80 44 48 55
REMARK Flexibility Score: inf
ROOT
ATOM      1  C   UNL A   1      31.592  31.587  26.801  1.00  0.00     0.042 C 
ENDROOT
BRANCH   1   2
ATOM      2  C   UNL A   1      31.890  30.167  26.329  1.00  0.00     0.117 C 
BRANCH   2   3
ATOM      3  N   UNL A   1      31.291  29.881  25.038  1.00  0.00    -0.355 N 
ATOM      4  C   UNL A   1      31.881  29.366  23.919  1.00  0.00     0.239 C 
ATOM      5  O   UNL A   1      31.171  29.118  22.942  1.00  0.00    -0.273 OA
ATOM      6  H   UNL A   1      30.331  30.088  24.957  1.00  0.00     0.163 HD
BRANCH   4   7
ATOM      7  C   UNL A   1      33.374  29.037  23.920  1.00  0.00     0.216 C 
BRANCH   7   8
ATOM      8  N   UNL A   1      33.622  27.607  23.883  1.00  0.00    -0.343 N 
ATOM      9  O   UNL A   1      34.047  27.402  26.122  1.00  0.00    -0.270 OA
ATOM     10  C   UNL A   1      33.936  26.898  25.009  1.00  0.00     0.244 C 
ATOM     11  H   UNL A   1      33.563  27.133  23.021  1.00  0.00     0.164 HD
BRANCH  10  12
ATOM     12  C   UNL A   1      34.235  25.459  24.824  1.00  0.00     0.072 C 
ATOM     13  C   UNL A   1      34.205  24.525  25.787  1.00  0.00     0.017 C 
BRANCH  13  14
ATOM     14  C   UNL A   1      34.563  23.113  25.526  1.00  0.00     0.012 A 
ATOM     15  C   UNL A   1      33.609  22.162  25.104  1.00  0.00     0.049 A 
ATOM     16  C   UNL A   1      35.902  22.688  25.664  1.00  0.00     0.049 A 
ATOM     17  Cl  UNL A   1      31.946  22.574  24.830  1.00  0.00    -0.084 Cl
ATOM     18  C   UNL A   1      33.976  20.837  24.853  1.00  0.00     0.021 A 
ATOM     19  C   UNL A   1      36.263  21.364  25.405  1.00  0.00     0.021 A 
ATOM     20  Cl  UNL A   1      37.155  23.778  26.164  1.00  0.00    -0.084 Cl
ATOM     21  C   UNL A   1      35.300  20.441  25.003  1.00  0.00     0.003 A 
ENDBRANCH  13  14
ENDBRANCH  10  12
ENDBRANCH   7   8
ENDBRANCH   4   7
ENDBRANCH   2   3
ENDBRANCH   1   2
BRANCH   1  22
ATOM     22  C   UNL A   1      32.841  32.439  27.005  1.00  0.00     0.118 C 
BRANCH  22  23
ATOM     23  N   UNL A   1      32.531  33.790  27.460  1.00  0.00    -0.352 N 
ATOM     24  C   UNL A   1      33.046  34.505  28.512  1.00  0.00     0.251 C 
ATOM     25  H   UNL A   1      31.847  34.261  26.932  1.00  0.00     0.163 HD
ATOM     26  O   UNL A   1      32.516  35.568  28.838  1.00  0.00    -0.269 OA
BRANCH  24  27
ATOM     27  C   UNL A   1      34.217  34.005  29.261  1.00  0.00     0.039 A 
ATOM     28  C   UNL A   1      34.007  33.192  30.379  1.00  0.00     0.014 A 
ATOM     29  C   UNL A   1      35.516  34.350  28.881  1.00  0.00     0.014 A 
ATOM     30  C   UNL A   1      35.102  32.677  31.079  1.00  0.00     0.010 A 
ATOM     31  C   UNL A   1      36.605  33.774  29.531  1.00  0.00     0.010 A 
ATOM     32  C   UNL A   1      36.411  32.936  30.639  1.00  0.00    -0.014 A 
BRANCH  32  33
ATOM     33  C   UNL A   1      37.591  32.342  31.322  1.00  0.00     0.031 A 
ATOM     34  C   UNL A   1      38.315  31.178  30.701  1.00  0.00     0.074 A 
ATOM     35  C   UNL A   1      37.957  32.797  32.537  1.00  0.00     0.049 A 
ATOM     36  N   UNL A   1      39.293  30.459  31.189  1.00  0.00    -0.248 NA
ATOM     37  C   UNL A   1      37.867  30.747  29.365  1.00  0.00     0.031 C 
ATOM     38  C   UNL A   1      37.296  33.877  33.275  1.00  0.00     0.029 A 
ATOM     39  N   UNL A   1      38.958  32.385  33.384  1.00  0.00    -0.354 N 
ATOM     40  C   UNL A   1      39.560  29.482  30.238  1.00  0.00     0.074 A 
ATOM     41  C   UNL A   1      38.614  29.671  29.160  1.00  0.00     0.031 C 
ATOM     42  C   UNL A   1      37.903  34.036  34.463  1.00  0.00     0.029 A 
ATOM     43  C   UNL A   1      38.968  33.047  34.590  1.00  0.00     0.049 A 
ATOM     44  H   UNL A   1      39.605  31.681  33.150  1.00  0.00     0.167 HD
ATOM     45  C   UNL A   1      40.526  28.533  30.243  1.00  0.00     0.034 A 
ATOM     46  C   UNL A   1      39.734  32.864  35.685  1.00  0.00     0.034 A 
ATOM     47  C   UNL A   1      41.485  28.365  31.300  1.00  0.00     0.049 A 
ATOM     48  C   UNL A   1      40.803  31.803  35.658  1.00  0.00     0.074 A 
ATOM     49  C   UNL A   1      42.533  27.463  31.375  1.00  0.00     0.029 A 
ATOM     50  N   UNL A   1      41.518  29.114  32.465  1.00  0.00    -0.354 N 
ATOM     51  N   UNL A   1      41.117  30.971  34.695  1.00  0.00    -0.248 NA
ATOM     52  C   UNL A   1      41.648  31.681  36.855  1.00  0.00     0.031 C 
ATOM     53  C   UNL A   1      43.187  27.655  32.595  1.00  0.00     0.029 A 
ATOM     54  C   UNL A   1      42.570  28.699  33.263  1.00  0.00     0.049 A 
ATOM     55  H   UNL A   1      40.887  29.836  32.691  1.00  0.00     0.167 HD
ATOM     56  C   UNL A   1      42.223  30.263  35.151  1.00  0.00     0.074 A 
ATOM     57  C   UNL A   1      42.536  30.775  36.468  1.00  0.00     0.031 C 
ATOM     58  C   UNL A   1      42.911  29.267  34.541  1.00  0.00     0.034 A 
BRANCH  45  59
ATOM     59  C   UNL A   1      40.640  27.636  29.036  1.00  0.00     0.023 A 
ATOM     60  C   UNL A   1      39.730  26.570  28.881  1.00  0.00     0.012 A 
ATOM     61  C   UNL A   1      41.580  27.896  28.020  1.00  0.00     0.148 A 
ATOM     62  C   UNL A   1      39.772  25.759  27.748  1.00  0.00     0.002 A 
ATOM     63  C   UNL A   1      41.585  27.113  26.871  1.00  0.00     0.091 A 
ATOM     64  F   UNL A   1      42.444  28.907  28.193  1.00  0.00    -0.205 F 
ATOM     65  C   UNL A   1      40.689  26.038  26.739  1.00  0.00     0.022 A 
BRANCH  63  66
ATOM     66  S   UNL A   1      42.670  27.434  25.477  1.00  0.00     0.127 S 
ATOM     67  O   UNL A   1      42.575  26.178  24.734  1.00  0.00    -0.237 OA
ATOM     68  O   UNL A   1      42.013  28.572  24.835  1.00  0.00    -0.237 OA
ATOM     69  O   UNL A   1      43.981  27.721  26.041  1.00  0.00    -0.744 OA
ENDBRANCH  63  66
ENDBRANCH  45  59
BRANCH  46  70
ATOM     70  C   UNL A   1      39.541  33.712  36.895  1.00  0.00     0.023 A 
ATOM     71  C   UNL A   1      40.057  35.022  36.922  1.00  0.00     0.012 A 
ATOM     72  C   UNL A   1      38.872  33.217  38.030  1.00  0.00     0.148 A 
ATOM     73  C   UNL A   1      39.958  35.804  38.075  1.00  0.00     0.002 A 
ATOM     74  C   UNL A   1      38.728  34.019  39.156  1.00  0.00     0.091 A 
ATOM     75  F   UNL A   1      38.390  31.966  37.989  1.00  0.00    -0.205 F 
ATOM     76  C   UNL A   1      39.288  35.305  39.189  1.00  0.00     0.022 A 
BRANCH  74  77
ATOM     77  S   UNL A   1      37.787  33.495  40.590  1.00  0.00     0.127 S 
ATOM     78  O   UNL A   1      36.494  33.160  40.002  1.00  0.00    -0.237 OA
ATOM     79  O   UNL A   1      38.564  32.351  41.068  1.00  0.00    -0.237 OA
ATOM     80  O   UNL A   1      37.783  34.635  41.498  1.00  0.00    -0.744 OA
ENDBRANCH  74  77
ENDBRANCH  46  70
BRANCH  58  81
ATOM     81  C   UNL A   1      44.115  28.707  35.251  1.00  0.00     0.023 A 
ATOM     82  C   UNL A   1      45.395  29.242  35.007  1.00  0.00     0.012 A 
ATOM     83  C   UNL A   1      43.959  27.697  36.223  1.00  0.00     0.148 A 
ATOM     84  C   UNL A   1      46.506  28.757  35.695  1.00  0.00     0.002 A 
ATOM     85  C   UNL A   1      45.063  27.258  36.941  1.00  0.00     0.091 A 
ATOM     86  F   UNL A   1      42.734  27.190  36.427  1.00  0.00    -0.205 F 
ATOM     87  C   UNL A   1      46.339  27.776  36.669  1.00  0.00     0.022 A 
BRANCH  85  88
ATOM     88  S   UNL A   1      44.929  26.071  38.283  1.00  0.00     0.127 S 
ATOM     89  O   UNL A   1      46.274  26.120  38.857  1.00  0.00    -0.237 OA
ATOM     90  O   UNL A   1      43.887  26.667  39.119  1.00  0.00    -0.237 OA
ATOM     91  O   UNL A   1      44.562  24.804  37.667  1.00  0.00    -0.744 OA
ENDBRANCH  85  88
ENDBRANCH  58  81
ENDBRANCH  32  33
ENDBRANCH  24  27
ENDBRANCH  22  23
ENDBRANCH   1  22
TORSDOF 16
ENDMDL
MODEL 2
REMARK VINA RESULT:     -11.3      1.689      2.257
REMARK SMILES O=C(/C=C/c1c(Cl)cccc1Cl)NCC(=O)NCCCNC(=O)c1ccc(-c2c3nc(c(-c4cccc(S(=O)(=O)[O-])c4F)c4ccc([nH]4)c(-c4cccc(S(=O)(=O)[O-])c4F)c4nc(c(-c5cccc(S(=O)(=O)[O-])c5F)c5ccc2[nH]5)C=C4)C=C3)cc1
REMARK SMILES IDX 19 1 18 2 17 3 15 4 16 5 14 7 13 8 1 9 2 10 3 12 4 13 5 14
REMARK SMILES IDX 6 15 11 16 7 17 8 18 10 19 12 20 9 21 20 22 21 23 22 24
REMARK SMILES IDX 23 26 24 27 25 28 86 29 26 30 85 31 27 32 28 33 29 34 79 35
REMARK SMILES IDX 30 36 84 37 78 38 80 39 31 40 83 41 77 42 76 43 32 45 64 46
REMARK SMILES IDX 44 47 63 48 45 49 48 50 62 51 81 52 46 53 47 54 61 56 82 57
REMARK SMILES IDX 49 58 33 59 34 60 42 61 35 62 37 63 43 64 36 65 38 66 39 67
REMARK SMILES IDX 40 68 41 69 65 70 66 71 74 72 67 73 69 74 75 75 68 76 70 77
REMARK SMILES IDX 71 78 72 79 73 80 50 81 51 82 59 83 52 84 54 85 60 86 53 87
REMARK SMILES IDX 55 88 56 89 57 90 58 91
REMARK H PARENT 17 6 13 11 21 25 80 44 48 55
REMARK Flexibility Score: inf
ROOT
ATOM      1  C   UNL A   1      31.190  31.269  25.750  1.00  0.00     0.042 C 
ENDROOT
BRANCH   1   2
ATOM      2  C   UNL A   1      31.387  29.833  25.274  1.00  0.00     0.117 C 
BRANCH   2   3
ATOM      3  N   UNL A   1      30.635  29.548  24.065  1.00  0.00    -0.355 N 
ATOM      4  C   UNL A   1      31.087  29.046  22.878  1.00  0.00     0.239 C 
ATOM      5  O   UNL A   1      30.264  28.795  21.995  1.00  0.00    -0.273 OA
ATOM      6  H   UNL A   1      29.671  29.743  24.106  1.00  0.00     0.163 HD
BRANCH   4   7
ATOM      7  C   UNL A   1      32.573  28.735  22.691  1.00  0.00     0.216 C 
BRANCH   7   8
ATOM      8  N   UNL A   1      32.961  27.495  23.338  1.00  0.00    -0.343 N 
ATOM      9  O   UNL A   1      33.573  26.426  21.410  1.00  0.00    -0.270 OA
ATOM     10  C   UNL A   1      33.443  26.429  22.630  1.00  0.00     0.244 C 
ATOM     11  H   UNL A   1      32.874  27.418  24.316  1.00  0.00     0.164 HD
BRANCH  10  12
ATOM     12  C   UNL A   1      33.735  25.199  23.401  1.00  0.00     0.072 C 
ATOM     13  C   UNL A   1      33.722  23.949  22.912  1.00  0.00     0.017 C 
BRANCH  13  14
ATOM     14  C   UNL A   1      33.981  22.767  23.764  1.00  0.00     0.012 A 
ATOM     15  C   UNL A   1      35.273  22.216  23.910  1.00  0.00     0.049 A 
ATOM     16  C   UNL A   1      32.926  22.177  24.491  1.00  0.00     0.049 A 
ATOM     17  Cl  UNL A   1      36.665  22.891  23.126  1.00  0.00    -0.084 Cl
ATOM     18  C   UNL A   1      35.492  21.106  24.731  1.00  0.00     0.021 A 
ATOM     19  C   UNL A   1      33.154  21.072  25.315  1.00  0.00     0.021 A 
ATOM     20  Cl  UNL A   1      31.304  22.784  24.395  1.00  0.00    -0.084 Cl
ATOM     21  C   UNL A   1      34.435  20.537  25.431  1.00  0.00     0.003 A 
ENDBRANCH  13  14
ENDBRANCH  10  12
ENDBRANCH   7   8
ENDBRANCH   4   7
ENDBRANCH   2   3
ENDBRANCH   1   2
BRANCH   1  22
ATOM     22  C   UNL A   1      32.122  31.669  26.891  1.00  0.00     0.118 C 
BRANCH  22  23
ATOM     23  N   UNL A   1      32.152  33.111  27.111  1.00  0.00    -0.352 N 
ATOM     24  C   UNL A   1      32.997  33.866  27.885  1.00  0.00     0.251 C 
ATOM     25  H   UNL A   1      31.461  33.620  26.630  1.00  0.00     0.163 HD
ATOM     26  O   UNL A   1      32.738  35.055  28.078  1.00  0.00    -0.269 OA
BRANCH  24  27
ATOM     27  C   UNL A   1      34.198  33.263  28.497  1.00  0.00     0.039 A 
ATOM     28  C   UNL A   1      35.419  33.938  28.400  1.00  0.00     0.014 A 
ATOM     29  C   UNL A   1      34.133  32.027  29.145  1.00  0.00     0.014 A 
ATOM     30  C   UNL A   1      36.559  33.403  29.004  1.00  0.00     0.010 A 
ATOM     31  C   UNL A   1      35.251  31.534  29.812  1.00  0.00     0.010 A 
ATOM     32  C   UNL A   1      36.477  32.213  29.746  1.00  0.00    -0.014 A 
BRANCH  32  33
ATOM     33  C   UNL A   1      37.659  31.659  30.458  1.00  0.00     0.031 A 
ATOM     34  C   UNL A   1      38.501  30.594  29.808  1.00  0.00     0.074 A 
ATOM     35  C   UNL A   1      37.923  32.055  31.720  1.00  0.00     0.049 A 
ATOM     36  N   UNL A   1      39.502  29.915  30.307  1.00  0.00    -0.248 NA
ATOM     37  C   UNL A   1      38.160  30.225  28.423  1.00  0.00     0.031 C 
ATOM     38  C   UNL A   1      37.144  33.032  32.484  1.00  0.00     0.029 A 
ATOM     39  N   UNL A   1      38.904  31.658  32.597  1.00  0.00    -0.354 N 
ATOM     40  C   UNL A   1      39.892  29.026  29.312  1.00  0.00     0.074 A 
ATOM     41  C   UNL A   1      38.995  29.221  28.195  1.00  0.00     0.031 C 
ATOM     42  C   UNL A   1      37.672  33.153  33.714  1.00  0.00     0.029 A 
ATOM     43  C   UNL A   1      38.799  32.236  33.841  1.00  0.00     0.049 A 
ATOM     44  H   UNL A   1      39.614  31.019  32.357  1.00  0.00     0.167 HD
ATOM     45  C   UNL A   1      40.925  28.150  29.314  1.00  0.00     0.034 A 
ATOM     46  C   UNL A   1      39.515  32.033  34.965  1.00  0.00     0.034 A 
ATOM     47  C   UNL A   1      41.835  27.979  30.413  1.00  0.00     0.049 A 
ATOM     48  C   UNL A   1      40.660  31.055  34.934  1.00  0.00     0.074 A 
ATOM     49  C   UNL A   1      42.941  27.151  30.493  1.00  0.00     0.029 A 
ATOM     50  N   UNL A   1      41.747  28.647  31.624  1.00  0.00    -0.354 N 
ATOM     51  N   UNL A   1      41.088  30.315  33.941  1.00  0.00    -0.248 NA
ATOM     52  C   UNL A   1      41.445  30.912  36.169  1.00  0.00     0.031 C 
ATOM     53  C   UNL A   1      43.511  27.304  31.759  1.00  0.00     0.029 A 
ATOM     54  C   UNL A   1      42.782  28.254  32.455  1.00  0.00     0.049 A 
ATOM     55  H   UNL A   1      41.053  29.305  31.858  1.00  0.00     0.167 HD
ATOM     56  C   UNL A   1      42.217  29.657  34.415  1.00  0.00     0.074 A 
ATOM     57  C   UNL A   1      42.418  30.099  35.779  1.00  0.00     0.031 C 
ATOM     58  C   UNL A   1      43.009  28.757  33.784  1.00  0.00     0.034 A 
BRANCH  45  59
ATOM     59  C   UNL A   1      41.171  27.348  28.061  1.00  0.00     0.023 A 
ATOM     60  C   UNL A   1      41.786  27.969  26.955  1.00  0.00     0.012 A 
ATOM     61  C   UNL A   1      40.878  25.971  28.006  1.00  0.00     0.148 A 
ATOM     62  C   UNL A   1      42.080  27.241  25.803  1.00  0.00     0.002 A 
ATOM     63  C   UNL A   1      41.217  25.241  26.873  1.00  0.00     0.091 A 
ATOM     64  F   UNL A   1      40.282  25.403  29.064  1.00  0.00    -0.205 F 
ATOM     65  C   UNL A   1      41.808  25.876  25.768  1.00  0.00     0.022 A 
BRANCH  63  66
ATOM     66  S   UNL A   1      40.984  23.465  26.753  1.00  0.00     0.127 S 
ATOM     67  O   UNL A   1      39.557  23.374  26.444  1.00  0.00    -0.237 OA
ATOM     68  O   UNL A   1      41.871  23.115  25.643  1.00  0.00    -0.237 OA
ATOM     69  O   UNL A   1      41.372  22.916  28.044  1.00  0.00    -0.744 OA
ENDBRANCH  63  66
ENDBRANCH  45  59
BRANCH  46  70
ATOM     70  C   UNL A   1      39.194  32.781  36.214  1.00  0.00     0.023 A 
ATOM     71  C   UNL A   1      39.759  34.051  36.434  1.00  0.00     0.012 A 
ATOM     72  C   UNL A   1      38.351  32.227  37.196  1.00  0.00     0.148 A 
ATOM     73  C   UNL A   1      39.535  34.733  37.633  1.00  0.00     0.002 A 
ATOM     74  C   UNL A   1      38.087  32.934  38.363  1.00  0.00     0.091 A 
ATOM     75  F   UNL A   1      37.824  31.014  36.971  1.00  0.00    -0.205 F 
ATOM     76  C   UNL A   1      38.694  34.177  38.594  1.00  0.00     0.022 A 
BRANCH  74  77
ATOM     77  S   UNL A   1      36.933  32.341  39.601  1.00  0.00     0.127 S 
ATOM     78  O   UNL A   1      37.069  33.344  40.652  1.00  0.00    -0.237 OA
ATOM     79  O   UNL A   1      35.662  32.372  38.878  1.00  0.00    -0.237 OA
ATOM     80  O   UNL A   1      37.386  31.002  39.953  1.00  0.00    -0.744 OA
ENDBRANCH  74  77
ENDBRANCH  46  70
BRANCH  58  81
ATOM     81  C   UNL A   1      44.211  28.236  34.528  1.00  0.00     0.023 A 
ATOM     82  C   UNL A   1      45.427  28.947  34.498  1.00  0.00     0.012 A 
ATOM     83  C   UNL A   1      44.106  27.076  35.322  1.00  0.00     0.148 A 
ATOM     84  C   UNL A   1      46.529  28.494  35.221  1.00  0.00     0.002 A 
ATOM     85  C   UNL A   1      45.192  26.661  36.081  1.00  0.00     0.091 A 
ATOM     86  F   UNL A   1      42.945  26.405  35.322  1.00  0.00    -0.205 F 
ATOM     87  C   UNL A   1      46.409  27.360  36.021  1.00  0.00     0.022 A 
BRANCH  85  88
ATOM     88  S   UNL A   1      45.101  25.272  37.216  1.00  0.00     0.127 S 
ATOM     89  O   UNL A   1      44.952  24.145  36.296  1.00  0.00    -0.237 OA
ATOM     90  O   UNL A   1      46.397  25.340  37.892  1.00  0.00    -0.237 OA
ATOM     91  O   UNL A   1      43.955  25.529  38.076  1.00  0.00    -0.744 OA
ENDBRANCH  85  88
ENDBRANCH  58  81
ENDBRANCH  32  33
ENDBRANCH  24  27
ENDBRANCH  22  23
ENDBRANCH   1  22
TORSDOF 16
ENDMDL
MODEL 3
REMARK VINA RESULT:     -11.1      0.777      7.973
REMARK SMILES O=C(/C=C/c1c(Cl)cccc1Cl)NCC(=O)NCCCNC(=O)c1ccc(-c2c3nc(c(-c4cccc(S(=O)(=O)[O-])c4F)c4ccc([nH]4)c(-c4cccc(S(=O)(=O)[O-])c4F)c4nc(c(-c5cccc(S(=O)(=O)[O-])c5F)c5ccc2[nH]5)C=C4)C=C3)cc1
REMARK SMILES IDX 19 1 18 2 17 3 15 4 16 5 14 7 13 8 1 9 2 10 3 12 4 13 5 14
REMARK SMILES IDX 6 15 11 16 7 17 8 18 10 19 12 20 9 21 20 22 21 23 22 24
REMARK SMILES IDX 23 26 24 27 25 28 86 29 26 30 85 31 27 32 28 33 29 34 79 35
REMARK SMILES IDX 30 36 84 37 78 38 80 39 31 40 83 41 77 42 76 43 32 45 64 46
REMARK SMILES IDX 44 47 63 48 45 49 48 50 62 51 81 52 46 53 47 54 61 56 82 57
REMARK SMILES IDX 49 58 33 59 34 60 42 61 35 62 37 63 43 64 36 65 38 66 39 67
REMARK SMILES IDX 40 68 41 69 65 70 66 71 74 72 67 73 69 74 75 75 68 76 70 77
REMARK SMILES IDX 71 78 72 79 73 80 50 81 51 82 59 83 52 84 54 85 60 86 53 87
REMARK SMILES IDX 55 88 56 89 57 90 58 91
REMARK H PARENT 17 6 13 11 21 25 80 44 48 55
REMARK Flexibility Score: inf
ROOT
ATOM      1  C   UNL A   1      31.457  32.230  26.608  1.00  0.00     0.042 C 
ENDROOT
BRANCH   1   2
ATOM      2  C   UNL A   1      31.446  30.710  26.476  1.00  0.00     0.117 C 
BRANCH   2   3
ATOM      3  N   UNL A   1      31.993  30.266  25.206  1.00  0.00    -0.355 N 
ATOM      4  C   UNL A   1      32.907  29.280  24.969  1.00  0.00     0.239 C 
ATOM      5  O   UNL A   1      33.179  28.999  23.800  1.00  0.00    -0.273 OA
ATOM      6  H   UNL A   1      31.661  30.741  24.410  1.00  0.00     0.163 HD
BRANCH   4   7
ATOM      7  C   UNL A   1      33.514  28.498  26.135  1.00  0.00     0.216 C 
BRANCH   7   8
ATOM      8  N   UNL A   1      34.072  27.226  25.713  1.00  0.00    -0.343 N 
ATOM      9  O   UNL A   1      32.216  25.991  26.231  1.00  0.00    -0.270 OA
ATOM     10  C   UNL A   1      33.360  26.062  25.792  1.00  0.00     0.244 C 
ATOM     11  H   UNL A   1      34.991  27.201  25.359  1.00  0.00     0.164 HD
BRANCH  10  12
ATOM     12  C   UNL A   1      34.070  24.823  25.396  1.00  0.00     0.072 C 
ATOM     13  C   UNL A   1      34.370  23.800  26.211  1.00  0.00     0.017 C 
BRANCH  13  14
ATOM     14  C   UNL A   1      35.124  22.616  25.743  1.00  0.00     0.012 A 
ATOM     15  C   UNL A   1      36.532  22.616  25.643  1.00  0.00     0.049 A 
ATOM     16  C   UNL A   1      34.440  21.427  25.415  1.00  0.00     0.049 A 
ATOM     17  Cl  UNL A   1      37.496  23.990  26.082  1.00  0.00    -0.084 Cl
ATOM     18  C   UNL A   1      37.222  21.480  25.209  1.00  0.00     0.021 A 
ATOM     19  C   UNL A   1      35.136  20.293  24.990  1.00  0.00     0.021 A 
ATOM     20  Cl  UNL A   1      32.712  21.315  25.518  1.00  0.00    -0.084 Cl
ATOM     21  C   UNL A   1      36.524  20.322  24.884  1.00  0.00     0.003 A 
ENDBRANCH  13  14
ENDBRANCH  10  12
ENDBRANCH   7   8
ENDBRANCH   4   7
ENDBRANCH   2   3
ENDBRANCH   1   2
BRANCH   1  22
ATOM     22  C   UNL A   1      32.726  32.780  27.253  1.00  0.00     0.118 C 
BRANCH  22  23
ATOM     23  N   UNL A   1      32.573  34.157  27.709  1.00  0.00    -0.352 N 
ATOM     24  C   UNL A   1      33.199  34.821  28.734  1.00  0.00     0.251 C 
ATOM     25  H   UNL A   1      31.920  34.693  27.203  1.00  0.00     0.163 HD
ATOM     26  O   UNL A   1      32.793  35.934  29.070  1.00  0.00    -0.269 OA
BRANCH  24  27
ATOM     27  C   UNL A   1      34.341  34.207  29.441  1.00  0.00     0.039 A 
ATOM     28  C   UNL A   1      34.094  33.418  30.569  1.00  0.00     0.014 A 
ATOM     29  C   UNL A   1      35.654  34.423  29.014  1.00  0.00     0.014 A 
ATOM     30  C   UNL A   1      35.157  32.798  31.230  1.00  0.00     0.010 A 
ATOM     31  C   UNL A   1      36.703  33.743  29.626  1.00  0.00     0.010 A 
ATOM     32  C   UNL A   1      36.468  32.927  30.743  1.00  0.00    -0.014 A 
BRANCH  32  33
ATOM     33  C   UNL A   1      37.608  32.220  31.384  1.00  0.00     0.031 A 
ATOM     34  C   UNL A   1      38.188  32.739  32.673  1.00  0.00     0.074 A 
ATOM     35  C   UNL A   1      38.172  31.163  30.765  1.00  0.00     0.049 A 
ATOM     36  N   UNL A   1      39.243  32.326  33.327  1.00  0.00    -0.248 NA
ATOM     37  C   UNL A   1      37.509  33.887  33.297  1.00  0.00     0.031 C 
ATOM     38  C   UNL A   1      37.743  30.604  29.481  1.00  0.00     0.029 A 
ATOM     39  N   UNL A   1      39.251  30.389  31.117  1.00  0.00    -0.354 N 
ATOM     40  C   UNL A   1      39.369  33.175  34.421  1.00  0.00     0.074 A 
ATOM     41  C   UNL A   1      38.308  34.152  34.322  1.00  0.00     0.031 C 
ATOM     42  C   UNL A   1      38.553  29.584  29.151  1.00  0.00     0.029 A 
ATOM     43  C   UNL A   1      39.581  29.441  30.176  1.00  0.00     0.049 A 
ATOM     44  H   UNL A   1      39.742  30.503  31.963  1.00  0.00     0.167 HD
ATOM     45  C   UNL A   1      40.265  33.126  35.436  1.00  0.00     0.034 A 
ATOM     46  C   UNL A   1      40.609  28.569  30.132  1.00  0.00     0.034 A 
ATOM     47  C   UNL A   1      41.300  32.135  35.549  1.00  0.00     0.049 A 
ATOM     48  C   UNL A   1      41.586  28.536  31.278  1.00  0.00     0.074 A 
ATOM     49  C   UNL A   1      42.227  31.973  36.564  1.00  0.00     0.029 A 
ATOM     50  N   UNL A   1      41.546  31.138  34.620  1.00  0.00    -0.354 N 
ATOM     51  N   UNL A   1      41.611  29.269  32.364  1.00  0.00    -0.248 NA
ATOM     52  C   UNL A   1      42.656  27.530  31.210  1.00  0.00     0.031 C 
ATOM     53  C   UNL A   1      43.046  30.889  36.239  1.00  0.00     0.029 A 
ATOM     54  C   UNL A   1      42.607  30.353  35.039  1.00  0.00     0.049 A 
ATOM     55  H   UNL A   1      41.040  31.005  33.785  1.00  0.00     0.167 HD
ATOM     56  C   UNL A   1      42.666  28.781  33.128  1.00  0.00     0.074 A 
ATOM     57  C   UNL A   1      43.244  27.679  32.389  1.00  0.00     0.031 C 
ATOM     58  C   UNL A   1      43.125  29.216  34.326  1.00  0.00     0.034 A 
BRANCH  45  59
ATOM     59  C   UNL A   1      40.129  34.137  36.545  1.00  0.00     0.023 A 
ATOM     60  C   UNL A   1      40.431  35.490  36.286  1.00  0.00     0.012 A 
ATOM     61  C   UNL A   1      39.624  33.772  37.808  1.00  0.00     0.148 A 
ATOM     62  C   UNL A   1      40.260  36.459  37.273  1.00  0.00     0.002 A 
ATOM     63  C   UNL A   1      39.412  34.750  38.773  1.00  0.00     0.091 A 
ATOM     64  F   UNL A   1      39.355  32.479  38.038  1.00  0.00    -0.205 F 
ATOM     65  C   UNL A   1      39.739  36.091  38.510  1.00  0.00     0.022 A 
BRANCH  63  66
ATOM     66  S   UNL A   1      38.671  34.399  40.370  1.00  0.00     0.127 S 
ATOM     67  O   UNL A   1      38.480  35.745  40.909  1.00  0.00    -0.237 OA
ATOM     68  O   UNL A   1      37.435  33.714  39.990  1.00  0.00    -0.237 OA
ATOM     69  O   UNL A   1      39.631  33.576  41.090  1.00  0.00    -0.744 OA
ENDBRANCH  63  66
ENDBRANCH  45  59
BRANCH  46  70
ATOM     70  C   UNL A   1      40.764  27.637  28.980  1.00  0.00     0.023 A 
ATOM     71  C   UNL A   1      40.036  26.433  28.950  1.00  0.00     0.012 A 
ATOM     72  C   UNL A   1      41.650  27.927  27.925  1.00  0.00     0.148 A 
ATOM     73  C   UNL A   1      40.227  25.509  27.920  1.00  0.00     0.002 A 
ATOM     74  C   UNL A   1      41.796  27.029  26.874  1.00  0.00     0.091 A 
ATOM     75  F   UNL A   1      42.339  29.077  27.971  1.00  0.00    -0.205 F 
ATOM     76  C   UNL A   1      41.102  25.811  26.879  1.00  0.00     0.022 A 
BRANCH  74  77
ATOM     77  S   UNL A   1      42.816  27.388  25.444  1.00  0.00     0.127 S 
ATOM     78  O   UNL A   1      42.771  26.127  24.711  1.00  0.00    -0.237 OA
ATOM     79  O   UNL A   1      42.091  28.493  24.816  1.00  0.00    -0.237 OA
ATOM     80  O   UNL A   1      44.122  27.756  25.974  1.00  0.00    -0.744 OA
ENDBRANCH  74  77
ENDBRANCH  46  70
BRANCH  58  81
ATOM     81  C   UNL A   1      44.264  28.460  34.958  1.00  0.00     0.023 A 
ATOM     82  C   UNL A   1      45.594  28.754  34.601  1.00  0.00     0.012 A 
ATOM     83  C   UNL A   1      44.011  27.509  35.968  1.00  0.00     0.148 A 
ATOM     84  C   UNL A   1      46.655  28.089  35.215  1.00  0.00     0.002 A 
ATOM     85  C   UNL A   1      45.075  26.891  36.613  1.00  0.00     0.091 A 
ATOM     86  F   UNL A   1      42.737  27.233  36.281  1.00  0.00    -0.205 F 
ATOM     87  C   UNL A   1      46.397  27.169  36.228  1.00  0.00     0.022 A 
BRANCH  85  88
ATOM     88  S   UNL A   1      44.843  25.769  37.996  1.00  0.00     0.127 S 
ATOM     89  O   UNL A   1      44.290  24.589  37.331  1.00  0.00    -0.237 OA
ATOM     90  O   UNL A   1      46.209  25.605  38.492  1.00  0.00    -0.237 OA
ATOM     91  O   UNL A   1      43.940  26.444  38.916  1.00  0.00    -0.744 OA
ENDBRANCH  85  88
ENDBRANCH  58  81
ENDBRANCH  32  33
ENDBRANCH  24  27
ENDBRANCH  22  23
ENDBRANCH   1  22
TORSDOF 16
ENDMDL
