MODEL 1
REMARK VINA RESULT:     -12.7      0.000      0.000
REMARK SMILES O=CN[C@@H](CCS[C@@H]1CCO[C@]2(CCOC2)C1)C(=O)NCCCNC(=O)c1ccc(-c2c3nc(c(-c4cccc(S(=O)(=O)[O-])c4F)c4ccc([nH]4)c(-c4cccc(S(=O)(=O)[O-])c4F)c4nc(c(-c5cccc(S(=O)(=O)[O-])c5F)c5ccc2[nH]5)C=C4)C=C3)cc1
REMARK SMILES IDX 21 1 20 2 18 3 19 4 4 6 3 7 1 8 2 9 5 11 6 12 7 13 8 14 9 15
REMARK SMILES IDX 17 16 10 17 12 18 11 19 13 20 16 21 14 22 15 23 22 24 23 25
REMARK SMILES IDX 24 26 25 27 26 29 27 30 28 31 89 32 29 33 88 34 30 35 31 36
REMARK SMILES IDX 32 37 82 38 33 39 87 40 81 41 83 42 34 43 86 44 80 45 79 46
REMARK SMILES IDX 35 48 67 49 47 50 66 51 48 52 51 53 65 54 84 55 49 56 50 57
REMARK SMILES IDX 64 59 85 60 52 61 36 62 37 63 45 64 38 65 40 66 46 67 39 68
REMARK SMILES IDX 41 69 42 70 43 71 44 72 68 73 69 74 77 75 70 76 72 77 78 78
REMARK SMILES IDX 71 79 73 80 74 81 75 82 76 83 53 84 54 85 62 86 55 87 57 88
REMARK SMILES IDX 63 89 56 90 58 91 59 92 60 93 61 94
REMARK H PARENT 20 5 3 10 24 28 83 47 51 58
REMARK Flexibility Score: inf
ROOT
ATOM      1  C   UNL A   1      30.846  27.494  24.901  1.00  0.00     0.117 C 
ENDROOT
BRANCH   1   2
ATOM      2  N   UNL A   1      30.830  26.062  25.198  1.00  0.00    -0.354 N 
ATOM      3  C   UNL A   1      31.437  24.876  24.893  1.00  0.00     0.242 C 
ATOM      4  O   UNL A   1      30.968  23.788  25.222  1.00  0.00    -0.273 OA
ATOM      5  H   UNL A   1      30.122  25.888  25.861  1.00  0.00     0.163 HD
BRANCH   3   6
ATOM      6  C   UNL A   1      32.791  24.700  24.363  1.00  0.00     0.171 C 
BRANCH   6   7
ATOM      7  N   UNL A   1      32.798  25.217  23.020  1.00  0.00    -0.347 N 
ATOM      8  O   UNL A   1      33.859  26.713  21.624  1.00  0.00    -0.279 OA
ATOM      9  C   UNL A   1      33.609  26.315  22.752  1.00  0.00     0.337 C 
ATOM     10  H   UNL A   1      32.247  24.807  22.315  1.00  0.00     0.164 HD
ENDBRANCH   6   7
BRANCH   6  11
ATOM     11  C   UNL A   1      33.631  25.074  25.540  1.00  0.00     0.046 C 
BRANCH  11  12
ATOM     12  C   UNL A   1      34.365  23.812  26.231  1.00  0.00     0.072 C 
BRANCH  12  13
ATOM     13  S   UNL A   1      34.217  21.780  26.395  1.00  0.00    -0.158 SA
BRANCH  13  14
ATOM     14  C   UNL A   1      34.074  20.432  24.809  1.00  0.00     0.052 C 
ATOM     15  C   UNL A   1      33.083  20.888  23.744  1.00  0.00     0.043 C 
ATOM     16  C   UNL A   1      34.389  18.883  24.615  1.00  0.00     0.052 C 
ATOM     17  C   UNL A   1      32.154  19.812  23.161  1.00  0.00     0.162 C 
ATOM     18  C   UNL A   1      33.223  17.888  24.278  1.00  0.00     0.095 C 
ATOM     19  O   UNL A   1      32.065  18.524  23.747  1.00  0.00    -0.372 OA
ATOM     20  C   UNL A   1      32.764  16.899  25.389  1.00  0.00     0.066 C 
ATOM     21  C   UNL A   1      33.719  16.782  23.331  1.00  0.00     0.195 C 
ATOM     22  C   UNL A   1      33.761  15.766  25.393  1.00  0.00     0.163 C 
ATOM     23  O   UNL A   1      34.447  15.848  24.146  1.00  0.00    -0.378 OA
ENDBRANCH  13  14
ENDBRANCH  12  13
ENDBRANCH  11  12
ENDBRANCH   6  11
ENDBRANCH   3   6
ENDBRANCH   1   2
BRANCH   1  24
ATOM     24  C   UNL A   1      31.767  28.287  25.886  1.00  0.00     0.042 C 
BRANCH  24  25
ATOM     25  C   UNL A   1      32.558  29.533  25.408  1.00  0.00     0.118 C 
BRANCH  25  26
ATOM     26  N   UNL A   1      32.138  30.803  25.965  1.00  0.00    -0.352 N 
ATOM     27  C   UNL A   1      32.747  31.590  26.916  1.00  0.00     0.251 C 
ATOM     28  H   UNL A   1      31.290  31.155  25.610  1.00  0.00     0.163 HD
ATOM     29  O   UNL A   1      32.222  32.663  27.228  1.00  0.00    -0.269 OA
BRANCH  27  30
ATOM     30  C   UNL A   1      33.988  31.172  27.617  1.00  0.00     0.039 A 
ATOM     31  C   UNL A   1      34.926  32.160  27.933  1.00  0.00     0.014 A 
ATOM     32  C   UNL A   1      34.286  29.833  27.889  1.00  0.00     0.014 A 
ATOM     33  C   UNL A   1      36.128  31.821  28.569  1.00  0.00     0.010 A 
ATOM     34  C   UNL A   1      35.478  29.498  28.558  1.00  0.00     0.010 A 
ATOM     35  C   UNL A   1      36.411  30.488  28.915  1.00  0.00    -0.014 A 
BRANCH  35  36
ATOM     36  C   UNL A   1      37.654  30.147  29.676  1.00  0.00     0.031 A 
ATOM     37  C   UNL A   1      38.699  29.222  29.100  1.00  0.00     0.074 A 
ATOM     38  C   UNL A   1      37.836  30.646  30.918  1.00  0.00     0.049 A 
ATOM     39  N   UNL A   1      39.820  28.805  29.635  1.00  0.00    -0.248 NA
ATOM     40  C   UNL A   1      38.447  28.686  27.754  1.00  0.00     0.031 C 
ATOM     41  C   UNL A   1      36.891  31.513  31.625  1.00  0.00     0.029 A 
ATOM     42  N   UNL A   1      38.866  30.483  31.816  1.00  0.00    -0.354 N 
ATOM     43  C   UNL A   1      40.396  27.945  28.706  1.00  0.00     0.074 A 
ATOM     44  C   UNL A   1      39.484  27.876  27.584  1.00  0.00     0.031 C 
ATOM     45  C   UNL A   1      37.385  31.808  32.839  1.00  0.00     0.029 A 
ATOM     46  C   UNL A   1      38.667  31.133  33.014  1.00  0.00     0.049 A 
ATOM     47  H   UNL A   1      39.671  29.952  31.620  1.00  0.00     0.167 HD
ATOM     48  C   UNL A   1      41.587  27.294  28.762  1.00  0.00     0.034 A 
ATOM     49  C   UNL A   1      39.422  31.176  34.131  1.00  0.00     0.034 A 
ATOM     50  C   UNL A   1      42.516  27.384  29.858  1.00  0.00     0.049 A 
ATOM     51  C   UNL A   1      40.741  30.449  34.162  1.00  0.00     0.074 A 
ATOM     52  C   UNL A   1      43.765  26.796  29.978  1.00  0.00     0.029 A 
ATOM     53  N   UNL A   1      42.305  28.107  31.021  1.00  0.00    -0.354 N 
ATOM     54  N   UNL A   1      41.322  29.751  33.217  1.00  0.00    -0.248 NA
ATOM     55  C   UNL A   1      41.529  30.546  35.402  1.00  0.00     0.031 C 
ATOM     56  C   UNL A   1      44.304  27.156  31.219  1.00  0.00     0.029 A 
ATOM     57  C   UNL A   1      43.400  27.985  31.861  1.00  0.00     0.049 A 
ATOM     58  H   UNL A   1      41.496  28.632  31.221  1.00  0.00     0.167 HD
ATOM     59  C   UNL A   1      42.557  29.368  33.730  1.00  0.00     0.074 A 
ATOM     60  C   UNL A   1      42.651  29.926  35.062  1.00  0.00     0.031 C 
ATOM     61  C   UNL A   1      43.521  28.607  33.155  1.00  0.00     0.034 A 
BRANCH  48  62
ATOM     62  C   UNL A   1      41.995  26.470  27.564  1.00  0.00     0.023 A 
ATOM     63  C   UNL A   1      42.754  27.076  26.542  1.00  0.00     0.012 A 
ATOM     64  C   UNL A   1      41.709  25.092  27.486  1.00  0.00     0.148 A 
ATOM     65  C   UNL A   1      43.192  26.335  25.445  1.00  0.00     0.002 A 
ATOM     66  C   UNL A   1      42.183  24.351  26.408  1.00  0.00     0.091 A 
ATOM     67  F   UNL A   1      40.980  24.534  28.463  1.00  0.00    -0.205 F 
ATOM     68  C   UNL A   1      42.915  24.973  25.382  1.00  0.00     0.022 A 
BRANCH  66  69
ATOM     69  S   UNL A   1      41.950  22.574  26.267  1.00  0.00     0.127 S 
ATOM     70  O   UNL A   1      42.639  22.286  25.010  1.00  0.00    -0.237 OA
ATOM     71  O   UNL A   1      42.632  22.078  27.463  1.00  0.00    -0.237 OA
ATOM     72  O   UNL A   1      40.510  22.357  26.252  1.00  0.00    -0.744 OA
ENDBRANCH  66  69
ENDBRANCH  48  62
BRANCH  49  73
ATOM     73  C   UNL A   1      38.990  31.990  35.307  1.00  0.00     0.023 A 
ATOM     74  C   UNL A   1      39.233  33.377  35.312  1.00  0.00     0.012 A 
ATOM     75  C   UNL A   1      38.362  31.402  36.421  1.00  0.00     0.148 A 
ATOM     76  C   UNL A   1      38.901  34.158  36.419  1.00  0.00     0.002 A 
ATOM     77  C   UNL A   1      37.980  32.194  37.499  1.00  0.00     0.091 A 
ATOM     78  F   UNL A   1      38.153  30.078  36.411  1.00  0.00    -0.205 F 
ATOM     79  C   UNL A   1      38.268  33.568  37.510  1.00  0.00     0.022 A 
BRANCH  77  80
ATOM     80  S   UNL A   1      37.046  31.540  38.887  1.00  0.00     0.127 S 
ATOM     81  O   UNL A   1      37.943  31.814  40.007  1.00  0.00    -0.237 OA
ATOM     82  O   UNL A   1      35.834  32.361  38.853  1.00  0.00    -0.237 OA
ATOM     83  O   UNL A   1      36.824  30.135  38.573  1.00  0.00    -0.744 OA
ENDBRANCH  77  80
ENDBRANCH  49  73
BRANCH  61  84
ATOM     84  C   UNL A   1      44.792  28.375  33.929  1.00  0.00     0.023 A 
ATOM     85  C   UNL A   1      45.846  29.307  33.848  1.00  0.00     0.012 A 
ATOM     86  C   UNL A   1      44.911  27.272  34.800  1.00  0.00     0.148 A 
ATOM     87  C   UNL A   1      47.010  29.128  34.594  1.00  0.00     0.002 A 
ATOM     88  C   UNL A   1      46.055  27.128  35.577  1.00  0.00     0.091 A 
ATOM     89  F   UNL A   1      43.907  26.386  34.850  1.00  0.00    -0.205 F 
ATOM     90  C   UNL A   1      47.110  28.047  35.467  1.00  0.00     0.022 A 
BRANCH  88  91
ATOM     91  S   UNL A   1      46.233  25.820  36.797  1.00  0.00     0.127 S 
ATOM     92  O   UNL A   1      47.368  26.298  37.583  1.00  0.00    -0.237 OA
ATOM     93  O   UNL A   1      44.947  25.867  37.492  1.00  0.00    -0.237 OA
ATOM     94  O   UNL A   1      46.467  24.595  36.042  1.00  0.00    -0.744 OA
ENDBRANCH  88  91
ENDBRANCH  61  84
ENDBRANCH  35  36
ENDBRANCH  27  30
ENDBRANCH  25  26
ENDBRANCH  24  25
ENDBRANCH   1  24
TORSDOF 18
ENDMDL
MODEL 2
REMARK VINA RESULT:     -12.4      1.595      7.715
REMARK SMILES O=CN[C@@H](CCS[C@@H]1CCO[C@]2(CCOC2)C1)C(=O)NCCCNC(=O)c1ccc(-c2c3nc(c(-c4cccc(S(=O)(=O)[O-])c4F)c4ccc([nH]4)c(-c4cccc(S(=O)(=O)[O-])c4F)c4nc(c(-c5cccc(S(=O)(=O)[O-])c5F)c5ccc2[nH]5)C=C4)C=C3)cc1
REMARK SMILES IDX 21 1 20 2 18 3 19 4 4 6 3 7 1 8 2 9 5 11 6 12 7 13 8 14 9 15
REMARK SMILES IDX 17 16 10 17 12 18 11 19 13 20 16 21 14 22 15 23 22 24 23 25
REMARK SMILES IDX 24 26 25 27 26 29 27 30 28 31 89 32 29 33 88 34 30 35 31 36
REMARK SMILES IDX 32 37 82 38 33 39 87 40 81 41 83 42 34 43 86 44 80 45 79 46
REMARK SMILES IDX 35 48 67 49 47 50 66 51 48 52 51 53 65 54 84 55 49 56 50 57
REMARK SMILES IDX 64 59 85 60 52 61 36 62 37 63 45 64 38 65 40 66 46 67 39 68
REMARK SMILES IDX 41 69 42 70 43 71 44 72 68 73 69 74 77 75 70 76 72 77 78 78
REMARK SMILES IDX 71 79 73 80 74 81 75 82 76 83 53 84 54 85 62 86 55 87 57 88
REMARK SMILES IDX 63 89 56 90 58 91 59 92 60 93 61 94
REMARK H PARENT 20 5 3 10 24 28 83 47 51 58
REMARK Flexibility Score: inf
ROOT
ATOM      1  C   UNL A   1      31.157  27.584  25.962  1.00  0.00     0.117 C 
ENDROOT
BRANCH   1   2
ATOM      2  N   UNL A   1      31.292  26.299  26.647  1.00  0.00    -0.354 N 
ATOM      3  C   UNL A   1      31.663  24.995  26.463  1.00  0.00     0.242 C 
ATOM      4  O   UNL A   1      31.423  24.116  27.288  1.00  0.00    -0.273 OA
ATOM      5  H   UNL A   1      31.012  26.414  27.585  1.00  0.00     0.163 HD
BRANCH   3   6
ATOM      6  C   UNL A   1      32.568  24.484  25.433  1.00  0.00     0.171 C 
BRANCH   6   7
ATOM      7  N   UNL A   1      31.928  24.684  24.160  1.00  0.00    -0.347 N 
ATOM      8  O   UNL A   1      30.226  23.916  22.808  1.00  0.00    -0.279 OA
ATOM      9  C   UNL A   1      30.979  23.750  23.756  1.00  0.00     0.337 C 
ATOM     10  H   UNL A   1      32.153  25.457  23.594  1.00  0.00     0.164 HD
ENDBRANCH   6   7
BRANCH   6  11
ATOM     11  C   UNL A   1      33.895  24.962  25.925  1.00  0.00     0.046 C 
BRANCH  11  12
ATOM     12  C   UNL A   1      34.919  23.764  26.277  1.00  0.00     0.072 C 
BRANCH  12  13
ATOM     13  S   UNL A   1      35.014  21.724  26.352  1.00  0.00    -0.158 SA
BRANCH  13  14
ATOM     14  C   UNL A   1      34.442  20.415  24.831  1.00  0.00     0.052 C 
ATOM     15  C   UNL A   1      33.323  20.982  23.965  1.00  0.00     0.043 C 
ATOM     16  C   UNL A   1      34.555  18.844  24.595  1.00  0.00     0.052 C 
ATOM     17  C   UNL A   1      32.198  20.013  23.572  1.00  0.00     0.162 C 
ATOM     18  C   UNL A   1      33.251  17.978  24.488  1.00  0.00     0.095 C 
ATOM     19  O   UNL A   1      32.087  18.735  24.175  1.00  0.00    -0.372 OA
ATOM     20  C   UNL A   1      32.907  17.029  25.673  1.00  0.00     0.066 C 
ATOM     21  C   UNL A   1      33.447  16.837  23.474  1.00  0.00     0.195 C 
ATOM     22  C   UNL A   1      33.765  15.800  25.501  1.00  0.00     0.163 C 
ATOM     23  O   UNL A   1      34.214  15.824  24.148  1.00  0.00    -0.378 OA
ENDBRANCH  13  14
ENDBRANCH  12  13
ENDBRANCH  11  12
ENDBRANCH   6  11
ENDBRANCH   3   6
ENDBRANCH   1   2
BRANCH   1  24
ATOM     24  C   UNL A   1      32.034  28.696  26.626  1.00  0.00     0.042 C 
BRANCH  24  25
ATOM     25  C   UNL A   1      32.625  29.855  25.780  1.00  0.00     0.118 C 
BRANCH  25  26
ATOM     26  N   UNL A   1      32.357  31.194  26.263  1.00  0.00    -0.352 N 
ATOM     27  C   UNL A   1      33.083  31.977  27.132  1.00  0.00     0.251 C 
ATOM     28  H   UNL A   1      31.531  31.606  25.919  1.00  0.00     0.163 HD
ATOM     29  O   UNL A   1      32.680  33.115  27.389  1.00  0.00    -0.269 OA
BRANCH  27  30
ATOM     30  C   UNL A   1      34.309  31.483  27.809  1.00  0.00     0.039 A 
ATOM     31  C   UNL A   1      35.404  32.350  27.897  1.00  0.00     0.014 A 
ATOM     32  C   UNL A   1      34.435  30.171  28.278  1.00  0.00     0.014 A 
ATOM     33  C   UNL A   1      36.597  31.929  28.501  1.00  0.00     0.010 A 
ATOM     34  C   UNL A   1      35.623  29.762  28.914  1.00  0.00     0.010 A 
ATOM     35  C   UNL A   1      36.716  30.638  29.042  1.00  0.00    -0.014 A 
BRANCH  35  36
ATOM     36  C   UNL A   1      37.960  30.227  29.766  1.00  0.00     0.031 A 
ATOM     37  C   UNL A   1      38.270  30.744  31.150  1.00  0.00     0.074 A 
ATOM     38  C   UNL A   1      38.845  29.404  29.162  1.00  0.00     0.049 A 
ATOM     39  N   UNL A   1      39.313  30.507  31.907  1.00  0.00    -0.248 NA
ATOM     40  C   UNL A   1      37.289  31.655  31.758  1.00  0.00     0.031 C 
ATOM     41  C   UNL A   1      38.704  28.863  27.808  1.00  0.00     0.029 A 
ATOM     42  N   UNL A   1      40.045  28.891  29.597  1.00  0.00    -0.354 N 
ATOM     43  C   UNL A   1      39.127  31.251  33.068  1.00  0.00     0.074 A 
ATOM     44  C   UNL A   1      37.883  31.973  32.901  1.00  0.00     0.031 C 
ATOM     45  C   UNL A   1      39.770  28.095  27.526  1.00  0.00     0.029 A 
ATOM     46  C   UNL A   1      40.686  28.107  28.662  1.00  0.00     0.049 A 
ATOM     47  H   UNL A   1      40.413  29.070  30.492  1.00  0.00     0.167 HD
ATOM     48  C   UNL A   1      39.899  31.309  34.183  1.00  0.00     0.034 A 
ATOM     49  C   UNL A   1      41.876  27.475  28.708  1.00  0.00     0.034 A 
ATOM     50  C   UNL A   1      41.119  30.568  34.371  1.00  0.00     0.049 A 
ATOM     51  C   UNL A   1      42.708  27.552  29.962  1.00  0.00     0.074 A 
ATOM     52  C   UNL A   1      41.941  30.531  35.486  1.00  0.00     0.029 A 
ATOM     53  N   UNL A   1      41.695  29.733  33.427  1.00  0.00    -0.354 N 
ATOM     54  N   UNL A   1      42.443  28.156  31.094  1.00  0.00    -0.248 NA
ATOM     55  C   UNL A   1      43.990  26.828  29.958  1.00  0.00     0.031 C 
ATOM     56  C   UNL A   1      43.018  29.682  35.212  1.00  0.00     0.029 A 
ATOM     57  C   UNL A   1      42.857  29.173  33.935  1.00  0.00     0.049 A 
ATOM     58  H   UNL A   1      41.332  29.562  32.528  1.00  0.00     0.167 HD
ATOM     59  C   UNL A   1      43.497  27.848  31.947  1.00  0.00     0.074 A 
ATOM     60  C   UNL A   1      44.397  26.987  31.210  1.00  0.00     0.031 C 
ATOM     61  C   UNL A   1      43.709  28.255  33.223  1.00  0.00     0.034 A 
BRANCH  48  62
ATOM     62  C   UNL A   1      39.412  32.158  35.332  1.00  0.00     0.023 A 
ATOM     63  C   UNL A   1      38.560  31.584  36.296  1.00  0.00     0.012 A 
ATOM     64  C   UNL A   1      39.857  33.484  35.508  1.00  0.00     0.148 A 
ATOM     65  C   UNL A   1      38.129  32.322  37.398  1.00  0.00     0.002 A 
ATOM     66  C   UNL A   1      39.456  34.202  36.631  1.00  0.00     0.091 A 
ATOM     67  F   UNL A   1      40.662  34.018  34.578  1.00  0.00    -0.205 F 
ATOM     68  C   UNL A   1      38.584  33.626  37.570  1.00  0.00     0.022 A 
BRANCH  66  69
ATOM     69  S   UNL A   1      40.044  35.862  36.990  1.00  0.00     0.127 S 
ATOM     70  O   UNL A   1      39.332  36.164  38.231  1.00  0.00    -0.237 OA
ATOM     71  O   UNL A   1      41.483  35.652  37.149  1.00  0.00    -0.237 OA
ATOM     72  O   UNL A   1      39.669  36.678  35.844  1.00  0.00    -0.744 OA
ENDBRANCH  66  69
ENDBRANCH  48  62
BRANCH  49  73
ATOM     73  C   UNL A   1      42.341  26.649  27.553  1.00  0.00     0.023 A 
ATOM     74  C   UNL A   1      42.940  27.285  26.448  1.00  0.00     0.012 A 
ATOM     75  C   UNL A   1      42.177  25.251  27.531  1.00  0.00     0.148 A 
ATOM     76  C   UNL A   1      43.328  26.553  25.325  1.00  0.00     0.002 A 
ATOM     77  C   UNL A   1      42.617  24.519  26.433  1.00  0.00     0.091 A 
ATOM     78  F   UNL A   1      41.589  24.662  28.581  1.00  0.00    -0.205 F 
ATOM     79  C   UNL A   1      43.174  25.169  25.321  1.00  0.00     0.022 A 
BRANCH  77  80
ATOM     80  S   UNL A   1      42.574  22.724  26.398  1.00  0.00     0.127 S 
ATOM     81  O   UNL A   1      42.448  22.455  24.968  1.00  0.00    -0.237 OA
ATOM     82  O   UNL A   1      43.873  22.376  26.979  1.00  0.00    -0.237 OA
ATOM     83  O   UNL A   1      41.433  22.350  27.223  1.00  0.00    -0.744 OA
ENDBRANCH  77  80
ENDBRANCH  49  73
BRANCH  61  84
ATOM     84  C   UNL A   1      44.929  27.733  33.937  1.00  0.00     0.023 A 
ATOM     85  C   UNL A   1      46.128  28.473  33.913  1.00  0.00     0.012 A 
ATOM     86  C   UNL A   1      44.864  26.548  34.697  1.00  0.00     0.148 A 
ATOM     87  C   UNL A   1      47.252  28.025  34.606  1.00  0.00     0.002 A 
ATOM     88  C   UNL A   1      45.973  26.134  35.424  1.00  0.00     0.091 A 
ATOM     89  F   UNL A   1      43.721  25.848  34.693  1.00  0.00    -0.205 F 
ATOM     90  C   UNL A   1      47.172  26.863  35.371  1.00  0.00     0.022 A 
BRANCH  88  91
ATOM     91  S   UNL A   1      45.935  24.703  36.512  1.00  0.00     0.127 S 
ATOM     92  O   UNL A   1      45.163  23.747  35.722  1.00  0.00    -0.237 OA
ATOM     93  O   UNL A   1      47.355  24.378  36.648  1.00  0.00    -0.237 OA
ATOM     94  O   UNL A   1      45.299  25.153  37.744  1.00  0.00    -0.744 OA
ENDBRANCH  88  91
ENDBRANCH  61  84
ENDBRANCH  35  36
ENDBRANCH  27  30
ENDBRANCH  25  26
ENDBRANCH  24  25
ENDBRANCH   1  24
TORSDOF 18
ENDMDL
MODEL 3
REMARK VINA RESULT:     -12.1      3.686      9.338
REMARK SMILES O=CN[C@@H](CCS[C@@H]1CCO[C@]2(CCOC2)C1)C(=O)NCCCNC(=O)c1ccc(-c2c3nc(c(-c4cccc(S(=O)(=O)[O-])c4F)c4ccc([nH]4)c(-c4cccc(S(=O)(=O)[O-])c4F)c4nc(c(-c5cccc(S(=O)(=O)[O-])c5F)c5ccc2[nH]5)C=C4)C=C3)cc1
REMARK SMILES IDX 21 1 20 2 18 3 19 4 4 6 3 7 1 8 2 9 5 11 6 12 7 13 8 14 9 15
REMARK SMILES IDX 17 16 10 17 12 18 11 19 13 20 16 21 14 22 15 23 22 24 23 25
REMARK SMILES IDX 24 26 25 27 26 29 27 30 28 31 89 32 29 33 88 34 30 35 31 36
REMARK SMILES IDX 32 37 82 38 33 39 87 40 81 41 83 42 34 43 86 44 80 45 79 46
REMARK SMILES IDX 35 48 67 49 47 50 66 51 48 52 51 53 65 54 84 55 49 56 50 57
REMARK SMILES IDX 64 59 85 60 52 61 36 62 37 63 45 64 38 65 40 66 46 67 39 68
REMARK SMILES IDX 41 69 42 70 43 71 44 72 68 73 69 74 77 75 70 76 72 77 78 78
REMARK SMILES IDX 71 79 73 80 74 81 75 82 76 83 53 84 54 85 62 86 55 87 57 88
REMARK SMILES IDX 63 89 56 90 58 91 59 92 60 93 61 94
REMARK H PARENT 20 5 3 10 24 28 83 47 51 58
REMARK Flexibility Score: inf
ROOT
ATOM      1  C   UNL A   1      33.073  27.392  25.457  1.00  0.00     0.117 C 
ENDROOT
BRANCH   1   2
ATOM      2  N   UNL A   1      32.464  26.289  26.201  1.00  0.00    -0.354 N 
ATOM      3  C   UNL A   1      32.006  25.007  26.075  1.00  0.00     0.242 C 
ATOM      4  O   UNL A   1      31.330  24.457  26.942  1.00  0.00    -0.273 OA
ATOM      5  H   UNL A   1      32.336  26.576  27.135  1.00  0.00     0.163 HD
BRANCH   3   6
ATOM      6  C   UNL A   1      32.411  24.032  25.060  1.00  0.00     0.171 C 
BRANCH   6   7
ATOM      7  N   UNL A   1      32.982  22.906  25.750  1.00  0.00    -0.347 N 
ATOM      8  O   UNL A   1      34.950  22.073  26.612  1.00  0.00    -0.279 OA
ATOM      9  C   UNL A   1      34.366  22.857  25.880  1.00  0.00     0.337 C 
ATOM     10  H   UNL A   1      32.411  22.193  26.118  1.00  0.00     0.164 HD
ENDBRANCH   6   7
BRANCH   6  11
ATOM     11  C   UNL A   1      31.265  24.091  24.105  1.00  0.00     0.046 C 
BRANCH  11  12
ATOM     12  C   UNL A   1      31.491  25.137  22.895  1.00  0.00     0.072 C 
BRANCH  12  13
ATOM     13  S   UNL A   1      31.014  27.042  22.328  1.00  0.00    -0.158 SA
BRANCH  13  14
ATOM     14  C   UNL A   1      29.616  28.281  23.258  1.00  0.00     0.052 C 
ATOM     15  C   UNL A   1      28.348  27.535  23.653  1.00  0.00     0.043 C 
ATOM     16  C   UNL A   1      29.343  29.849  23.283  1.00  0.00     0.052 C 
ATOM     17  C   UNL A   1      27.016  28.255  23.390  1.00  0.00     0.162 C 
ATOM     18  C   UNL A   1      27.997  30.413  22.706  1.00  0.00     0.095 C 
ATOM     19  O   UNL A   1      26.963  29.439  22.613  1.00  0.00    -0.372 OA
ATOM     20  C   UNL A   1      28.050  31.191  21.359  1.00  0.00     0.066 C 
ATOM     21  C   UNL A   1      27.528  31.628  23.527  1.00  0.00     0.195 C 
ATOM     22  C   UNL A   1      28.520  32.587  21.687  1.00  0.00     0.163 C 
ATOM     23  O   UNL A   1      28.326  32.742  23.092  1.00  0.00    -0.378 OA
ENDBRANCH  13  14
ENDBRANCH  12  13
ENDBRANCH  11  12
ENDBRANCH   6  11
ENDBRANCH   3   6
ENDBRANCH   1   2
BRANCH   1  24
ATOM     24  C   UNL A   1      33.931  28.318  26.381  1.00  0.00     0.042 C 
BRANCH  24  25
ATOM     25  C   UNL A   1      33.293  29.041  27.597  1.00  0.00     0.118 C 
BRANCH  25  26
ATOM     26  N   UNL A   1      33.461  30.479  27.639  1.00  0.00    -0.352 N 
ATOM     27  C   UNL A   1      34.558  31.227  28.000  1.00  0.00     0.251 C 
ATOM     28  H   UNL A   1      32.670  31.000  27.369  1.00  0.00     0.163 HD
ATOM     29  O   UNL A   1      34.490  32.457  27.936  1.00  0.00    -0.269 OA
BRANCH  27  30
ATOM     30  C   UNL A   1      35.807  30.606  28.513  1.00  0.00     0.039 A 
ATOM     31  C   UNL A   1      37.003  30.892  27.847  1.00  0.00     0.014 A 
ATOM     32  C   UNL A   1      35.815  29.690  29.570  1.00  0.00     0.014 A 
ATOM     33  C   UNL A   1      38.208  30.314  28.269  1.00  0.00     0.010 A 
ATOM     34  C   UNL A   1      37.031  29.136  30.013  1.00  0.00     0.010 A 
ATOM     35  C   UNL A   1      38.244  29.448  29.374  1.00  0.00    -0.014 A 
BRANCH  35  36
ATOM     36  C   UNL A   1      39.548  28.907  29.875  1.00  0.00     0.031 A 
ATOM     37  C   UNL A   1      40.239  29.508  31.074  1.00  0.00     0.074 A 
ATOM     38  C   UNL A   1      40.140  27.881  29.225  1.00  0.00     0.049 A 
ATOM     39  N   UNL A   1      41.381  29.176  31.624  1.00  0.00    -0.248 NA
ATOM     40  C   UNL A   1      39.567  30.637  31.736  1.00  0.00     0.031 C 
ATOM     41  C   UNL A   1      39.615  27.229  28.023  1.00  0.00     0.029 A 
ATOM     42  N   UNL A   1      41.320  27.217  29.470  1.00  0.00    -0.354 N 
ATOM     43  C   UNL A   1      41.577  30.063  32.678  1.00  0.00     0.074 A 
ATOM     44  C   UNL A   1      40.448  30.969  32.672  1.00  0.00     0.031 C 
ATOM     45  C   UNL A   1      40.463  26.261  27.639  1.00  0.00     0.029 A 
ATOM     46  C   UNL A   1      41.607  26.236  28.546  1.00  0.00     0.049 A 
ATOM     47  H   UNL A   1      41.905  27.424  30.233  1.00  0.00     0.167 HD
ATOM     48  C   UNL A   1      42.584  30.105  33.587  1.00  0.00     0.034 A 
ATOM     49  C   UNL A   1      42.670  25.413  28.433  1.00  0.00     0.034 A 
ATOM     50  C   UNL A   1      43.693  29.187  33.622  1.00  0.00     0.049 A 
ATOM     51  C   UNL A   1      43.769  25.480  29.461  1.00  0.00     0.074 A 
ATOM     52  C   UNL A   1      44.733  29.128  34.535  1.00  0.00     0.029 A 
ATOM     53  N   UNL A   1      43.908  28.167  32.709  1.00  0.00    -0.354 N 
ATOM     54  N   UNL A   1      43.862  26.240  30.524  1.00  0.00    -0.248 NA
ATOM     55  C   UNL A   1      44.896  24.547  29.295  1.00  0.00     0.031 C 
ATOM     56  C   UNL A   1      45.583  28.079  34.168  1.00  0.00     0.029 A 
ATOM     57  C   UNL A   1      45.060  27.470  33.039  1.00  0.00     0.049 A 
ATOM     58  H   UNL A   1      43.327  27.966  31.940  1.00  0.00     0.167 HD
ATOM     59  C   UNL A   1      45.027  25.846  31.175  1.00  0.00     0.074 A 
ATOM     60  C   UNL A   1      45.597  24.767  30.398  1.00  0.00     0.031 C 
ATOM     61  C   UNL A   1      45.582  26.346  32.306  1.00  0.00     0.034 A 
BRANCH  48  62
ATOM     62  C   UNL A   1      42.504  31.146  34.678  1.00  0.00     0.023 A 
ATOM     63  C   UNL A   1      41.927  30.799  35.916  1.00  0.00     0.012 A 
ATOM     64  C   UNL A   1      43.066  32.429  34.515  1.00  0.00     0.148 A 
ATOM     65  C   UNL A   1      41.880  31.718  36.964  1.00  0.00     0.002 A 
ATOM     66  C   UNL A   1      43.052  33.326  35.577  1.00  0.00     0.091 A 
ATOM     67  F   UNL A   1      43.604  32.745  33.328  1.00  0.00    -0.205 F 
ATOM     68  C   UNL A   1      42.449  32.977  36.798  1.00  0.00     0.022 A 
BRANCH  66  69
ATOM     69  S   UNL A   1      43.825  34.947  35.498  1.00  0.00     0.127 S 
ATOM     70  O   UNL A   1      42.862  35.693  34.690  1.00  0.00    -0.237 OA
ATOM     71  O   UNL A   1      43.870  35.337  36.907  1.00  0.00    -0.237 OA
ATOM     72  O   UNL A   1      45.128  34.741  34.880  1.00  0.00    -0.744 OA
ENDBRANCH  66  69
ENDBRANCH  48  62
BRANCH  49  73
ATOM     73  C   UNL A   1      42.731  24.399  27.338  1.00  0.00     0.023 A 
ATOM     74  C   UNL A   1      43.375  24.728  26.129  1.00  0.00     0.012 A 
ATOM     75  C   UNL A   1      42.144  23.127  27.476  1.00  0.00     0.148 A 
ATOM     76  C   UNL A   1      43.396  23.828  25.063  1.00  0.00     0.002 A 
ATOM     77  C   UNL A   1      42.217  22.213  26.430  1.00  0.00     0.091 A 
ATOM     78  F   UNL A   1      41.520  22.834  28.626  1.00  0.00    -0.205 F 
ATOM     79  C   UNL A   1      42.824  22.568  25.215  1.00  0.00     0.022 A 
BRANCH  77  80
ATOM     80  S   UNL A   1      41.621  20.526  26.588  1.00  0.00     0.127 S 
ATOM     81  O   UNL A   1      40.174  20.720  26.606  1.00  0.00    -0.237 OA
ATOM     82  O   UNL A   1      42.144  19.902  25.371  1.00  0.00    -0.237 OA
ATOM     83  O   UNL A   1      42.215  20.021  27.818  1.00  0.00    -0.744 OA
ENDBRANCH  77  80
ENDBRANCH  49  73
BRANCH  61  84
ATOM     84  C   UNL A   1      46.844  25.700  32.818  1.00  0.00     0.023 A 
ATOM     85  C   UNL A   1      46.778  24.755  33.861  1.00  0.00     0.012 A 
ATOM     86  C   UNL A   1      48.087  25.971  32.210  1.00  0.00     0.148 A 
ATOM     87  C   UNL A   1      47.931  24.116  34.313  1.00  0.00     0.002 A 
ATOM     88  C   UNL A   1      49.224  25.293  32.633  1.00  0.00     0.091 A 
ATOM     89  F   UNL A   1      48.133  26.886  31.231  1.00  0.00    -0.205 F 
ATOM     90  C   UNL A   1      49.151  24.375  33.692  1.00  0.00     0.022 A 
BRANCH  88  91
ATOM     91  S   UNL A   1      50.820  25.491  31.831  1.00  0.00     0.127 S 
ATOM     92  O   UNL A   1      51.665  24.599  32.622  1.00  0.00    -0.237 OA
ATOM     93  O   UNL A   1      50.545  25.025  30.472  1.00  0.00    -0.237 OA
ATOM     94  O   UNL A   1      51.145  26.909  31.928  1.00  0.00    -0.744 OA
ENDBRANCH  88  91
ENDBRANCH  61  84
ENDBRANCH  35  36
ENDBRANCH  27  30
ENDBRANCH  25  26
ENDBRANCH  24  25
ENDBRANCH   1  24
TORSDOF 18
ENDMDL
