MODEL 1
REMARK VINA RESULT:     -11.6      0.000      0.000
REMARK SMILES Nc1ccc2[nH]cc(C(=O)NCCCNC(=O)c3ccc(-c4c5nc(c(-c6cccc(S(=O)(=O)[O-])c6F)c6ccc([nH]6)c(-c6cccc(S(=O)(=O)[O-])c6F)c6nc(c(-c7cccc(S(=O)(=O)[O-])c7F)c7ccc4[nH]7)C=C6)C=C5)cc3)c2c1
REMARK SMILES IDX 14 1 13 2 12 3 11 4 9 5 10 6 8 8 2 9 3 10 82 11 4 12 81 13
REMARK SMILES IDX 5 14 6 15 7 16 1 18 15 21 16 22 17 24 18 25 19 26 80 27
REMARK SMILES IDX 20 28 79 29 21 30 22 31 23 32 73 33 24 34 78 35 72 36 74 37
REMARK SMILES IDX 25 38 77 39 71 40 70 41 26 43 58 44 38 45 57 46 39 47 42 48
REMARK SMILES IDX 56 49 75 50 40 51 41 52 55 54 76 55 43 56 27 57 28 58 36 59
REMARK SMILES IDX 29 60 31 61 37 62 30 63 32 64 33 65 34 66 35 67 59 68 60 69
REMARK SMILES IDX 68 70 61 71 63 72 69 73 62 74 64 75 65 76 66 77 67 78 44 79
REMARK SMILES IDX 45 80 53 81 46 82 48 83 54 84 47 85 49 86 50 87 51 88 52 89
REMARK H PARENT 11 7 6 17 1 19 1 20 15 23 74 42 42 53
REMARK Flexibility Score: inf
ROOT
ATOM      1  C   UNL A   1      34.163  34.080  28.753  1.00  0.00     0.118 C 
ENDROOT
BRANCH   1   2
ATOM      2  C   UNL A   1      33.092  35.175  28.811  1.00  0.00     0.042 C 
BRANCH   2   3
ATOM      3  C   UNL A   1      33.679  36.569  29.064  1.00  0.00     0.118 C 
BRANCH   3   4
ATOM      4  N   UNL A   1      33.213  37.140  30.300  1.00  0.00    -0.352 N 
ATOM      5  C   UNL A   1      33.318  36.780  31.612  1.00  0.00     0.253 C 
ATOM      6  O   UNL A   1      32.942  37.669  32.390  1.00  0.00    -0.269 OA
ATOM      7  H   UNL A   1      32.705  37.974  30.171  1.00  0.00     0.163 HD
BRANCH   5   8
ATOM      8  C   UNL A   1      33.797  35.492  32.148  1.00  0.00     0.065 A 
ATOM      9  C   UNL A   1      37.271  33.736  31.782  1.00  0.00     0.032 A 
ATOM     10  C   UNL A   1      36.908  32.583  32.459  1.00  0.00     0.027 A 
ATOM     11  C   UNL A   1      36.331  34.771  31.635  1.00  0.00     0.036 A 
ATOM     12  C   UNL A   1      35.623  32.429  32.972  1.00  0.00     0.029 A 
ATOM     13  C   UNL A   1      35.006  34.680  32.136  1.00  0.00     0.014 A 
ATOM     14  C   UNL A   1      34.713  33.481  32.808  1.00  0.00     0.046 A 
ATOM     15  N   UNL A   1      33.418  33.551  33.243  1.00  0.00    -0.360 N 
ATOM     16  C   UNL A   1      32.872  34.734  32.870  1.00  0.00     0.097 A 
ATOM     17  H   UNL A   1      32.953  32.846  33.750  1.00  0.00     0.166 HD
BRANCH   9  18
ATOM     18  N   UNL A   1      38.583  33.915  31.366  1.00  0.00    -0.399 N 
ATOM     19  H   UNL A   1      39.229  33.178  31.445  1.00  0.00     0.156 HD
ATOM     20  H   UNL A   1      38.867  34.781  30.993  1.00  0.00     0.156 HD
ENDBRANCH   9  18
ENDBRANCH   5   8
ENDBRANCH   3   4
ENDBRANCH   2   3
ENDBRANCH   1   2
BRANCH   1  21
ATOM     21  N   UNL A   1      33.739  32.916  27.996  1.00  0.00    -0.352 N 
ATOM     22  C   UNL A   1      34.258  31.684  27.712  1.00  0.00     0.251 C 
ATOM     23  H   UNL A   1      32.855  33.047  27.583  1.00  0.00     0.163 HD
ATOM     24  O   UNL A   1      33.564  30.981  26.972  1.00  0.00    -0.269 OA
BRANCH  22  25
ATOM     25  C   UNL A   1      35.567  31.155  28.185  1.00  0.00     0.039 A 
ATOM     26  C   UNL A   1      36.667  31.923  28.567  1.00  0.00     0.014 A 
ATOM     27  C   UNL A   1      35.686  29.750  28.221  1.00  0.00     0.014 A 
ATOM     28  C   UNL A   1      37.867  31.306  28.918  1.00  0.00     0.010 A 
ATOM     29  C   UNL A   1      36.878  29.129  28.586  1.00  0.00     0.010 A 
ATOM     30  C   UNL A   1      37.982  29.912  28.902  1.00  0.00    -0.014 A 
BRANCH  30  31
ATOM     31  C   UNL A   1      39.254  29.329  29.321  1.00  0.00     0.031 A 
ATOM     32  C   UNL A   1      39.617  29.578  30.744  1.00  0.00     0.074 A 
ATOM     33  C   UNL A   1      40.032  28.553  28.537  1.00  0.00     0.049 A 
ATOM     34  N   UNL A   1      40.578  30.317  31.198  1.00  0.00    -0.248 NA
ATOM     35  C   UNL A   1      38.732  29.034  31.784  1.00  0.00     0.031 C 
ATOM     36  C   UNL A   1      39.687  27.972  27.237  1.00  0.00     0.029 A 
ATOM     37  N   UNL A   1      41.265  28.024  28.799  1.00  0.00    -0.354 N 
ATOM     38  C   UNL A   1      40.551  30.151  32.582  1.00  0.00     0.074 A 
ATOM     39  C   UNL A   1      39.313  29.486  32.896  1.00  0.00     0.031 C 
ATOM     40  C   UNL A   1      40.571  26.992  26.942  1.00  0.00     0.029 A 
ATOM     41  C   UNL A   1      41.621  26.984  27.946  1.00  0.00     0.049 A 
ATOM     42  H   UNL A   1      41.847  28.349  29.523  1.00  0.00     0.167 HD
ATOM     43  C   UNL A   1      41.655  30.352  33.352  1.00  0.00     0.034 A 
ATOM     44  C   UNL A   1      42.673  26.146  28.099  1.00  0.00     0.034 A 
ATOM     45  C   UNL A   1      42.714  30.996  32.630  1.00  0.00     0.049 A 
ATOM     46  C   UNL A   1      43.678  26.850  28.926  1.00  0.00     0.074 A 
ATOM     47  C   UNL A   1      43.010  32.262  32.186  1.00  0.00     0.029 A 
ATOM     48  N   UNL A   1      43.544  30.123  31.983  1.00  0.00    -0.354 N 
ATOM     49  N   UNL A   1      44.316  27.918  28.537  1.00  0.00    -0.248 NA
ATOM     50  C   UNL A   1      43.828  26.508  30.336  1.00  0.00     0.031 C 
ATOM     51  C   UNL A   1      43.890  32.091  31.076  1.00  0.00     0.029 A 
ATOM     52  C   UNL A   1      44.108  30.727  30.892  1.00  0.00     0.049 A 
ATOM     53  H   UNL A   1      43.713  29.193  32.261  1.00  0.00     0.167 HD
ATOM     54  C   UNL A   1      44.577  28.598  29.710  1.00  0.00     0.074 A 
ATOM     55  C   UNL A   1      44.442  27.611  30.769  1.00  0.00     0.031 C 
ATOM     56  C   UNL A   1      44.547  29.958  29.749  1.00  0.00     0.034 A 
BRANCH  43  57
ATOM     57  C   UNL A   1      41.960  29.593  34.620  1.00  0.00     0.023 A 
ATOM     58  C   UNL A   1      42.577  30.286  35.683  1.00  0.00     0.012 A 
ATOM     59  C   UNL A   1      41.936  28.182  34.695  1.00  0.00     0.148 A 
ATOM     60  C   UNL A   1      43.139  29.606  36.772  1.00  0.00     0.002 A 
ATOM     61  C   UNL A   1      42.427  27.515  35.813  1.00  0.00     0.091 A 
ATOM     62  F   UNL A   1      41.567  27.471  33.623  1.00  0.00    -0.205 F 
ATOM     63  C   UNL A   1      43.048  28.221  36.845  1.00  0.00     0.022 A 
BRANCH  61  64
ATOM     64  S   UNL A   1      42.295  25.730  35.963  1.00  0.00     0.127 S 
ATOM     65  O   UNL A   1      40.849  25.534  35.835  1.00  0.00    -0.237 OA
ATOM     66  O   UNL A   1      43.081  25.276  34.812  1.00  0.00    -0.237 OA
ATOM     67  O   UNL A   1      42.879  25.409  37.248  1.00  0.00    -0.744 OA
ENDBRANCH  61  64
ENDBRANCH  43  57
BRANCH  44  68
ATOM     68  C   UNL A   1      42.826  24.705  27.772  1.00  0.00     0.023 A 
ATOM     69  C   UNL A   1      41.775  23.822  28.104  1.00  0.00     0.012 A 
ATOM     70  C   UNL A   1      43.808  24.254  26.866  1.00  0.00     0.148 A 
ATOM     71  C   UNL A   1      41.650  22.575  27.482  1.00  0.00     0.002 A 
ATOM     72  C   UNL A   1      43.686  23.005  26.259  1.00  0.00     0.091 A 
ATOM     73  F   UNL A   1      44.803  25.078  26.516  1.00  0.00    -0.205 F 
ATOM     74  C   UNL A   1      42.595  22.175  26.546  1.00  0.00     0.022 A 
BRANCH  72  75
ATOM     75  S   UNL A   1      44.873  22.431  25.037  1.00  0.00     0.127 S 
ATOM     76  O   UNL A   1      44.318  21.132  24.651  1.00  0.00    -0.237 OA
ATOM     77  O   UNL A   1      44.777  23.466  24.012  1.00  0.00    -0.237 OA
ATOM     78  O   UNL A   1      46.145  22.345  25.744  1.00  0.00    -0.744 OA
ENDBRANCH  72  75
ENDBRANCH  44  68
BRANCH  56  79
ATOM     79  C   UNL A   1      44.750  30.695  28.460  1.00  0.00     0.023 A 
ATOM     80  C   UNL A   1      43.698  30.944  27.556  1.00  0.00     0.012 A 
ATOM     81  C   UNL A   1      46.013  31.260  28.225  1.00  0.00     0.148 A 
ATOM     82  C   UNL A   1      43.910  31.741  26.429  1.00  0.00     0.002 A 
ATOM     83  C   UNL A   1      46.208  32.084  27.127  1.00  0.00     0.091 A 
ATOM     84  F   UNL A   1      46.992  31.005  29.105  1.00  0.00    -0.205 F 
ATOM     85  C   UNL A   1      45.161  32.321  26.221  1.00  0.00     0.022 A 
BRANCH  83  86
ATOM     86  S   UNL A   1      47.756  32.949  26.857  1.00  0.00     0.127 S 
ATOM     87  O   UNL A   1      47.412  33.863  25.771  1.00  0.00    -0.237 OA
ATOM     88  O   UNL A   1      47.975  33.592  28.154  1.00  0.00    -0.237 OA
ATOM     89  O   UNL A   1      48.740  31.928  26.522  1.00  0.00    -0.744 OA
ENDBRANCH  83  86
ENDBRANCH  56  79
ENDBRANCH  30  31
ENDBRANCH  22  25
ENDBRANCH   1  21
TORSDOF 14
ENDMDL
MODEL 2
REMARK VINA RESULT:     -11.5      3.181      5.299
REMARK SMILES Nc1ccc2[nH]cc(C(=O)NCCCNC(=O)c3ccc(-c4c5nc(c(-c6cccc(S(=O)(=O)[O-])c6F)c6ccc([nH]6)c(-c6cccc(S(=O)(=O)[O-])c6F)c6nc(c(-c7cccc(S(=O)(=O)[O-])c7F)c7ccc4[nH]7)C=C6)C=C5)cc3)c2c1
REMARK SMILES IDX 14 1 13 2 12 3 11 4 9 5 10 6 8 8 2 9 3 10 82 11 4 12 81 13
REMARK SMILES IDX 5 14 6 15 7 16 1 18 15 21 16 22 17 24 18 25 19 26 80 27
REMARK SMILES IDX 20 28 79 29 21 30 22 31 23 32 73 33 24 34 78 35 72 36 74 37
REMARK SMILES IDX 25 38 77 39 71 40 70 41 26 43 58 44 38 45 57 46 39 47 42 48
REMARK SMILES IDX 56 49 75 50 40 51 41 52 55 54 76 55 43 56 27 57 28 58 36 59
REMARK SMILES IDX 29 60 31 61 37 62 30 63 32 64 33 65 34 66 35 67 59 68 60 69
REMARK SMILES IDX 68 70 61 71 63 72 69 73 62 74 64 75 65 76 66 77 67 78 44 79
REMARK SMILES IDX 45 80 53 81 46 82 48 83 54 84 47 85 49 86 50 87 51 88 52 89
REMARK H PARENT 11 7 6 17 1 19 1 20 15 23 74 42 42 53
REMARK Flexibility Score: inf
ROOT
ATOM      1  C   UNL A   1      33.831  30.098  27.224  1.00  0.00     0.118 C 
ENDROOT
BRANCH   1   2
ATOM      2  C   UNL A   1      32.368  29.822  26.857  1.00  0.00     0.042 C 
BRANCH   2   3
ATOM      3  C   UNL A   1      31.931  28.391  27.192  1.00  0.00     0.118 C 
BRANCH   3   4
ATOM      4  N   UNL A   1      32.451  27.429  26.256  1.00  0.00    -0.352 N 
ATOM      5  C   UNL A   1      32.024  26.949  25.052  1.00  0.00     0.253 C 
ATOM      6  O   UNL A   1      32.881  26.268  24.471  1.00  0.00    -0.269 OA
ATOM      7  H   UNL A   1      33.301  27.028  26.548  1.00  0.00     0.163 HD
BRANCH   5   8
ATOM      8  C   UNL A   1      30.700  27.146  24.432  1.00  0.00     0.065 A 
ATOM      9  C   UNL A   1      29.198  30.265  22.616  1.00  0.00     0.032 A 
ATOM     10  C   UNL A   1      27.943  29.711  22.417  1.00  0.00     0.027 A 
ATOM     11  C   UNL A   1      30.193  29.502  23.253  1.00  0.00     0.036 A 
ATOM     12  C   UNL A   1      27.651  28.424  22.861  1.00  0.00     0.029 A 
ATOM     13  C   UNL A   1      29.963  28.185  23.727  1.00  0.00     0.014 A 
ATOM     14  C   UNL A   1      28.666  27.693  23.491  1.00  0.00     0.046 A 
ATOM     15  N   UNL A   1      28.607  26.419  23.984  1.00  0.00    -0.360 N 
ATOM     16  C   UNL A   1      29.800  26.081  24.530  1.00  0.00     0.097 A 
ATOM     17  H   UNL A   1      27.815  25.835  23.947  1.00  0.00     0.166 HD
BRANCH   9  18
ATOM     18  N   UNL A   1      29.502  31.508  22.079  1.00  0.00    -0.399 N 
ATOM     19  H   UNL A   1      30.362  31.938  22.290  1.00  0.00     0.156 HD
ATOM     20  H   UNL A   1      28.858  31.961  21.489  1.00  0.00     0.156 HD
ENDBRANCH   9  18
ENDBRANCH   5   8
ENDBRANCH   3   4
ENDBRANCH   2   3
ENDBRANCH   1   2
BRANCH   1  21
ATOM     21  N   UNL A   1      33.978  31.188  28.171  1.00  0.00    -0.352 N 
ATOM     22  C   UNL A   1      34.941  31.610  29.046  1.00  0.00     0.251 C 
ATOM     23  H   UNL A   1      33.186  31.772  28.188  1.00  0.00     0.163 HD
ATOM     24  O   UNL A   1      34.641  32.601  29.717  1.00  0.00    -0.269 OA
BRANCH  22  25
ATOM     25  C   UNL A   1      36.266  30.967  29.265  1.00  0.00     0.039 A 
ATOM     26  C   UNL A   1      37.505  31.526  28.952  1.00  0.00     0.014 A 
ATOM     27  C   UNL A   1      36.237  29.670  29.820  1.00  0.00     0.014 A 
ATOM     28  C   UNL A   1      38.674  30.789  29.134  1.00  0.00     0.010 A 
ATOM     29  C   UNL A   1      37.404  28.937  30.017  1.00  0.00     0.010 A 
ATOM     30  C   UNL A   1      38.623  29.486  29.640  1.00  0.00    -0.014 A 
BRANCH  30  31
ATOM     31  C   UNL A   1      39.888  28.785  29.845  1.00  0.00     0.031 A 
ATOM     32  C   UNL A   1      40.399  28.814  31.244  1.00  0.00     0.074 A 
ATOM     33  C   UNL A   1      40.536  28.088  28.889  1.00  0.00     0.049 A 
ATOM     34  N   UNL A   1      41.445  29.430  31.693  1.00  0.00    -0.248 NA
ATOM     35  C   UNL A   1      39.582  28.176  32.286  1.00  0.00     0.031 C 
ATOM     36  C   UNL A   1      40.034  27.713  27.565  1.00  0.00     0.029 A 
ATOM     37  N   UNL A   1      41.752  27.464  28.950  1.00  0.00    -0.354 N 
ATOM     38  C   UNL A   1      41.538  29.075  33.037  1.00  0.00     0.074 A 
ATOM     39  C   UNL A   1      40.294  28.437  33.384  1.00  0.00     0.031 C 
ATOM     40  C   UNL A   1      40.821  26.739  27.052  1.00  0.00     0.029 A 
ATOM     41  C   UNL A   1      41.957  26.537  27.933  1.00  0.00     0.049 A 
ATOM     42  H   UNL A   1      42.419  27.654  29.648  1.00  0.00     0.167 HD
ATOM     43  C   UNL A   1      42.720  29.109  33.710  1.00  0.00     0.034 A 
ATOM     44  C   UNL A   1      42.962  25.632  27.864  1.00  0.00     0.034 A 
ATOM     45  C   UNL A   1      43.746  29.791  32.977  1.00  0.00     0.049 A 
ATOM     46  C   UNL A   1      44.085  26.160  28.671  1.00  0.00     0.074 A 
ATOM     47  C   UNL A   1      44.080  31.091  32.679  1.00  0.00     0.029 A 
ATOM     48  N   UNL A   1      44.453  28.976  32.137  1.00  0.00    -0.354 N 
ATOM     49  N   UNL A   1      44.751  27.238  28.366  1.00  0.00    -0.248 NA
ATOM     50  C   UNL A   1      44.344  25.617  29.999  1.00  0.00     0.031 C 
ATOM     51  C   UNL A   1      44.839  31.031  31.472  1.00  0.00     0.029 A 
ATOM     52  C   UNL A   1      44.949  29.697  31.085  1.00  0.00     0.049 A 
ATOM     53  H   UNL A   1      44.586  28.009  32.269  1.00  0.00     0.167 HD
ATOM     54  C   UNL A   1      45.165  27.733  29.586  1.00  0.00     0.074 A 
ATOM     55  C   UNL A   1      45.066  26.616  30.511  1.00  0.00     0.031 C 
ATOM     56  C   UNL A   1      45.228  29.074  29.810  1.00  0.00     0.034 A 
BRANCH  43  57
ATOM     57  C   UNL A   1      43.092  28.164  34.827  1.00  0.00     0.023 A 
ATOM     58  C   UNL A   1      43.526  28.715  36.052  1.00  0.00     0.012 A 
ATOM     59  C   UNL A   1      43.313  26.784  34.624  1.00  0.00     0.148 A 
ATOM     60  C   UNL A   1      44.146  27.926  37.030  1.00  0.00     0.002 A 
ATOM     61  C   UNL A   1      43.860  25.990  35.627  1.00  0.00     0.091 A 
ATOM     62  F   UNL A   1      43.128  26.259  33.407  1.00  0.00    -0.205 F 
ATOM     63  C   UNL A   1      44.297  26.560  36.825  1.00  0.00     0.022 A 
BRANCH  61  64
ATOM     64  S   UNL A   1      44.038  24.216  35.416  1.00  0.00     0.127 S 
ATOM     65  O   UNL A   1      42.654  23.815  35.153  1.00  0.00    -0.237 OA
ATOM     66  O   UNL A   1      44.930  24.142  34.255  1.00  0.00    -0.237 OA
ATOM     67  O   UNL A   1      44.625  23.739  36.651  1.00  0.00    -0.744 OA
ENDBRANCH  61  64
ENDBRANCH  43  57
BRANCH  44  68
ATOM     68  C   UNL A   1      42.990  24.246  27.333  1.00  0.00     0.023 A 
ATOM     69  C   UNL A   1      41.804  23.480  27.382  1.00  0.00     0.012 A 
ATOM     70  C   UNL A   1      44.034  23.795  26.499  1.00  0.00     0.148 A 
ATOM     71  C   UNL A   1      41.625  22.364  26.558  1.00  0.00     0.002 A 
ATOM     72  C   UNL A   1      43.855  22.674  25.689  1.00  0.00     0.091 A 
ATOM     73  F   UNL A   1      45.160  24.513  26.414  1.00  0.00    -0.205 F 
ATOM     74  C   UNL A   1      42.643  21.973  25.698  1.00  0.00     0.022 A 
BRANCH  72  75
ATOM     75  S   UNL A   1      45.132  22.120  24.552  1.00  0.00     0.127 S 
ATOM     76  O   UNL A   1      46.237  21.798  25.458  1.00  0.00    -0.237 OA
ATOM     77  O   UNL A   1      44.499  20.965  23.924  1.00  0.00    -0.237 OA
ATOM     78  O   UNL A   1      45.394  23.259  23.680  1.00  0.00    -0.744 OA
ENDBRANCH  72  75
ENDBRANCH  44  68
BRANCH  56  79
ATOM     79  C   UNL A   1      45.356  29.973  28.618  1.00  0.00     0.023 A 
ATOM     80  C   UNL A   1      44.241  30.417  27.882  1.00  0.00     0.012 A 
ATOM     81  C   UNL A   1      46.630  30.480  28.319  1.00  0.00     0.148 A 
ATOM     82  C   UNL A   1      44.399  31.352  26.855  1.00  0.00     0.002 A 
ATOM     83  C   UNL A   1      46.777  31.438  27.328  1.00  0.00     0.091 A 
ATOM     84  F   UNL A   1      47.671  30.038  29.041  1.00  0.00    -0.205 F 
ATOM     85  C   UNL A   1      45.666  31.871  26.587  1.00  0.00     0.022 A 
BRANCH  83  86
ATOM     86  S   UNL A   1      48.354  32.229  27.004  1.00  0.00     0.127 S 
ATOM     87  O   UNL A   1      48.023  33.139  25.910  1.00  0.00    -0.237 OA
ATOM     88  O   UNL A   1      48.635  32.884  28.282  1.00  0.00    -0.237 OA
ATOM     89  O   UNL A   1      49.283  31.158  26.663  1.00  0.00    -0.744 OA
ENDBRANCH  83  86
ENDBRANCH  56  79
ENDBRANCH  30  31
ENDBRANCH  22  25
ENDBRANCH   1  21
TORSDOF 14
ENDMDL
MODEL 3
REMARK VINA RESULT:     -11.5      3.264     11.714
REMARK SMILES Nc1ccc2[nH]cc(C(=O)NCCCNC(=O)c3ccc(-c4c5nc(c(-c6cccc(S(=O)(=O)[O-])c6F)c6ccc([nH]6)c(-c6cccc(S(=O)(=O)[O-])c6F)c6nc(c(-c7cccc(S(=O)(=O)[O-])c7F)c7ccc4[nH]7)C=C6)C=C5)cc3)c2c1
REMARK SMILES IDX 14 1 13 2 12 3 11 4 9 5 10 6 8 8 2 9 3 10 82 11 4 12 81 13
REMARK SMILES IDX 5 14 6 15 7 16 1 18 15 21 16 22 17 24 18 25 19 26 80 27
REMARK SMILES IDX 20 28 79 29 21 30 22 31 23 32 73 33 24 34 78 35 72 36 74 37
REMARK SMILES IDX 25 38 77 39 71 40 70 41 26 43 58 44 38 45 57 46 39 47 42 48
REMARK SMILES IDX 56 49 75 50 40 51 41 52 55 54 76 55 43 56 27 57 28 58 36 59
REMARK SMILES IDX 29 60 31 61 37 62 30 63 32 64 33 65 34 66 35 67 59 68 60 69
REMARK SMILES IDX 68 70 61 71 63 72 69 73 62 74 64 75 65 76 66 77 67 78 44 79
REMARK SMILES IDX 45 80 53 81 46 82 48 83 54 84 47 85 49 86 50 87 51 88 52 89
REMARK H PARENT 11 7 6 17 1 19 1 20 15 23 74 42 42 53
REMARK Flexibility Score: inf
ROOT
ATOM      1  C   UNL A   1      41.495  20.525  26.462  1.00  0.00     0.118 C 
ENDROOT
BRANCH   1   2
ATOM      2  C   UNL A   1      41.947  19.117  26.061  1.00  0.00     0.042 C 
BRANCH   2   3
ATOM      3  C   UNL A   1      43.108  18.598  26.917  1.00  0.00     0.118 C 
BRANCH   3   4
ATOM      4  N   UNL A   1      44.278  18.308  26.131  1.00  0.00    -0.352 N 
ATOM      5  C   UNL A   1      45.116  19.062  25.361  1.00  0.00     0.253 C 
ATOM      6  O   UNL A   1      46.136  18.450  25.014  1.00  0.00    -0.269 OA
ATOM      7  H   UNL A   1      44.530  17.357  26.152  1.00  0.00     0.163 HD
BRANCH   5   8
ATOM      8  C   UNL A   1      44.910  20.455  24.920  1.00  0.00     0.065 A 
ATOM      9  C   UNL A   1      44.529  23.738  27.009  1.00  0.00     0.032 A 
ATOM     10  C   UNL A   1      44.289  24.560  25.919  1.00  0.00     0.027 A 
ATOM     11  C   UNL A   1      44.766  22.368  26.796  1.00  0.00     0.036 A 
ATOM     12  C   UNL A   1      44.256  24.044  24.627  1.00  0.00     0.029 A 
ATOM     13  C   UNL A   1      44.750  21.778  25.506  1.00  0.00     0.014 A 
ATOM     14  C   UNL A   1      44.498  22.675  24.453  1.00  0.00     0.046 A 
ATOM     15  N   UNL A   1      44.533  21.967  23.283  1.00  0.00    -0.360 N 
ATOM     16  C   UNL A   1      44.785  20.662  23.544  1.00  0.00     0.097 A 
ATOM     17  H   UNL A   1      44.394  22.350  22.386  1.00  0.00     0.166 HD
BRANCH   9  18
ATOM     18  N   UNL A   1      44.658  24.284  28.278  1.00  0.00    -0.399 N 
ATOM     19  H   UNL A   1      45.387  23.988  28.869  1.00  0.00     0.156 HD
ATOM     20  H   UNL A   1      44.019  24.965  28.588  1.00  0.00     0.156 HD
ENDBRANCH   9  18
ENDBRANCH   5   8
ENDBRANCH   3   4
ENDBRANCH   2   3
ENDBRANCH   1   2
BRANCH   1  21
ATOM     21  N   UNL A   1      40.103  20.784  26.140  1.00  0.00    -0.352 N 
ATOM     22  C   UNL A   1      39.249  21.846  26.249  1.00  0.00     0.251 C 
ATOM     23  H   UNL A   1      39.664  19.998  25.743  1.00  0.00     0.163 HD
ATOM     24  O   UNL A   1      38.093  21.627  25.876  1.00  0.00    -0.269 OA
BRANCH  22  25
ATOM     25  C   UNL A   1      39.587  23.191  26.792  1.00  0.00     0.039 A 
ATOM     26  C   UNL A   1      38.920  24.380  26.500  1.00  0.00     0.014 A 
ATOM     27  C   UNL A   1      40.698  23.241  27.660  1.00  0.00     0.014 A 
ATOM     28  C   UNL A   1      39.384  25.590  27.012  1.00  0.00     0.010 A 
ATOM     29  C   UNL A   1      41.155  24.446  28.187  1.00  0.00     0.010 A 
ATOM     30  C   UNL A   1      40.516  25.628  27.833  1.00  0.00    -0.014 A 
BRANCH  30  31
ATOM     31  C   UNL A   1      40.923  26.923  28.371  1.00  0.00     0.031 A 
ATOM     32  C   UNL A   1      42.257  27.401  27.911  1.00  0.00     0.074 A 
ATOM     33  C   UNL A   1      40.151  27.696  29.163  1.00  0.00     0.049 A 
ATOM     34  N   UNL A   1      43.338  27.528  28.612  1.00  0.00    -0.248 NA
ATOM     35  C   UNL A   1      42.437  27.653  26.474  1.00  0.00     0.031 C 
ATOM     36  C   UNL A   1      38.727  27.522  29.462  1.00  0.00     0.029 A 
ATOM     37  N   UNL A   1      40.457  28.878  29.779  1.00  0.00    -0.354 N 
ATOM     38  C   UNL A   1      44.277  28.088  27.747  1.00  0.00     0.074 A 
ATOM     39  C   UNL A   1      43.725  27.998  26.420  1.00  0.00     0.031 C 
ATOM     40  C   UNL A   1      38.242  28.669  29.990  1.00  0.00     0.029 A 
ATOM     41  C   UNL A   1      39.342  29.592  30.208  1.00  0.00     0.049 A 
ATOM     42  H   UNL A   1      41.380  29.194  29.907  1.00  0.00     0.167 HD
ATOM     43  C   UNL A   1      45.338  28.807  28.205  1.00  0.00     0.034 A 
ATOM     44  C   UNL A   1      39.331  30.871  30.651  1.00  0.00     0.034 A 
ATOM     45  C   UNL A   1      45.511  28.680  29.623  1.00  0.00     0.049 A 
ATOM     46  C   UNL A   1      40.687  31.171  31.160  1.00  0.00     0.074 A 
ATOM     47  C   UNL A   1      45.994  27.740  30.502  1.00  0.00     0.029 A 
ATOM     48  N   UNL A   1      44.804  29.601  30.346  1.00  0.00    -0.354 N 
ATOM     49  N   UNL A   1      41.212  30.592  32.204  1.00  0.00    -0.248 NA
ATOM     50  C   UNL A   1      41.604  31.973  30.359  1.00  0.00     0.031 C 
ATOM     51  C   UNL A   1      45.353  28.005  31.748  1.00  0.00     0.029 A 
ATOM     52  C   UNL A   1      44.513  29.105  31.587  1.00  0.00     0.049 A 
ATOM     53  H   UNL A   1      44.541  30.492  30.020  1.00  0.00     0.167 HD
ATOM     54  C   UNL A   1      42.569  30.603  31.945  1.00  0.00     0.074 A 
ATOM     55  C   UNL A   1      42.761  31.621  30.925  1.00  0.00     0.031 C 
ATOM     56  C   UNL A   1      43.361  29.565  32.331  1.00  0.00     0.034 A 
BRANCH  43  57
ATOM     57  C   UNL A   1      45.962  29.967  27.470  1.00  0.00     0.023 A 
ATOM     58  C   UNL A   1      47.363  30.127  27.540  1.00  0.00     0.012 A 
ATOM     59  C   UNL A   1      45.211  31.055  26.971  1.00  0.00     0.148 A 
ATOM     60  C   UNL A   1      47.985  31.313  27.127  1.00  0.00     0.002 A 
ATOM     61  C   UNL A   1      45.839  32.200  26.492  1.00  0.00     0.091 A 
ATOM     62  F   UNL A   1      43.878  31.044  27.089  1.00  0.00    -0.205 F 
ATOM     63  C   UNL A   1      47.224  32.343  26.587  1.00  0.00     0.022 A 
BRANCH  61  64
ATOM     64  S   UNL A   1      44.895  33.537  25.752  1.00  0.00     0.127 S 
ATOM     65  O   UNL A   1      45.964  34.432  25.302  1.00  0.00    -0.237 OA
ATOM     66  O   UNL A   1      44.184  32.840  24.677  1.00  0.00    -0.237 OA
ATOM     67  O   UNL A   1      44.040  34.034  26.810  1.00  0.00    -0.744 OA
ENDBRANCH  61  64
ENDBRANCH  43  57
BRANCH  44  68
ATOM     68  C   UNL A   1      38.317  31.946  30.498  1.00  0.00     0.023 A 
ATOM     69  C   UNL A   1      37.662  32.085  29.254  1.00  0.00     0.012 A 
ATOM     70  C   UNL A   1      37.758  32.599  31.616  1.00  0.00     0.148 A 
ATOM     71  C   UNL A   1      36.443  32.762  29.147  1.00  0.00     0.002 A 
ATOM     72  C   UNL A   1      36.550  33.284  31.501  1.00  0.00     0.091 A 
ATOM     73  F   UNL A   1      38.345  32.465  32.812  1.00  0.00    -0.205 F 
ATOM     74  C   UNL A   1      35.878  33.345  30.274  1.00  0.00     0.022 A 
BRANCH  72  75
ATOM     75  S   UNL A   1      35.765  34.056  32.922  1.00  0.00     0.127 S 
ATOM     76  O   UNL A   1      34.628  34.747  32.312  1.00  0.00    -0.237 OA
ATOM     77  O   UNL A   1      35.412  32.900  33.739  1.00  0.00    -0.237 OA
ATOM     78  O   UNL A   1      36.772  34.951  33.480  1.00  0.00    -0.744 OA
ENDBRANCH  72  75
ENDBRANCH  44  68
BRANCH  56  79
ATOM     79  C   UNL A   1      42.876  28.701  33.455  1.00  0.00     0.023 A 
ATOM     80  C   UNL A   1      41.844  27.756  33.293  1.00  0.00     0.012 A 
ATOM     81  C   UNL A   1      43.575  28.762  34.671  1.00  0.00     0.148 A 
ATOM     82  C   UNL A   1      41.511  26.888  34.335  1.00  0.00     0.002 A 
ATOM     83  C   UNL A   1      43.269  27.871  35.688  1.00  0.00     0.091 A 
ATOM     84  F   UNL A   1      44.553  29.671  34.792  1.00  0.00    -0.205 F 
ATOM     85  C   UNL A   1      42.233  26.937  35.528  1.00  0.00     0.022 A 
BRANCH  83  86
ATOM     86  S   UNL A   1      44.225  27.804  37.204  1.00  0.00     0.127 S 
ATOM     87  O   UNL A   1      43.539  26.755  37.954  1.00  0.00    -0.237 OA
ATOM     88  O   UNL A   1      45.553  27.436  36.712  1.00  0.00    -0.237 OA
ATOM     89  O   UNL A   1      44.152  29.137  37.790  1.00  0.00    -0.744 OA
ENDBRANCH  83  86
ENDBRANCH  56  79
ENDBRANCH  30  31
ENDBRANCH  22  25
ENDBRANCH   1  21
TORSDOF 14
ENDMDL
