MODEL 1
REMARK VINA RESULT:     -11.1      0.000      0.000
REMARK SMILES CCCNC(=O)[C@H](C)Oc1c(F)cc(C(=O)NCCCNC(=O)c2ccc(-c3c4nc(c(-c5cccc(S(=O)(=O)[O-])c5F)c5ccc([nH]5)c(-c5cccc(S(=O)(=O)[O-])c5F)c5nc(c(-c6cccc(S(=O)(=O)[O-])c6F)c6ccc3[nH]6)C=C5)C=C4)cc2)cc1F
REMARK SMILES IDX 18 1 17 2 15 3 16 4 14 6 10 7 11 8 88 9 12 10 13 11 87 12
REMARK SMILES IDX 89 13 9 14 7 15 8 16 5 17 4 18 6 20 3 21 2 22 1 23 19 24
REMARK SMILES IDX 20 25 21 26 22 27 23 29 24 30 25 31 86 32 26 33 85 34 27 35
REMARK SMILES IDX 28 36 29 37 79 38 30 39 84 40 78 41 80 42 31 43 83 44 77 45
REMARK SMILES IDX 76 46 32 48 64 49 44 50 63 51 45 52 48 53 62 54 81 55 46 56
REMARK SMILES IDX 47 57 61 59 82 60 49 61 33 62 34 63 42 64 35 65 37 66 43 67
REMARK SMILES IDX 36 68 38 69 39 70 40 71 41 72 65 73 66 74 74 75 67 76 69 77
REMARK SMILES IDX 75 78 68 79 70 80 71 81 72 82 73 83 50 84 51 85 59 86 52 87
REMARK SMILES IDX 54 88 60 89 53 90 55 91 56 92 57 93 58 94
REMARK H PARENT 17 5 4 19 21 28 80 47 48 58
REMARK Flexibility Score: inf
ROOT
ATOM      1  C   UNL A   1      31.404  30.718  25.677  1.00  0.00     0.118 C 
ENDROOT
BRANCH   1   2
ATOM      2  N   UNL A   1      30.415  30.813  24.615  1.00  0.00    -0.352 N 
ATOM      3  C   UNL A   1      30.106  29.967  23.578  1.00  0.00     0.251 C 
ATOM      4  O   UNL A   1      29.105  30.211  22.906  1.00  0.00    -0.269 OA
ATOM      5  H   UNL A   1      29.867  31.631  24.645  1.00  0.00     0.163 HD
BRANCH   3   6
ATOM      6  C   UNL A   1      30.911  28.758  23.256  1.00  0.00     0.045 A 
ATOM      7  C   UNL A   1      32.535  26.521  22.648  1.00  0.00     0.191 A 
ATOM      8  C   UNL A   1      31.182  26.378  22.934  1.00  0.00     0.168 A 
ATOM      9  C   UNL A   1      33.085  27.796  22.774  1.00  0.00     0.168 A 
ATOM     10  F   UNL A   1      30.608  25.170  22.996  1.00  0.00    -0.203 F 
ATOM     11  C   UNL A   1      30.378  27.473  23.232  1.00  0.00     0.057 A 
ATOM     12  C   UNL A   1      32.289  28.908  23.064  1.00  0.00     0.057 A 
ATOM     13  F   UNL A   1      34.410  27.972  22.647  1.00  0.00    -0.203 F 
BRANCH   7  14
ATOM     14  O   UNL A   1      33.366  25.456  22.450  1.00  0.00    -0.475 OA
BRANCH  14  15
ATOM     15  C   UNL A   1      33.413  24.435  23.457  1.00  0.00     0.259 C 
ATOM     16  C   UNL A   1      33.647  23.040  22.876  1.00  0.00     0.064 C 
BRANCH  15  17
ATOM     17  C   UNL A   1      34.299  24.673  24.712  1.00  0.00     0.260 C 
ATOM     18  N   UNL A   1      33.744  25.208  25.848  1.00  0.00    -0.353 N 
ATOM     19  H   UNL A   1      34.377  25.363  26.587  1.00  0.00     0.163 HD
ATOM     20  O   UNL A   1      35.505  24.423  24.741  1.00  0.00    -0.271 OA
BRANCH  18  21
ATOM     21  C   UNL A   1      32.368  25.580  26.132  1.00  0.00     0.115 C 
BRANCH  21  22
ATOM     22  C   UNL A   1      32.255  27.051  26.541  1.00  0.00     0.018 C 
ATOM     23  C   UNL A   1      33.585  27.783  26.453  1.00  0.00     0.006 C 
ENDBRANCH  21  22
ENDBRANCH  18  21
ENDBRANCH  15  17
ENDBRANCH  14  15
ENDBRANCH   7  14
ENDBRANCH   3   6
ENDBRANCH   1   2
BRANCH   1  24
ATOM     24  C   UNL A   1      31.297  31.876  26.669  1.00  0.00     0.042 C 
BRANCH  24  25
ATOM     25  C   UNL A   1      32.641  32.453  27.099  1.00  0.00     0.118 C 
BRANCH  25  26
ATOM     26  N   UNL A   1      32.528  33.836  27.536  1.00  0.00    -0.352 N 
ATOM     27  C   UNL A   1      33.168  34.495  28.556  1.00  0.00     0.251 C 
ATOM     28  H   UNL A   1      31.894  34.386  27.019  1.00  0.00     0.163 HD
ATOM     29  O   UNL A   1      32.762  35.604  28.898  1.00  0.00    -0.269 OA
BRANCH  27  30
ATOM     30  C   UNL A   1      34.328  33.887  29.247  1.00  0.00     0.039 A 
ATOM     31  C   UNL A   1      35.614  34.318  28.909  1.00  0.00     0.014 A 
ATOM     32  C   UNL A   1      34.162  32.862  30.182  1.00  0.00     0.014 A 
ATOM     33  C   UNL A   1      36.727  33.756  29.541  1.00  0.00     0.010 A 
ATOM     34  C   UNL A   1      35.265  32.358  30.867  1.00  0.00     0.010 A 
ATOM     35  C   UNL A   1      36.561  32.787  30.544  1.00  0.00    -0.014 A 
BRANCH  35  36
ATOM     36  C   UNL A   1      37.725  32.210  31.262  1.00  0.00     0.031 A 
ATOM     37  C   UNL A   1      38.507  31.076  30.652  1.00  0.00     0.074 A 
ATOM     38  C   UNL A   1      38.025  32.649  32.501  1.00  0.00     0.049 A 
ATOM     39  N   UNL A   1      39.506  30.399  31.155  1.00  0.00    -0.248 NA
ATOM     40  C   UNL A   1      38.094  30.625  29.312  1.00  0.00     0.031 C 
ATOM     41  C   UNL A   1      37.296  33.689  33.229  1.00  0.00     0.029 A 
ATOM     42  N   UNL A   1      39.004  32.253  33.379  1.00  0.00    -0.354 N 
ATOM     43  C   UNL A   1      39.816  29.422  30.215  1.00  0.00     0.074 A 
ATOM     44  C   UNL A   1      38.877  29.573  29.126  1.00  0.00     0.031 C 
ATOM     45  C   UNL A   1      37.853  33.852  34.440  1.00  0.00     0.029 A 
ATOM     46  C   UNL A   1      38.956  32.909  34.587  1.00  0.00     0.049 A 
ATOM     47  H   UNL A   1      39.675  31.567  33.165  1.00  0.00     0.167 HD
ATOM     48  C   UNL A   1      40.810  28.502  30.241  1.00  0.00     0.034 A 
ATOM     49  C   UNL A   1      39.712  32.762  35.693  1.00  0.00     0.034 A 
ATOM     50  C   UNL A   1      41.768  28.386  31.307  1.00  0.00     0.049 A 
ATOM     51  C   UNL A   1      40.835  31.759  35.681  1.00  0.00     0.074 A 
ATOM     52  C   UNL A   1      42.864  27.546  31.392  1.00  0.00     0.029 A 
ATOM     53  N   UNL A   1      41.744  29.130  32.478  1.00  0.00    -0.354 N 
ATOM     54  N   UNL A   1      41.208  30.951  34.718  1.00  0.00    -0.248 NA
ATOM     55  C   UNL A   1      41.664  31.676  36.891  1.00  0.00     0.031 C 
ATOM     56  C   UNL A   1      43.491  27.767  32.623  1.00  0.00     0.029 A 
ATOM     57  C   UNL A   1      42.800  28.764  33.294  1.00  0.00     0.049 A 
ATOM     58  H   UNL A   1      41.073  29.817  32.696  1.00  0.00     0.167 HD
ATOM     59  C   UNL A   1      42.335  30.290  35.191  1.00  0.00     0.074 A 
ATOM     60  C   UNL A   1      42.596  30.809  36.518  1.00  0.00     0.031 C 
ATOM     61  C   UNL A   1      43.079  29.330  34.589  1.00  0.00     0.034 A 
BRANCH  48  62
ATOM     62  C   UNL A   1      40.947  27.583  29.054  1.00  0.00     0.023 A 
ATOM     63  C   UNL A   1      40.168  26.409  28.993  1.00  0.00     0.012 A 
ATOM     64  C   UNL A   1      41.796  27.904  27.978  1.00  0.00     0.148 A 
ATOM     65  C   UNL A   1      40.260  25.550  27.898  1.00  0.00     0.002 A 
ATOM     66  C   UNL A   1      41.849  27.067  26.869  1.00  0.00     0.091 A 
ATOM     67  F   UNL A   1      42.543  29.014  28.061  1.00  0.00    -0.205 F 
ATOM     68  C   UNL A   1      41.092  25.884  26.832  1.00  0.00     0.022 A 
BRANCH  66  69
ATOM     69  S   UNL A   1      42.826  27.448  25.410  1.00  0.00     0.127 S 
ATOM     70  O   UNL A   1      42.564  26.281  24.567  1.00  0.00    -0.237 OA
ATOM     71  O   UNL A   1      42.209  28.689  24.942  1.00  0.00    -0.237 OA
ATOM     72  O   UNL A   1      44.199  27.588  25.872  1.00  0.00    -0.744 OA
ENDBRANCH  66  69
ENDBRANCH  48  62
BRANCH  49  73
ATOM     73  C   UNL A   1      39.476  33.633  36.879  1.00  0.00     0.023 A 
ATOM     74  C   UNL A   1      39.885  34.980  36.838  1.00  0.00     0.012 A 
ATOM     75  C   UNL A   1      38.827  33.148  38.031  1.00  0.00     0.148 A 
ATOM     76  C   UNL A   1      39.684  35.820  37.934  1.00  0.00     0.002 A 
ATOM     77  C   UNL A   1      38.578  34.005  39.097  1.00  0.00     0.091 A 
ATOM     78  F   UNL A   1      38.453  31.861  38.056  1.00  0.00    -0.205 F 
ATOM     79  C   UNL A   1      39.022  35.335  39.059  1.00  0.00     0.022 A 
BRANCH  77  80
ATOM     80  S   UNL A   1      37.616  33.506  40.531  1.00  0.00     0.127 S 
ATOM     81  O   UNL A   1      36.385  33.024  39.912  1.00  0.00    -0.237 OA
ATOM     82  O   UNL A   1      38.462  32.466  41.116  1.00  0.00    -0.237 OA
ATOM     83  O   UNL A   1      37.487  34.704  41.351  1.00  0.00    -0.744 OA
ENDBRANCH  77  80
ENDBRANCH  49  73
BRANCH  61  84
ATOM     84  C   UNL A   1      44.275  28.800  35.336  1.00  0.00     0.023 A 
ATOM     85  C   UNL A   1      45.544  29.374  35.127  1.00  0.00     0.012 A 
ATOM     86  C   UNL A   1      44.125  27.783  36.299  1.00  0.00     0.148 A 
ATOM     87  C   UNL A   1      46.652  28.922  35.842  1.00  0.00     0.002 A 
ATOM     88  C   UNL A   1      45.224  27.372  37.044  1.00  0.00     0.091 A 
ATOM     89  F   UNL A   1      42.912  27.237  36.470  1.00  0.00    -0.205 F 
ATOM     90  C   UNL A   1      46.490  27.931  36.809  1.00  0.00     0.022 A 
BRANCH  88  91
ATOM     91  S   UNL A   1      45.091  26.174  38.376  1.00  0.00     0.127 S 
ATOM     92  O   UNL A   1      44.638  24.983  37.659  1.00  0.00    -0.237 OA
ATOM     93  O   UNL A   1      46.467  26.103  38.868  1.00  0.00    -0.237 OA
ATOM     94  O   UNL A   1      44.137  26.733  39.325  1.00  0.00    -0.744 OA
ENDBRANCH  88  91
ENDBRANCH  61  84
ENDBRANCH  35  36
ENDBRANCH  27  30
ENDBRANCH  25  26
ENDBRANCH  24  25
ENDBRANCH   1  24
TORSDOF 18
ENDMDL
MODEL 2
REMARK VINA RESULT:     -11.0      2.497      8.310
REMARK SMILES CCCNC(=O)[C@H](C)Oc1c(F)cc(C(=O)NCCCNC(=O)c2ccc(-c3c4nc(c(-c5cccc(S(=O)(=O)[O-])c5F)c5ccc([nH]5)c(-c5cccc(S(=O)(=O)[O-])c5F)c5nc(c(-c6cccc(S(=O)(=O)[O-])c6F)c6ccc3[nH]6)C=C5)C=C4)cc2)cc1F
REMARK SMILES IDX 18 1 17 2 15 3 16 4 14 6 10 7 11 8 88 9 12 10 13 11 87 12
REMARK SMILES IDX 89 13 9 14 7 15 8 16 5 17 4 18 6 20 3 21 2 22 1 23 19 24
REMARK SMILES IDX 20 25 21 26 22 27 23 29 24 30 25 31 86 32 26 33 85 34 27 35
REMARK SMILES IDX 28 36 29 37 79 38 30 39 84 40 78 41 80 42 31 43 83 44 77 45
REMARK SMILES IDX 76 46 32 48 64 49 44 50 63 51 45 52 48 53 62 54 81 55 46 56
REMARK SMILES IDX 47 57 61 59 82 60 49 61 33 62 34 63 42 64 35 65 37 66 43 67
REMARK SMILES IDX 36 68 38 69 39 70 40 71 41 72 65 73 66 74 74 75 67 76 69 77
REMARK SMILES IDX 75 78 68 79 70 80 71 81 72 82 73 83 50 84 51 85 59 86 52 87
REMARK SMILES IDX 54 88 60 89 53 90 55 91 56 92 57 93 58 94
REMARK H PARENT 17 5 4 19 21 28 80 47 48 58
REMARK Flexibility Score: inf
ROOT
ATOM      1  C   UNL A   1      32.172  28.487  24.359  1.00  0.00     0.118 C 
ENDROOT
BRANCH   1   2
ATOM      2  N   UNL A   1      31.185  27.810  25.186  1.00  0.00    -0.352 N 
ATOM      3  C   UNL A   1      31.137  26.532  25.686  1.00  0.00     0.251 C 
ATOM      4  O   UNL A   1      30.257  26.258  26.501  1.00  0.00    -0.269 OA
ATOM      5  H   UNL A   1      30.412  28.368  25.430  1.00  0.00     0.163 HD
BRANCH   3   6
ATOM      6  C   UNL A   1      32.120  25.480  25.310  1.00  0.00     0.045 A 
ATOM      7  C   UNL A   1      33.913  23.438  24.520  1.00  0.00     0.191 A 
ATOM      8  C   UNL A   1      34.319  24.479  25.347  1.00  0.00     0.168 A 
ATOM      9  C   UNL A   1      32.617  23.494  24.009  1.00  0.00     0.168 A 
ATOM     10  F   UNL A   1      35.591  24.592  25.750  1.00  0.00    -0.203 F 
ATOM     11  C   UNL A   1      33.443  25.485  25.740  1.00  0.00     0.057 A 
ATOM     12  C   UNL A   1      31.721  24.492  24.402  1.00  0.00     0.057 A 
ATOM     13  F   UNL A   1      32.214  22.593  23.098  1.00  0.00    -0.203 F 
BRANCH   7  14
ATOM     14  O   UNL A   1      34.776  22.495  24.040  1.00  0.00    -0.475 OA
BRANCH  14  15
ATOM     15  C   UNL A   1      35.092  21.374  24.879  1.00  0.00     0.259 C 
ATOM     16  C   UNL A   1      36.556  21.360  25.321  1.00  0.00     0.064 C 
BRANCH  15  17
ATOM     17  C   UNL A   1      34.145  21.049  26.067  1.00  0.00     0.260 C 
ATOM     18  N   UNL A   1      33.016  20.297  25.856  1.00  0.00    -0.353 N 
ATOM     19  H   UNL A   1      32.449  20.166  26.650  1.00  0.00     0.163 HD
ATOM     20  O   UNL A   1      34.344  21.454  27.215  1.00  0.00    -0.271 OA
BRANCH  18  21
ATOM     21  C   UNL A   1      32.527  19.664  24.642  1.00  0.00     0.115 C 
BRANCH  21  22
ATOM     22  C   UNL A   1      32.998  18.212  24.534  1.00  0.00     0.018 C 
ATOM     23  C   UNL A   1      32.531  17.361  25.705  1.00  0.00     0.006 C 
ENDBRANCH  21  22
ENDBRANCH  18  21
ENDBRANCH  15  17
ENDBRANCH  14  15
ENDBRANCH   7  14
ENDBRANCH   3   6
ENDBRANCH   1   2
BRANCH   1  24
ATOM     24  C   UNL A   1      33.014  29.478  25.162  1.00  0.00     0.042 C 
BRANCH  24  25
ATOM     25  C   UNL A   1      32.339  29.982  26.432  1.00  0.00     0.118 C 
BRANCH  25  26
ATOM     26  N   UNL A   1      32.389  31.433  26.539  1.00  0.00    -0.352 N 
ATOM     27  C   UNL A   1      33.210  32.235  27.292  1.00  0.00     0.251 C 
ATOM     28  H   UNL A   1      31.732  31.914  25.986  1.00  0.00     0.163 HD
ATOM     29  O   UNL A   1      32.938  33.428  27.406  1.00  0.00    -0.269 OA
BRANCH  27  30
ATOM     30  C   UNL A   1      34.407  31.681  27.966  1.00  0.00     0.039 A 
ATOM     31  C   UNL A   1      35.522  32.507  28.143  1.00  0.00     0.014 A 
ATOM     32  C   UNL A   1      34.459  30.347  28.376  1.00  0.00     0.014 A 
ATOM     33  C   UNL A   1      36.667  32.008  28.769  1.00  0.00     0.010 A 
ATOM     34  C   UNL A   1      35.570  29.873  29.069  1.00  0.00     0.010 A 
ATOM     35  C   UNL A   1      36.692  30.693  29.260  1.00  0.00    -0.014 A 
BRANCH  35  36
ATOM     36  C   UNL A   1      37.880  30.156  29.972  1.00  0.00     0.031 A 
ATOM     37  C   UNL A   1      38.190  30.603  31.376  1.00  0.00     0.074 A 
ATOM     38  C   UNL A   1      38.727  29.333  29.322  1.00  0.00     0.049 A 
ATOM     39  N   UNL A   1      39.214  30.301  32.131  1.00  0.00    -0.248 NA
ATOM     40  C   UNL A   1      37.239  31.535  32.005  1.00  0.00     0.031 C 
ATOM     41  C   UNL A   1      38.576  28.887  27.935  1.00  0.00     0.029 A 
ATOM     42  N   UNL A   1      39.900  28.748  29.732  1.00  0.00    -0.354 N 
ATOM     43  C   UNL A   1      39.052  31.030  33.304  1.00  0.00     0.074 A 
ATOM     44  C   UNL A   1      37.848  31.816  33.147  1.00  0.00     0.031 C 
ATOM     45  C   UNL A   1      39.613  28.098  27.611  1.00  0.00     0.029 A 
ATOM     46  C   UNL A   1      40.517  28.006  28.751  1.00  0.00     0.049 A 
ATOM     47  H   UNL A   1      40.264  28.849  30.640  1.00  0.00     0.167 HD
ATOM     48  C   UNL A   1      39.818  31.024  34.421  1.00  0.00     0.034 A 
ATOM     49  C   UNL A   1      41.684  27.334  28.767  1.00  0.00     0.034 A 
ATOM     50  C   UNL A   1      40.989  30.206  34.587  1.00  0.00     0.049 A 
ATOM     51  C   UNL A   1      42.496  27.312  30.035  1.00  0.00     0.074 A 
ATOM     52  C   UNL A   1      41.786  30.062  35.709  1.00  0.00     0.029 A 
ATOM     53  N   UNL A   1      41.535  29.397  33.603  1.00  0.00    -0.354 N 
ATOM     54  N   UNL A   1      42.243  27.886  31.186  1.00  0.00    -0.248 NA
ATOM     55  C   UNL A   1      43.733  26.519  30.018  1.00  0.00     0.031 C 
ATOM     56  C   UNL A   1      42.827  29.181  35.396  1.00  0.00     0.029 A 
ATOM     57  C   UNL A   1      42.662  28.756  34.087  1.00  0.00     0.049 A 
ATOM     58  H   UNL A   1      41.174  29.294  32.693  1.00  0.00     0.167 HD
ATOM     59  C   UNL A   1      43.267  27.495  32.041  1.00  0.00     0.074 A 
ATOM     60  C   UNL A   1      44.133  26.618  31.279  1.00  0.00     0.031 C 
ATOM     61  C   UNL A   1      43.481  27.841  33.333  1.00  0.00     0.034 A 
BRANCH  48  62
ATOM     62  C   UNL A   1      39.380  31.889  35.576  1.00  0.00     0.023 A 
ATOM     63  C   UNL A   1      39.757  33.248  35.607  1.00  0.00     0.012 A 
ATOM     64  C   UNL A   1      38.553  31.379  36.596  1.00  0.00     0.148 A 
ATOM     65  C   UNL A   1      39.350  34.075  36.653  1.00  0.00     0.002 A 
ATOM     66  C   UNL A   1      38.114  32.221  37.611  1.00  0.00     0.091 A 
ATOM     67  F   UNL A   1      38.220  30.081  36.561  1.00  0.00    -0.205 F 
ATOM     68  C   UNL A   1      38.522  33.566  37.649  1.00  0.00     0.022 A 
BRANCH  66  69
ATOM     69  S   UNL A   1      36.979  31.684  38.896  1.00  0.00     0.127 S 
ATOM     70  O   UNL A   1      37.820  31.777  40.090  1.00  0.00    -0.237 OA
ATOM     71  O   UNL A   1      35.922  32.693  38.815  1.00  0.00    -0.237 OA
ATOM     72  O   UNL A   1      36.564  30.338  38.528  1.00  0.00    -0.744 OA
ENDBRANCH  66  69
ENDBRANCH  48  62
BRANCH  49  73
ATOM     73  C   UNL A   1      42.121  26.568  27.565  1.00  0.00     0.023 A 
ATOM     74  C   UNL A   1      42.815  27.235  26.537  1.00  0.00     0.012 A 
ATOM     75  C   UNL A   1      41.882  25.185  27.447  1.00  0.00     0.148 A 
ATOM     76  C   UNL A   1      43.232  26.548  25.397  1.00  0.00     0.002 A 
ATOM     77  C   UNL A   1      42.351  24.495  26.335  1.00  0.00     0.091 A 
ATOM     78  F   UNL A   1      41.212  24.569  28.431  1.00  0.00    -0.205 F 
ATOM     79  C   UNL A   1      43.009  25.176  25.300  1.00  0.00     0.022 A 
BRANCH  77  80
ATOM     80  S   UNL A   1      42.228  22.708  26.187  1.00  0.00     0.127 S 
ATOM     81  O   UNL A   1      40.782  22.507  26.177  1.00  0.00    -0.237 OA
ATOM     82  O   UNL A   1      42.895  22.464  24.908  1.00  0.00    -0.237 OA
ATOM     83  O   UNL A   1      42.934  22.170  27.342  1.00  0.00    -0.744 OA
ENDBRANCH  77  80
ENDBRANCH  49  73
BRANCH  61  84
ATOM     84  C   UNL A   1      44.676  27.243  34.029  1.00  0.00     0.023 A 
ATOM     85  C   UNL A   1      45.919  27.903  33.981  1.00  0.00     0.012 A 
ATOM     86  C   UNL A   1      44.546  26.066  34.791  1.00  0.00     0.148 A 
ATOM     87  C   UNL A   1      47.024  27.383  34.655  1.00  0.00     0.002 A 
ATOM     88  C   UNL A   1      45.637  25.580  35.501  1.00  0.00     0.091 A 
ATOM     89  F   UNL A   1      43.359  25.442  34.809  1.00  0.00    -0.205 F 
ATOM     90  C   UNL A   1      46.880  26.230  35.424  1.00  0.00     0.022 A 
BRANCH  88  91
ATOM     91  S   UNL A   1      45.521  24.160  36.595  1.00  0.00     0.127 S 
ATOM     92  O   UNL A   1      45.178  23.091  35.658  1.00  0.00    -0.237 OA
ATOM     93  O   UNL A   1      46.874  24.079  37.144  1.00  0.00    -0.237 OA
ATOM     94  O   UNL A   1      44.491  24.490  37.572  1.00  0.00    -0.744 OA
ENDBRANCH  88  91
ENDBRANCH  61  84
ENDBRANCH  35  36
ENDBRANCH  27  30
ENDBRANCH  25  26
ENDBRANCH  24  25
ENDBRANCH   1  24
TORSDOF 18
ENDMDL
MODEL 3
REMARK VINA RESULT:     -10.9      2.527      3.440
REMARK SMILES CCCNC(=O)[C@H](C)Oc1c(F)cc(C(=O)NCCCNC(=O)c2ccc(-c3c4nc(c(-c5cccc(S(=O)(=O)[O-])c5F)c5ccc([nH]5)c(-c5cccc(S(=O)(=O)[O-])c5F)c5nc(c(-c6cccc(S(=O)(=O)[O-])c6F)c6ccc3[nH]6)C=C5)C=C4)cc2)cc1F
REMARK SMILES IDX 18 1 17 2 15 3 16 4 14 6 10 7 11 8 88 9 12 10 13 11 87 12
REMARK SMILES IDX 89 13 9 14 7 15 8 16 5 17 4 18 6 20 3 21 2 22 1 23 19 24
REMARK SMILES IDX 20 25 21 26 22 27 23 29 24 30 25 31 86 32 26 33 85 34 27 35
REMARK SMILES IDX 28 36 29 37 79 38 30 39 84 40 78 41 80 42 31 43 83 44 77 45
REMARK SMILES IDX 76 46 32 48 64 49 44 50 63 51 45 52 48 53 62 54 81 55 46 56
REMARK SMILES IDX 47 57 61 59 82 60 49 61 33 62 34 63 42 64 35 65 37 66 43 67
REMARK SMILES IDX 36 68 38 69 39 70 40 71 41 72 65 73 66 74 74 75 67 76 69 77
REMARK SMILES IDX 75 78 68 79 70 80 71 81 72 82 73 83 50 84 51 85 59 86 52 87
REMARK SMILES IDX 54 88 60 89 53 90 55 91 56 92 57 93 58 94
REMARK H PARENT 17 5 4 19 21 28 80 47 48 58
REMARK Flexibility Score: inf
ROOT
ATOM      1  C   UNL A   1      31.157  27.171  25.793  1.00  0.00     0.118 C 
ENDROOT
BRANCH   1   2
ATOM      2  N   UNL A   1      31.166  27.453  24.366  1.00  0.00    -0.352 N 
ATOM      3  C   UNL A   1      31.603  26.716  23.293  1.00  0.00     0.251 C 
ATOM      4  O   UNL A   1      31.346  27.124  22.162  1.00  0.00    -0.269 OA
ATOM      5  H   UNL A   1      30.791  28.331  24.126  1.00  0.00     0.163 HD
BRANCH   3   6
ATOM      6  C   UNL A   1      32.344  25.434  23.443  1.00  0.00     0.045 A 
ATOM      7  C   UNL A   1      33.663  22.942  23.687  1.00  0.00     0.191 A 
ATOM      8  C   UNL A   1      34.340  24.141  23.877  1.00  0.00     0.168 A 
ATOM      9  C   UNL A   1      32.334  23.014  23.269  1.00  0.00     0.168 A 
ATOM     10  F   UNL A   1      35.656  24.166  24.119  1.00  0.00    -0.203 F 
ATOM     11  C   UNL A   1      33.697  25.370  23.759  1.00  0.00     0.057 A 
ATOM     12  C   UNL A   1      31.672  24.240  23.156  1.00  0.00     0.057 A 
ATOM     13  F   UNL A   1      31.672  21.894  22.937  1.00  0.00    -0.203 F 
BRANCH   7  14
ATOM     14  O   UNL A   1      34.290  21.729  23.698  1.00  0.00    -0.475 OA
BRANCH  14  15
ATOM     15  C   UNL A   1      34.316  20.989  24.927  1.00  0.00     0.259 C 
ATOM     16  C   UNL A   1      34.405  19.478  24.708  1.00  0.00     0.064 C 
BRANCH  15  17
ATOM     17  C   UNL A   1      35.289  21.450  26.048  1.00  0.00     0.260 C 
ATOM     18  N   UNL A   1      34.790  21.927  27.234  1.00  0.00    -0.353 N 
ATOM     19  H   UNL A   1      35.469  22.234  27.878  1.00  0.00     0.163 HD
ATOM     20  O   UNL A   1      36.516  21.431  25.922  1.00  0.00    -0.271 OA
BRANCH  18  21
ATOM     21  C   UNL A   1      33.415  22.050  27.688  1.00  0.00     0.115 C 
BRANCH  21  22
ATOM     22  C   UNL A   1      32.773  23.351  27.200  1.00  0.00     0.018 C 
ATOM     23  C   UNL A   1      31.312  23.171  26.817  1.00  0.00     0.006 C 
ENDBRANCH  21  22
ENDBRANCH  18  21
ENDBRANCH  15  17
ENDBRANCH  14  15
ENDBRANCH   7  14
ENDBRANCH   3   6
ENDBRANCH   1   2
BRANCH   1  24
ATOM     24  C   UNL A   1      31.680  28.348  26.616  1.00  0.00     0.042 C 
BRANCH  24  25
ATOM     25  C   UNL A   1      32.627  29.268  25.854  1.00  0.00     0.118 C 
BRANCH  25  26
ATOM     26  N   UNL A   1      32.344  30.673  26.103  1.00  0.00    -0.352 N 
ATOM     27  C   UNL A   1      32.933  31.552  26.978  1.00  0.00     0.251 C 
ATOM     28  H   UNL A   1      31.616  31.054  25.559  1.00  0.00     0.163 HD
ATOM     29  O   UNL A   1      32.394  32.636  27.189  1.00  0.00    -0.269 OA
BRANCH  27  30
ATOM     30  C   UNL A   1      34.198  31.208  27.667  1.00  0.00     0.039 A 
ATOM     31  C   UNL A   1      35.178  32.196  27.807  1.00  0.00     0.014 A 
ATOM     32  C   UNL A   1      34.446  29.913  28.128  1.00  0.00     0.014 A 
ATOM     33  C   UNL A   1      36.384  31.896  28.447  1.00  0.00     0.010 A 
ATOM     34  C   UNL A   1      35.615  29.636  28.833  1.00  0.00     0.010 A 
ATOM     35  C   UNL A   1      36.603  30.619  28.988  1.00  0.00    -0.014 A 
BRANCH  35  36
ATOM     36  C   UNL A   1      37.856  30.292  29.714  1.00  0.00     0.031 A 
ATOM     37  C   UNL A   1      38.858  29.344  29.109  1.00  0.00     0.074 A 
ATOM     38  C   UNL A   1      38.051  30.779  30.955  1.00  0.00     0.049 A 
ATOM     39  N   UNL A   1      39.971  28.885  29.618  1.00  0.00    -0.248 NA
ATOM     40  C   UNL A   1      38.555  28.821  27.765  1.00  0.00     0.031 C 
ATOM     41  C   UNL A   1      37.119  31.646  31.680  1.00  0.00     0.029 A 
ATOM     42  N   UNL A   1      39.084  30.591  31.840  1.00  0.00    -0.354 N 
ATOM     43  C   UNL A   1      40.482  27.995  28.680  1.00  0.00     0.074 A 
ATOM     44  C   UNL A   1      39.539  27.953  27.584  1.00  0.00     0.031 C 
ATOM     45  C   UNL A   1      37.623  31.917  32.894  1.00  0.00     0.029 A 
ATOM     46  C   UNL A   1      38.895  31.221  33.049  1.00  0.00     0.049 A 
ATOM     47  H   UNL A   1      39.884  30.058  31.630  1.00  0.00     0.167 HD
ATOM     48  C   UNL A   1      41.644  27.299  28.712  1.00  0.00     0.034 A 
ATOM     49  C   UNL A   1      39.657  31.229  34.160  1.00  0.00     0.034 A 
ATOM     50  C   UNL A   1      42.598  27.379  29.784  1.00  0.00     0.049 A 
ATOM     51  C   UNL A   1      40.962  30.478  34.154  1.00  0.00     0.074 A 
ATOM     52  C   UNL A   1      43.842  26.782  29.876  1.00  0.00     0.029 A 
ATOM     53  N   UNL A   1      42.414  28.099  30.955  1.00  0.00    -0.354 N 
ATOM     54  N   UNL A   1      41.500  29.766  33.194  1.00  0.00    -0.248 NA
ATOM     55  C   UNL A   1      41.783  30.564  35.370  1.00  0.00     0.031 C 
ATOM     56  C   UNL A   1      44.402  27.123  31.112  1.00  0.00     0.029 A 
ATOM     57  C   UNL A   1      43.517  27.956  31.779  1.00  0.00     0.049 A 
ATOM     58  H   UNL A   1      41.615  28.633  31.170  1.00  0.00     0.167 HD
ATOM     59  C   UNL A   1      42.736  29.349  33.674  1.00  0.00     0.074 A 
ATOM     60  C   UNL A   1      42.876  29.908  35.003  1.00  0.00     0.031 C 
ATOM     61  C   UNL A   1      43.665  28.564  33.076  1.00  0.00     0.034 A 
BRANCH  48  62
ATOM     62  C   UNL A   1      41.974  26.430  27.525  1.00  0.00     0.023 A 
ATOM     63  C   UNL A   1      42.621  26.997  26.408  1.00  0.00     0.012 A 
ATOM     64  C   UNL A   1      41.700  25.048  27.535  1.00  0.00     0.148 A 
ATOM     65  C   UNL A   1      42.955  26.213  25.305  1.00  0.00     0.002 A 
ATOM     66  C   UNL A   1      42.078  24.263  26.451  1.00  0.00     0.091 A 
ATOM     67  F   UNL A   1      41.068  24.528  28.596  1.00  0.00    -0.205 F 
ATOM     68  C   UNL A   1      42.694  24.846  25.330  1.00  0.00     0.022 A 
BRANCH  66  69
ATOM     69  S   UNL A   1      41.859  22.481  26.419  1.00  0.00     0.127 S 
ATOM     70  O   UNL A   1      40.407  22.365  26.276  1.00  0.00    -0.237 OA
ATOM     71  O   UNL A   1      42.621  22.099  25.230  1.00  0.00    -0.237 OA
ATOM     72  O   UNL A   1      42.404  21.987  27.675  1.00  0.00    -0.744 OA
ENDBRANCH  66  69
ENDBRANCH  48  62
BRANCH  49  73
ATOM     73  C   UNL A   1      39.240  32.030  35.345  1.00  0.00     0.023 A 
ATOM     74  C   UNL A   1      38.402  31.444  36.314  1.00  0.00     0.012 A 
ATOM     75  C   UNL A   1      39.688  33.352  35.535  1.00  0.00     0.148 A 
ATOM     76  C   UNL A   1      37.989  32.169  37.432  1.00  0.00     0.002 A 
ATOM     77  C   UNL A   1      39.319  34.050  36.680  1.00  0.00     0.091 A 
ATOM     78  F   UNL A   1      40.477  33.896  34.598  1.00  0.00    -0.205 F 
ATOM     79  C   UNL A   1      38.456  33.468  37.620  1.00  0.00     0.022 A 
BRANCH  77  80
ATOM     80  S   UNL A   1      39.977  35.675  37.071  1.00  0.00     0.127 S 
ATOM     81  O   UNL A   1      39.291  35.983  38.322  1.00  0.00    -0.237 OA
ATOM     82  O   UNL A   1      41.408  35.400  37.202  1.00  0.00    -0.237 OA
ATOM     83  O   UNL A   1      39.633  36.521  35.935  1.00  0.00    -0.744 OA
ENDBRANCH  77  80
ENDBRANCH  49  73
BRANCH  61  84
ATOM     84  C   UNL A   1      44.939  28.289  33.832  1.00  0.00     0.023 A 
ATOM     85  C   UNL A   1      46.028  29.175  33.715  1.00  0.00     0.012 A 
ATOM     86  C   UNL A   1      45.028  27.194  34.712  1.00  0.00     0.148 A 
ATOM     87  C   UNL A   1      47.199  28.956  34.441  1.00  0.00     0.002 A 
ATOM     88  C   UNL A   1      46.178  27.010  35.470  1.00  0.00     0.091 A 
ATOM     89  F   UNL A   1      43.986  26.352  34.794  1.00  0.00    -0.205 F 
ATOM     90  C   UNL A   1      47.269  27.882  35.327  1.00  0.00     0.022 A 
BRANCH  88  91
ATOM     91  S   UNL A   1      46.320  25.714  36.705  1.00  0.00     0.127 S 
ATOM     92  O   UNL A   1      47.613  26.024  37.314  1.00  0.00    -0.237 OA
ATOM     93  O   UNL A   1      45.164  25.974  37.563  1.00  0.00    -0.237 OA
ATOM     94  O   UNL A   1      46.259  24.454  35.974  1.00  0.00    -0.744 OA
ENDBRANCH  88  91
ENDBRANCH  61  84
ENDBRANCH  35  36
ENDBRANCH  27  30
ENDBRANCH  25  26
ENDBRANCH  24  25
ENDBRANCH   1  24
TORSDOF 18
ENDMDL
