MODEL 1
REMARK VINA RESULT:     -13.0      0.000      0.000
REMARK SMILES Cc1cc2cc(-c3ccc([C@@H](C)C(=O)NCCCNC(=O)c4ccc(-c5c6nc(c(-c7cccc(S(=O)(=O)[O-])c7F)c7ccc([nH]7)c(-c7cccc(S(=O)(=O)[O-])c7F)c7nc(c(-c8cccc(S(=O)(=O)[O-])c8F)c8ccc5[nH]8)C=C7)C=C6)cc4)cc3)ccc2[nH]1
REMARK SMILES IDX 17 1 16 2 15 3 13 4 14 5 11 7 12 8 10 9 7 10 8 11 86 12 9 13
REMARK SMILES IDX 85 14 6 15 1 16 2 17 3 18 90 19 4 20 89 21 5 23 88 24 87 25
REMARK SMILES IDX 18 26 19 27 20 28 21 30 22 31 23 32 84 33 24 34 83 35 25 36
REMARK SMILES IDX 26 37 27 38 77 39 28 40 82 41 76 42 78 43 29 44 81 45 75 46
REMARK SMILES IDX 74 47 30 49 62 50 42 51 61 52 43 53 46 54 60 55 79 56 44 57
REMARK SMILES IDX 45 58 59 60 80 61 47 62 31 63 32 64 40 65 33 66 35 67 41 68
REMARK SMILES IDX 34 69 36 70 37 71 38 72 39 73 63 74 64 75 72 76 65 77 67 78
REMARK SMILES IDX 73 79 66 80 68 81 69 82 70 83 71 84 48 85 49 86 57 87 50 88
REMARK SMILES IDX 52 89 58 90 51 91 53 92 54 93 55 94 56 95
REMARK H PARENT 15 6 90 22 19 29 78 48 46 59
REMARK Flexibility Score: inf
ROOT
ATOM      1  C   UNL A   1      31.445  31.918  26.517  1.00  0.00     0.042 C 
ENDROOT
BRANCH   1   2
ATOM      2  C   UNL A   1      31.694  30.609  25.768  1.00  0.00     0.117 C 
BRANCH   2   3
ATOM      3  N   UNL A   1      31.553  29.440  26.616  1.00  0.00    -0.356 N 
ATOM      4  C   UNL A   1      31.470  28.110  26.337  1.00  0.00     0.227 C 
ATOM      5  O   UNL A   1      31.350  27.356  27.311  1.00  0.00    -0.274 OA
ATOM      6  H   UNL A   1      31.510  29.647  27.577  1.00  0.00     0.163 HD
BRANCH   4   7
ATOM      7  C   UNL A   1      31.538  27.516  24.921  1.00  0.00     0.105 C 
ATOM      8  C   UNL A   1      30.252  27.670  24.109  1.00  0.00     0.023 C 
BRANCH   7   9
ATOM      9  C   UNL A   1      32.178  26.140  24.877  1.00  0.00    -0.036 A 
ATOM     10  C   UNL A   1      33.433  23.588  24.945  1.00  0.00    -0.018 A 
ATOM     11  C   UNL A   1      32.039  23.722  25.009  1.00  0.00     0.009 A 
ATOM     12  C   UNL A   1      34.193  24.759  24.841  1.00  0.00     0.009 A 
ATOM     13  C   UNL A   1      31.422  24.969  24.926  1.00  0.00     0.005 A 
ATOM     14  C   UNL A   1      33.576  26.017  24.825  1.00  0.00     0.005 A 
BRANCH  10  15
ATOM     15  C   UNL A   1      34.037  22.246  24.915  1.00  0.00    -0.018 A 
ATOM     16  C   UNL A   1      34.188  16.193  24.059  1.00  0.00     0.064 C 
ATOM     17  C   UNL A   1      34.202  17.651  24.328  1.00  0.00     0.013 A 
ATOM     18  C   UNL A   1      33.183  18.574  24.286  1.00  0.00     0.031 A 
ATOM     19  N   UNL A   1      35.317  18.302  24.801  1.00  0.00    -0.359 N 
ATOM     20  C   UNL A   1      33.742  19.843  24.574  1.00  0.00     0.000 A 
ATOM     21  C   UNL A   1      35.092  19.660  24.847  1.00  0.00     0.046 A 
ATOM     22  H   UNL A   1      36.155  17.860  25.069  1.00  0.00     0.166 HD
ATOM     23  C   UNL A   1      33.213  21.139  24.628  1.00  0.00     0.019 A 
ATOM     24  C   UNL A   1      35.948  20.724  25.154  1.00  0.00     0.027 A 
ATOM     25  C   UNL A   1      35.398  22.018  25.166  1.00  0.00     0.011 A 
ENDBRANCH  10  15
ENDBRANCH   7   9
ENDBRANCH   4   7
ENDBRANCH   2   3
ENDBRANCH   1   2
BRANCH   1  26
ATOM     26  C   UNL A   1      32.672  32.476  27.228  1.00  0.00     0.118 C 
BRANCH  26  27
ATOM     27  N   UNL A   1      32.502  33.872  27.608  1.00  0.00    -0.352 N 
ATOM     28  C   UNL A   1      33.109  34.614  28.592  1.00  0.00     0.251 C 
ATOM     29  H   UNL A   1      31.843  34.367  27.071  1.00  0.00     0.163 HD
ATOM     30  O   UNL A   1      32.643  35.718  28.871  1.00  0.00    -0.269 OA
BRANCH  28  31
ATOM     31  C   UNL A   1      34.296  34.110  29.322  1.00  0.00     0.039 A 
ATOM     32  C   UNL A   1      34.097  33.333  30.467  1.00  0.00     0.014 A 
ATOM     33  C   UNL A   1      35.597  34.439  28.932  1.00  0.00     0.014 A 
ATOM     34  C   UNL A   1      35.194  32.840  31.179  1.00  0.00     0.010 A 
ATOM     35  C   UNL A   1      36.690  33.881  29.595  1.00  0.00     0.010 A 
ATOM     36  C   UNL A   1      36.504  33.079  30.730  1.00  0.00    -0.014 A 
BRANCH  36  37
ATOM     37  C   UNL A   1      37.676  32.478  31.423  1.00  0.00     0.031 A 
ATOM     38  C   UNL A   1      38.449  31.342  30.805  1.00  0.00     0.074 A 
ATOM     39  C   UNL A   1      38.018  32.914  32.652  1.00  0.00     0.049 A 
ATOM     40  N   UNL A   1      39.453  30.665  31.301  1.00  0.00    -0.248 NA
ATOM     41  C   UNL A   1      38.028  30.895  29.468  1.00  0.00     0.031 C 
ATOM     42  C   UNL A   1      37.321  33.956  33.409  1.00  0.00     0.029 A 
ATOM     43  N   UNL A   1      39.030  32.514  33.490  1.00  0.00    -0.354 N 
ATOM     44  C   UNL A   1      39.764  29.694  30.357  1.00  0.00     0.074 A 
ATOM     45  C   UNL A   1      38.823  29.852  29.269  1.00  0.00     0.031 C 
ATOM     46  C   UNL A   1      37.930  34.120  34.593  1.00  0.00     0.029 A 
ATOM     47  C   UNL A   1      39.031  33.168  34.699  1.00  0.00     0.049 A 
ATOM     48  H   UNL A   1      39.691  31.827  33.247  1.00  0.00     0.167 HD
ATOM     49  C   UNL A   1      40.758  28.774  30.375  1.00  0.00     0.034 A 
ATOM     50  C   UNL A   1      39.806  32.997  35.786  1.00  0.00     0.034 A 
ATOM     51  C   UNL A   1      41.725  28.632  31.433  1.00  0.00     0.049 A 
ATOM     52  C   UNL A   1      40.873  31.946  35.795  1.00  0.00     0.074 A 
ATOM     53  C   UNL A   1      42.828  27.796  31.480  1.00  0.00     0.029 A 
ATOM     54  N   UNL A   1      41.700  29.324  32.631  1.00  0.00    -0.354 N 
ATOM     55  N   UNL A   1      41.236  31.132  34.838  1.00  0.00    -0.248 NA
ATOM     56  C   UNL A   1      41.645  31.800  37.040  1.00  0.00     0.031 C 
ATOM     57  C   UNL A   1      43.451  27.958  32.721  1.00  0.00     0.029 A 
ATOM     58  C   UNL A   1      42.756  28.920  33.433  1.00  0.00     0.049 A 
ATOM     59  H   UNL A   1      41.032  30.003  32.878  1.00  0.00     0.167 HD
ATOM     60  C   UNL A   1      42.303  30.404  35.350  1.00  0.00     0.074 A 
ATOM     61  C   UNL A   1      42.536  30.882  36.696  1.00  0.00     0.031 C 
ATOM     62  C   UNL A   1      43.017  29.420  34.755  1.00  0.00     0.034 A 
BRANCH  49  63
ATOM     63  C   UNL A   1      40.894  27.865  29.183  1.00  0.00     0.023 A 
ATOM     64  C   UNL A   1      40.117  26.691  29.113  1.00  0.00     0.012 A 
ATOM     65  C   UNL A   1      41.717  28.218  28.095  1.00  0.00     0.148 A 
ATOM     66  C   UNL A   1      40.178  25.866  27.991  1.00  0.00     0.002 A 
ATOM     67  C   UNL A   1      41.736  27.415  26.962  1.00  0.00     0.091 A 
ATOM     68  F   UNL A   1      42.460  29.329  28.190  1.00  0.00    -0.205 F 
ATOM     69  C   UNL A   1      40.976  26.234  26.912  1.00  0.00     0.022 A 
BRANCH  67  70
ATOM     70  S   UNL A   1      42.665  27.844  25.485  1.00  0.00     0.127 S 
ATOM     71  O   UNL A   1      42.439  26.669  24.644  1.00  0.00    -0.237 OA
ATOM     72  O   UNL A   1      41.983  29.057  25.035  1.00  0.00    -0.237 OA
ATOM     73  O   UNL A   1      44.041  28.043  25.918  1.00  0.00    -0.744 OA
ENDBRANCH  67  70
ENDBRANCH  49  63
BRANCH  50  74
ATOM     74  C   UNL A   1      39.583  33.824  36.996  1.00  0.00     0.023 A 
ATOM     75  C   UNL A   1      40.086  35.137  37.059  1.00  0.00     0.012 A 
ATOM     76  C   UNL A   1      38.903  33.284  38.097  1.00  0.00     0.148 A 
ATOM     77  C   UNL A   1      39.940  35.892  38.220  1.00  0.00     0.002 A 
ATOM     78  C   UNL A   1      38.718  34.059  39.228  1.00  0.00     0.091 A 
ATOM     79  F   UNL A   1      38.448  32.027  38.009  1.00  0.00    -0.205 F 
ATOM     80  C   UNL A   1      39.248  35.356  39.302  1.00  0.00     0.022 A 
BRANCH  78  81
ATOM     81  S   UNL A   1      37.722  33.512  40.600  1.00  0.00     0.127 S 
ATOM     82  O   UNL A   1      36.519  33.018  39.934  1.00  0.00    -0.237 OA
ATOM     83  O   UNL A   1      38.582  32.476  41.167  1.00  0.00    -0.237 OA
ATOM     84  O   UNL A   1      37.510  34.684  41.441  1.00  0.00    -0.744 OA
ENDBRANCH  78  81
ENDBRANCH  50  74
BRANCH  62  85
ATOM     85  C   UNL A   1      44.164  28.835  35.531  1.00  0.00     0.023 A 
ATOM     86  C   UNL A   1      45.460  29.369  35.390  1.00  0.00     0.012 A 
ATOM     87  C   UNL A   1      43.946  27.769  36.426  1.00  0.00     0.148 A 
ATOM     88  C   UNL A   1      46.530  28.825  36.102  1.00  0.00     0.002 A 
ATOM     89  C   UNL A   1      45.006  27.267  37.169  1.00  0.00     0.091 A 
ATOM     90  F   UNL A   1      42.710  27.261  36.525  1.00  0.00    -0.205 F 
ATOM     91  C   UNL A   1      46.301  27.784  36.999  1.00  0.00     0.022 A 
BRANCH  89  92
ATOM     92  S   UNL A   1      44.791  25.985  38.408  1.00  0.00     0.127 S 
ATOM     93  O   UNL A   1      46.172  25.721  38.808  1.00  0.00    -0.237 OA
ATOM     94  O   UNL A   1      43.982  26.667  39.420  1.00  0.00    -0.237 OA
ATOM     95  O   UNL A   1      44.115  24.884  37.735  1.00  0.00    -0.744 OA
ENDBRANCH  89  92
ENDBRANCH  62  85
ENDBRANCH  36  37
ENDBRANCH  28  31
ENDBRANCH  26  27
ENDBRANCH   1  26
TORSDOF 15
ENDMDL
MODEL 2
REMARK VINA RESULT:     -12.9      3.414      8.500
REMARK SMILES Cc1cc2cc(-c3ccc([C@@H](C)C(=O)NCCCNC(=O)c4ccc(-c5c6nc(c(-c7cccc(S(=O)(=O)[O-])c7F)c7ccc([nH]7)c(-c7cccc(S(=O)(=O)[O-])c7F)c7nc(c(-c8cccc(S(=O)(=O)[O-])c8F)c8ccc5[nH]8)C=C7)C=C6)cc4)cc3)ccc2[nH]1
REMARK SMILES IDX 17 1 16 2 15 3 13 4 14 5 11 7 12 8 10 9 7 10 8 11 86 12 9 13
REMARK SMILES IDX 85 14 6 15 1 16 2 17 3 18 90 19 4 20 89 21 5 23 88 24 87 25
REMARK SMILES IDX 18 26 19 27 20 28 21 30 22 31 23 32 84 33 24 34 83 35 25 36
REMARK SMILES IDX 26 37 27 38 77 39 28 40 82 41 76 42 78 43 29 44 81 45 75 46
REMARK SMILES IDX 74 47 30 49 62 50 42 51 61 52 43 53 46 54 60 55 79 56 44 57
REMARK SMILES IDX 45 58 59 60 80 61 47 62 31 63 32 64 40 65 33 66 35 67 41 68
REMARK SMILES IDX 34 69 36 70 37 71 38 72 39 73 63 74 64 75 72 76 65 77 67 78
REMARK SMILES IDX 73 79 66 80 68 81 69 82 70 83 71 84 48 85 49 86 57 87 50 88
REMARK SMILES IDX 52 89 58 90 51 91 53 92 54 93 55 94 56 95
REMARK H PARENT 15 6 90 22 19 29 78 48 46 59
REMARK Flexibility Score: inf
ROOT
ATOM      1  C   UNL A   1      32.144  28.579  26.523  1.00  0.00     0.042 C 
ENDROOT
BRANCH   1   2
ATOM      2  C   UNL A   1      31.729  29.622  25.485  1.00  0.00     0.117 C 
BRANCH   2   3
ATOM      3  N   UNL A   1      31.220  29.029  24.263  1.00  0.00    -0.356 N 
ATOM      4  C   UNL A   1      31.819  28.311  23.273  1.00  0.00     0.227 C 
ATOM      5  O   UNL A   1      31.086  27.948  22.345  1.00  0.00    -0.274 OA
ATOM      6  H   UNL A   1      30.257  29.175  24.121  1.00  0.00     0.163 HD
BRANCH   4   7
ATOM      7  C   UNL A   1      33.306  27.924  23.263  1.00  0.00     0.105 C 
ATOM      8  C   UNL A   1      34.103  28.509  22.098  1.00  0.00     0.023 C 
BRANCH   7   9
ATOM      9  C   UNL A   1      33.545  26.451  23.545  1.00  0.00    -0.036 A 
ATOM     10  C   UNL A   1      34.113  23.695  23.964  1.00  0.00    -0.018 A 
ATOM     11  C   UNL A   1      34.432  24.664  24.924  1.00  0.00     0.009 A 
ATOM     12  C   UNL A   1      33.496  24.130  22.784  1.00  0.00     0.009 A 
ATOM     13  C   UNL A   1      34.109  26.008  24.741  1.00  0.00     0.005 A 
ATOM     14  C   UNL A   1      33.232  25.489  22.571  1.00  0.00     0.005 A 
BRANCH  10  15
ATOM     15  C   UNL A   1      34.362  22.273  24.250  1.00  0.00    -0.018 A 
ATOM     16  C   UNL A   1      33.076  16.300  24.471  1.00  0.00     0.064 C 
ATOM     17  C   UNL A   1      33.428  17.740  24.486  1.00  0.00     0.013 A 
ATOM     18  C   UNL A   1      32.681  18.842  24.142  1.00  0.00     0.031 A 
ATOM     19  N   UNL A   1      34.619  18.201  24.995  1.00  0.00    -0.359 N 
ATOM     20  C   UNL A   1      33.510  19.982  24.285  1.00  0.00     0.000 A 
ATOM     21  C   UNL A   1      34.737  19.556  24.776  1.00  0.00     0.046 A 
ATOM     22  H   UNL A   1      35.290  17.643  25.452  1.00  0.00     0.166 HD
ATOM     23  C   UNL A   1      33.319  21.348  24.041  1.00  0.00     0.019 A 
ATOM     24  C   UNL A   1      35.798  20.437  25.016  1.00  0.00     0.027 A 
ATOM     25  C   UNL A   1      35.591  21.796  24.728  1.00  0.00     0.011 A 
ENDBRANCH  10  15
ENDBRANCH   7   9
ENDBRANCH   4   7
ENDBRANCH   2   3
ENDBRANCH   1   2
BRANCH   1  26
ATOM     26  C   UNL A   1      33.388  28.950  27.321  1.00  0.00     0.118 C 
BRANCH  26  27
ATOM     27  N   UNL A   1      33.532  30.391  27.479  1.00  0.00    -0.352 N 
ATOM     28  C   UNL A   1      34.514  31.132  28.090  1.00  0.00     0.251 C 
ATOM     29  H   UNL A   1      32.805  30.923  27.083  1.00  0.00     0.163 HD
ATOM     30  O   UNL A   1      34.311  32.328  28.293  1.00  0.00    -0.269 OA
BRANCH  28  31
ATOM     31  C   UNL A   1      35.797  30.522  28.513  1.00  0.00     0.039 A 
ATOM     32  C   UNL A   1      36.925  30.713  27.709  1.00  0.00     0.014 A 
ATOM     33  C   UNL A   1      35.892  29.721  29.654  1.00  0.00     0.014 A 
ATOM     34  C   UNL A   1      38.152  30.154  28.080  1.00  0.00     0.010 A 
ATOM     35  C   UNL A   1      37.132  29.231  30.065  1.00  0.00     0.010 A 
ATOM     36  C   UNL A   1      38.277  29.436  29.282  1.00  0.00    -0.014 A 
BRANCH  36  37
ATOM     37  C   UNL A   1      39.597  28.920  29.735  1.00  0.00     0.031 A 
ATOM     38  C   UNL A   1      40.369  29.610  30.829  1.00  0.00     0.074 A 
ATOM     39  C   UNL A   1      40.143  27.853  29.117  1.00  0.00     0.049 A 
ATOM     40  N   UNL A   1      41.558  29.329  31.299  1.00  0.00    -0.248 NA
ATOM     41  C   UNL A   1      39.736  30.777  31.463  1.00  0.00     0.031 C 
ATOM     42  C   UNL A   1      39.549  27.126  27.993  1.00  0.00     0.029 A 
ATOM     43  N   UNL A   1      41.337  27.211  29.336  1.00  0.00    -0.354 N 
ATOM     44  C   UNL A   1      41.830  30.298  32.257  1.00  0.00     0.074 A 
ATOM     45  C   UNL A   1      40.693  31.192  32.282  1.00  0.00     0.031 C 
ATOM     46  C   UNL A   1      40.374  26.133  27.629  1.00  0.00     0.029 A 
ATOM     47  C   UNL A   1      41.573  26.179  28.459  1.00  0.00     0.049 A 
ATOM     48  H   UNL A   1      41.963  27.465  30.051  1.00  0.00     0.167 HD
ATOM     49  C   UNL A   1      42.911  30.419  33.065  1.00  0.00     0.034 A 
ATOM     50  C   UNL A   1      42.647  25.382  28.314  1.00  0.00     0.034 A 
ATOM     51  C   UNL A   1      44.030  29.514  33.078  1.00  0.00     0.049 A 
ATOM     52  C   UNL A   1      43.846  25.562  29.195  1.00  0.00     0.074 A 
ATOM     53  C   UNL A   1      45.116  29.505  33.938  1.00  0.00     0.029 A 
ATOM     54  N   UNL A   1      44.222  28.473  32.186  1.00  0.00    -0.354 N 
ATOM     55  N   UNL A   1      44.023  26.398  30.184  1.00  0.00    -0.248 NA
ATOM     56  C   UNL A   1      44.992  24.674  28.939  1.00  0.00     0.031 C 
ATOM     57  C   UNL A   1      45.981  28.479  33.545  1.00  0.00     0.029 A 
ATOM     58  C   UNL A   1      45.418  27.828  32.462  1.00  0.00     0.049 A 
ATOM     59  H   UNL A   1      43.601  28.227  31.463  1.00  0.00     0.167 HD
ATOM     60  C   UNL A   1      45.283  26.113  30.695  1.00  0.00     0.074 A 
ATOM     61  C   UNL A   1      45.819  25.018  29.914  1.00  0.00     0.031 C 
ATOM     62  C   UNL A   1      45.936  26.715  31.716  1.00  0.00     0.034 A 
BRANCH  49  63
ATOM     63  C   UNL A   1      42.922  31.553  34.056  1.00  0.00     0.023 A 
ATOM     64  C   UNL A   1      43.497  32.787  33.691  1.00  0.00     0.012 A 
ATOM     65  C   UNL A   1      42.285  31.426  35.306  1.00  0.00     0.148 A 
ATOM     66  C   UNL A   1      43.463  33.871  34.567  1.00  0.00     0.002 A 
ATOM     67  C   UNL A   1      42.215  32.525  36.153  1.00  0.00     0.091 A 
ATOM     68  F   UNL A   1      41.760  30.239  35.639  1.00  0.00    -0.205 F 
ATOM     69  C   UNL A   1      42.812  33.743  35.791  1.00  0.00     0.022 A 
BRANCH  67  70
ATOM     70  S   UNL A   1      41.326  32.490  37.714  1.00  0.00     0.127 S 
ATOM     71  O   UNL A   1      42.154  31.579  38.503  1.00  0.00    -0.237 OA
ATOM     72  O   UNL A   1      41.388  33.890  38.134  1.00  0.00    -0.237 OA
ATOM     73  O   UNL A   1      39.988  32.005  37.406  1.00  0.00    -0.744 OA
ENDBRANCH  67  70
ENDBRANCH  49  63
BRANCH  50  74
ATOM     74  C   UNL A   1      42.666  24.344  27.256  1.00  0.00     0.023 A 
ATOM     75  C   UNL A   1      43.259  24.615  26.008  1.00  0.00     0.012 A 
ATOM     76  C   UNL A   1      42.058  23.101  27.484  1.00  0.00     0.148 A 
ATOM     77  C   UNL A   1      43.217  23.668  24.988  1.00  0.00     0.002 A 
ATOM     78  C   UNL A   1      42.066  22.147  26.482  1.00  0.00     0.091 A 
ATOM     79  F   UNL A   1      41.493  22.879  28.678  1.00  0.00    -0.205 F 
ATOM     80  C   UNL A   1      42.628  22.430  25.227  1.00  0.00     0.022 A 
BRANCH  78  81
ATOM     81  S   UNL A   1      41.468  20.490  26.746  1.00  0.00     0.127 S 
ATOM     82  O   UNL A   1      42.248  20.058  27.903  1.00  0.00    -0.237 OA
ATOM     83  O   UNL A   1      40.055  20.748  27.015  1.00  0.00    -0.237 OA
ATOM     84  O   UNL A   1      41.750  19.756  25.518  1.00  0.00    -0.744 OA
ENDBRANCH  78  81
ENDBRANCH  50  74
BRANCH  62  85
ATOM     85  C   UNL A   1      47.283  26.162  32.094  1.00  0.00     0.023 A 
ATOM     86  C   UNL A   1      48.443  26.608  31.430  1.00  0.00     0.012 A 
ATOM     87  C   UNL A   1      47.398  25.218  33.133  1.00  0.00     0.148 A 
ATOM     88  C   UNL A   1      49.694  26.094  31.772  1.00  0.00     0.002 A 
ATOM     89  C   UNL A   1      48.651  24.749  33.501  1.00  0.00     0.091 A 
ATOM     90  F   UNL A   1      46.278  24.790  33.734  1.00  0.00    -0.205 F 
ATOM     91  C   UNL A   1      49.800  25.175  32.813  1.00  0.00     0.022 A 
BRANCH  89  92
ATOM     92  S   UNL A   1      48.892  23.630  34.885  1.00  0.00     0.127 S 
ATOM     93  O   UNL A   1      50.348  23.506  34.920  1.00  0.00    -0.237 OA
ATOM     94  O   UNL A   1      48.316  24.388  35.998  1.00  0.00    -0.237 OA
ATOM     95  O   UNL A   1      48.170  22.410  34.548  1.00  0.00    -0.744 OA
ENDBRANCH  89  92
ENDBRANCH  62  85
ENDBRANCH  36  37
ENDBRANCH  28  31
ENDBRANCH  26  27
ENDBRANCH   1  26
TORSDOF 15
ENDMDL
MODEL 3
REMARK VINA RESULT:     -12.9      1.648      2.081
REMARK SMILES Cc1cc2cc(-c3ccc([C@@H](C)C(=O)NCCCNC(=O)c4ccc(-c5c6nc(c(-c7cccc(S(=O)(=O)[O-])c7F)c7ccc([nH]7)c(-c7cccc(S(=O)(=O)[O-])c7F)c7nc(c(-c8cccc(S(=O)(=O)[O-])c8F)c8ccc5[nH]8)C=C7)C=C6)cc4)cc3)ccc2[nH]1
REMARK SMILES IDX 17 1 16 2 15 3 13 4 14 5 11 7 12 8 10 9 7 10 8 11 86 12 9 13
REMARK SMILES IDX 85 14 6 15 1 16 2 17 3 18 90 19 4 20 89 21 5 23 88 24 87 25
REMARK SMILES IDX 18 26 19 27 20 28 21 30 22 31 23 32 84 33 24 34 83 35 25 36
REMARK SMILES IDX 26 37 27 38 77 39 28 40 82 41 76 42 78 43 29 44 81 45 75 46
REMARK SMILES IDX 74 47 30 49 62 50 42 51 61 52 43 53 46 54 60 55 79 56 44 57
REMARK SMILES IDX 45 58 59 60 80 61 47 62 31 63 32 64 40 65 33 66 35 67 41 68
REMARK SMILES IDX 34 69 36 70 37 71 38 72 39 73 63 74 64 75 72 76 65 77 67 78
REMARK SMILES IDX 73 79 66 80 68 81 69 82 70 83 71 84 48 85 49 86 57 87 50 88
REMARK SMILES IDX 52 89 58 90 51 91 53 92 54 93 55 94 56 95
REMARK H PARENT 15 6 90 22 19 29 78 48 46 59
REMARK Flexibility Score: inf
ROOT
ATOM      1  C   UNL A   1      31.015  31.850  26.358  1.00  0.00     0.042 C 
ENDROOT
BRANCH   1   2
ATOM      2  C   UNL A   1      31.033  30.759  25.287  1.00  0.00     0.117 C 
BRANCH   2   3
ATOM      3  N   UNL A   1      32.339  30.149  25.126  1.00  0.00    -0.356 N 
ATOM      4  C   UNL A   1      32.837  28.938  25.498  1.00  0.00     0.227 C 
ATOM      5  O   UNL A   1      34.021  28.723  25.206  1.00  0.00    -0.274 OA
ATOM      6  H   UNL A   1      32.991  30.720  24.659  1.00  0.00     0.163 HD
BRANCH   4   7
ATOM      7  C   UNL A   1      32.024  27.851  26.219  1.00  0.00     0.105 C 
ATOM      8  C   UNL A   1      31.629  28.204  27.653  1.00  0.00     0.023 C 
BRANCH   7   9
ATOM      9  C   UNL A   1      32.582  26.453  26.020  1.00  0.00    -0.036 A 
ATOM     10  C   UNL A   1      33.553  23.830  25.502  1.00  0.00    -0.018 A 
ATOM     11  C   UNL A   1      34.404  24.943  25.486  1.00  0.00     0.009 A 
ATOM     12  C   UNL A   1      32.200  24.051  25.788  1.00  0.00     0.009 A 
ATOM     13  C   UNL A   1      33.937  26.222  25.789  1.00  0.00     0.005 A 
ATOM     14  C   UNL A   1      31.719  25.345  26.026  1.00  0.00     0.005 A 
BRANCH  10  15
ATOM     15  C   UNL A   1      34.109  22.483  25.296  1.00  0.00    -0.018 A 
ATOM     16  C   UNL A   1      34.009  16.553  23.807  1.00  0.00     0.064 C 
ATOM     17  C   UNL A   1      34.087  17.973  24.225  1.00  0.00     0.013 A 
ATOM     18  C   UNL A   1      33.098  18.923  24.340  1.00  0.00     0.031 A 
ATOM     19  N   UNL A   1      35.248  18.539  24.695  1.00  0.00    -0.359 N 
ATOM     20  C   UNL A   1      33.715  20.139  24.725  1.00  0.00     0.000 A 
ATOM     21  C   UNL A   1      35.072  19.891  24.896  1.00  0.00     0.046 A 
ATOM     22  H   UNL A   1      36.085  18.049  24.865  1.00  0.00     0.166 HD
ATOM     23  C   UNL A   1      33.234  21.436  24.945  1.00  0.00     0.019 A 
ATOM     24  C   UNL A   1      35.979  20.893  25.260  1.00  0.00     0.027 A 
ATOM     25  C   UNL A   1      35.474  22.192  25.439  1.00  0.00     0.011 A 
ENDBRANCH  10  15
ENDBRANCH   7   9
ENDBRANCH   4   7
ENDBRANCH   2   3
ENDBRANCH   1   2
BRANCH   1  26
ATOM     26  C   UNL A   1      32.391  32.216  26.902  1.00  0.00     0.118 C 
BRANCH  26  27
ATOM     27  N   UNL A   1      32.464  33.608  27.329  1.00  0.00    -0.352 N 
ATOM     28  C   UNL A   1      33.271  34.220  28.255  1.00  0.00     0.251 C 
ATOM     29  H   UNL A   1      31.829  34.208  26.878  1.00  0.00     0.163 HD
ATOM     30  O   UNL A   1      33.000  35.367  28.607  1.00  0.00    -0.269 OA
BRANCH  28  31
ATOM     31  C   UNL A   1      34.445  33.530  28.839  1.00  0.00     0.039 A 
ATOM     32  C   UNL A   1      35.711  34.095  28.661  1.00  0.00     0.014 A 
ATOM     33  C   UNL A   1      34.325  32.309  29.509  1.00  0.00     0.014 A 
ATOM     34  C   UNL A   1      36.839  33.471  29.201  1.00  0.00     0.010 A 
ATOM     35  C   UNL A   1      35.439  31.729  30.116  1.00  0.00     0.010 A 
ATOM     36  C   UNL A   1      36.712  32.299  29.966  1.00  0.00    -0.014 A 
BRANCH  36  37
ATOM     37  C   UNL A   1      37.892  31.680  30.627  1.00  0.00     0.031 A 
ATOM     38  C   UNL A   1      38.705  30.618  29.935  1.00  0.00     0.074 A 
ATOM     39  C   UNL A   1      38.206  32.029  31.891  1.00  0.00     0.049 A 
ATOM     40  N   UNL A   1      39.723  29.933  30.392  1.00  0.00    -0.248 NA
ATOM     41  C   UNL A   1      38.314  30.263  28.561  1.00  0.00     0.031 C 
ATOM     42  C   UNL A   1      37.469  32.989  32.717  1.00  0.00     0.029 A 
ATOM     43  N   UNL A   1      39.219  31.595  32.710  1.00  0.00    -0.354 N 
ATOM     44  C   UNL A   1      40.074  29.047  29.380  1.00  0.00     0.074 A 
ATOM     45  C   UNL A   1      39.142  29.262  28.295  1.00  0.00     0.031 C 
ATOM     46  C   UNL A   1      38.059  33.078  33.918  1.00  0.00     0.029 A 
ATOM     47  C   UNL A   1      39.186  32.152  33.966  1.00  0.00     0.049 A 
ATOM     48  H   UNL A   1      39.903  30.947  32.425  1.00  0.00     0.167 HD
ATOM     49  C   UNL A   1      41.095  28.157  29.342  1.00  0.00     0.034 A 
ATOM     50  C   UNL A   1      39.953  31.920  35.048  1.00  0.00     0.034 A 
ATOM     51  C   UNL A   1      42.052  27.962  30.399  1.00  0.00     0.049 A 
ATOM     52  C   UNL A   1      41.050  30.902  34.991  1.00  0.00     0.074 A 
ATOM     53  C   UNL A   1      43.179  27.156  30.398  1.00  0.00     0.029 A 
ATOM     54  N   UNL A   1      41.993  28.558  31.647  1.00  0.00    -0.354 N 
ATOM     55  N   UNL A   1      41.449  30.175  33.980  1.00  0.00    -0.248 NA
ATOM     56  C   UNL A   1      41.811  30.683  36.232  1.00  0.00     0.031 C 
ATOM     57  C   UNL A   1      43.781  27.239  31.657  1.00  0.00     0.029 A 
ATOM     58  C   UNL A   1      43.049  28.122  32.430  1.00  0.00     0.049 A 
ATOM     59  H   UNL A   1      41.301  29.196  31.935  1.00  0.00     0.167 HD
ATOM     60  C   UNL A   1      42.530  29.441  34.449  1.00  0.00     0.074 A 
ATOM     61  C   UNL A   1      42.733  29.820  35.832  1.00  0.00     0.031 C 
ATOM     62  C   UNL A   1      43.280  28.527  33.790  1.00  0.00     0.034 A 
BRANCH  49  63
ATOM     63  C   UNL A   1      41.271  27.347  28.085  1.00  0.00     0.023 A 
ATOM     64  C   UNL A   1      41.903  27.930  26.968  1.00  0.00     0.012 A 
ATOM     65  C   UNL A   1      40.897  25.990  28.042  1.00  0.00     0.148 A 
ATOM     66  C   UNL A   1      42.135  27.181  25.815  1.00  0.00     0.002 A 
ATOM     67  C   UNL A   1      41.174  25.239  26.906  1.00  0.00     0.091 A 
ATOM     68  F   UNL A   1      40.283  25.461  29.109  1.00  0.00    -0.205 F 
ATOM     69  C   UNL A   1      41.783  25.835  25.789  1.00  0.00     0.022 A 
BRANCH  67  70
ATOM     70  S   UNL A   1      40.838  23.477  26.803  1.00  0.00     0.127 S 
ATOM     71  O   UNL A   1      39.413  23.469  26.474  1.00  0.00    -0.237 OA
ATOM     72  O   UNL A   1      41.718  23.060  25.711  1.00  0.00    -0.237 OA
ATOM     73  O   UNL A   1      41.179  22.924  28.106  1.00  0.00    -0.744 OA
ENDBRANCH  67  70
ENDBRANCH  49  63
BRANCH  50  74
ATOM     74  C   UNL A   1      39.691  32.644  36.314  1.00  0.00     0.023 A 
ATOM     75  C   UNL A   1      40.445  33.786  36.646  1.00  0.00     0.012 A 
ATOM     76  C   UNL A   1      38.717  32.168  37.204  1.00  0.00     0.148 A 
ATOM     77  C   UNL A   1      40.250  34.428  37.867  1.00  0.00     0.002 A 
ATOM     78  C   UNL A   1      38.495  32.842  38.391  1.00  0.00     0.091 A 
ATOM     79  F   UNL A   1      38.026  31.072  36.863  1.00  0.00    -0.205 F 
ATOM     80  C   UNL A   1      39.269  33.961  38.736  1.00  0.00     0.022 A 
BRANCH  78  81
ATOM     81  S   UNL A   1      37.166  32.407  39.495  1.00  0.00     0.127 S 
ATOM     82  O   UNL A   1      37.335  33.368  40.581  1.00  0.00    -0.237 OA
ATOM     83  O   UNL A   1      36.007  32.645  38.636  1.00  0.00    -0.237 OA
ATOM     84  O   UNL A   1      37.391  31.017  39.874  1.00  0.00    -0.744 OA
ENDBRANCH  78  81
ENDBRANCH  50  74
BRANCH  62  85
ATOM     85  C   UNL A   1      44.435  27.916  34.535  1.00  0.00     0.023 A 
ATOM     86  C   UNL A   1      45.702  28.531  34.506  1.00  0.00     0.012 A 
ATOM     87  C   UNL A   1      44.251  26.742  35.292  1.00  0.00     0.148 A 
ATOM     88  C   UNL A   1      46.778  27.965  35.190  1.00  0.00     0.002 A 
ATOM     89  C   UNL A   1      45.314  26.213  36.010  1.00  0.00     0.091 A 
ATOM     90  F   UNL A   1      43.043  26.160  35.285  1.00  0.00    -0.205 F 
ATOM     91  C   UNL A   1      46.582  26.814  35.950  1.00  0.00     0.022 A 
BRANCH  89  92
ATOM     92  S   UNL A   1      45.135  24.784  37.084  1.00  0.00     0.127 S 
ATOM     93  O   UNL A   1      46.484  24.648  37.629  1.00  0.00    -0.237 OA
ATOM     94  O   UNL A   1      44.131  25.244  38.044  1.00  0.00    -0.237 OA
ATOM     95  O   UNL A   1      44.695  23.690  36.228  1.00  0.00    -0.744 OA
ENDBRANCH  89  92
ENDBRANCH  62  85
ENDBRANCH  36  37
ENDBRANCH  28  31
ENDBRANCH  26  27
ENDBRANCH   1  26
TORSDOF 15
ENDMDL
