MODEL 1
REMARK VINA RESULT:     -13.3      0.000      0.000
REMARK SMILES O=C(CC1(C(=O)NCCCNC(=O)c2ccc(-c3c4nc(c(-c5cccc(S(=O)(=O)[O-])c5F)c5ccc([nH]5)c(-c5cccc(S(=O)(=O)[O-])c5F)c5nc(c(-c6cccc(S(=O)(=O)[O-])c6F)c6ccc3[nH]6)C=C5)C=C4)cc2)CCCCC1)Nc1ccc(N2CCOC2=O)cc1
REMARK SMILES IDX 8 1 7 2 5 3 6 4 4 6 77 7 81 8 78 9 80 10 79 11 3 12 2 13
REMARK SMILES IDX 1 14 82 15 83 17 84 18 94 19 85 20 93 21 86 22 87 23 88 24
REMARK SMILES IDX 91 25 89 26 90 27 92 28 9 29 10 30 11 31 12 32 13 34 14 35
REMARK SMILES IDX 15 36 76 37 16 38 75 39 17 40 18 41 19 42 69 43 20 44 74 45
REMARK SMILES IDX 68 46 70 47 21 48 73 49 67 50 66 51 22 53 54 54 34 55 53 56
REMARK SMILES IDX 35 57 38 58 52 59 71 60 36 61 37 62 51 64 72 65 39 66 23 67
REMARK SMILES IDX 24 68 32 69 25 70 27 71 33 72 26 73 28 74 29 75 30 76 31 77
REMARK SMILES IDX 55 78 56 79 64 80 57 81 59 82 65 83 58 84 60 85 61 86 62 87
REMARK SMILES IDX 63 88 40 89 41 90 49 91 42 92 44 93 50 94 43 95 45 96 46 97
REMARK SMILES IDX 47 98 48 99
REMARK H PARENT 7 5 82 16 11 33 70 52 38 63
REMARK Flexibility Score: inf
ROOT
ATOM      1  C   UNL A   1      34.856  21.102  25.872  1.00  0.00     0.117 C 
ENDROOT
BRANCH   1   2
ATOM      2  N   UNL A   1      33.848  21.471  26.831  1.00  0.00    -0.356 N 
ATOM      3  C   UNL A   1      32.957  22.476  26.911  1.00  0.00     0.226 C 
ATOM      4  O   UNL A   1      32.371  22.498  28.004  1.00  0.00    -0.274 OA
ATOM      5  H   UNL A   1      33.801  20.853  27.595  1.00  0.00     0.163 HD
BRANCH   3   6
ATOM      6  C   UNL A   1      32.659  23.571  25.840  1.00  0.00     0.058 C 
ATOM      7  C   UNL A   1      32.463  22.995  24.410  1.00  0.00     0.017 C 
ATOM      8  C   UNL A   1      33.658  24.744  25.838  1.00  0.00     0.017 C 
ATOM      9  C   UNL A   1      33.671  22.889  23.483  1.00  0.00     0.001 C 
ATOM     10  C   UNL A   1      34.921  24.575  25.009  1.00  0.00     0.001 C 
ATOM     11  C   UNL A   1      34.704  24.004  23.614  1.00  0.00     0.000 C 
BRANCH   6  12
ATOM     12  C   UNL A   1      31.228  24.132  26.248  1.00  0.00     0.117 C 
BRANCH  12  13
ATOM     13  C   UNL A   1      30.883  25.588  25.929  1.00  0.00     0.225 C 
ATOM     14  O   UNL A   1      31.019  26.440  26.808  1.00  0.00    -0.275 OA
ATOM     15  N   UNL A   1      30.433  25.836  24.651  1.00  0.00    -0.326 N 
ATOM     16  H   UNL A   1      30.377  25.068  24.037  1.00  0.00     0.169 HD
BRANCH  15  17
ATOM     17  C   UNL A   1      30.050  27.090  24.148  1.00  0.00     0.041 A 
ATOM     18  C   UNL A   1      28.802  27.201  23.528  1.00  0.00     0.028 A 
ATOM     19  C   UNL A   1      30.868  28.214  24.246  1.00  0.00     0.028 A 
ATOM     20  C   UNL A   1      28.333  28.454  23.111  1.00  0.00     0.028 A 
ATOM     21  C   UNL A   1      30.443  29.441  23.733  1.00  0.00     0.028 A 
ATOM     22  C   UNL A   1      29.158  29.579  23.203  1.00  0.00     0.047 A 
BRANCH  22  23
ATOM     23  N   UNL A   1      28.693  30.850  22.833  1.00  0.00    -0.274 N 
ATOM     24  C   UNL A   1      28.774  31.991  23.686  1.00  0.00     0.171 C 
ATOM     25  C   UNL A   1      28.172  31.201  21.606  1.00  0.00     0.414 C 
ATOM     26  C   UNL A   1      28.628  33.123  22.699  1.00  0.00     0.257 C 
ATOM     27  O   UNL A   1      27.956  32.555  21.571  1.00  0.00    -0.447 OA
ATOM     28  O   UNL A   1      27.891  30.467  20.666  1.00  0.00    -0.224 OA
ENDBRANCH  22  23
ENDBRANCH  15  17
ENDBRANCH  12  13
ENDBRANCH   6  12
ENDBRANCH   3   6
ENDBRANCH   1   2
BRANCH   1  29
ATOM     29  C   UNL A   1      36.190  21.763  26.160  1.00  0.00     0.042 C 
BRANCH  29  30
ATOM     30  C   UNL A   1      37.212  21.504  25.074  1.00  0.00     0.118 C 
BRANCH  30  31
ATOM     31  N   UNL A   1      38.080  20.373  25.399  1.00  0.00    -0.352 N 
ATOM     32  C   UNL A   1      39.359  20.364  25.906  1.00  0.00     0.251 C 
ATOM     33  H   UNL A   1      37.691  19.484  25.232  1.00  0.00     0.163 HD
ATOM     34  O   UNL A   1      40.017  19.328  25.890  1.00  0.00    -0.269 OA
BRANCH  32  35
ATOM     35  C   UNL A   1      39.933  21.611  26.450  1.00  0.00     0.039 A 
ATOM     36  C   UNL A   1      40.818  21.558  27.530  1.00  0.00     0.014 A 
ATOM     37  C   UNL A   1      39.612  22.834  25.862  1.00  0.00     0.014 A 
ATOM     38  C   UNL A   1      41.440  22.730  27.966  1.00  0.00     0.010 A 
ATOM     39  C   UNL A   1      40.331  23.966  26.204  1.00  0.00     0.010 A 
ATOM     40  C   UNL A   1      41.234  23.935  27.277  1.00  0.00    -0.014 A 
BRANCH  40  41
ATOM     41  C   UNL A   1      41.899  25.206  27.660  1.00  0.00     0.031 A 
ATOM     42  C   UNL A   1      41.091  26.267  28.361  1.00  0.00     0.074 A 
ATOM     43  C   UNL A   1      43.161  25.458  27.263  1.00  0.00     0.049 A 
ATOM     44  N   UNL A   1      41.399  27.511  28.607  1.00  0.00    -0.248 NA
ATOM     45  C   UNL A   1      39.733  25.890  28.798  1.00  0.00     0.031 C 
ATOM     46  C   UNL A   1      44.022  24.532  26.522  1.00  0.00     0.029 A 
ATOM     47  N   UNL A   1      43.928  26.589  27.394  1.00  0.00    -0.354 N 
ATOM     48  C   UNL A   1      40.260  28.077  29.167  1.00  0.00     0.074 A 
ATOM     49  C   UNL A   1      39.240  27.054  29.188  1.00  0.00     0.031 C 
ATOM     50  C   UNL A   1      45.195  25.133  26.263  1.00  0.00     0.029 A 
ATOM     51  C   UNL A   1      45.153  26.500  26.772  1.00  0.00     0.049 A 
ATOM     52  H   UNL A   1      43.630  27.389  27.885  1.00  0.00     0.167 HD
ATOM     53  C   UNL A   1      40.086  29.328  29.649  1.00  0.00     0.034 A 
ATOM     54  C   UNL A   1      46.120  27.424  26.609  1.00  0.00     0.034 A 
ATOM     55  C   UNL A   1      41.124  30.320  29.678  1.00  0.00     0.049 A 
ATOM     56  C   UNL A   1      45.916  28.800  27.185  1.00  0.00     0.074 A 
ATOM     57  C   UNL A   1      41.085  31.587  30.229  1.00  0.00     0.029 A 
ATOM     58  N   UNL A   1      42.385  30.154  29.130  1.00  0.00    -0.354 N 
ATOM     59  N   UNL A   1      44.877  29.279  27.825  1.00  0.00    -0.248 NA
ATOM     60  C   UNL A   1      47.026  29.755  27.045  1.00  0.00     0.031 C 
ATOM     61  C   UNL A   1      42.314  32.203  29.980  1.00  0.00     0.029 A 
ATOM     62  C   UNL A   1      43.133  31.301  29.320  1.00  0.00     0.049 A 
ATOM     63  H   UNL A   1      42.702  29.341  28.672  1.00  0.00     0.167 HD
ATOM     64  C   UNL A   1      45.226  30.568  28.210  1.00  0.00     0.074 A 
ATOM     65  C   UNL A   1      46.574  30.797  27.731  1.00  0.00     0.031 C 
ATOM     66  C   UNL A   1      44.497  31.481  28.894  1.00  0.00     0.034 A 
BRANCH  53  67
ATOM     67  C   UNL A   1      38.738  29.685  30.220  1.00  0.00     0.023 A 
ATOM     68  C   UNL A   1      38.415  29.321  31.543  1.00  0.00     0.012 A 
ATOM     69  C   UNL A   1      37.813  30.430  29.463  1.00  0.00     0.148 A 
ATOM     70  C   UNL A   1      37.178  29.657  32.090  1.00  0.00     0.002 A 
ATOM     71  C   UNL A   1      36.604  30.808  30.033  1.00  0.00     0.091 A 
ATOM     72  F   UNL A   1      38.130  30.747  28.199  1.00  0.00    -0.205 F 
ATOM     73  C   UNL A   1      36.279  30.409  31.340  1.00  0.00     0.022 A 
BRANCH  71  74
ATOM     74  S   UNL A   1      35.416  31.850  29.182  1.00  0.00     0.127 S 
ATOM     75  O   UNL A   1      34.563  32.286  30.287  1.00  0.00    -0.237 OA
ATOM     76  O   UNL A   1      36.273  32.896  28.624  1.00  0.00    -0.237 OA
ATOM     77  O   UNL A   1      34.769  31.000  28.193  1.00  0.00    -0.744 OA
ENDBRANCH  71  74
ENDBRANCH  53  67
BRANCH  54  78
ATOM     78  C   UNL A   1      47.385  27.068  25.906  1.00  0.00     0.023 A 
ATOM     79  C   UNL A   1      48.393  26.373  26.602  1.00  0.00     0.012 A 
ATOM     80  C   UNL A   1      47.589  27.398  24.553  1.00  0.00     0.148 A 
ATOM     81  C   UNL A   1      49.597  26.047  25.975  1.00  0.00     0.002 A 
ATOM     82  C   UNL A   1      48.766  27.020  23.917  1.00  0.00     0.091 A 
ATOM     83  F   UNL A   1      46.620  28.065  23.909  1.00  0.00    -0.205 F 
ATOM     84  C   UNL A   1      49.779  26.362  24.631  1.00  0.00     0.022 A 
BRANCH  82  85
ATOM     85  S   UNL A   1      49.037  27.271  22.160  1.00  0.00     0.127 S 
ATOM     86  O   UNL A   1      50.486  27.439  22.101  1.00  0.00    -0.237 OA
ATOM     87  O   UNL A   1      48.536  26.018  21.597  1.00  0.00    -0.237 OA
ATOM     88  O   UNL A   1      48.252  28.446  21.803  1.00  0.00    -0.744 OA
ENDBRANCH  82  85
ENDBRANCH  54  78
BRANCH  66  89
ATOM     89  C   UNL A   1      45.148  32.789  29.251  1.00  0.00     0.023 A 
ATOM     90  C   UNL A   1      45.908  32.907  30.430  1.00  0.00     0.012 A 
ATOM     91  C   UNL A   1      45.108  33.861  28.337  1.00  0.00     0.148 A 
ATOM     92  C   UNL A   1      46.609  34.082  30.701  1.00  0.00     0.002 A 
ATOM     93  C   UNL A   1      45.851  35.006  28.587  1.00  0.00     0.091 A 
ATOM     94  F   UNL A   1      44.364  33.727  27.230  1.00  0.00    -0.205 F 
ATOM     95  C   UNL A   1      46.593  35.123  29.773  1.00  0.00     0.022 A 
BRANCH  93  96
ATOM     96  S   UNL A   1      45.980  36.349  27.402  1.00  0.00     0.127 S 
ATOM     97  O   UNL A   1      47.049  37.157  27.985  1.00  0.00    -0.237 OA
ATOM     98  O   UNL A   1      46.348  35.642  26.175  1.00  0.00    -0.237 OA
ATOM     99  O   UNL A   1      44.672  36.988  27.368  1.00  0.00    -0.744 OA
ENDBRANCH  93  96
ENDBRANCH  66  89
ENDBRANCH  40  41
ENDBRANCH  32  35
ENDBRANCH  30  31
ENDBRANCH  29  30
ENDBRANCH   1  29
TORSDOF 17
ENDMDL
MODEL 2
REMARK VINA RESULT:     -13.3      1.430      7.439
REMARK SMILES O=C(CC1(C(=O)NCCCNC(=O)c2ccc(-c3c4nc(c(-c5cccc(S(=O)(=O)[O-])c5F)c5ccc([nH]5)c(-c5cccc(S(=O)(=O)[O-])c5F)c5nc(c(-c6cccc(S(=O)(=O)[O-])c6F)c6ccc3[nH]6)C=C5)C=C4)cc2)CCCCC1)Nc1ccc(N2CCOC2=O)cc1
REMARK SMILES IDX 8 1 7 2 5 3 6 4 4 6 77 7 81 8 78 9 80 10 79 11 3 12 2 13
REMARK SMILES IDX 1 14 82 15 83 17 84 18 94 19 85 20 93 21 86 22 87 23 88 24
REMARK SMILES IDX 91 25 89 26 90 27 92 28 9 29 10 30 11 31 12 32 13 34 14 35
REMARK SMILES IDX 15 36 76 37 16 38 75 39 17 40 18 41 19 42 69 43 20 44 74 45
REMARK SMILES IDX 68 46 70 47 21 48 73 49 67 50 66 51 22 53 54 54 34 55 53 56
REMARK SMILES IDX 35 57 38 58 52 59 71 60 36 61 37 62 51 64 72 65 39 66 23 67
REMARK SMILES IDX 24 68 32 69 25 70 27 71 33 72 26 73 28 74 29 75 30 76 31 77
REMARK SMILES IDX 55 78 56 79 64 80 57 81 59 82 65 83 58 84 60 85 61 86 62 87
REMARK SMILES IDX 63 88 40 89 41 90 49 91 42 92 44 93 50 94 43 95 45 96 46 97
REMARK SMILES IDX 47 98 48 99
REMARK H PARENT 7 5 82 16 11 33 70 52 38 63
REMARK Flexibility Score: inf
ROOT
ATOM      1  C   UNL A   1      34.856  21.159  25.557  1.00  0.00     0.117 C 
ENDROOT
BRANCH   1   2
ATOM      2  N   UNL A   1      33.828  21.452  26.520  1.00  0.00    -0.356 N 
ATOM      3  C   UNL A   1      32.887  22.409  26.622  1.00  0.00     0.226 C 
ATOM      4  O   UNL A   1      32.298  22.374  27.713  1.00  0.00    -0.274 OA
ATOM      5  H   UNL A   1      33.809  20.814  27.269  1.00  0.00     0.163 HD
BRANCH   3   6
ATOM      6  C   UNL A   1      32.537  23.515  25.579  1.00  0.00     0.058 C 
ATOM      7  C   UNL A   1      32.418  22.973  24.126  1.00  0.00     0.017 C 
ATOM      8  C   UNL A   1      33.449  24.754  25.639  1.00  0.00     0.017 C 
ATOM      9  C   UNL A   1      33.652  22.983  23.230  1.00  0.00     0.001 C 
ATOM     10  C   UNL A   1      34.742  24.703  24.840  1.00  0.00     0.001 C 
ATOM     11  C   UNL A   1      34.599  24.164  23.422  1.00  0.00     0.000 C 
BRANCH   6  12
ATOM     12  C   UNL A   1      31.061  23.959  25.965  1.00  0.00     0.117 C 
BRANCH  12  13
ATOM     13  C   UNL A   1      30.627  25.403  25.704  1.00  0.00     0.225 C 
ATOM     14  O   UNL A   1      30.464  26.160  26.662  1.00  0.00    -0.275 OA
ATOM     15  N   UNL A   1      30.446  25.749  24.383  1.00  0.00    -0.326 N 
ATOM     16  H   UNL A   1      30.618  25.053  23.708  1.00  0.00     0.169 HD
BRANCH  15  17
ATOM     17  C   UNL A   1      30.040  27.010  23.917  1.00  0.00     0.041 A 
ATOM     18  C   UNL A   1      28.700  27.183  23.558  1.00  0.00     0.028 A 
ATOM     19  C   UNL A   1      30.923  28.082  23.801  1.00  0.00     0.028 A 
ATOM     20  C   UNL A   1      28.229  28.451  23.193  1.00  0.00     0.028 A 
ATOM     21  C   UNL A   1      30.473  29.319  23.335  1.00  0.00     0.028 A 
ATOM     22  C   UNL A   1      29.117  29.523  23.071  1.00  0.00     0.047 A 
BRANCH  22  23
ATOM     23  N   UNL A   1      28.659  30.810  22.750  1.00  0.00    -0.274 N 
ATOM     24  C   UNL A   1      28.711  31.907  23.661  1.00  0.00     0.171 C 
ATOM     25  C   UNL A   1      28.174  31.221  21.527  1.00  0.00     0.414 C 
ATOM     26  C   UNL A   1      28.591  33.087  22.727  1.00  0.00     0.257 C 
ATOM     27  O   UNL A   1      27.955  32.574  21.553  1.00  0.00    -0.447 OA
ATOM     28  O   UNL A   1      27.923  30.534  20.544  1.00  0.00    -0.224 OA
ENDBRANCH  22  23
ENDBRANCH  15  17
ENDBRANCH  12  13
ENDBRANCH   6  12
ENDBRANCH   3   6
ENDBRANCH   1   2
BRANCH   1  29
ATOM     29  C   UNL A   1      36.197  21.746  25.953  1.00  0.00     0.042 C 
BRANCH  29  30
ATOM     30  C   UNL A   1      37.292  21.406  24.965  1.00  0.00     0.118 C 
BRANCH  30  31
ATOM     31  N   UNL A   1      38.217  20.408  25.498  1.00  0.00    -0.352 N 
ATOM     32  C   UNL A   1      39.444  20.577  26.096  1.00  0.00     0.251 C 
ATOM     33  H   UNL A   1      37.917  19.473  25.418  1.00  0.00     0.163 HD
ATOM     34  O   UNL A   1      40.183  19.610  26.264  1.00  0.00    -0.269 OA
BRANCH  32  35
ATOM     35  C   UNL A   1      39.867  21.928  26.517  1.00  0.00     0.039 A 
ATOM     36  C   UNL A   1      40.810  22.077  27.537  1.00  0.00     0.014 A 
ATOM     37  C   UNL A   1      39.344  23.048  25.872  1.00  0.00     0.014 A 
ATOM     38  C   UNL A   1      41.285  23.353  27.851  1.00  0.00     0.010 A 
ATOM     39  C   UNL A   1      39.914  24.290  26.090  1.00  0.00     0.010 A 
ATOM     40  C   UNL A   1      40.872  24.463  27.099  1.00  0.00    -0.014 A 
BRANCH  40  41
ATOM     41  C   UNL A   1      41.371  25.837  27.352  1.00  0.00     0.031 A 
ATOM     42  C   UNL A   1      42.787  26.180  26.969  1.00  0.00     0.074 A 
ATOM     43  C   UNL A   1      40.617  26.718  28.040  1.00  0.00     0.049 A 
ATOM     44  N   UNL A   1      43.493  27.236  27.272  1.00  0.00    -0.248 NA
ATOM     45  C   UNL A   1      43.525  25.175  26.180  1.00  0.00     0.031 C 
ATOM     46  C   UNL A   1      39.254  26.477  28.521  1.00  0.00     0.029 A 
ATOM     47  N   UNL A   1      40.908  27.982  28.489  1.00  0.00    -0.354 N 
ATOM     48  C   UNL A   1      44.765  26.995  26.768  1.00  0.00     0.074 A 
ATOM     49  C   UNL A   1      44.749  25.678  26.176  1.00  0.00     0.031 C 
ATOM     50  C   UNL A   1      38.830  27.557  29.198  1.00  0.00     0.029 A 
ATOM     51  C   UNL A   1      39.904  28.543  29.244  1.00  0.00     0.049 A 
ATOM     52  H   UNL A   1      41.755  28.443  28.291  1.00  0.00     0.167 HD
ATOM     53  C   UNL A   1      45.845  27.809  26.771  1.00  0.00     0.034 A 
ATOM     54  C   UNL A   1      39.865  29.710  29.919  1.00  0.00     0.034 A 
ATOM     55  C   UNL A   1      45.834  29.140  27.310  1.00  0.00     0.049 A 
ATOM     56  C   UNL A   1      41.067  30.614  29.879  1.00  0.00     0.074 A 
ATOM     57  C   UNL A   1      46.842  30.086  27.281  1.00  0.00     0.029 A 
ATOM     58  N   UNL A   1      44.762  29.710  27.977  1.00  0.00    -0.354 N 
ATOM     59  N   UNL A   1      42.222  30.422  29.288  1.00  0.00    -0.248 NA
ATOM     60  C   UNL A   1      40.955  31.907  30.570  1.00  0.00     0.031 C 
ATOM     61  C   UNL A   1      46.391  31.217  27.966  1.00  0.00     0.029 A 
ATOM     62  C   UNL A   1      45.086  30.994  28.374  1.00  0.00     0.049 A 
ATOM     63  H   UNL A   1      43.898  29.268  28.143  1.00  0.00     0.167 HD
ATOM     64  C   UNL A   1      42.952  31.588  29.489  1.00  0.00     0.074 A 
ATOM     65  C   UNL A   1      42.110  32.481  30.258  1.00  0.00     0.031 C 
ATOM     66  C   UNL A   1      44.206  31.890  29.079  1.00  0.00     0.034 A 
BRANCH  53  67
ATOM     67  C   UNL A   1      47.115  27.302  26.141  1.00  0.00     0.023 A 
ATOM     68  C   UNL A   1      47.405  27.610  24.796  1.00  0.00     0.012 A 
ATOM     69  C   UNL A   1      48.048  26.567  26.898  1.00  0.00     0.148 A 
ATOM     70  C   UNL A   1      48.583  27.160  24.203  1.00  0.00     0.002 A 
ATOM     71  C   UNL A   1      49.245  26.169  26.316  1.00  0.00     0.091 A 
ATOM     72  F   UNL A   1      47.744  26.266  28.168  1.00  0.00    -0.205 F 
ATOM     73  C   UNL A   1      49.507  26.451  24.965  1.00  0.00     0.022 A 
BRANCH  71  74
ATOM     74  S   UNL A   1      50.536  25.328  27.236  1.00  0.00     0.127 S 
ATOM     75  O   UNL A   1      50.918  26.350  28.208  1.00  0.00    -0.237 OA
ATOM     76  O   UNL A   1      49.814  24.188  27.801  1.00  0.00    -0.237 OA
ATOM     77  O   UNL A   1      51.562  24.978  26.264  1.00  0.00    -0.744 OA
ENDBRANCH  71  74
ENDBRANCH  53  67
BRANCH  54  78
ATOM     78  C   UNL A   1      38.631  30.108  30.655  1.00  0.00     0.023 A 
ATOM     79  C   UNL A   1      38.447  29.678  31.984  1.00  0.00     0.012 A 
ATOM     80  C   UNL A   1      37.651  30.921  30.056  1.00  0.00     0.148 A 
ATOM     81  C   UNL A   1      37.292  30.017  32.689  1.00  0.00     0.002 A 
ATOM     82  C   UNL A   1      36.529  31.303  30.782  1.00  0.00     0.091 A 
ATOM     83  F   UNL A   1      37.841  31.316  28.788  1.00  0.00    -0.205 F 
ATOM     84  C   UNL A   1      36.338  30.836  32.091  1.00  0.00     0.022 A 
BRANCH  82  85
ATOM     85  S   UNL A   1      35.312  32.457  30.140  1.00  0.00     0.127 S 
ATOM     86  O   UNL A   1      34.811  31.744  28.968  1.00  0.00    -0.237 OA
ATOM     87  O   UNL A   1      34.370  32.551  31.256  1.00  0.00    -0.237 OA
ATOM     88  O   UNL A   1      36.041  33.688  29.865  1.00  0.00    -0.744 OA
ENDBRANCH  82  85
ENDBRANCH  54  78
BRANCH  66  89
ATOM     89  C   UNL A   1      44.737  33.268  29.369  1.00  0.00     0.023 A 
ATOM     90  C   UNL A   1      45.464  33.517  30.547  1.00  0.00     0.012 A 
ATOM     91  C   UNL A   1      44.620  34.280  28.394  1.00  0.00     0.148 A 
ATOM     92  C   UNL A   1      46.057  34.762  30.759  1.00  0.00     0.002 A 
ATOM     93  C   UNL A   1      45.257  35.497  28.587  1.00  0.00     0.091 A 
ATOM     94  F   UNL A   1      43.908  34.020  27.288  1.00  0.00    -0.205 F 
ATOM     95  C   UNL A   1      45.967  35.744  29.773  1.00  0.00     0.022 A 
BRANCH  93  96
ATOM     96  S   UNL A   1      45.290  36.778  27.329  1.00  0.00     0.127 S 
ATOM     97  O   UNL A   1      46.104  37.806  27.974  1.00  0.00    -0.237 OA
ATOM     98  O   UNL A   1      45.942  36.093  26.212  1.00  0.00    -0.237 OA
ATOM     99  O   UNL A   1      43.902  37.148  27.090  1.00  0.00    -0.744 OA
ENDBRANCH  93  96
ENDBRANCH  66  89
ENDBRANCH  40  41
ENDBRANCH  32  35
ENDBRANCH  30  31
ENDBRANCH  29  30
ENDBRANCH   1  29
TORSDOF 17
ENDMDL
MODEL 3
REMARK VINA RESULT:     -12.8      2.608      5.288
REMARK SMILES O=C(CC1(C(=O)NCCCNC(=O)c2ccc(-c3c4nc(c(-c5cccc(S(=O)(=O)[O-])c5F)c5ccc([nH]5)c(-c5cccc(S(=O)(=O)[O-])c5F)c5nc(c(-c6cccc(S(=O)(=O)[O-])c6F)c6ccc3[nH]6)C=C5)C=C4)cc2)CCCCC1)Nc1ccc(N2CCOC2=O)cc1
REMARK SMILES IDX 8 1 7 2 5 3 6 4 4 6 77 7 81 8 78 9 80 10 79 11 3 12 2 13
REMARK SMILES IDX 1 14 82 15 83 17 84 18 94 19 85 20 93 21 86 22 87 23 88 24
REMARK SMILES IDX 91 25 89 26 90 27 92 28 9 29 10 30 11 31 12 32 13 34 14 35
REMARK SMILES IDX 15 36 76 37 16 38 75 39 17 40 18 41 19 42 69 43 20 44 74 45
REMARK SMILES IDX 68 46 70 47 21 48 73 49 67 50 66 51 22 53 54 54 34 55 53 56
REMARK SMILES IDX 35 57 38 58 52 59 71 60 36 61 37 62 51 64 72 65 39 66 23 67
REMARK SMILES IDX 24 68 32 69 25 70 27 71 33 72 26 73 28 74 29 75 30 76 31 77
REMARK SMILES IDX 55 78 56 79 64 80 57 81 59 82 65 83 58 84 60 85 61 86 62 87
REMARK SMILES IDX 63 88 40 89 41 90 49 91 42 92 44 93 50 94 43 95 45 96 46 97
REMARK SMILES IDX 47 98 48 99
REMARK H PARENT 7 5 82 16 11 33 70 52 38 63
REMARK Flexibility Score: inf
ROOT
ATOM      1  C   UNL A   1      34.781  24.792  25.433  1.00  0.00     0.117 C 
ENDROOT
BRANCH   1   2
ATOM      2  N   UNL A   1      33.482  24.870  26.048  1.00  0.00    -0.356 N 
ATOM      3  C   UNL A   1      32.331  25.488  25.726  1.00  0.00     0.226 C 
ATOM      4  O   UNL A   1      31.487  25.410  26.632  1.00  0.00    -0.274 OA
ATOM      5  H   UNL A   1      33.423  24.360  26.887  1.00  0.00     0.163 HD
BRANCH   3   6
ATOM      6  C   UNL A   1      32.009  26.283  24.423  1.00  0.00     0.058 C 
ATOM      7  C   UNL A   1      33.280  26.745  23.656  1.00  0.00     0.017 C 
ATOM      8  C   UNL A   1      31.021  27.449  24.620  1.00  0.00     0.017 C 
ATOM      9  C   UNL A   1      33.866  28.121  23.955  1.00  0.00     0.001 C 
ATOM     10  C   UNL A   1      31.606  28.787  25.044  1.00  0.00     0.001 C 
ATOM     11  C   UNL A   1      32.853  29.214  24.280  1.00  0.00     0.000 C 
BRANCH   6  12
ATOM     12  C   UNL A   1      31.331  25.207  23.469  1.00  0.00     0.117 C 
BRANCH  12  13
ATOM     13  C   UNL A   1      31.372  23.730  23.868  1.00  0.00     0.225 C 
ATOM     14  O   UNL A   1      30.514  23.296  24.638  1.00  0.00    -0.275 OA
ATOM     15  N   UNL A   1      32.392  22.986  23.320  1.00  0.00    -0.326 N 
ATOM     16  H   UNL A   1      33.010  23.450  22.710  1.00  0.00     0.169 HD
BRANCH  15  17
ATOM     17  C   UNL A   1      32.626  21.621  23.557  1.00  0.00     0.041 A 
ATOM     18  C   UNL A   1      33.518  21.269  24.574  1.00  0.00     0.028 A 
ATOM     19  C   UNL A   1      32.004  20.618  22.815  1.00  0.00     0.028 A 
ATOM     20  C   UNL A   1      33.697  19.922  24.917  1.00  0.00     0.028 A 
ATOM     21  C   UNL A   1      32.266  19.274  23.088  1.00  0.00     0.028 A 
ATOM     22  C   UNL A   1      33.078  18.918  24.167  1.00  0.00     0.047 A 
BRANCH  22  23
ATOM     23  N   UNL A   1      33.209  17.566  24.520  1.00  0.00    -0.274 N 
ATOM     24  C   UNL A   1      32.754  17.037  25.765  1.00  0.00     0.171 C 
ATOM     25  C   UNL A   1      33.710  16.561  23.723  1.00  0.00     0.414 C 
ATOM     26  C   UNL A   1      32.664  15.562  25.456  1.00  0.00     0.257 C 
ATOM     27  O   UNL A   1      33.553  15.354  24.354  1.00  0.00    -0.447 OA
ATOM     28  O   UNL A   1      34.253  16.663  22.629  1.00  0.00    -0.224 OA
ENDBRANCH  22  23
ENDBRANCH  15  17
ENDBRANCH  12  13
ENDBRANCH   6  12
ENDBRANCH   3   6
ENDBRANCH   1   2
BRANCH   1  29
ATOM     29  C   UNL A   1      35.501  23.502  25.776  1.00  0.00     0.042 C 
BRANCH  29  30
ATOM     30  C   UNL A   1      36.586  23.161  24.777  1.00  0.00     0.118 C 
BRANCH  30  31
ATOM     31  N   UNL A   1      37.222  21.880  25.079  1.00  0.00    -0.352 N 
ATOM     32  C   UNL A   1      38.425  21.618  25.691  1.00  0.00     0.251 C 
ATOM     33  H   UNL A   1      36.712  21.084  24.804  1.00  0.00     0.163 HD
ATOM     34  O   UNL A   1      38.904  20.489  25.644  1.00  0.00    -0.269 OA
BRANCH  32  35
ATOM     35  C   UNL A   1      39.138  22.709  26.387  1.00  0.00     0.039 A 
ATOM     36  C   UNL A   1      40.151  22.408  27.301  1.00  0.00     0.014 A 
ATOM     37  C   UNL A   1      38.815  24.036  26.106  1.00  0.00     0.014 A 
ATOM     38  C   UNL A   1      40.893  23.446  27.869  1.00  0.00     0.010 A 
ATOM     39  C   UNL A   1      39.638  25.051  26.562  1.00  0.00     0.010 A 
ATOM     40  C   UNL A   1      40.670  24.772  27.470  1.00  0.00    -0.014 A 
BRANCH  40  41
ATOM     41  C   UNL A   1      41.452  25.916  28.002  1.00  0.00     0.031 A 
ATOM     42  C   UNL A   1      40.742  26.968  28.814  1.00  0.00     0.074 A 
ATOM     43  C   UNL A   1      42.741  26.080  27.647  1.00  0.00     0.049 A 
ATOM     44  N   UNL A   1      41.169  28.138  29.204  1.00  0.00    -0.248 NA
ATOM     45  C   UNL A   1      39.345  26.685  29.194  1.00  0.00     0.031 C 
ATOM     46  C   UNL A   1      43.518  25.161  26.812  1.00  0.00     0.029 A 
ATOM     47  N   UNL A   1      43.616  27.104  27.913  1.00  0.00    -0.354 N 
ATOM     48  C   UNL A   1      40.083  28.751  29.817  1.00  0.00     0.074 A 
ATOM     49  C   UNL A   1      38.964  27.843  29.712  1.00  0.00     0.031 C 
ATOM     50  C   UNL A   1      44.750  25.664  26.633  1.00  0.00     0.029 A 
ATOM     51  C   UNL A   1      44.837  26.961  27.295  1.00  0.00     0.049 A 
ATOM     52  H   UNL A   1      43.391  27.870  28.491  1.00  0.00     0.167 HD
ATOM     53  C   UNL A   1      40.027  29.950  30.438  1.00  0.00     0.034 A 
ATOM     54  C   UNL A   1      45.896  27.793  27.247  1.00  0.00     0.034 A 
ATOM     55  C   UNL A   1      41.160  30.820  30.588  1.00  0.00     0.049 A 
ATOM     56  C   UNL A   1      45.821  29.108  27.975  1.00  0.00     0.074 A 
ATOM     57  C   UNL A   1      41.239  32.014  31.282  1.00  0.00     0.029 A 
ATOM     58  N   UNL A   1      42.408  30.589  30.035  1.00  0.00    -0.354 N 
ATOM     59  N   UNL A   1      44.823  29.616  28.658  1.00  0.00    -0.248 NA
ATOM     60  C   UNL A   1      47.025  29.953  27.955  1.00  0.00     0.031 C 
ATOM     61  C   UNL A   1      42.528  32.525  31.114  1.00  0.00     0.029 A 
ATOM     62  C   UNL A   1      43.264  31.623  30.362  1.00  0.00     0.049 A 
ATOM     63  H   UNL A   1      42.650  29.805  29.489  1.00  0.00     0.167 HD
ATOM     64  C   UNL A   1      45.294  30.810  29.192  1.00  0.00     0.074 A 
ATOM     65  C   UNL A   1      46.667  30.952  28.752  1.00  0.00     0.031 C 
ATOM     66  C   UNL A   1      44.647  31.709  29.970  1.00  0.00     0.034 A 
BRANCH  53  67
ATOM     67  C   UNL A   1      38.712  30.377  31.034  1.00  0.00     0.023 A 
ATOM     68  C   UNL A   1      38.432  30.103  32.389  1.00  0.00     0.012 A 
ATOM     69  C   UNL A   1      37.776  31.098  30.268  1.00  0.00     0.148 A 
ATOM     70  C   UNL A   1      37.225  30.505  32.960  1.00  0.00     0.002 A 
ATOM     71  C   UNL A   1      36.599  31.542  30.858  1.00  0.00     0.091 A 
ATOM     72  F   UNL A   1      38.051  31.329  28.976  1.00  0.00    -0.205 F 
ATOM     73  C   UNL A   1      36.316  31.233  32.198  1.00  0.00     0.022 A 
BRANCH  71  74
ATOM     74  S   UNL A   1      35.405  32.562  29.989  1.00  0.00     0.127 S 
ATOM     75  O   UNL A   1      36.227  33.704  29.592  1.00  0.00    -0.237 OA
ATOM     76  O   UNL A   1      35.002  31.688  28.887  1.00  0.00    -0.237 OA
ATOM     77  O   UNL A   1      34.352  32.857  30.949  1.00  0.00    -0.744 OA
ENDBRANCH  71  74
ENDBRANCH  53  67
BRANCH  54  78
ATOM     78  C   UNL A   1      47.132  27.391  26.518  1.00  0.00     0.023 A 
ATOM     79  C   UNL A   1      47.304  27.783  25.176  1.00  0.00     0.012 A 
ATOM     80  C   UNL A   1      48.143  26.639  27.147  1.00  0.00     0.148 A 
ATOM     81  C   UNL A   1      48.441  27.401  24.462  1.00  0.00     0.002 A 
ATOM     82  C   UNL A   1      49.299  26.311  26.449  1.00  0.00     0.091 A 
ATOM     83  F   UNL A   1      47.959  26.271  28.424  1.00  0.00    -0.205 F 
ATOM     84  C   UNL A   1      49.441  26.674  25.101  1.00  0.00     0.022 A 
BRANCH  82  85
ATOM     85  S   UNL A   1      50.693  25.487  27.225  1.00  0.00     0.127 S 
ATOM     86  O   UNL A   1      50.072  24.271  27.742  1.00  0.00    -0.237 OA
ATOM     87  O   UNL A   1      51.594  25.288  26.090  1.00  0.00    -0.237 OA
ATOM     88  O   UNL A   1      51.191  26.417  28.231  1.00  0.00    -0.744 OA
ENDBRANCH  82  85
ENDBRANCH  54  78
BRANCH  66  89
ATOM     89  C   UNL A   1      45.421  32.895  30.481  1.00  0.00     0.023 A 
ATOM     90  C   UNL A   1      46.170  32.798  31.668  1.00  0.00     0.012 A 
ATOM     91  C   UNL A   1      45.503  34.064  29.697  1.00  0.00     0.148 A 
ATOM     92  C   UNL A   1      46.981  33.856  32.077  1.00  0.00     0.002 A 
ATOM     93  C   UNL A   1      46.353  35.091  30.083  1.00  0.00     0.091 A 
ATOM     94  F   UNL A   1      44.767  34.135  28.579  1.00  0.00    -0.205 F 
ATOM     95  C   UNL A   1      47.084  34.994  31.277  1.00  0.00     0.022 A 
BRANCH  93  96
ATOM     96  S   UNL A   1      46.636  36.542  29.063  1.00  0.00     0.127 S 
ATOM     97  O   UNL A   1      47.839  37.103  29.674  1.00  0.00    -0.237 OA
ATOM     98  O   UNL A   1      46.838  35.952  27.740  1.00  0.00    -0.237 OA
ATOM     99  O   UNL A   1      45.439  37.364  29.187  1.00  0.00    -0.744 OA
ENDBRANCH  93  96
ENDBRANCH  66  89
ENDBRANCH  40  41
ENDBRANCH  32  35
ENDBRANCH  30  31
ENDBRANCH  29  30
ENDBRANCH   1  29
TORSDOF 17
ENDMDL
