MODEL 1
REMARK VINA RESULT:     -12.5      0.000      0.000
REMARK SMILES COc1ccc(-n2ccnc2C[N@@H+]2CCn3nc(C(=O)NCCCNC(=O)c4ccc(-c5c6nc(c(-c7cccc(S(=O)(=O)[O-])c7F)c7ccc([nH]7)c(-c7cccc(S(=O)(=O)[O-])c7F)c7nc(c(-c8cccc(S(=O)(=O)[O-])c8F)c8ccc5[nH]8)C=C7)C=C6)cc4)cc3C2)cc1
REMARK SMILES IDX 22 1 21 2 19 3 20 4 18 6 13 7 14 8 93 9 15 11 92 12 16 13
REMARK SMILES IDX 91 14 17 15 12 16 11 17 7 18 8 19 9 20 10 21 6 22 3 23 4 24
REMARK SMILES IDX 95 25 5 26 94 27 2 28 1 29 23 30 24 31 25 32 26 33 27 35
REMARK SMILES IDX 28 36 29 37 90 38 30 39 89 40 31 41 32 42 33 43 83 44 34 45
REMARK SMILES IDX 88 46 82 47 84 48 35 49 87 50 81 51 80 52 36 54 68 55 48 56
REMARK SMILES IDX 67 57 49 58 52 59 66 60 85 61 50 62 51 63 65 65 86 66 53 67
REMARK SMILES IDX 37 68 38 69 46 70 39 71 41 72 47 73 40 74 42 75 43 76 44 77
REMARK SMILES IDX 45 78 69 79 70 80 78 81 71 82 73 83 79 84 72 85 74 86 75 87
REMARK SMILES IDX 76 88 77 89 54 90 55 91 63 92 56 93 58 94 64 95 57 96 59 97
REMARK SMILES IDX 60 98 61 99 62 100
REMARK H PARENT 21 5 13 10 25 34 84 53 52 64
REMARK Flexibility Score: inf
ROOT
ATOM      1  C   UNL A   1      33.126  30.409  27.141  1.00  0.00     0.118 C 
ENDROOT
BRANCH   1   2
ATOM      2  N   UNL A   1      31.913  30.740  26.363  1.00  0.00    -0.351 N 
ATOM      3  C   UNL A   1      31.171  30.392  25.090  1.00  0.00     0.271 C 
ATOM      4  O   UNL A   1      30.354  31.389  25.297  1.00  0.00    -0.267 OA
ATOM      5  H   UNL A   1      31.408  31.435  26.843  1.00  0.00     0.163 HD
BRANCH   3   6
ATOM      6  C   UNL A   1      31.307  28.970  23.588  1.00  0.00     0.150 A 
ATOM      7  N   UNL A   1      32.429  25.137  23.779  1.00  0.00    -0.322 N 
ATOM      8  C   UNL A   1      33.674  25.795  23.279  1.00  0.00     0.286 C 
ATOM      9  C   UNL A   1      31.295  25.324  22.842  1.00  0.00     0.319 C 
ATOM     10  H   UNL A   1      32.716  24.159  23.824  1.00  0.00     0.348 HD
ATOM     11  C   UNL A   1      33.516  26.740  22.065  1.00  0.00     0.206 C 
ATOM     12  C   UNL A   1      31.172  26.782  22.612  1.00  0.00     0.094 A 
ATOM     13  N   UNL A   1      32.278  27.465  22.256  1.00  0.00    -0.257 N 
ATOM     14  C   UNL A   1      30.328  27.731  23.106  1.00  0.00     0.065 A 
ATOM     15  N   UNL A   1      32.293  28.753  22.578  1.00  0.00    -0.167 NA
BRANCH   7  16
ATOM     16  C   UNL A   1      31.984  25.458  25.172  1.00  0.00     0.339 C 
BRANCH  16  17
ATOM     17  C   UNL A   1      31.086  24.530  25.939  1.00  0.00     0.168 A 
ATOM     18  N   UNL A   1      31.337  23.185  26.188  1.00  0.00    -0.299 N 
ATOM     19  C   UNL A   1      30.234  22.690  26.838  1.00  0.00     0.113 A 
ATOM     20  C   UNL A   1      29.411  23.767  27.055  1.00  0.00     0.132 A 
ATOM     21  N   UNL A   1      29.936  24.895  26.486  1.00  0.00    -0.236 NA
BRANCH  18  22
ATOM     22  C   UNL A   1      32.411  22.388  25.749  1.00  0.00     0.047 A 
ATOM     23  C   UNL A   1      35.234  20.163  25.087  1.00  0.00     0.119 A 
ATOM     24  C   UNL A   1      33.612  19.797  24.344  1.00  0.00     0.048 A 
ATOM     25  C   UNL A   1      35.452  21.625  26.136  1.00  0.00     0.048 A 
ATOM     26  C   UNL A   1      32.168  20.936  24.688  1.00  0.00     0.030 A 
ATOM     27  C   UNL A   1      34.029  22.742  26.467  1.00  0.00     0.030 A 
BRANCH  23  28
ATOM     28  O   UNL A   1      36.232  19.261  24.847  1.00  0.00    -0.497 OA
ATOM     29  C   UNL A   1      37.500  19.902  24.761  1.00  0.00     0.278 C 
ENDBRANCH  23  28
ENDBRANCH  18  22
ENDBRANCH  16  17
ENDBRANCH   7  16
ENDBRANCH   3   6
ENDBRANCH   1   2
BRANCH   1  30
ATOM     30  C   UNL A   1      33.848  31.686  27.579  1.00  0.00     0.042 C 
BRANCH  30  31
ATOM     31  C   UNL A   1      34.950  31.336  28.553  1.00  0.00     0.118 C 
BRANCH  31  32
ATOM     32  N   UNL A   1      34.874  32.180  29.755  1.00  0.00    -0.352 N 
ATOM     33  C   UNL A   1      35.455  31.968  30.988  1.00  0.00     0.251 C 
ATOM     34  H   UNL A   1      34.339  33.002  29.668  1.00  0.00     0.163 HD
ATOM     35  O   UNL A   1      35.007  32.514  31.989  1.00  0.00    -0.269 OA
BRANCH  33  36
ATOM     36  C   UNL A   1      36.657  31.116  31.052  1.00  0.00     0.039 A 
ATOM     37  C   UNL A   1      36.597  29.725  31.127  1.00  0.00     0.014 A 
ATOM     38  C   UNL A   1      37.886  31.765  30.990  1.00  0.00     0.014 A 
ATOM     39  C   UNL A   1      37.800  29.014  31.154  1.00  0.00     0.010 A 
ATOM     40  C   UNL A   1      39.016  31.053  30.709  1.00  0.00     0.010 A 
ATOM     41  C   UNL A   1      39.020  29.696  30.954  1.00  0.00    -0.014 A 
BRANCH  41  42
ATOM     42  C   UNL A   1      40.281  29.011  30.668  1.00  0.00     0.031 A 
ATOM     43  C   UNL A   1      40.978  28.774  31.962  1.00  0.00     0.074 A 
ATOM     44  C   UNL A   1      40.630  28.505  29.452  1.00  0.00     0.049 A 
ATOM     45  N   UNL A   1      41.879  29.546  32.476  1.00  0.00    -0.248 NA
ATOM     46  C   UNL A   1      40.396  27.843  32.955  1.00  0.00     0.031 C 
ATOM     47  C   UNL A   1      39.848  28.490  28.205  1.00  0.00     0.029 A 
ATOM     48  N   UNL A   1      41.760  27.833  29.058  1.00  0.00    -0.354 N 
ATOM     49  C   UNL A   1      42.247  28.921  33.663  1.00  0.00     0.074 A 
ATOM     50  C   UNL A   1      41.113  28.136  34.045  1.00  0.00     0.031 C 
ATOM     51  C   UNL A   1      40.419  27.656  27.296  1.00  0.00     0.029 A 
ATOM     52  C   UNL A   1      41.685  27.174  27.816  1.00  0.00     0.049 A 
ATOM     53  H   UNL A   1      42.574  27.815  29.611  1.00  0.00     0.167 HD
ATOM     54  C   UNL A   1      43.574  28.765  33.934  1.00  0.00     0.034 A 
ATOM     55  C   UNL A   1      42.598  26.318  27.253  1.00  0.00     0.034 A 
ATOM     56  C   UNL A   1      44.339  29.623  33.049  1.00  0.00     0.049 A 
ATOM     57  C   UNL A   1      43.883  26.566  27.931  1.00  0.00     0.074 A 
ATOM     58  C   UNL A   1      44.425  30.976  32.795  1.00  0.00     0.029 A 
ATOM     59  N   UNL A   1      44.769  28.978  31.918  1.00  0.00    -0.354 N 
ATOM     60  N   UNL A   1      44.538  27.681  27.802  1.00  0.00    -0.248 NA
ATOM     61  C   UNL A   1      44.151  25.794  29.128  1.00  0.00     0.031 C 
ATOM     62  C   UNL A   1      44.611  31.088  31.384  1.00  0.00     0.029 A 
ATOM     63  C   UNL A   1      44.781  29.813  30.845  1.00  0.00     0.049 A 
ATOM     64  H   UNL A   1      45.034  28.030  31.889  1.00  0.00     0.167 HD
ATOM     65  C   UNL A   1      44.861  28.010  29.108  1.00  0.00     0.074 A 
ATOM     66  C   UNL A   1      44.693  26.764  29.867  1.00  0.00     0.031 C 
ATOM     67  C   UNL A   1      44.876  29.323  29.488  1.00  0.00     0.034 A 
BRANCH  54  68
ATOM     68  C   UNL A   1      44.213  27.499  34.511  1.00  0.00     0.023 A 
ATOM     69  C   UNL A   1      45.230  27.705  35.476  1.00  0.00     0.012 A 
ATOM     70  C   UNL A   1      44.103  26.183  33.995  1.00  0.00     0.148 A 
ATOM     71  C   UNL A   1      46.127  26.696  35.843  1.00  0.00     0.002 A 
ATOM     72  C   UNL A   1      44.967  25.166  34.399  1.00  0.00     0.091 A 
ATOM     73  F   UNL A   1      43.223  25.899  33.038  1.00  0.00    -0.205 F 
ATOM     74  C   UNL A   1      45.998  25.425  35.303  1.00  0.00     0.022 A 
BRANCH  72  75
ATOM     75  S   UNL A   1      44.840  23.487  33.757  1.00  0.00     0.127 S 
ATOM     76  O   UNL A   1      43.575  23.045  34.338  1.00  0.00    -0.237 OA
ATOM     77  O   UNL A   1      44.810  23.731  32.315  1.00  0.00    -0.237 OA
ATOM     78  O   UNL A   1      46.027  22.784  34.227  1.00  0.00    -0.744 OA
ENDBRANCH  72  75
ENDBRANCH  54  68
BRANCH  55  79
ATOM     79  C   UNL A   1      42.450  25.080  26.418  1.00  0.00     0.023 A 
ATOM     80  C   UNL A   1      43.429  24.717  25.454  1.00  0.00     0.012 A 
ATOM     81  C   UNL A   1      41.542  24.082  26.815  1.00  0.00     0.148 A 
ATOM     82  C   UNL A   1      43.509  23.410  24.936  1.00  0.00     0.002 A 
ATOM     83  C   UNL A   1      41.629  22.784  26.307  1.00  0.00     0.091 A 
ATOM     84  F   UNL A   1      40.652  24.381  27.769  1.00  0.00    -0.205 F 
ATOM     85  C   UNL A   1      42.615  22.439  25.373  1.00  0.00     0.022 A 
BRANCH  83  86
ATOM     86  S   UNL A   1      40.543  21.469  26.876  1.00  0.00     0.127 S 
ATOM     87  O   UNL A   1      40.882  21.397  28.298  1.00  0.00    -0.237 OA
ATOM     88  O   UNL A   1      39.222  22.021  26.588  1.00  0.00    -0.237 OA
ATOM     89  O   UNL A   1      40.915  20.289  26.107  1.00  0.00    -0.744 OA
ENDBRANCH  83  86
ENDBRANCH  55  79
BRANCH  67  90
ATOM     90  C   UNL A   1      44.909  30.370  28.406  1.00  0.00     0.023 A 
ATOM     91  C   UNL A   1      43.771  30.972  27.828  1.00  0.00     0.012 A 
ATOM     92  C   UNL A   1      46.181  30.863  28.081  1.00  0.00     0.148 A 
ATOM     93  C   UNL A   1      43.915  32.040  26.931  1.00  0.00     0.002 A 
ATOM     94  C   UNL A   1      46.316  31.948  27.234  1.00  0.00     0.091 A 
ATOM     95  F   UNL A   1      47.244  30.271  28.648  1.00  0.00    -0.205 F 
ATOM     96  C   UNL A   1      45.187  32.537  26.646  1.00  0.00     0.022 A 
BRANCH  94  97
ATOM     97  S   UNL A   1      47.921  32.687  26.942  1.00  0.00     0.127 S 
ATOM     98  O   UNL A   1      48.692  31.547  26.454  1.00  0.00    -0.237 OA
ATOM     99  O   UNL A   1      47.616  33.703  25.933  1.00  0.00    -0.237 OA
ATOM    100  O   UNL A   1      48.355  33.233  28.222  1.00  0.00    -0.744 OA
ENDBRANCH  94  97
ENDBRANCH  67  90
ENDBRANCH  41  42
ENDBRANCH  33  36
ENDBRANCH  31  32
ENDBRANCH  30  31
ENDBRANCH   1  30
TORSDOF 17
ENDMDL
MODEL 2
REMARK VINA RESULT:     -12.1      2.011      2.468
REMARK SMILES COc1ccc(-n2ccnc2C[N@@H+]2CCn3nc(C(=O)NCCCNC(=O)c4ccc(-c5c6nc(c(-c7cccc(S(=O)(=O)[O-])c7F)c7ccc([nH]7)c(-c7cccc(S(=O)(=O)[O-])c7F)c7nc(c(-c8cccc(S(=O)(=O)[O-])c8F)c8ccc5[nH]8)C=C7)C=C6)cc4)cc3C2)cc1
REMARK SMILES IDX 22 1 21 2 19 3 20 4 18 6 13 7 14 8 93 9 15 11 92 12 16 13
REMARK SMILES IDX 91 14 17 15 12 16 11 17 7 18 8 19 9 20 10 21 6 22 3 23 4 24
REMARK SMILES IDX 95 25 5 26 94 27 2 28 1 29 23 30 24 31 25 32 26 33 27 35
REMARK SMILES IDX 28 36 29 37 90 38 30 39 89 40 31 41 32 42 33 43 83 44 34 45
REMARK SMILES IDX 88 46 82 47 84 48 35 49 87 50 81 51 80 52 36 54 68 55 48 56
REMARK SMILES IDX 67 57 49 58 52 59 66 60 85 61 50 62 51 63 65 65 86 66 53 67
REMARK SMILES IDX 37 68 38 69 46 70 39 71 41 72 47 73 40 74 42 75 43 76 44 77
REMARK SMILES IDX 45 78 69 79 70 80 78 81 71 82 73 83 79 84 72 85 74 86 75 87
REMARK SMILES IDX 76 88 77 89 54 90 55 91 63 92 56 93 58 94 64 95 57 96 59 97
REMARK SMILES IDX 60 98 61 99 62 100
REMARK H PARENT 21 5 13 10 25 34 84 53 52 64
REMARK Flexibility Score: inf
ROOT
ATOM      1  C   UNL A   1      33.805  30.089  27.201  1.00  0.00     0.118 C 
ENDROOT
BRANCH   1   2
ATOM      2  N   UNL A   1      32.538  30.565  26.607  1.00  0.00    -0.351 N 
ATOM      3  C   UNL A   1      31.630  30.384  25.410  1.00  0.00     0.271 C 
ATOM      4  O   UNL A   1      30.917  31.406  25.798  1.00  0.00    -0.267 OA
ATOM      5  H   UNL A   1      32.144  31.243  27.203  1.00  0.00     0.163 HD
BRANCH   3   6
ATOM      6  C   UNL A   1      31.487  29.102  23.787  1.00  0.00     0.150 A 
ATOM      7  N   UNL A   1      32.212  25.178  23.547  1.00  0.00    -0.322 N 
ATOM      8  C   UNL A   1      33.473  25.755  22.990  1.00  0.00     0.286 C 
ATOM      9  C   UNL A   1      31.028  25.560  22.740  1.00  0.00     0.319 C 
ATOM     10  H   UNL A   1      32.397  24.176  23.483  1.00  0.00     0.348 HD
ATOM     11  C   UNL A   1      33.312  26.820  21.880  1.00  0.00     0.206 C 
ATOM     12  C   UNL A   1      31.040  27.039  22.646  1.00  0.00     0.094 A 
ATOM     13  N   UNL A   1      32.178  27.642  22.247  1.00  0.00    -0.257 N 
ATOM     14  C   UNL A   1      30.346  28.015  23.296  1.00  0.00     0.065 A 
ATOM     15  N   UNL A   1      32.355  28.886  22.674  1.00  0.00    -0.167 NA
BRANCH   7  16
ATOM     16  C   UNL A   1      31.923  25.408  24.998  1.00  0.00     0.339 C 
BRANCH  16  17
ATOM     17  C   UNL A   1      31.419  24.303  25.881  1.00  0.00     0.168 A 
ATOM     18  N   UNL A   1      32.133  23.161  26.233  1.00  0.00    -0.299 N 
ATOM     19  C   UNL A   1      31.282  22.375  26.970  1.00  0.00     0.113 A 
ATOM     20  C   UNL A   1      30.134  23.111  27.130  1.00  0.00     0.132 A 
ATOM     21  N   UNL A   1      30.220  24.291  26.444  1.00  0.00    -0.236 NA
BRANCH  18  22
ATOM     22  C   UNL A   1      33.413  22.754  25.818  1.00  0.00     0.047 A 
ATOM     23  C   UNL A   1      36.868  21.714  25.226  1.00  0.00     0.119 A 
ATOM     24  C   UNL A   1      35.511  20.545  24.896  1.00  0.00     0.048 A 
ATOM     25  C   UNL A   1      36.509  23.385  25.831  1.00  0.00     0.048 A 
ATOM     26  C   UNL A   1      33.744  21.079  25.204  1.00  0.00     0.030 A 
ATOM     27  C   UNL A   1      34.770  23.905  26.128  1.00  0.00     0.030 A 
BRANCH  23  28
ATOM     28  O   UNL A   1      38.137  21.244  25.039  1.00  0.00    -0.497 OA
ATOM     29  C   UNL A   1      39.026  21.749  26.030  1.00  0.00     0.278 C 
ENDBRANCH  23  28
ENDBRANCH  18  22
ENDBRANCH  16  17
ENDBRANCH   7  16
ENDBRANCH   3   6
ENDBRANCH   1   2
BRANCH   1  30
ATOM     30  C   UNL A   1      34.596  31.259  27.792  1.00  0.00     0.042 C 
BRANCH  30  31
ATOM     31  C   UNL A   1      35.633  30.735  28.758  1.00  0.00     0.118 C 
BRANCH  31  32
ATOM     32  N   UNL A   1      35.641  31.526  29.998  1.00  0.00    -0.352 N 
ATOM     33  C   UNL A   1      36.460  31.383  31.099  1.00  0.00     0.251 C 
ATOM     34  H   UNL A   1      34.977  32.251  30.049  1.00  0.00     0.163 HD
ATOM     35  O   UNL A   1      36.119  31.823  32.190  1.00  0.00    -0.269 OA
BRANCH  33  36
ATOM     36  C   UNL A   1      37.774  30.739  30.909  1.00  0.00     0.039 A 
ATOM     37  C   UNL A   1      38.976  31.444  30.951  1.00  0.00     0.014 A 
ATOM     38  C   UNL A   1      37.772  29.361  30.721  1.00  0.00     0.014 A 
ATOM     39  C   UNL A   1      40.165  30.729  30.786  1.00  0.00     0.010 A 
ATOM     40  C   UNL A   1      38.931  28.654  30.871  1.00  0.00     0.010 A 
ATOM     41  C   UNL A   1      40.131  29.318  30.734  1.00  0.00    -0.014 A 
BRANCH  41  42
ATOM     42  C   UNL A   1      41.326  28.484  30.865  1.00  0.00     0.031 A 
ATOM     43  C   UNL A   1      41.697  28.436  32.307  1.00  0.00     0.074 A 
ATOM     44  C   UNL A   1      41.859  27.729  29.864  1.00  0.00     0.049 A 
ATOM     45  N   UNL A   1      42.559  29.210  32.881  1.00  0.00    -0.248 NA
ATOM     46  C   UNL A   1      40.803  27.764  33.277  1.00  0.00     0.031 C 
ATOM     47  C   UNL A   1      41.364  27.546  28.490  1.00  0.00     0.029 A 
ATOM     48  N   UNL A   1      42.951  26.899  29.858  1.00  0.00    -0.354 N 
ATOM     49  C   UNL A   1      42.584  28.791  34.206  1.00  0.00     0.074 A 
ATOM     50  C   UNL A   1      41.305  28.195  34.439  1.00  0.00     0.031 C 
ATOM     51  C   UNL A   1      42.004  26.509  27.888  1.00  0.00     0.029 A 
ATOM     52  C   UNL A   1      43.059  26.026  28.759  1.00  0.00     0.049 A 
ATOM     53  H   UNL A   1      43.621  26.915  30.580  1.00  0.00     0.167 HD
ATOM     54  C   UNL A   1      43.792  28.574  34.800  1.00  0.00     0.034 A 
ATOM     55  C   UNL A   1      43.954  25.002  28.571  1.00  0.00     0.034 A 
ATOM     56  C   UNL A   1      44.830  29.180  33.987  1.00  0.00     0.049 A 
ATOM     57  C   UNL A   1      45.087  25.261  29.479  1.00  0.00     0.074 A 
ATOM     58  C   UNL A   1      45.140  30.448  33.541  1.00  0.00     0.029 A 
ATOM     59  N   UNL A   1      45.405  28.298  33.109  1.00  0.00    -0.354 N 
ATOM     60  N   UNL A   1      45.891  26.271  29.323  1.00  0.00    -0.248 NA
ATOM     61  C   UNL A   1      44.994  24.709  30.815  1.00  0.00     0.031 C 
ATOM     62  C   UNL A   1      45.634  30.274  32.212  1.00  0.00     0.029 A 
ATOM     63  C   UNL A   1      45.751  28.910  31.945  1.00  0.00     0.049 A 
ATOM     64  H   UNL A   1      45.548  27.342  33.299  1.00  0.00     0.167 HD
ATOM     65  C   UNL A   1      45.968  26.812  30.596  1.00  0.00     0.074 A 
ATOM     66  C   UNL A   1      45.485  25.751  31.489  1.00  0.00     0.031 C 
ATOM     67  C   UNL A   1      46.068  28.166  30.748  1.00  0.00     0.034 A 
BRANCH  54  68
ATOM     68  C   UNL A   1      44.127  27.389  35.709  1.00  0.00     0.023 A 
ATOM     69  C   UNL A   1      44.731  27.714  36.949  1.00  0.00     0.012 A 
ATOM     70  C   UNL A   1      44.161  26.021  35.341  1.00  0.00     0.148 A 
ATOM     71  C   UNL A   1      45.394  26.761  37.731  1.00  0.00     0.002 A 
ATOM     72  C   UNL A   1      44.778  25.064  36.146  1.00  0.00     0.091 A 
ATOM     73  F   UNL A   1      43.678  25.620  34.168  1.00  0.00    -0.205 F 
ATOM     74  C   UNL A   1      45.420  25.434  37.328  1.00  0.00     0.022 A 
BRANCH  72  75
ATOM     75  S   UNL A   1      44.827  23.319  35.696  1.00  0.00     0.127 S 
ATOM     76  O   UNL A   1      45.781  23.328  34.590  1.00  0.00    -0.237 OA
ATOM     77  O   UNL A   1      45.319  22.716  36.935  1.00  0.00    -0.237 OA
ATOM     78  O   UNL A   1      43.462  22.952  35.346  1.00  0.00    -0.744 OA
ENDBRANCH  72  75
ENDBRANCH  54  68
BRANCH  55  79
ATOM     79  C   UNL A   1      43.830  23.647  27.941  1.00  0.00     0.023 A 
ATOM     80  C   UNL A   1      42.718  22.804  28.211  1.00  0.00     0.012 A 
ATOM     81  C   UNL A   1      44.610  23.335  26.812  1.00  0.00     0.148 A 
ATOM     82  C   UNL A   1      42.391  21.719  27.375  1.00  0.00     0.002 A 
ATOM     83  C   UNL A   1      44.278  22.265  25.980  1.00  0.00     0.091 A 
ATOM     84  F   UNL A   1      45.624  24.151  26.500  1.00  0.00    -0.205 F 
ATOM     85  C   UNL A   1      43.165  21.458  26.250  1.00  0.00     0.022 A 
BRANCH  83  86
ATOM     86  S   UNL A   1      45.202  21.910  24.478  1.00  0.00     0.127 S 
ATOM     87  O   UNL A   1      44.499  20.733  23.966  1.00  0.00    -0.237 OA
ATOM     88  O   UNL A   1      45.000  23.131  23.703  1.00  0.00    -0.237 OA
ATOM     89  O   UNL A   1      46.571  21.656  24.907  1.00  0.00    -0.744 OA
ENDBRANCH  83  86
ENDBRANCH  55  79
BRANCH  67  90
ATOM     90  C   UNL A   1      46.464  28.983  29.545  1.00  0.00     0.023 A 
ATOM     91  C   UNL A   1      47.741  28.968  28.943  1.00  0.00     0.012 A 
ATOM     92  C   UNL A   1      45.422  29.682  28.920  1.00  0.00     0.148 A 
ATOM     93  C   UNL A   1      47.963  29.655  27.741  1.00  0.00     0.002 A 
ATOM     94  C   UNL A   1      45.632  30.317  27.709  1.00  0.00     0.091 A 
ATOM     95  F   UNL A   1      44.220  29.676  29.516  1.00  0.00    -0.205 F 
ATOM     96  C   UNL A   1      46.904  30.317  27.117  1.00  0.00     0.022 A 
BRANCH  94  97
ATOM     97  S   UNL A   1      44.272  31.072  26.823  1.00  0.00     0.127 S 
ATOM     98  O   UNL A   1      43.433  29.916  26.520  1.00  0.00    -0.237 OA
ATOM     99  O   UNL A   1      43.722  31.989  27.822  1.00  0.00    -0.237 OA
ATOM    100  O   UNL A   1      44.861  31.737  25.666  1.00  0.00    -0.744 OA
ENDBRANCH  94  97
ENDBRANCH  67  90
ENDBRANCH  41  42
ENDBRANCH  33  36
ENDBRANCH  31  32
ENDBRANCH  30  31
ENDBRANCH   1  30
TORSDOF 17
ENDMDL
MODEL 3
REMARK VINA RESULT:     -11.9      5.807     11.162
REMARK SMILES COc1ccc(-n2ccnc2C[N@@H+]2CCn3nc(C(=O)NCCCNC(=O)c4ccc(-c5c6nc(c(-c7cccc(S(=O)(=O)[O-])c7F)c7ccc([nH]7)c(-c7cccc(S(=O)(=O)[O-])c7F)c7nc(c(-c8cccc(S(=O)(=O)[O-])c8F)c8ccc5[nH]8)C=C7)C=C6)cc4)cc3C2)cc1
REMARK SMILES IDX 22 1 21 2 19 3 20 4 18 6 13 7 14 8 93 9 15 11 92 12 16 13
REMARK SMILES IDX 91 14 17 15 12 16 11 17 7 18 8 19 9 20 10 21 6 22 3 23 4 24
REMARK SMILES IDX 95 25 5 26 94 27 2 28 1 29 23 30 24 31 25 32 26 33 27 35
REMARK SMILES IDX 28 36 29 37 90 38 30 39 89 40 31 41 32 42 33 43 83 44 34 45
REMARK SMILES IDX 88 46 82 47 84 48 35 49 87 50 81 51 80 52 36 54 68 55 48 56
REMARK SMILES IDX 67 57 49 58 52 59 66 60 85 61 50 62 51 63 65 65 86 66 53 67
REMARK SMILES IDX 37 68 38 69 46 70 39 71 41 72 47 73 40 74 42 75 43 76 44 77
REMARK SMILES IDX 45 78 69 79 70 80 78 81 71 82 73 83 79 84 72 85 74 86 75 87
REMARK SMILES IDX 76 88 77 89 54 90 55 91 63 92 56 93 58 94 64 95 57 96 59 97
REMARK SMILES IDX 60 98 61 99 62 100
REMARK H PARENT 21 5 13 10 25 34 84 53 52 64
REMARK Flexibility Score: inf
ROOT
ATOM      1  C   UNL A   1      44.459  30.525  27.336  1.00  0.00     0.118 C 
ENDROOT
BRANCH   1   2
ATOM      2  N   UNL A   1      43.531  29.678  26.556  1.00  0.00    -0.351 N 
ATOM      3  C   UNL A   1      43.428  28.342  25.853  1.00  0.00     0.271 C 
ATOM      4  O   UNL A   1      42.274  28.695  25.355  1.00  0.00    -0.267 OA
ATOM      5  H   UNL A   1      42.675  30.154  26.458  1.00  0.00     0.163 HD
BRANCH   3   6
ATOM      6  C   UNL A   1      44.568  26.619  25.683  1.00  0.00     0.150 A 
ATOM      7  N   UNL A   1      47.650  25.353  27.893  1.00  0.00    -0.322 N 
ATOM      8  C   UNL A   1      48.346  25.940  26.707  1.00  0.00     0.286 C 
ATOM      9  C   UNL A   1      46.761  24.230  27.508  1.00  0.00     0.319 C 
ATOM     10  H   UNL A   1      48.437  25.028  28.454  1.00  0.00     0.348 HD
ATOM     11  C   UNL A   1      47.847  25.482  25.317  1.00  0.00     0.206 C 
ATOM     12  C   UNL A   1      45.856  24.748  26.456  1.00  0.00     0.094 A 
ATOM     13  N   UNL A   1      46.404  25.382  25.401  1.00  0.00    -0.257 N 
ATOM     14  C   UNL A   1      44.560  25.170  26.473  1.00  0.00     0.065 A 
ATOM     15  N   UNL A   1      45.630  26.273  24.792  1.00  0.00    -0.167 NA
BRANCH   7  16
ATOM     16  C   UNL A   1      46.910  26.288  28.798  1.00  0.00     0.339 C 
BRANCH  16  17
ATOM     17  C   UNL A   1      46.749  25.995  30.262  1.00  0.00     0.168 A 
ATOM     18  N   UNL A   1      45.620  25.441  30.857  1.00  0.00    -0.299 N 
ATOM     19  C   UNL A   1      45.852  25.426  32.210  1.00  0.00     0.113 A 
ATOM     20  C   UNL A   1      47.142  25.865  32.374  1.00  0.00     0.132 A 
ATOM     21  N   UNL A   1      47.684  26.227  31.171  1.00  0.00    -0.236 NA
BRANCH  18  22
ATOM     22  C   UNL A   1      44.390  25.093  30.270  1.00  0.00     0.047 A 
ATOM     23  C   UNL A   1      41.362  24.427  28.332  1.00  0.00     0.119 A 
ATOM     24  C   UNL A   1      42.430  23.039  28.830  1.00  0.00     0.048 A 
ATOM     25  C   UNL A   1      41.788  26.125  28.803  1.00  0.00     0.048 A 
ATOM     26  C   UNL A   1      43.982  23.384  29.819  1.00  0.00     0.030 A 
ATOM     27  C   UNL A   1      43.312  26.456  29.778  1.00  0.00     0.030 A 
BRANCH  23  28
ATOM     28  O   UNL A   1      40.277  24.116  27.561  1.00  0.00    -0.497 OA
ATOM     29  C   UNL A   1      40.303  24.820  26.325  1.00  0.00     0.278 C 
ENDBRANCH  23  28
ENDBRANCH  18  22
ENDBRANCH  16  17
ENDBRANCH   7  16
ENDBRANCH   3   6
ENDBRANCH   1   2
BRANCH   1  30
ATOM     30  C   UNL A   1      45.213  31.486  26.414  1.00  0.00     0.042 C 
BRANCH  30  31
ATOM     31  C   UNL A   1      44.625  32.874  26.536  1.00  0.00     0.118 C 
BRANCH  31  32
ATOM     32  N   UNL A   1      45.659  33.851  26.909  1.00  0.00    -0.352 N 
ATOM     33  C   UNL A   1      45.588  34.854  27.853  1.00  0.00     0.251 C 
ATOM     34  H   UNL A   1      46.512  33.779  26.423  1.00  0.00     0.163 HD
ATOM     35  O   UNL A   1      46.340  35.819  27.793  1.00  0.00    -0.269 OA
BRANCH  33  36
ATOM     36  C   UNL A   1      44.624  34.699  28.960  1.00  0.00     0.039 A 
ATOM     37  C   UNL A   1      43.640  35.645  29.245  1.00  0.00     0.014 A 
ATOM     38  C   UNL A   1      44.709  33.526  29.701  1.00  0.00     0.014 A 
ATOM     39  C   UNL A   1      42.761  35.384  30.299  1.00  0.00     0.010 A 
ATOM     40  C   UNL A   1      43.669  33.155  30.505  1.00  0.00     0.010 A 
ATOM     41  C   UNL A   1      42.792  34.126  30.939  1.00  0.00    -0.014 A 
BRANCH  41  42
ATOM     42  C   UNL A   1      41.731  33.657  31.832  1.00  0.00     0.031 A 
ATOM     43  C   UNL A   1      42.287  33.596  33.212  1.00  0.00     0.074 A 
ATOM     44  C   UNL A   1      40.424  33.513  31.475  1.00  0.00     0.049 A 
ATOM     45  N   UNL A   1      42.787  32.541  33.768  1.00  0.00    -0.248 NA
ATOM     46  C   UNL A   1      42.679  34.843  33.907  1.00  0.00     0.031 C 
ATOM     47  C   UNL A   1      39.786  33.817  30.184  1.00  0.00     0.029 A 
ATOM     48  N   UNL A   1      39.340  33.106  32.210  1.00  0.00    -0.354 N 
ATOM     49  C   UNL A   1      43.157  32.954  35.044  1.00  0.00     0.074 A 
ATOM     50  C   UNL A   1      43.387  34.362  34.934  1.00  0.00     0.031 C 
ATOM     51  C   UNL A   1      38.433  33.806  30.308  1.00  0.00     0.029 A 
ATOM     52  C   UNL A   1      38.077  33.359  31.641  1.00  0.00     0.049 A 
ATOM     53  H   UNL A   1      39.439  32.662  33.083  1.00  0.00     0.167 HD
ATOM     54  C   UNL A   1      42.787  32.190  36.110  1.00  0.00     0.034 A 
ATOM     55  C   UNL A   1      36.839  33.194  32.212  1.00  0.00     0.034 A 
ATOM     56  C   UNL A   1      42.366  30.887  35.631  1.00  0.00     0.049 A 
ATOM     57  C   UNL A   1      37.016  32.264  33.342  1.00  0.00     0.074 A 
ATOM     58  C   UNL A   1      42.936  29.846  34.928  1.00  0.00     0.029 A 
ATOM     59  N   UNL A   1      41.011  30.800  35.441  1.00  0.00    -0.354 N 
ATOM     60  N   UNL A   1      37.336  31.015  33.176  1.00  0.00    -0.248 NA
ATOM     61  C   UNL A   1      37.344  32.850  34.626  1.00  0.00     0.031 C 
ATOM     62  C   UNL A   1      41.904  29.353  34.073  1.00  0.00     0.029 A 
ATOM     63  C   UNL A   1      40.708  30.000  34.383  1.00  0.00     0.049 A 
ATOM     64  H   UNL A   1      40.342  31.259  36.000  1.00  0.00     0.167 HD
ATOM     65  C   UNL A   1      38.364  30.829  34.085  1.00  0.00     0.074 A 
ATOM     66  C   UNL A   1      38.253  31.956  35.020  1.00  0.00     0.031 C 
ATOM     67  C   UNL A   1      39.400  29.995  33.770  1.00  0.00     0.034 A 
BRANCH  54  68
ATOM     68  C   UNL A   1      42.242  32.730  37.435  1.00  0.00     0.023 A 
ATOM     69  C   UNL A   1      42.832  32.198  38.609  1.00  0.00     0.012 A 
ATOM     70  C   UNL A   1      41.049  33.472  37.621  1.00  0.00     0.148 A 
ATOM     71  C   UNL A   1      42.237  32.325  39.868  1.00  0.00     0.002 A 
ATOM     72  C   UNL A   1      40.484  33.641  38.884  1.00  0.00     0.091 A 
ATOM     73  F   UNL A   1      40.382  33.960  36.578  1.00  0.00    -0.205 F 
ATOM     74  C   UNL A   1      41.059  33.046  40.007  1.00  0.00     0.022 A 
BRANCH  72  75
ATOM     75  S   UNL A   1      38.970  34.584  39.141  1.00  0.00     0.127 S 
ATOM     76  O   UNL A   1      39.269  35.821  38.424  1.00  0.00    -0.237 OA
ATOM     77  O   UNL A   1      37.978  33.720  38.500  1.00  0.00    -0.237 OA
ATOM     78  O   UNL A   1      38.814  34.716  40.584  1.00  0.00    -0.744 OA
ENDBRANCH  72  75
ENDBRANCH  54  68
BRANCH  55  79
ATOM     79  C   UNL A   1      35.564  33.978  32.115  1.00  0.00     0.023 A 
ATOM     80  C   UNL A   1      35.160  34.863  33.151  1.00  0.00     0.012 A 
ATOM     81  C   UNL A   1      34.935  34.125  30.866  1.00  0.00     0.148 A 
ATOM     82  C   UNL A   1      34.193  35.864  32.934  1.00  0.00     0.002 A 
ATOM     83  C   UNL A   1      33.984  35.124  30.651  1.00  0.00     0.091 A 
ATOM     84  F   UNL A   1      35.344  33.346  29.857  1.00  0.00    -0.205 F 
ATOM     85  C   UNL A   1      33.614  36.002  31.678  1.00  0.00     0.022 A 
BRANCH  83  86
ATOM     86  S   UNL A   1      33.242  35.394  29.035  1.00  0.00     0.127 S 
ATOM     87  O   UNL A   1      32.645  34.086  28.758  1.00  0.00    -0.237 OA
ATOM     88  O   UNL A   1      32.283  36.459  29.315  1.00  0.00    -0.237 OA
ATOM     89  O   UNL A   1      34.342  35.754  28.150  1.00  0.00    -0.744 OA
ENDBRANCH  83  86
ENDBRANCH  55  79
BRANCH  67  90
ATOM     90  C   UNL A   1      39.207  29.033  32.627  1.00  0.00     0.023 A 
ATOM     91  C   UNL A   1      38.495  27.816  32.705  1.00  0.00     0.012 A 
ATOM     92  C   UNL A   1      39.654  29.483  31.376  1.00  0.00     0.148 A 
ATOM     93  C   UNL A   1      38.251  27.064  31.547  1.00  0.00     0.002 A 
ATOM     94  C   UNL A   1      39.369  28.763  30.230  1.00  0.00     0.091 A 
ATOM     95  F   UNL A   1      40.326  30.643  31.333  1.00  0.00    -0.205 F 
ATOM     96  C   UNL A   1      38.675  27.546  30.308  1.00  0.00     0.022 A 
BRANCH  94  97
ATOM     97  S   UNL A   1      39.791  29.408  28.615  1.00  0.00     0.127 S 
ATOM     98  O   UNL A   1      39.322  28.343  27.733  1.00  0.00    -0.237 OA
ATOM     99  O   UNL A   1      39.008  30.644  28.560  1.00  0.00    -0.237 OA
ATOM    100  O   UNL A   1      41.234  29.620  28.627  1.00  0.00    -0.744 OA
ENDBRANCH  94  97
ENDBRANCH  67  90
ENDBRANCH  41  42
ENDBRANCH  33  36
ENDBRANCH  31  32
ENDBRANCH  30  31
ENDBRANCH   1  30
TORSDOF 17
ENDMDL
