MODEL 1
REMARK VINA RESULT:     -12.1      0.000      0.000
REMARK SMILES Cc1nc(C)n(CC[C@H]2CCC[C@@]2([NH2+]C(C)C)C(=O)NCCCNC(=O)c2ccc(-c3c4nc(c(-c5cccc(S(=O)(=O)[O-])c5F)c5ccc([nH]5)c(-c5cccc(S(=O)(=O)[O-])c5F)c5nc(c(-c6cccc(S(=O)(=O)[O-])c6F)c6ccc3[nH]6)C=C5)C=C4)cc2)n1
REMARK SMILES IDX 22 1 21 2 20 3 18 4 19 5 13 7 9 8 10 9 11 10 12 11 8 12 7 13
REMARK SMILES IDX 6 14 1 15 2 16 3 17 90 18 4 19 5 20 14 21 15 24 16 25 17 26
REMARK SMILES IDX 23 27 24 28 25 29 26 31 27 32 28 33 89 34 29 35 88 36 30 37
REMARK SMILES IDX 31 38 32 39 82 40 33 41 87 42 81 43 83 44 34 45 86 46 80 47
REMARK SMILES IDX 79 48 35 50 67 51 47 52 66 53 48 54 51 55 65 56 84 57 49 58
REMARK SMILES IDX 50 59 64 61 85 62 52 63 36 64 37 65 45 66 38 67 40 68 46 69
REMARK SMILES IDX 39 70 41 71 42 72 43 73 44 74 68 75 69 76 77 77 70 78 72 79
REMARK SMILES IDX 78 80 71 81 73 82 74 83 75 84 76 85 53 86 54 87 62 88 55 89
REMARK SMILES IDX 57 90 63 91 56 92 58 93 59 94 60 95 61 96
REMARK H PARENT 20 6 14 22 14 23 24 30 83 49 51 60
REMARK Flexibility Score: inf
ROOT
ATOM      1  C   UNL A   1      37.343  19.905  25.071  1.00  0.00     0.042 C 
ENDROOT
BRANCH   1   2
ATOM      2  C   UNL A   1      36.333  21.058  25.007  1.00  0.00     0.118 C 
BRANCH   2   3
ATOM      3  N   UNL A   1      35.664  21.304  26.271  1.00  0.00    -0.351 N 
ATOM      4  C   UNL A   1      34.373  21.563  26.607  1.00  0.00     0.281 C 
ATOM      5  O   UNL A   1      34.146  21.635  27.821  1.00  0.00    -0.268 OA
ATOM      6  H   UNL A   1      36.272  21.279  27.045  1.00  0.00     0.163 HD
BRANCH   4   7
ATOM      7  C   UNL A   1      33.197  21.627  25.587  1.00  0.00     0.178 C 
ATOM      8  C   UNL A   1      32.096  22.639  26.134  1.00  0.00     0.062 C 
ATOM      9  C   UNL A   1      31.141  22.569  24.992  1.00  0.00     0.011 C 
ATOM     10  C   UNL A   1      32.063  22.712  23.766  1.00  0.00     0.008 C 
ATOM     11  C   UNL A   1      33.433  22.204  24.201  1.00  0.00     0.079 C 
BRANCH   8  12
ATOM     12  C   UNL A   1      32.375  24.174  26.375  1.00  0.00     0.034 C 
BRANCH  12  13
ATOM     13  C   UNL A   1      33.707  24.923  25.911  1.00  0.00     0.147 C 
BRANCH  13  14
ATOM     14  N   UNL A   1      33.850  26.316  25.431  1.00  0.00    -0.250 N 
ATOM     15  C   UNL A   1      33.809  28.294  22.467  1.00  0.00     0.092 C 
ATOM     16  C   UNL A   1      33.713  27.667  23.794  1.00  0.00     0.147 A 
ATOM     17  N   UNL A   1      33.248  28.380  24.833  1.00  0.00    -0.217 NA
ATOM     18  N   UNL A   1      34.092  26.426  24.086  1.00  0.00    -0.156 NA
ATOM     19  C   UNL A   1      33.402  27.585  25.869  1.00  0.00     0.124 A 
ATOM     20  C   UNL A   1      33.226  28.218  27.205  1.00  0.00     0.089 C 
ENDBRANCH  13  14
ENDBRANCH  12  13
ENDBRANCH   8  12
BRANCH   7  21
ATOM     21  N   UNL A   1      32.586  20.257  25.570  1.00  0.00    -0.331 N 
ATOM     22  H   UNL A   1      31.647  20.401  25.198  1.00  0.00     0.347 HD
ATOM     23  H   UNL A   1      32.806  19.986  26.529  1.00  0.00     0.347 HD
BRANCH  21  24
ATOM     24  C   UNL A   1      33.064  19.052  24.898  1.00  0.00     0.176 C 
ATOM     25  C   UNL A   1      32.754  17.871  25.834  1.00  0.00     0.075 C 
ATOM     26  C   UNL A   1      32.460  18.636  23.544  1.00  0.00     0.075 C 
ENDBRANCH  21  24
ENDBRANCH   7  21
ENDBRANCH   4   7
ENDBRANCH   2   3
ENDBRANCH   1   2
BRANCH   1  27
ATOM     27  C   UNL A   1      38.741  20.364  25.452  1.00  0.00     0.118 C 
BRANCH  27  28
ATOM     28  N   UNL A   1      39.706  19.264  25.600  1.00  0.00    -0.352 N 
ATOM     29  C   UNL A   1      41.045  19.344  25.946  1.00  0.00     0.251 C 
ATOM     30  H   UNL A   1      39.358  18.359  25.430  1.00  0.00     0.163 HD
ATOM     31  O   UNL A   1      41.807  18.399  25.747  1.00  0.00    -0.269 OA
BRANCH  29  32
ATOM     32  C   UNL A   1      41.536  20.590  26.558  1.00  0.00     0.039 A 
ATOM     33  C   UNL A   1      42.209  21.577  25.831  1.00  0.00     0.014 A 
ATOM     34  C   UNL A   1      41.210  20.792  27.889  1.00  0.00     0.014 A 
ATOM     35  C   UNL A   1      42.466  22.800  26.450  1.00  0.00     0.010 A 
ATOM     36  C   UNL A   1      41.216  22.061  28.387  1.00  0.00     0.010 A 
ATOM     37  C   UNL A   1      41.942  23.041  27.729  1.00  0.00    -0.014 A 
BRANCH  37  38
ATOM     38  C   UNL A   1      42.102  24.322  28.408  1.00  0.00     0.031 A 
ATOM     39  C   UNL A   1      40.966  25.271  28.260  1.00  0.00     0.074 A 
ATOM     40  C   UNL A   1      43.115  24.552  29.275  1.00  0.00     0.049 A 
ATOM     41  N   UNL A   1      40.961  26.386  27.608  1.00  0.00    -0.248 NA
ATOM     42  C   UNL A   1      39.648  24.879  28.778  1.00  0.00     0.031 C 
ATOM     43  C   UNL A   1      44.139  23.612  29.768  1.00  0.00     0.029 A 
ATOM     44  N   UNL A   1      43.348  25.653  30.035  1.00  0.00    -0.354 N 
ATOM     45  C   UNL A   1      39.708  26.953  27.832  1.00  0.00     0.074 A 
ATOM     46  C   UNL A   1      38.889  25.906  28.386  1.00  0.00     0.031 C 
ATOM     47  C   UNL A   1      44.662  24.076  30.922  1.00  0.00     0.029 A 
ATOM     48  C   UNL A   1      44.183  25.425  31.123  1.00  0.00     0.049 A 
ATOM     49  H   UNL A   1      42.961  26.536  29.833  1.00  0.00     0.167 HD
ATOM     50  C   UNL A   1      39.515  28.300  27.765  1.00  0.00     0.034 A 
ATOM     51  C   UNL A   1      44.431  26.277  32.144  1.00  0.00     0.034 A 
ATOM     52  C   UNL A   1      40.652  28.964  27.179  1.00  0.00     0.049 A 
ATOM     53  C   UNL A   1      44.104  27.635  31.657  1.00  0.00     0.074 A 
ATOM     54  C   UNL A   1      41.301  28.908  25.962  1.00  0.00     0.029 A 
ATOM     55  N   UNL A   1      41.528  29.565  28.050  1.00  0.00    -0.354 N 
ATOM     56  N   UNL A   1      44.751  28.219  30.686  1.00  0.00    -0.248 NA
ATOM     57  C   UNL A   1      42.776  28.156  31.930  1.00  0.00     0.031 C 
ATOM     58  C   UNL A   1      42.684  29.024  26.286  1.00  0.00     0.029 A 
ATOM     59  C   UNL A   1      42.794  29.212  27.666  1.00  0.00     0.049 A 
ATOM     60  H   UNL A   1      41.290  30.143  28.811  1.00  0.00     0.167 HD
ATOM     61  C   UNL A   1      43.759  28.842  29.939  1.00  0.00     0.074 A 
ATOM     62  C   UNL A   1      42.587  28.867  30.813  1.00  0.00     0.031 C 
ATOM     63  C   UNL A   1      43.891  29.012  28.589  1.00  0.00     0.034 A 
BRANCH  50  64
ATOM     64  C   UNL A   1      38.488  29.085  28.544  1.00  0.00     0.023 A 
ATOM     65  C   UNL A   1      37.754  30.068  27.840  1.00  0.00     0.012 A 
ATOM     66  C   UNL A   1      38.407  29.111  29.954  1.00  0.00     0.148 A 
ATOM     67  C   UNL A   1      37.026  31.060  28.505  1.00  0.00     0.002 A 
ATOM     68  C   UNL A   1      37.622  30.055  30.609  1.00  0.00     0.091 A 
ATOM     69  F   UNL A   1      39.194  28.316  30.683  1.00  0.00    -0.205 F 
ATOM     70  C   UNL A   1      36.955  31.051  29.892  1.00  0.00     0.022 A 
BRANCH  68  71
ATOM     71  S   UNL A   1      37.460  30.064  32.398  1.00  0.00     0.127 S 
ATOM     72  O   UNL A   1      38.775  30.549  32.806  1.00  0.00    -0.237 OA
ATOM     73  O   UNL A   1      36.360  31.009  32.595  1.00  0.00    -0.237 OA
ATOM     74  O   UNL A   1      37.137  28.690  32.763  1.00  0.00    -0.744 OA
ENDBRANCH  68  71
ENDBRANCH  50  64
BRANCH  51  75
ATOM     75  C   UNL A   1      44.647  25.964  33.572  1.00  0.00     0.023 A 
ATOM     76  C   UNL A   1      45.954  25.835  34.075  1.00  0.00     0.012 A 
ATOM     77  C   UNL A   1      43.579  26.067  34.494  1.00  0.00     0.148 A 
ATOM     78  C   UNL A   1      46.196  25.838  35.454  1.00  0.00     0.002 A 
ATOM     79  C   UNL A   1      43.823  26.068  35.863  1.00  0.00     0.091 A 
ATOM     80  F   UNL A   1      42.338  26.250  34.023  1.00  0.00    -0.205 F 
ATOM     81  C   UNL A   1      45.134  25.966  36.347  1.00  0.00     0.022 A 
BRANCH  79  82
ATOM     82  S   UNL A   1      42.512  26.267  37.079  1.00  0.00     0.127 S 
ATOM     83  O   UNL A   1      43.266  26.262  38.334  1.00  0.00    -0.237 OA
ATOM     84  O   UNL A   1      41.953  27.564  36.707  1.00  0.00    -0.237 OA
ATOM     85  O   UNL A   1      41.625  25.125  36.902  1.00  0.00    -0.744 OA
ENDBRANCH  79  82
ENDBRANCH  51  75
BRANCH  63  86
ATOM     86  C   UNL A   1      45.232  28.719  27.961  1.00  0.00     0.023 A 
ATOM     87  C   UNL A   1      46.327  29.605  28.068  1.00  0.00     0.012 A 
ATOM     88  C   UNL A   1      45.449  27.436  27.433  1.00  0.00     0.148 A 
ATOM     89  C   UNL A   1      47.603  29.224  27.642  1.00  0.00     0.002 A 
ATOM     90  C   UNL A   1      46.727  27.044  27.055  1.00  0.00     0.091 A 
ATOM     91  F   UNL A   1      44.400  26.604  27.348  1.00  0.00    -0.205 F 
ATOM     92  C   UNL A   1      47.806  27.937  27.150  1.00  0.00     0.022 A 
BRANCH  90  93
ATOM     93  S   UNL A   1      47.078  25.361  26.541  1.00  0.00     0.127 S 
ATOM     94  O   UNL A   1      46.242  24.584  27.453  1.00  0.00    -0.237 OA
ATOM     95  O   UNL A   1      46.629  25.360  25.148  1.00  0.00    -0.237 OA
ATOM     96  O   UNL A   1      48.516  25.182  26.702  1.00  0.00    -0.744 OA
ENDBRANCH  90  93
ENDBRANCH  63  86
ENDBRANCH  37  38
ENDBRANCH  29  32
ENDBRANCH  27  28
ENDBRANCH   1  27
TORSDOF 18
ENDMDL
MODEL 2
REMARK VINA RESULT:     -12.0      4.121      9.694
REMARK SMILES Cc1nc(C)n(CC[C@H]2CCC[C@@]2([NH2+]C(C)C)C(=O)NCCCNC(=O)c2ccc(-c3c4nc(c(-c5cccc(S(=O)(=O)[O-])c5F)c5ccc([nH]5)c(-c5cccc(S(=O)(=O)[O-])c5F)c5nc(c(-c6cccc(S(=O)(=O)[O-])c6F)c6ccc3[nH]6)C=C5)C=C4)cc2)n1
REMARK SMILES IDX 22 1 21 2 20 3 18 4 19 5 13 7 9 8 10 9 11 10 12 11 8 12 7 13
REMARK SMILES IDX 6 14 1 15 2 16 3 17 90 18 4 19 5 20 14 21 15 24 16 25 17 26
REMARK SMILES IDX 23 27 24 28 25 29 26 31 27 32 28 33 89 34 29 35 88 36 30 37
REMARK SMILES IDX 31 38 32 39 82 40 33 41 87 42 81 43 83 44 34 45 86 46 80 47
REMARK SMILES IDX 79 48 35 50 67 51 47 52 66 53 48 54 51 55 65 56 84 57 49 58
REMARK SMILES IDX 50 59 64 61 85 62 52 63 36 64 37 65 45 66 38 67 40 68 46 69
REMARK SMILES IDX 39 70 41 71 42 72 43 73 44 74 68 75 69 76 77 77 70 78 72 79
REMARK SMILES IDX 78 80 71 81 73 82 74 83 75 84 76 85 53 86 54 87 62 88 55 89
REMARK SMILES IDX 57 90 63 91 56 92 58 93 59 94 60 95 61 96
REMARK H PARENT 20 6 14 22 14 23 24 30 83 49 51 60
REMARK Flexibility Score: inf
ROOT
ATOM      1  C   UNL A   1      31.372  31.772  26.473  1.00  0.00     0.042 C 
ENDROOT
BRANCH   1   2
ATOM      2  C   UNL A   1      31.587  30.281  26.185  1.00  0.00     0.118 C 
BRANCH   2   3
ATOM      3  N   UNL A   1      32.560  30.034  25.137  1.00  0.00    -0.351 N 
ATOM      4  C   UNL A   1      32.618  29.145  24.111  1.00  0.00     0.281 C 
ATOM      5  O   UNL A   1      33.580  29.284  23.344  1.00  0.00    -0.268 OA
ATOM      6  H   UNL A   1      33.338  30.635  25.179  1.00  0.00     0.163 HD
BRANCH   4   7
ATOM      7  C   UNL A   1      31.507  28.101  23.789  1.00  0.00     0.178 C 
ATOM      8  C   UNL A   1      32.110  26.990  22.822  1.00  0.00     0.062 C 
ATOM      9  C   UNL A   1      30.910  26.111  22.715  1.00  0.00     0.011 C 
ATOM     10  C   UNL A   1      30.455  25.976  24.181  1.00  0.00     0.008 C 
ATOM     11  C   UNL A   1      30.952  27.226  24.899  1.00  0.00     0.079 C 
BRANCH   8  12
ATOM     12  C   UNL A   1      33.306  26.044  23.230  1.00  0.00     0.034 C 
BRANCH  12  13
ATOM     13  C   UNL A   1      34.068  26.123  24.632  1.00  0.00     0.147 C 
BRANCH  13  14
ATOM     14  N   UNL A   1      34.356  25.020  25.576  1.00  0.00    -0.250 N 
ATOM     15  C   UNL A   1      32.770  22.516  27.554  1.00  0.00     0.092 C 
ATOM     16  C   UNL A   1      33.596  23.380  26.698  1.00  0.00     0.147 A 
ATOM     17  N   UNL A   1      34.797  22.949  26.279  1.00  0.00    -0.217 NA
ATOM     18  N   UNL A   1      33.275  24.613  26.313  1.00  0.00    -0.156 NA
ATOM     19  C   UNL A   1      35.315  23.981  25.652  1.00  0.00     0.124 A 
ATOM     20  C   UNL A   1      36.763  23.879  25.320  1.00  0.00     0.089 C 
ENDBRANCH  13  14
ENDBRANCH  12  13
ENDBRANCH   8  12
BRANCH   7  21
ATOM     21  N   UNL A   1      30.449  28.843  23.025  1.00  0.00    -0.331 N 
ATOM     22  H   UNL A   1      30.240  28.240  22.229  1.00  0.00     0.347 HD
ATOM     23  H   UNL A   1      30.915  29.749  22.972  1.00  0.00     0.347 HD
BRANCH  21  24
ATOM     24  C   UNL A   1      29.143  29.305  23.486  1.00  0.00     0.176 C 
ATOM     25  C   UNL A   1      29.124  30.832  23.305  1.00  0.00     0.075 C 
ATOM     26  C   UNL A   1      27.863  28.818  22.781  1.00  0.00     0.075 C 
ENDBRANCH  21  24
ENDBRANCH   7  21
ENDBRANCH   4   7
ENDBRANCH   2   3
ENDBRANCH   1   2
BRANCH   1  27
ATOM     27  C   UNL A   1      32.528  32.398  27.237  1.00  0.00     0.118 C 
BRANCH  27  28
ATOM     28  N   UNL A   1      32.300  33.803  27.609  1.00  0.00    -0.352 N 
ATOM     29  C   UNL A   1      32.994  34.563  28.537  1.00  0.00     0.251 C 
ATOM     30  H   UNL A   1      31.563  34.259  27.142  1.00  0.00     0.163 HD
ATOM     31  O   UNL A   1      32.524  35.615  28.968  1.00  0.00    -0.269 OA
BRANCH  29  32
ATOM     32  C   UNL A   1      34.305  34.080  28.997  1.00  0.00     0.039 A 
ATOM     33  C   UNL A   1      34.470  33.332  30.167  1.00  0.00     0.014 A 
ATOM     34  C   UNL A   1      35.379  34.318  28.154  1.00  0.00     0.014 A 
ATOM     35  C   UNL A   1      35.716  32.758  30.420  1.00  0.00     0.010 A 
ATOM     36  C   UNL A   1      36.493  33.539  28.264  1.00  0.00     0.010 A 
ATOM     37  C   UNL A   1      36.721  32.850  29.445  1.00  0.00    -0.014 A 
BRANCH  37  38
ATOM     38  C   UNL A   1      38.022  32.210  29.604  1.00  0.00     0.031 A 
ATOM     39  C   UNL A   1      38.123  30.827  29.069  1.00  0.00     0.074 A 
ATOM     40  C   UNL A   1      39.112  32.896  30.020  1.00  0.00     0.049 A 
ATOM     41  N   UNL A   1      38.262  29.736  29.747  1.00  0.00    -0.248 NA
ATOM     42  C   UNL A   1      37.915  30.609  27.631  1.00  0.00     0.031 C 
ATOM     43  C   UNL A   1      39.246  34.340  30.287  1.00  0.00     0.029 A 
ATOM     44  N   UNL A   1      40.393  32.462  30.140  1.00  0.00    -0.354 N 
ATOM     45  C   UNL A   1      38.395  28.716  28.807  1.00  0.00     0.074 A 
ATOM     46  C   UNL A   1      37.983  29.277  27.547  1.00  0.00     0.031 C 
ATOM     47  C   UNL A   1      40.548  34.690  30.235  1.00  0.00     0.029 A 
ATOM     48  C   UNL A   1      41.337  33.481  30.159  1.00  0.00     0.049 A 
ATOM     49  H   UNL A   1      40.631  31.509  30.208  1.00  0.00     0.167 HD
ATOM     50  C   UNL A   1      39.061  27.564  29.100  1.00  0.00     0.034 A 
ATOM     51  C   UNL A   1      42.680  33.341  30.077  1.00  0.00     0.034 A 
ATOM     52  C   UNL A   1      39.321  27.452  30.513  1.00  0.00     0.049 A 
ATOM     53  C   UNL A   1      42.991  31.954  30.487  1.00  0.00     0.074 A 
ATOM     54  C   UNL A   1      38.544  27.395  31.652  1.00  0.00     0.029 A 
ATOM     55  N   UNL A   1      40.587  27.783  30.932  1.00  0.00    -0.354 N 
ATOM     56  N   UNL A   1      42.769  31.499  31.691  1.00  0.00    -0.248 NA
ATOM     57  C   UNL A   1      43.114  30.946  29.448  1.00  0.00     0.031 C 
ATOM     58  C   UNL A   1      39.259  28.166  32.615  1.00  0.00     0.029 A 
ATOM     59  C   UNL A   1      40.457  28.588  32.031  1.00  0.00     0.049 A 
ATOM     60  H   UNL A   1      41.433  27.495  30.518  1.00  0.00     0.167 HD
ATOM     61  C   UNL A   1      42.266  30.221  31.487  1.00  0.00     0.074 A 
ATOM     62  C   UNL A   1      42.612  29.895  30.103  1.00  0.00     0.031 C 
ATOM     63  C   UNL A   1      41.366  29.667  32.354  1.00  0.00     0.034 A 
BRANCH  50  64
ATOM     64  C   UNL A   1      39.811  26.702  28.113  1.00  0.00     0.023 A 
ATOM     65  C   UNL A   1      39.616  25.304  28.196  1.00  0.00     0.012 A 
ATOM     66  C   UNL A   1      40.888  27.154  27.319  1.00  0.00     0.148 A 
ATOM     67  C   UNL A   1      40.483  24.402  27.570  1.00  0.00     0.002 A 
ATOM     68  C   UNL A   1      41.703  26.255  26.638  1.00  0.00     0.091 A 
ATOM     69  F   UNL A   1      41.224  28.447  27.323  1.00  0.00    -0.205 F 
ATOM     70  C   UNL A   1      41.525  24.877  26.785  1.00  0.00     0.022 A 
BRANCH  68  71
ATOM     71  S   UNL A   1      43.039  26.816  25.577  1.00  0.00     0.127 S 
ATOM     72  O   UNL A   1      43.981  27.352  26.554  1.00  0.00    -0.237 OA
ATOM     73  O   UNL A   1      43.453  25.569  24.932  1.00  0.00    -0.237 OA
ATOM     74  O   UNL A   1      42.430  27.780  24.668  1.00  0.00    -0.744 OA
ENDBRANCH  68  71
ENDBRANCH  50  64
BRANCH  51  75
ATOM     75  C   UNL A   1      43.658  34.218  29.400  1.00  0.00     0.023 A 
ATOM     76  C   UNL A   1      44.389  35.163  30.143  1.00  0.00     0.012 A 
ATOM     77  C   UNL A   1      44.072  33.938  28.077  1.00  0.00     0.148 A 
ATOM     78  C   UNL A   1      45.516  35.789  29.598  1.00  0.00     0.002 A 
ATOM     79  C   UNL A   1      45.192  34.563  27.538  1.00  0.00     0.091 A 
ATOM     80  F   UNL A   1      43.418  32.996  27.385  1.00  0.00    -0.205 F 
ATOM     81  C   UNL A   1      45.924  35.481  28.302  1.00  0.00     0.022 A 
BRANCH  79  82
ATOM     82  S   UNL A   1      45.805  34.192  25.888  1.00  0.00     0.127 S 
ATOM     83  O   UNL A   1      46.955  35.092  25.788  1.00  0.00    -0.237 OA
ATOM     84  O   UNL A   1      46.143  32.776  26.005  1.00  0.00    -0.237 OA
ATOM     85  O   UNL A   1      44.713  34.506  24.975  1.00  0.00    -0.744 OA
ENDBRANCH  79  82
ENDBRANCH  51  75
BRANCH  63  86
ATOM     86  C   UNL A   1      41.106  30.377  33.661  1.00  0.00     0.023 A 
ATOM     87  C   UNL A   1      41.989  30.289  34.759  1.00  0.00     0.012 A 
ATOM     88  C   UNL A   1      40.059  31.313  33.707  1.00  0.00     0.148 A 
ATOM     89  C   UNL A   1      41.821  31.105  35.882  1.00  0.00     0.002 A 
ATOM     90  C   UNL A   1      39.924  32.154  34.804  1.00  0.00     0.091 A 
ATOM     91  F   UNL A   1      39.236  31.389  32.651  1.00  0.00    -0.205 F 
ATOM     92  C   UNL A   1      40.796  32.048  35.898  1.00  0.00     0.022 A 
BRANCH  90  93
ATOM     93  S   UNL A   1      38.711  33.476  34.827  1.00  0.00     0.127 S 
ATOM     94  O   UNL A   1      38.904  34.043  36.160  1.00  0.00    -0.237 OA
ATOM     95  O   UNL A   1      39.159  34.331  33.727  1.00  0.00    -0.237 OA
ATOM     96  O   UNL A   1      37.418  32.841  34.598  1.00  0.00    -0.744 OA
ENDBRANCH  90  93
ENDBRANCH  63  86
ENDBRANCH  37  38
ENDBRANCH  29  32
ENDBRANCH  27  28
ENDBRANCH   1  27
TORSDOF 18
ENDMDL
MODEL 3
REMARK VINA RESULT:     -11.6      3.281      8.154
REMARK SMILES Cc1nc(C)n(CC[C@H]2CCC[C@@]2([NH2+]C(C)C)C(=O)NCCCNC(=O)c2ccc(-c3c4nc(c(-c5cccc(S(=O)(=O)[O-])c5F)c5ccc([nH]5)c(-c5cccc(S(=O)(=O)[O-])c5F)c5nc(c(-c6cccc(S(=O)(=O)[O-])c6F)c6ccc3[nH]6)C=C5)C=C4)cc2)n1
REMARK SMILES IDX 22 1 21 2 20 3 18 4 19 5 13 7 9 8 10 9 11 10 12 11 8 12 7 13
REMARK SMILES IDX 6 14 1 15 2 16 3 17 90 18 4 19 5 20 14 21 15 24 16 25 17 26
REMARK SMILES IDX 23 27 24 28 25 29 26 31 27 32 28 33 89 34 29 35 88 36 30 37
REMARK SMILES IDX 31 38 32 39 82 40 33 41 87 42 81 43 83 44 34 45 86 46 80 47
REMARK SMILES IDX 79 48 35 50 67 51 47 52 66 53 48 54 51 55 65 56 84 57 49 58
REMARK SMILES IDX 50 59 64 61 85 62 52 63 36 64 37 65 45 66 38 67 40 68 46 69
REMARK SMILES IDX 39 70 41 71 42 72 43 73 44 74 68 75 69 76 77 77 70 78 72 79
REMARK SMILES IDX 78 80 71 81 73 82 74 83 75 84 76 85 53 86 54 87 62 88 55 89
REMARK SMILES IDX 57 90 63 91 56 92 58 93 59 94 60 95 61 96
REMARK H PARENT 20 6 14 22 14 23 24 30 83 49 51 60
REMARK Flexibility Score: inf
ROOT
ATOM      1  C   UNL A   1      33.071  30.923  27.133  1.00  0.00     0.042 C 
ENDROOT
BRANCH   1   2
ATOM      2  C   UNL A   1      33.256  29.532  26.515  1.00  0.00     0.118 C 
BRANCH   2   3
ATOM      3  N   UNL A   1      33.388  29.559  25.070  1.00  0.00    -0.351 N 
ATOM      4  C   UNL A   1      32.719  28.939  24.062  1.00  0.00     0.281 C 
ATOM      5  O   UNL A   1      33.056  29.274  22.919  1.00  0.00    -0.268 OA
ATOM      6  H   UNL A   1      34.111  30.147  24.756  1.00  0.00     0.163 HD
BRANCH   4   7
ATOM      7  C   UNL A   1      31.509  27.980  24.271  1.00  0.00     0.178 C 
ATOM      8  C   UNL A   1      31.609  26.790  23.219  1.00  0.00     0.062 C 
ATOM      9  C   UNL A   1      30.413  26.010  23.649  1.00  0.00     0.011 C 
ATOM     10  C   UNL A   1      30.570  25.964  25.181  1.00  0.00     0.008 C 
ATOM     11  C   UNL A   1      31.387  27.192  25.564  1.00  0.00     0.079 C 
BRANCH   8  12
ATOM     12  C   UNL A   1      32.808  25.764  23.184  1.00  0.00     0.034 C 
BRANCH  12  13
ATOM     13  C   UNL A   1      32.660  24.233  22.751  1.00  0.00     0.147 C 
BRANCH  13  14
ATOM     14  N   UNL A   1      33.550  23.099  23.090  1.00  0.00    -0.250 N 
ATOM     15  C   UNL A   1      36.926  22.318  23.920  1.00  0.00     0.092 C 
ATOM     16  C   UNL A   1      35.475  22.468  23.740  1.00  0.00     0.147 A 
ATOM     17  N   UNL A   1      34.637  21.617  24.354  1.00  0.00    -0.217 NA
ATOM     18  N   UNL A   1      34.886  23.377  22.967  1.00  0.00    -0.156 NA
ATOM     19  C   UNL A   1      33.447  21.942  23.899  1.00  0.00     0.124 A 
ATOM     20  C   UNL A   1      32.352  20.981  24.200  1.00  0.00     0.089 C 
ENDBRANCH  13  14
ENDBRANCH  12  13
ENDBRANCH   8  12
BRANCH   7  21
ATOM     21  N   UNL A   1      30.283  28.779  23.937  1.00  0.00    -0.331 N 
ATOM     22  H   UNL A   1      30.531  29.738  24.180  1.00  0.00     0.347 HD
ATOM     23  H   UNL A   1      29.596  28.205  24.426  1.00  0.00     0.347 HD
BRANCH  21  24
ATOM     24  C   UNL A   1      29.588  28.895  22.659  1.00  0.00     0.176 C 
ATOM     25  C   UNL A   1      28.086  28.741  22.956  1.00  0.00     0.075 C 
ATOM     26  C   UNL A   1      29.686  30.198  21.845  1.00  0.00     0.075 C 
ENDBRANCH  21  24
ENDBRANCH   7  21
ENDBRANCH   4   7
ENDBRANCH   2   3
ENDBRANCH   1   2
BRANCH   1  27
ATOM     27  C   UNL A   1      34.373  31.523  27.638  1.00  0.00     0.118 C 
BRANCH  27  28
ATOM     28  N   UNL A   1      34.291  32.047  29.010  1.00  0.00    -0.352 N 
ATOM     29  C   UNL A   1      35.158  31.814  30.066  1.00  0.00     0.251 C 
ATOM     30  H   UNL A   1      33.526  32.635  29.202  1.00  0.00     0.163 HD
ATOM     31  O   UNL A   1      34.823  32.062  31.224  1.00  0.00    -0.269 OA
BRANCH  29  32
ATOM     32  C   UNL A   1      36.489  31.261  29.769  1.00  0.00     0.039 A 
ATOM     33  C   UNL A   1      37.613  32.064  29.556  1.00  0.00     0.014 A 
ATOM     34  C   UNL A   1      36.604  29.880  29.808  1.00  0.00     0.014 A 
ATOM     35  C   UNL A   1      38.863  31.450  29.473  1.00  0.00     0.010 A 
ATOM     36  C   UNL A   1      37.834  29.323  30.001  1.00  0.00     0.010 A 
ATOM     37  C   UNL A   1      38.965  30.073  29.719  1.00  0.00    -0.014 A 
BRANCH  37  38
ATOM     38  C   UNL A   1      40.246  29.375  29.727  1.00  0.00     0.031 A 
ATOM     39  C   UNL A   1      40.820  29.105  31.072  1.00  0.00     0.074 A 
ATOM     40  C   UNL A   1      40.773  28.833  28.604  1.00  0.00     0.049 A 
ATOM     41  N   UNL A   1      41.876  29.637  31.591  1.00  0.00    -0.248 NA
ATOM     42  C   UNL A   1      40.067  28.250  32.000  1.00  0.00     0.031 C 
ATOM     43  C   UNL A   1      40.180  28.742  27.258  1.00  0.00     0.029 A 
ATOM     44  N   UNL A   1      41.905  28.095  28.469  1.00  0.00    -0.354 N 
ATOM     45  C   UNL A   1      42.055  29.008  32.821  1.00  0.00     0.074 A 
ATOM     46  C   UNL A   1      40.823  28.318  33.101  1.00  0.00     0.031 C 
ATOM     47  C   UNL A   1      40.792  27.763  26.559  1.00  0.00     0.029 A 
ATOM     48  C   UNL A   1      41.945  27.325  27.313  1.00  0.00     0.049 A 
ATOM     49  H   UNL A   1      42.633  28.104  29.132  1.00  0.00     0.167 HD
ATOM     50  C   UNL A   1      43.287  28.910  33.396  1.00  0.00     0.034 A 
ATOM     51  C   UNL A   1      42.846  26.361  27.013  1.00  0.00     0.034 A 
ATOM     52  C   UNL A   1      44.245  29.755  32.730  1.00  0.00     0.049 A 
ATOM     53  C   UNL A   1      44.042  26.622  27.843  1.00  0.00     0.074 A 
ATOM     54  C   UNL A   1      44.365  31.109  32.498  1.00  0.00     0.029 A 
ATOM     55  N   UNL A   1      45.088  29.139  31.836  1.00  0.00    -0.354 N 
ATOM     56  N   UNL A   1      44.777  27.694  27.718  1.00  0.00    -0.248 NA
ATOM     57  C   UNL A   1      44.157  25.928  29.114  1.00  0.00     0.031 C 
ATOM     58  C   UNL A   1      44.884  31.204  31.174  1.00  0.00     0.029 A 
ATOM     59  C   UNL A   1      45.115  29.909  30.704  1.00  0.00     0.049 A 
ATOM     60  H   UNL A   1      45.581  28.300  31.981  1.00  0.00     0.167 HD
ATOM     61  C   UNL A   1      45.073  28.062  29.024  1.00  0.00     0.074 A 
ATOM     62  C   UNL A   1      44.767  26.879  29.828  1.00  0.00     0.031 C 
ATOM     63  C   UNL A   1      45.255  29.372  29.367  1.00  0.00     0.034 A 
BRANCH  50  64
ATOM     64  C   UNL A   1      43.748  27.802  34.312  1.00  0.00     0.023 A 
ATOM     65  C   UNL A   1      44.412  28.181  35.502  1.00  0.00     0.012 A 
ATOM     66  C   UNL A   1      43.821  26.442  33.942  1.00  0.00     0.148 A 
ATOM     67  C   UNL A   1      45.158  27.265  36.252  1.00  0.00     0.002 A 
ATOM     68  C   UNL A   1      44.502  25.520  34.731  1.00  0.00     0.091 A 
ATOM     69  F   UNL A   1      43.353  26.046  32.755  1.00  0.00    -0.205 F 
ATOM     70  C   UNL A   1      45.200  25.931  35.869  1.00  0.00     0.022 A 
BRANCH  68  71
ATOM     71  S   UNL A   1      44.553  23.775  34.306  1.00  0.00     0.127 S 
ATOM     72  O   UNL A   1      45.404  23.243  35.366  1.00  0.00    -0.237 OA
ATOM     73  O   UNL A   1      43.141  23.403  34.397  1.00  0.00    -0.237 OA
ATOM     74  O   UNL A   1      45.097  23.723  32.954  1.00  0.00    -0.744 OA
ENDBRANCH  68  71
ENDBRANCH  50  64
BRANCH  51  75
ATOM     75  C   UNL A   1      42.629  25.090  26.291  1.00  0.00     0.023 A 
ATOM     76  C   UNL A   1      43.529  24.688  25.289  1.00  0.00     0.012 A 
ATOM     77  C   UNL A   1      41.696  24.144  26.776  1.00  0.00     0.148 A 
ATOM     78  C   UNL A   1      43.524  23.374  24.804  1.00  0.00     0.002 A 
ATOM     79  C   UNL A   1      41.692  22.841  26.291  1.00  0.00     0.091 A 
ATOM     80  F   UNL A   1      40.875  24.503  27.772  1.00  0.00    -0.205 F 
ATOM     81  C   UNL A   1      42.615  22.449  25.312  1.00  0.00     0.022 A 
BRANCH  79  82
ATOM     82  S   UNL A   1      40.577  21.578  26.921  1.00  0.00     0.127 S 
ATOM     83  O   UNL A   1      39.268  22.140  26.583  1.00  0.00    -0.237 OA
ATOM     84  O   UNL A   1      40.965  20.413  26.131  1.00  0.00    -0.237 OA
ATOM     85  O   UNL A   1      40.842  21.486  28.351  1.00  0.00    -0.744 OA
ENDBRANCH  79  82
ENDBRANCH  51  75
BRANCH  63  86
ATOM     86  C   UNL A   1      45.359  30.391  28.257  1.00  0.00     0.023 A 
ATOM     87  C   UNL A   1      44.222  30.960  27.644  1.00  0.00     0.012 A 
ATOM     88  C   UNL A   1      46.624  30.933  27.974  1.00  0.00     0.148 A 
ATOM     89  C   UNL A   1      44.346  32.034  26.757  1.00  0.00     0.002 A 
ATOM     90  C   UNL A   1      46.739  32.031  27.130  1.00  0.00     0.091 A 
ATOM     91  F   UNL A   1      47.692  30.387  28.573  1.00  0.00    -0.205 F 
ATOM     92  C   UNL A   1      45.605  32.579  26.512  1.00  0.00     0.022 A 
BRANCH  90  93
ATOM     93  S   UNL A   1      48.310  32.860  26.880  1.00  0.00     0.127 S 
ATOM     94  O   UNL A   1      49.168  31.761  26.442  1.00  0.00    -0.237 OA
ATOM     95  O   UNL A   1      47.987  33.837  25.840  1.00  0.00    -0.237 OA
ATOM     96  O   UNL A   1      48.661  33.454  28.165  1.00  0.00    -0.744 OA
ENDBRANCH  90  93
ENDBRANCH  63  86
ENDBRANCH  37  38
ENDBRANCH  29  32
ENDBRANCH  27  28
ENDBRANCH   1  27
TORSDOF 18
ENDMDL
