MODEL 1
REMARK VINA RESULT:     -12.9      0.000      0.000
REMARK SMILES [NH3+][C@]1(C(=O)NCCCNC(=O)c2ccc(-c3c4nc(c(-c5cccc(S(=O)(=O)[O-])c5F)c5ccc([nH]5)c(-c5cccc(S(=O)(=O)[O-])c5F)c5nc(c(-c6cccc(S(=O)(=O)[O-])c6F)c6ccc3[nH]6)C=C5)C=C4)cc2)CC[C@@H](Sc2cc3ccccc3[nH]2)C1
REMARK SMILES IDX 7 1 6 2 5 3 3 4 4 5 2 7 75 8 88 9 76 10 77 11 1 12 78 16
REMARK SMILES IDX 79 17 80 18 87 19 81 20 86 21 82 23 85 24 83 25 84 26 8 27
REMARK SMILES IDX 9 28 10 29 11 31 12 32 13 33 74 34 14 35 73 36 15 37 16 38
REMARK SMILES IDX 17 39 67 40 18 41 72 42 66 43 68 44 19 45 71 46 65 47 64 48
REMARK SMILES IDX 20 50 52 51 32 52 51 53 33 54 36 55 50 56 69 57 34 58 35 59
REMARK SMILES IDX 49 61 70 62 37 63 21 64 22 65 30 66 23 67 25 68 31 69 24 70
REMARK SMILES IDX 26 71 27 72 28 73 29 74 53 75 54 76 62 77 55 78 57 79 63 80
REMARK SMILES IDX 56 81 58 82 59 83 60 84 61 85 38 86 39 87 47 88 40 89 42 90
REMARK SMILES IDX 48 91 41 92 43 93 44 94 45 95 46 96
REMARK H PARENT 5 6 1 13 1 14 1 15 87 22 9 30 68 49 36 60
REMARK Flexibility Score: inf
ROOT
ATOM      1  C   UNL A   1      31.739  28.502  25.585  1.00  0.00     0.042 C 
ENDROOT
BRANCH   1   2
ATOM      2  C   UNL A   1      31.813  27.698  26.876  1.00  0.00     0.118 C 
BRANCH   2   3
ATOM      3  N   UNL A   1      31.020  26.488  26.809  1.00  0.00    -0.351 N 
ATOM      4  C   UNL A   1      31.169  25.269  26.242  1.00  0.00     0.281 C 
ATOM      5  O   UNL A   1      30.246  24.476  26.483  1.00  0.00    -0.268 OA
ATOM      6  H   UNL A   1      30.166  26.573  27.293  1.00  0.00     0.163 HD
BRANCH   4   7
ATOM      7  C   UNL A   1      32.338  24.834  25.332  1.00  0.00     0.175 C 
ATOM      8  C   UNL A   1      33.677  25.138  26.024  1.00  0.00     0.080 C 
ATOM      9  C   UNL A   1      32.368  23.306  25.224  1.00  0.00     0.094 C 
ATOM     10  C   UNL A   1      34.666  24.200  25.349  1.00  0.00     0.022 C 
ATOM     11  C   UNL A   1      33.847  22.947  25.029  1.00  0.00     0.060 C 
BRANCH   7  12
ATOM     12  N   UNL A   1      32.379  25.387  23.971  1.00  0.00    -0.345 N 
ATOM     13  H   UNL A   1      31.654  26.097  23.870  1.00  0.00     0.345 HD
ATOM     14  H   UNL A   1      32.220  24.639  23.295  1.00  0.00     0.345 HD
ATOM     15  H   UNL A   1      33.293  25.807  23.803  1.00  0.00     0.345 HD
ENDBRANCH   7  12
BRANCH  11  16
ATOM     16  S   UNL A   1      34.164  21.421  25.925  1.00  0.00    -0.105 SA
BRANCH  16  17
ATOM     17  C   UNL A   1      32.962  20.258  25.467  1.00  0.00     0.073 A 
ATOM     18  C   UNL A   1      32.511  19.948  24.201  1.00  0.00     0.043 A 
ATOM     19  N   UNL A   1      32.902  19.098  26.198  1.00  0.00    -0.350 N 
ATOM     20  C   UNL A   1      32.893  18.576  24.042  1.00  0.00     0.001 A 
ATOM     21  C   UNL A   1      33.187  18.078  25.314  1.00  0.00     0.046 A 
ATOM     22  H   UNL A   1      32.698  19.012  27.157  1.00  0.00     0.167 HD
ATOM     23  C   UNL A   1      33.196  17.779  22.924  1.00  0.00     0.010 A 
ATOM     24  C   UNL A   1      33.790  16.842  25.543  1.00  0.00     0.027 A 
ATOM     25  C   UNL A   1      33.889  16.577  23.127  1.00  0.00     0.001 A 
ATOM     26  C   UNL A   1      34.187  16.125  24.414  1.00  0.00     0.002 A 
ENDBRANCH  16  17
ENDBRANCH  11  16
ENDBRANCH   4   7
ENDBRANCH   2   3
ENDBRANCH   1   2
BRANCH   1  27
ATOM     27  C   UNL A   1      32.909  29.464  25.404  1.00  0.00     0.118 C 
BRANCH  27  28
ATOM     28  N   UNL A   1      32.604  30.805  25.894  1.00  0.00    -0.352 N 
ATOM     29  C   UNL A   1      33.122  31.507  26.952  1.00  0.00     0.251 C 
ATOM     30  H   UNL A   1      31.913  31.284  25.380  1.00  0.00     0.163 HD
ATOM     31  O   UNL A   1      32.547  32.517  27.344  1.00  0.00    -0.269 OA
BRANCH  29  32
ATOM     32  C   UNL A   1      34.362  31.053  27.617  1.00  0.00     0.039 A 
ATOM     33  C   UNL A   1      35.380  31.977  27.859  1.00  0.00     0.014 A 
ATOM     34  C   UNL A   1      34.535  29.712  27.968  1.00  0.00     0.014 A 
ATOM     35  C   UNL A   1      36.546  31.567  28.510  1.00  0.00     0.010 A 
ATOM     36  C   UNL A   1      35.654  29.325  28.696  1.00  0.00     0.010 A 
ATOM     37  C   UNL A   1      36.677  30.245  28.965  1.00  0.00    -0.014 A 
BRANCH  37  38
ATOM     38  C   UNL A   1      37.872  29.802  29.728  1.00  0.00     0.031 A 
ATOM     39  C   UNL A   1      38.133  30.341  31.109  1.00  0.00     0.074 A 
ATOM     40  C   UNL A   1      38.768  28.984  29.140  1.00  0.00     0.049 A 
ATOM     41  N   UNL A   1      39.155  30.127  31.897  1.00  0.00    -0.248 NA
ATOM     42  C   UNL A   1      37.130  31.264  31.668  1.00  0.00     0.031 C 
ATOM     43  C   UNL A   1      38.666  28.456  27.777  1.00  0.00     0.029 A 
ATOM     44  N   UNL A   1      39.954  28.473  29.604  1.00  0.00    -0.354 N 
ATOM     45  C   UNL A   1      38.936  30.911  33.024  1.00  0.00     0.074 A 
ATOM     46  C   UNL A   1      37.705  31.636  32.803  1.00  0.00     0.031 C 
ATOM     47  C   UNL A   1      39.739  27.692  27.519  1.00  0.00     0.029 A 
ATOM     48  C   UNL A   1      40.622  27.702  28.680  1.00  0.00     0.049 A 
ATOM     49  H   UNL A   1      40.296  28.643  30.511  1.00  0.00     0.167 HD
ATOM     50  C   UNL A   1      39.675  30.996  34.155  1.00  0.00     0.034 A 
ATOM     51  C   UNL A   1      41.814  27.082  28.758  1.00  0.00     0.034 A 
ATOM     52  C   UNL A   1      40.877  30.242  34.389  1.00  0.00     0.049 A 
ATOM     53  C   UNL A   1      42.600  27.168  30.039  1.00  0.00     0.074 A 
ATOM     54  C   UNL A   1      41.655  30.196  35.532  1.00  0.00     0.029 A 
ATOM     55  N   UNL A   1      41.477  29.404  33.462  1.00  0.00    -0.354 N 
ATOM     56  N   UNL A   1      42.298  27.794  31.151  1.00  0.00    -0.248 NA
ATOM     57  C   UNL A   1      43.871  26.433  30.090  1.00  0.00     0.031 C 
ATOM     58  C   UNL A   1      42.740  29.349  35.288  1.00  0.00     0.029 A 
ATOM     59  C   UNL A   1      42.620  28.841  34.004  1.00  0.00     0.049 A 
ATOM     60  H   UNL A   1      41.141  29.234  32.553  1.00  0.00     0.167 HD
ATOM     61  C   UNL A   1      43.320  27.494  32.045  1.00  0.00     0.074 A 
ATOM     62  C   UNL A   1      44.237  26.615  31.351  1.00  0.00     0.031 C 
ATOM     63  C   UNL A   1      43.492  27.921  33.321  1.00  0.00     0.034 A 
BRANCH  50  64
ATOM     64  C   UNL A   1      39.176  31.898  35.255  1.00  0.00     0.023 A 
ATOM     65  C   UNL A   1      39.347  33.293  35.141  1.00  0.00     0.012 A 
ATOM     66  C   UNL A   1      38.483  31.377  36.365  1.00  0.00     0.148 A 
ATOM     67  C   UNL A   1      38.867  34.152  36.128  1.00  0.00     0.002 A 
ATOM     68  C   UNL A   1      37.967  32.243  37.322  1.00  0.00     0.091 A 
ATOM     69  F   UNL A   1      38.346  30.047  36.468  1.00  0.00    -0.205 F 
ATOM     70  C   UNL A   1      38.169  33.629  37.213  1.00  0.00     0.022 A 
BRANCH  68  71
ATOM     71  S   UNL A   1      36.982  31.678  38.715  1.00  0.00     0.127 S 
ATOM     72  O   UNL A   1      37.917  31.849  39.826  1.00  0.00    -0.237 OA
ATOM     73  O   UNL A   1      35.867  32.624  38.705  1.00  0.00    -0.237 OA
ATOM     74  O   UNL A   1      36.614  30.300  38.415  1.00  0.00    -0.744 OA
ENDBRANCH  68  71
ENDBRANCH  50  64
BRANCH  51  75
ATOM     75  C   UNL A   1      42.312  26.268  27.612  1.00  0.00     0.023 A 
ATOM     76  C   UNL A   1      43.169  26.861  26.663  1.00  0.00     0.012 A 
ATOM     77  C   UNL A   1      41.957  24.914  27.463  1.00  0.00     0.148 A 
ATOM     78  C   UNL A   1      43.628  26.134  25.566  1.00  0.00     0.002 A 
ATOM     79  C   UNL A   1      42.464  24.178  26.398  1.00  0.00     0.091 A 
ATOM     80  F   UNL A   1      41.134  24.369  28.370  1.00  0.00    -0.205 F 
ATOM     81  C   UNL A   1      43.284  24.791  25.437  1.00  0.00     0.022 A 
BRANCH  79  82
ATOM     82  S   UNL A   1      42.183  22.412  26.228  1.00  0.00     0.127 S 
ATOM     83  O   UNL A   1      42.750  21.897  27.471  1.00  0.00    -0.237 OA
ATOM     84  O   UNL A   1      40.724  22.345  26.139  1.00  0.00    -0.237 OA
ATOM     85  O   UNL A   1      42.874  22.023  25.005  1.00  0.00    -0.744 OA
ENDBRANCH  79  82
ENDBRANCH  51  75
BRANCH  63  86
ATOM     86  C   UNL A   1      44.690  27.406  34.074  1.00  0.00     0.023 A 
ATOM     87  C   UNL A   1      45.863  28.185  34.148  1.00  0.00     0.012 A 
ATOM     88  C   UNL A   1      44.628  26.181  34.767  1.00  0.00     0.148 A 
ATOM     89  C   UNL A   1      46.967  27.734  34.870  1.00  0.00     0.002 A 
ATOM     90  C   UNL A   1      45.712  25.764  35.527  1.00  0.00     0.091 A 
ATOM     91  F   UNL A   1      43.509  25.447  34.669  1.00  0.00    -0.205 F 
ATOM     92  C   UNL A   1      46.887  26.532  35.569  1.00  0.00     0.022 A 
BRANCH  90  93
ATOM     93  S   UNL A   1      45.666  24.280  36.538  1.00  0.00     0.127 S 
ATOM     94  O   UNL A   1      44.851  24.716  37.671  1.00  0.00    -0.237 OA
ATOM     95  O   UNL A   1      45.012  23.320  35.649  1.00  0.00    -0.237 OA
ATOM     96  O   UNL A   1      47.053  23.964  36.853  1.00  0.00    -0.744 OA
ENDBRANCH  90  93
ENDBRANCH  63  86
ENDBRANCH  37  38
ENDBRANCH  29  32
ENDBRANCH  27  28
ENDBRANCH   1  27
TORSDOF 16
ENDMDL
MODEL 2
REMARK VINA RESULT:     -12.8      2.681      3.530
REMARK SMILES [NH3+][C@]1(C(=O)NCCCNC(=O)c2ccc(-c3c4nc(c(-c5cccc(S(=O)(=O)[O-])c5F)c5ccc([nH]5)c(-c5cccc(S(=O)(=O)[O-])c5F)c5nc(c(-c6cccc(S(=O)(=O)[O-])c6F)c6ccc3[nH]6)C=C5)C=C4)cc2)CC[C@@H](Sc2cc3ccccc3[nH]2)C1
REMARK SMILES IDX 7 1 6 2 5 3 3 4 4 5 2 7 75 8 88 9 76 10 77 11 1 12 78 16
REMARK SMILES IDX 79 17 80 18 87 19 81 20 86 21 82 23 85 24 83 25 84 26 8 27
REMARK SMILES IDX 9 28 10 29 11 31 12 32 13 33 74 34 14 35 73 36 15 37 16 38
REMARK SMILES IDX 17 39 67 40 18 41 72 42 66 43 68 44 19 45 71 46 65 47 64 48
REMARK SMILES IDX 20 50 52 51 32 52 51 53 33 54 36 55 50 56 69 57 34 58 35 59
REMARK SMILES IDX 49 61 70 62 37 63 21 64 22 65 30 66 23 67 25 68 31 69 24 70
REMARK SMILES IDX 26 71 27 72 28 73 29 74 53 75 54 76 62 77 55 78 57 79 63 80
REMARK SMILES IDX 56 81 58 82 59 83 60 84 61 85 38 86 39 87 47 88 40 89 42 90
REMARK SMILES IDX 48 91 41 92 43 93 44 94 45 95 46 96
REMARK H PARENT 5 6 1 13 1 14 1 15 87 22 9 30 68 49 36 60
REMARK Flexibility Score: inf
ROOT
ATOM      1  C   UNL A   1      33.151  28.167  27.192  1.00  0.00     0.042 C 
ENDROOT
BRANCH   1   2
ATOM      2  C   UNL A   1      31.717  27.977  26.719  1.00  0.00     0.118 C 
BRANCH   2   3
ATOM      3  N   UNL A   1      31.655  27.413  25.386  1.00  0.00    -0.351 N 
ATOM      4  C   UNL A   1      31.240  26.240  24.855  1.00  0.00     0.281 C 
ATOM      5  O   UNL A   1      31.310  26.185  23.618  1.00  0.00    -0.268 OA
ATOM      6  H   UNL A   1      31.997  28.032  24.701  1.00  0.00     0.163 HD
BRANCH   4   7
ATOM      7  C   UNL A   1      30.743  25.014  25.652  1.00  0.00     0.175 C 
ATOM      8  C   UNL A   1      30.712  23.778  24.737  1.00  0.00     0.080 C 
ATOM      9  C   UNL A   1      31.791  24.618  26.696  1.00  0.00     0.094 C 
ATOM     10  C   UNL A   1      30.772  22.602  25.700  1.00  0.00     0.022 C 
ATOM     11  C   UNL A   1      31.643  23.098  26.855  1.00  0.00     0.060 C 
BRANCH   7  12
ATOM     12  N   UNL A   1      29.444  25.126  26.330  1.00  0.00    -0.345 N 
ATOM     13  H   UNL A   1      29.406  26.004  26.848  1.00  0.00     0.345 HD
ATOM     14  H   UNL A   1      29.329  24.344  26.975  1.00  0.00     0.345 HD
ATOM     15  H   UNL A   1      28.696  25.108  25.636  1.00  0.00     0.345 HD
ENDBRANCH   7  12
BRANCH  11  16
ATOM     16  S   UNL A   1      33.286  22.409  27.095  1.00  0.00    -0.105 SA
BRANCH  16  17
ATOM     17  C   UNL A   1      34.321  23.011  25.839  1.00  0.00     0.073 A 
ATOM     18  C   UNL A   1      35.167  24.100  25.878  1.00  0.00     0.043 A 
ATOM     19  N   UNL A   1      34.913  22.086  25.018  1.00  0.00    -0.350 N 
ATOM     20  C   UNL A   1      36.464  23.515  25.703  1.00  0.00     0.001 A 
ATOM     21  C   UNL A   1      36.272  22.223  25.209  1.00  0.00     0.046 A 
ATOM     22  H   UNL A   1      34.460  21.452  24.415  1.00  0.00     0.167 HD
ATOM     23  C   UNL A   1      37.759  23.898  26.097  1.00  0.00     0.010 A 
ATOM     24  C   UNL A   1      37.288  21.273  25.107  1.00  0.00     0.027 A 
ATOM     25  C   UNL A   1      38.772  22.929  26.092  1.00  0.00     0.001 A 
ATOM     26  C   UNL A   1      38.535  21.639  25.614  1.00  0.00     0.002 A 
ENDBRANCH  16  17
ENDBRANCH  11  16
ENDBRANCH   4   7
ENDBRANCH   2   3
ENDBRANCH   1   2
BRANCH   1  27
ATOM     27  C   UNL A   1      33.954  29.127  26.321  1.00  0.00     0.118 C 
BRANCH  27  28
ATOM     28  N   UNL A   1      33.940  30.491  26.843  1.00  0.00    -0.352 N 
ATOM     29  C   UNL A   1      34.730  31.092  27.789  1.00  0.00     0.251 C 
ATOM     30  H   UNL A   1      33.251  31.075  26.450  1.00  0.00     0.163 HD
ATOM     31  O   UNL A   1      34.387  32.170  28.264  1.00  0.00    -0.269 OA
BRANCH  29  32
ATOM     32  C   UNL A   1      35.984  30.449  28.235  1.00  0.00     0.039 A 
ATOM     33  C   UNL A   1      37.140  30.609  27.468  1.00  0.00     0.014 A 
ATOM     34  C   UNL A   1      36.013  29.662  29.388  1.00  0.00     0.014 A 
ATOM     35  C   UNL A   1      38.338  30.029  27.892  1.00  0.00     0.010 A 
ATOM     36  C   UNL A   1      37.222  29.162  29.857  1.00  0.00     0.010 A 
ATOM     37  C   UNL A   1      38.396  29.330  29.109  1.00  0.00    -0.014 A 
BRANCH  37  38
ATOM     38  C   UNL A   1      39.672  28.770  29.622  1.00  0.00     0.031 A 
ATOM     39  C   UNL A   1      40.415  29.467  30.730  1.00  0.00     0.074 A 
ATOM     40  C   UNL A   1      40.205  27.683  29.028  1.00  0.00     0.049 A 
ATOM     41  N   UNL A   1      41.575  29.170  31.258  1.00  0.00    -0.248 NA
ATOM     42  C   UNL A   1      39.791  30.673  31.299  1.00  0.00     0.031 C 
ATOM     43  C   UNL A   1      39.619  26.964  27.894  1.00  0.00     0.029 A 
ATOM     44  N   UNL A   1      41.373  27.009  29.277  1.00  0.00    -0.354 N 
ATOM     45  C   UNL A   1      41.832  30.165  32.194  1.00  0.00     0.074 A 
ATOM     46  C   UNL A   1      40.729  31.098  32.134  1.00  0.00     0.031 C 
ATOM     47  C   UNL A   1      40.425  25.947  27.552  1.00  0.00     0.029 A 
ATOM     48  C   UNL A   1      41.601  25.960  28.416  1.00  0.00     0.049 A 
ATOM     49  H   UNL A   1      41.992  27.252  30.004  1.00  0.00     0.167 HD
ATOM     50  C   UNL A   1      42.877  30.277  33.048  1.00  0.00     0.034 A 
ATOM     51  C   UNL A   1      42.643  25.112  28.326  1.00  0.00     0.034 A 
ATOM     52  C   UNL A   1      43.951  29.325  33.133  1.00  0.00     0.049 A 
ATOM     53  C   UNL A   1      43.775  25.240  29.309  1.00  0.00     0.074 A 
ATOM     54  C   UNL A   1      45.014  29.305  34.018  1.00  0.00     0.029 A 
ATOM     55  N   UNL A   1      44.103  28.228  32.301  1.00  0.00    -0.354 N 
ATOM     56  N   UNL A   1      43.924  26.100  30.288  1.00  0.00    -0.248 NA
ATOM     57  C   UNL A   1      44.864  24.260  29.200  1.00  0.00     0.031 C 
ATOM     58  C   UNL A   1      45.822  28.208  33.706  1.00  0.00     0.029 A 
ATOM     59  C   UNL A   1      45.245  27.526  32.647  1.00  0.00     0.049 A 
ATOM     60  H   UNL A   1      43.489  27.983  31.571  1.00  0.00     0.167 HD
ATOM     61  C   UNL A   1      45.100  25.739  30.935  1.00  0.00     0.074 A 
ATOM     62  C   UNL A   1      45.611  24.571  30.250  1.00  0.00     0.031 C 
ATOM     63  C   UNL A   1      45.710  26.330  31.992  1.00  0.00     0.034 A 
BRANCH  50  64
ATOM     64  C   UNL A   1      42.882  31.444  34.003  1.00  0.00     0.023 A 
ATOM     65  C   UNL A   1      43.439  32.673  33.594  1.00  0.00     0.012 A 
ATOM     66  C   UNL A   1      42.282  31.347  35.273  1.00  0.00     0.148 A 
ATOM     67  C   UNL A   1      43.430  33.777  34.445  1.00  0.00     0.002 A 
ATOM     68  C   UNL A   1      42.235  32.464  36.098  1.00  0.00     0.091 A 
ATOM     69  F   UNL A   1      41.774  30.165  35.653  1.00  0.00    -0.205 F 
ATOM     70  C   UNL A   1      42.819  33.676  35.692  1.00  0.00     0.022 A 
BRANCH  68  71
ATOM     71  S   UNL A   1      41.400  32.464  37.689  1.00  0.00     0.127 S 
ATOM     72  O   UNL A   1      41.463  33.878  38.056  1.00  0.00    -0.237 OA
ATOM     73  O   UNL A   1      40.065  31.985  37.335  1.00  0.00    -0.237 OA
ATOM     74  O   UNL A   1      42.163  31.563  38.543  1.00  0.00    -0.744 OA
ENDBRANCH  68  71
ENDBRANCH  50  64
BRANCH  51  75
ATOM     75  C   UNL A   1      42.637  24.022  27.308  1.00  0.00     0.023 A 
ATOM     76  C   UNL A   1      43.152  24.275  26.021  1.00  0.00     0.012 A 
ATOM     77  C   UNL A   1      42.140  22.739  27.608  1.00  0.00     0.148 A 
ATOM     78  C   UNL A   1      43.134  23.285  25.040  1.00  0.00     0.002 A 
ATOM     79  C   UNL A   1      42.178  21.740  26.643  1.00  0.00     0.091 A 
ATOM     80  F   UNL A   1      41.645  22.519  28.835  1.00  0.00    -0.205 F 
ATOM     81  C   UNL A   1      42.657  22.015  25.352  1.00  0.00     0.022 A 
BRANCH  79  82
ATOM     82  S   UNL A   1      41.709  20.042  26.997  1.00  0.00     0.127 S 
ATOM     83  O   UNL A   1      41.553  19.489  25.655  1.00  0.00    -0.237 OA
ATOM     84  O   UNL A   1      42.873  19.554  27.735  1.00  0.00    -0.237 OA
ATOM     85  O   UNL A   1      40.491  20.131  27.793  1.00  0.00    -0.744 OA
ENDBRANCH  79  82
ENDBRANCH  51  75
BRANCH  63  86
ATOM     86  C   UNL A   1      46.975  25.699  32.511  1.00  0.00     0.023 A 
ATOM     87  C   UNL A   1      48.221  26.068  31.966  1.00  0.00     0.012 A 
ATOM     88  C   UNL A   1      46.932  24.791  33.588  1.00  0.00     0.148 A 
ATOM     89  C   UNL A   1      49.402  25.516  32.462  1.00  0.00     0.002 A 
ATOM     90  C   UNL A   1      48.116  24.286  34.111  1.00  0.00     0.091 A 
ATOM     91  F   UNL A   1      45.735  24.440  34.081  1.00  0.00    -0.205 F 
ATOM     92  C   UNL A   1      49.350  24.636  33.540  1.00  0.00     0.022 A 
BRANCH  90  93
ATOM     93  S   UNL A   1      48.153  23.225  35.560  1.00  0.00     0.127 S 
ATOM     94  O   UNL A   1      47.458  22.033  35.075  1.00  0.00    -0.237 OA
ATOM     95  O   UNL A   1      49.589  23.049  35.778  1.00  0.00    -0.237 OA
ATOM     96  O   UNL A   1      47.467  23.960  36.614  1.00  0.00    -0.744 OA
ENDBRANCH  90  93
ENDBRANCH  63  86
ENDBRANCH  37  38
ENDBRANCH  29  32
ENDBRANCH  27  28
ENDBRANCH   1  27
TORSDOF 16
ENDMDL
MODEL 3
REMARK VINA RESULT:     -12.6      5.472     10.806
REMARK SMILES [NH3+][C@]1(C(=O)NCCCNC(=O)c2ccc(-c3c4nc(c(-c5cccc(S(=O)(=O)[O-])c5F)c5ccc([nH]5)c(-c5cccc(S(=O)(=O)[O-])c5F)c5nc(c(-c6cccc(S(=O)(=O)[O-])c6F)c6ccc3[nH]6)C=C5)C=C4)cc2)CC[C@@H](Sc2cc3ccccc3[nH]2)C1
REMARK SMILES IDX 7 1 6 2 5 3 3 4 4 5 2 7 75 8 88 9 76 10 77 11 1 12 78 16
REMARK SMILES IDX 79 17 80 18 87 19 81 20 86 21 82 23 85 24 83 25 84 26 8 27
REMARK SMILES IDX 9 28 10 29 11 31 12 32 13 33 74 34 14 35 73 36 15 37 16 38
REMARK SMILES IDX 17 39 67 40 18 41 72 42 66 43 68 44 19 45 71 46 65 47 64 48
REMARK SMILES IDX 20 50 52 51 32 52 51 53 33 54 36 55 50 56 69 57 34 58 35 59
REMARK SMILES IDX 49 61 70 62 37 63 21 64 22 65 30 66 23 67 25 68 31 69 24 70
REMARK SMILES IDX 26 71 27 72 28 73 29 74 53 75 54 76 62 77 55 78 57 79 63 80
REMARK SMILES IDX 56 81 58 82 59 83 60 84 61 85 38 86 39 87 47 88 40 89 42 90
REMARK SMILES IDX 48 91 41 92 43 93 44 94 45 95 46 96
REMARK H PARENT 5 6 1 13 1 14 1 15 87 22 9 30 68 49 36 60
REMARK Flexibility Score: inf
ROOT
ATOM      1  C   UNL A   1      35.401  22.126  25.961  1.00  0.00     0.042 C 
ENDROOT
BRANCH   1   2
ATOM      2  C   UNL A   1      34.312  21.844  24.935  1.00  0.00     0.118 C 
BRANCH   2   3
ATOM      3  N   UNL A   1      34.391  22.739  23.799  1.00  0.00    -0.351 N 
ATOM      4  C   UNL A   1      33.965  23.995  23.531  1.00  0.00     0.281 C 
ATOM      5  O   UNL A   1      34.304  24.423  22.418  1.00  0.00    -0.268 OA
ATOM      6  H   UNL A   1      34.872  22.338  23.039  1.00  0.00     0.163 HD
BRANCH   4   7
ATOM      7  C   UNL A   1      33.096  24.871  24.460  1.00  0.00     0.175 C 
ATOM      8  C   UNL A   1      34.000  25.769  25.321  1.00  0.00     0.080 C 
ATOM      9  C   UNL A   1      32.320  25.895  23.627  1.00  0.00     0.094 C 
ATOM     10  C   UNL A   1      33.095  26.919  25.736  1.00  0.00     0.022 C 
ATOM     11  C   UNL A   1      32.156  27.115  24.543  1.00  0.00     0.060 C 
BRANCH   7  12
ATOM     12  N   UNL A   1      32.142  24.185  25.343  1.00  0.00    -0.345 N 
ATOM     13  H   UNL A   1      31.957  24.766  26.160  1.00  0.00     0.345 HD
ATOM     14  H   UNL A   1      32.537  23.293  25.642  1.00  0.00     0.345 HD
ATOM     15  H   UNL A   1      31.272  24.019  24.838  1.00  0.00     0.345 HD
ENDBRANCH   7  12
BRANCH  11  16
ATOM     16  S   UNL A   1      32.303  28.590  23.526  1.00  0.00    -0.105 SA
BRANCH  16  17
ATOM     17  C   UNL A   1      30.904  28.693  22.506  1.00  0.00     0.073 A 
ATOM     18  C   UNL A   1      29.633  28.213  22.748  1.00  0.00     0.043 A 
ATOM     19  N   UNL A   1      30.755  29.835  21.761  1.00  0.00    -0.350 N 
ATOM     20  C   UNL A   1      28.834  29.402  22.780  1.00  0.00     0.001 A 
ATOM     21  C   UNL A   1      29.587  30.424  22.198  1.00  0.00     0.046 A 
ATOM     22  H   UNL A   1      31.359  30.167  21.057  1.00  0.00     0.167 HD
ATOM     23  C   UNL A   1      27.625  29.738  23.417  1.00  0.00     0.010 A 
ATOM     24  C   UNL A   1      29.226  31.770  22.234  1.00  0.00     0.027 A 
ATOM     25  C   UNL A   1      27.293  31.093  23.547  1.00  0.00     0.001 A 
ATOM     26  C   UNL A   1      28.086  32.089  22.973  1.00  0.00     0.002 A 
ENDBRANCH  16  17
ENDBRANCH  11  16
ENDBRANCH   4   7
ENDBRANCH   2   3
ENDBRANCH   1   2
BRANCH   1  27
ATOM     27  C   UNL A   1      36.772  22.362  25.338  1.00  0.00     0.118 C 
BRANCH  27  28
ATOM     28  N   UNL A   1      37.734  21.327  25.706  1.00  0.00    -0.352 N 
ATOM     29  C   UNL A   1      39.030  21.429  26.143  1.00  0.00     0.251 C 
ATOM     30  H   UNL A   1      37.397  20.405  25.627  1.00  0.00     0.163 HD
ATOM     31  O   UNL A   1      39.743  20.430  26.152  1.00  0.00    -0.269 OA
BRANCH  29  32
ATOM     32  C   UNL A   1      39.566  22.728  26.600  1.00  0.00     0.039 A 
ATOM     33  C   UNL A   1      40.572  22.745  27.569  1.00  0.00     0.014 A 
ATOM     34  C   UNL A   1      39.055  23.928  26.100  1.00  0.00     0.014 A 
ATOM     35  C   UNL A   1      41.106  23.965  27.990  1.00  0.00     0.010 A 
ATOM     36  C   UNL A   1      39.650  25.134  26.451  1.00  0.00     0.010 A 
ATOM     37  C   UNL A   1      40.673  25.168  27.408  1.00  0.00    -0.014 A 
BRANCH  37  38
ATOM     38  C   UNL A   1      41.279  26.472  27.781  1.00  0.00     0.031 A 
ATOM     39  C   UNL A   1      42.709  26.774  27.422  1.00  0.00     0.074 A 
ATOM     40  C   UNL A   1      40.567  27.346  28.521  1.00  0.00     0.049 A 
ATOM     41  N   UNL A   1      43.429  27.824  27.723  1.00  0.00    -0.248 NA
ATOM     42  C   UNL A   1      43.436  25.752  26.650  1.00  0.00     0.031 C 
ATOM     43  C   UNL A   1      39.197  27.134  28.998  1.00  0.00     0.029 A 
ATOM     44  N   UNL A   1      40.904  28.576  29.025  1.00  0.00    -0.354 N 
ATOM     45  C   UNL A   1      44.696  27.575  27.209  1.00  0.00     0.074 A 
ATOM     46  C   UNL A   1      44.660  26.259  26.611  1.00  0.00     0.031 C 
ATOM     47  C   UNL A   1      38.811  28.200  29.716  1.00  0.00     0.029 A 
ATOM     48  C   UNL A   1      39.912  29.154  29.783  1.00  0.00     0.049 A 
ATOM     49  H   UNL A   1      41.775  29.006  28.860  1.00  0.00     0.167 HD
ATOM     50  C   UNL A   1      45.784  28.381  27.206  1.00  0.00     0.034 A 
ATOM     51  C   UNL A   1      39.895  30.317  30.462  1.00  0.00     0.034 A 
ATOM     52  C   UNL A   1      45.805  29.706  27.764  1.00  0.00     0.049 A 
ATOM     53  C   UNL A   1      41.108  31.207  30.415  1.00  0.00     0.074 A 
ATOM     54  C   UNL A   1      46.831  30.633  27.741  1.00  0.00     0.029 A 
ATOM     55  N   UNL A   1      44.752  30.291  28.449  1.00  0.00    -0.354 N 
ATOM     56  N   UNL A   1      42.246  31.018  29.792  1.00  0.00    -0.248 NA
ATOM     57  C   UNL A   1      41.021  32.487  31.131  1.00  0.00     0.031 C 
ATOM     58  C   UNL A   1      46.407  31.771  28.434  1.00  0.00     0.029 A 
ATOM     59  C   UNL A   1      45.105  31.565  28.860  1.00  0.00     0.049 A 
ATOM     60  H   UNL A   1      43.881  29.865  28.619  1.00  0.00     0.167 HD
ATOM     61  C   UNL A   1      42.994  32.171  30.008  1.00  0.00     0.074 A 
ATOM     62  C   UNL A   1      42.170  33.059  30.800  1.00  0.00     0.031 C 
ATOM     63  C   UNL A   1      44.254  32.461  29.599  1.00  0.00     0.034 A 
BRANCH  50  64
ATOM     64  C   UNL A   1      47.032  27.875  26.527  1.00  0.00     0.023 A 
ATOM     65  C   UNL A   1      48.011  27.202  27.286  1.00  0.00     0.012 A 
ATOM     66  C   UNL A   1      47.208  28.007  25.136  1.00  0.00     0.148 A 
ATOM     67  C   UNL A   1      49.160  26.697  26.679  1.00  0.00     0.002 A 
ATOM     68  C   UNL A   1      48.333  27.460  24.530  1.00  0.00     0.091 A 
ATOM     69  F   UNL A   1      46.276  28.667  24.432  1.00  0.00    -0.205 F 
ATOM     70  C   UNL A   1      49.316  26.816  25.302  1.00  0.00     0.022 A 
BRANCH  68  71
ATOM     71  S   UNL A   1      48.591  27.487  22.753  1.00  0.00     0.127 S 
ATOM     72  O   UNL A   1      48.569  26.061  22.430  1.00  0.00    -0.237 OA
ATOM     73  O   UNL A   1      47.425  28.236  22.285  1.00  0.00    -0.237 OA
ATOM     74  O   UNL A   1      49.868  28.155  22.541  1.00  0.00    -0.744 OA
ENDBRANCH  68  71
ENDBRANCH  50  64
BRANCH  51  75
ATOM     75  C   UNL A   1      38.667  30.740  31.193  1.00  0.00     0.023 A 
ATOM     76  C   UNL A   1      38.565  30.492  32.577  1.00  0.00     0.012 A 
ATOM     77  C   UNL A   1      37.609  31.396  30.535  1.00  0.00     0.148 A 
ATOM     78  C   UNL A   1      37.417  30.851  33.282  1.00  0.00     0.002 A 
ATOM     79  C   UNL A   1      36.492  31.803  31.255  1.00  0.00     0.091 A 
ATOM     80  F   UNL A   1      37.719  31.616  29.217  1.00  0.00    -0.205 F 
ATOM     81  C   UNL A   1      36.385  31.515  32.625  1.00  0.00     0.022 A 
BRANCH  79  82
ATOM     82  S   UNL A   1      35.176  32.779  30.519  1.00  0.00     0.127 S 
ATOM     83  O   UNL A   1      35.885  33.997  30.136  1.00  0.00    -0.237 OA
ATOM     84  O   UNL A   1      34.757  31.931  29.403  1.00  0.00    -0.237 OA
ATOM     85  O   UNL A   1      34.172  32.931  31.564  1.00  0.00    -0.744 OA
ENDBRANCH  79  82
ENDBRANCH  51  75
BRANCH  63  86
ATOM     86  C   UNL A   1      44.808  33.815  29.956  1.00  0.00     0.023 A 
ATOM     87  C   UNL A   1      45.585  33.972  31.122  1.00  0.00     0.012 A 
ATOM     88  C   UNL A   1      44.619  34.916  29.097  1.00  0.00     0.148 A 
ATOM     89  C   UNL A   1      46.132  35.213  31.446  1.00  0.00     0.002 A 
ATOM     90  C   UNL A   1      45.211  36.135  29.399  1.00  0.00     0.091 A 
ATOM     91  F   UNL A   1      43.862  34.749  28.002  1.00  0.00    -0.205 F 
ATOM     92  C   UNL A   1      45.956  36.289  30.579  1.00  0.00     0.022 A 
BRANCH  90  93
ATOM     93  S   UNL A   1      45.122  37.548  28.294  1.00  0.00     0.127 S 
ATOM     94  O   UNL A   1      43.698  37.876  28.344  1.00  0.00    -0.237 OA
ATOM     95  O   UNL A   1      45.996  38.516  28.957  1.00  0.00    -0.237 OA
ATOM     96  O   UNL A   1      45.609  37.081  27.003  1.00  0.00    -0.744 OA
ENDBRANCH  90  93
ENDBRANCH  63  86
ENDBRANCH  37  38
ENDBRANCH  29  32
ENDBRANCH  27  28
ENDBRANCH   1  27
TORSDOF 16
ENDMDL
