MODEL 1
REMARK VINA RESULT:     -14.1      0.000      0.000
REMARK SMILES Cc1ccc(C(=O)N2C[C@@H](C(=O)NCCCNC(=O)c3ccc(-c4c5nc(c(-c6cccc(S(=O)(=O)[O-])c6F)c6ccc([nH]6)c(-c6cccc(S(=O)(=O)[O-])c6F)c6nc(c(-c7cccc(S(=O)(=O)[O-])c7F)c7ccc4[nH]7)C=C6)C=C5)cc3)C[C@H](C(=O)N3CCOCC3)C2)cc1F
REMARK SMILES IDX 15 1 14 2 13 3 11 4 12 5 10 7 8 8 9 9 93 10 84 11 83 12 6 13
REMARK SMILES IDX 7 14 5 15 1 16 2 17 3 18 95 19 4 20 94 21 96 22 85 23 86 24
REMARK SMILES IDX 87 25 88 26 92 27 89 28 91 29 90 30 16 31 17 32 18 33 19 35
REMARK SMILES IDX 20 36 21 37 82 38 22 39 81 40 23 41 24 42 25 43 75 44 26 45
REMARK SMILES IDX 80 46 74 47 76 48 27 49 79 50 73 51 72 52 28 54 60 55 40 56
REMARK SMILES IDX 59 57 41 58 44 59 58 60 77 61 42 62 43 63 57 65 78 66 45 67
REMARK SMILES IDX 29 68 30 69 38 70 31 71 33 72 39 73 32 74 34 75 35 76 36 77
REMARK SMILES IDX 37 78 61 79 62 80 70 81 63 82 65 83 71 84 64 85 66 86 67 87
REMARK SMILES IDX 68 88 69 89 46 90 47 91 55 92 48 93 50 94 56 95 49 96 51 97
REMARK SMILES IDX 52 98 53 99 54 100
REMARK H PARENT 13 6 17 34 76 53 44 64
REMARK Flexibility Score: inf
ROOT
ATOM      1  C   UNL A   1      33.487  31.205  27.262  1.00  0.00     0.042 C 
ENDROOT
BRANCH   1   2
ATOM      2  C   UNL A   1      33.081  29.892  26.622  1.00  0.00     0.117 C 
BRANCH   2   3
ATOM      3  N   UNL A   1      33.691  29.703  25.315  1.00  0.00    -0.356 N 
ATOM      4  C   UNL A   1      33.192  29.073  24.220  1.00  0.00     0.224 C 
ATOM      5  O   UNL A   1      33.902  28.902  23.229  1.00  0.00    -0.275 OA
ATOM      6  H   UNL A   1      34.592  30.085  25.209  1.00  0.00     0.163 HD
BRANCH   4   7
ATOM      7  C   UNL A   1      31.764  28.570  24.230  1.00  0.00     0.099 C 
ATOM      8  N   UNL A   1      30.561  26.366  24.529  1.00  0.00    -0.337 N 
ATOM      9  C   UNL A   1      31.686  27.208  24.911  1.00  0.00     0.133 C 
ATOM     10  C   UNL A   1      30.102  26.401  23.142  1.00  0.00     0.133 C 
ATOM     11  C   UNL A   1      29.901  27.824  22.600  1.00  0.00     0.099 C 
ATOM     12  C   UNL A   1      31.091  28.731  22.862  1.00  0.00     0.030 C 
BRANCH   8  13
ATOM     13  C   UNL A   1      30.199  25.407  25.473  1.00  0.00     0.254 C 
ATOM     14  O   UNL A   1      29.325  25.610  26.317  1.00  0.00    -0.269 OA
BRANCH  13  15
ATOM     15  C   UNL A   1      30.910  24.116  25.577  1.00  0.00     0.042 A 
ATOM     16  C   UNL A   1      33.926  21.070  25.879  1.00  0.00     0.047 C 
ATOM     17  C   UNL A   1      32.806  22.060  25.766  1.00  0.00    -0.015 A 
ATOM     18  C   UNL A   1      32.222  22.367  24.530  1.00  0.00     0.007 A 
ATOM     19  C   UNL A   1      32.392  22.763  26.902  1.00  0.00     0.126 A 
ATOM     20  C   UNL A   1      31.281  23.399  24.432  1.00  0.00     0.014 A 
ATOM     21  C   UNL A   1      31.457  23.784  26.818  1.00  0.00     0.053 A 
ATOM     22  F   UNL A   1      32.952  22.495  28.091  1.00  0.00    -0.207 F 
ENDBRANCH  13  15
ENDBRANCH   8  13
BRANCH  11  23
ATOM     23  C   UNL A   1      28.476  28.294  22.919  1.00  0.00     0.227 C 
ATOM     24  O   UNL A   1      27.810  27.617  23.713  1.00  0.00    -0.275 OA
ATOM     25  N   UNL A   1      28.057  29.553  22.573  1.00  0.00    -0.338 N 
ATOM     26  C   UNL A   1      28.066  30.180  21.252  1.00  0.00     0.148 C 
ATOM     27  C   UNL A   1      27.336  30.351  23.559  1.00  0.00     0.148 C 
ATOM     28  C   UNL A   1      28.650  31.596  21.350  1.00  0.00     0.181 C 
ATOM     29  C   UNL A   1      27.960  31.750  23.610  1.00  0.00     0.181 C 
ATOM     30  O   UNL A   1      27.916  32.376  22.314  1.00  0.00    -0.378 OA
ENDBRANCH  11  23
ENDBRANCH   4   7
ENDBRANCH   2   3
ENDBRANCH   1   2
BRANCH   1  31
ATOM     31  C   UNL A   1      34.539  30.960  28.304  1.00  0.00     0.118 C 
BRANCH  31  32
ATOM     32  N   UNL A   1      34.524  31.968  29.368  1.00  0.00    -0.352 N 
ATOM     33  C   UNL A   1      35.315  31.963  30.508  1.00  0.00     0.251 C 
ATOM     34  H   UNL A   1      33.895  32.718  29.265  1.00  0.00     0.163 HD
ATOM     35  O   UNL A   1      35.033  32.582  31.509  1.00  0.00    -0.269 OA
BRANCH  33  36
ATOM     36  C   UNL A   1      36.540  31.153  30.405  1.00  0.00     0.039 A 
ATOM     37  C   UNL A   1      36.661  29.868  30.926  1.00  0.00     0.014 A 
ATOM     38  C   UNL A   1      37.558  31.730  29.657  1.00  0.00     0.014 A 
ATOM     39  C   UNL A   1      37.818  29.151  30.628  1.00  0.00     0.010 A 
ATOM     40  C   UNL A   1      38.495  30.926  29.103  1.00  0.00     0.010 A 
ATOM     41  C   UNL A   1      38.719  29.696  29.703  1.00  0.00    -0.014 A 
BRANCH  41  42
ATOM     42  C   UNL A   1      40.028  29.161  29.381  1.00  0.00     0.031 A 
ATOM     43  C   UNL A   1      40.170  27.763  28.997  1.00  0.00     0.074 A 
ATOM     44  C   UNL A   1      41.057  30.040  29.437  1.00  0.00     0.049 A 
ATOM     45  N   UNL A   1      41.117  26.993  29.395  1.00  0.00    -0.248 NA
ATOM     46  C   UNL A   1      39.189  27.089  28.150  1.00  0.00     0.031 C 
ATOM     47  C   UNL A   1      42.448  29.907  29.055  1.00  0.00     0.029 A 
ATOM     48  N   UNL A   1      41.008  31.291  30.046  1.00  0.00    -0.354 N 
ATOM     49  C   UNL A   1      41.104  25.903  28.556  1.00  0.00     0.074 A 
ATOM     50  C   UNL A   1      39.792  25.911  27.946  1.00  0.00     0.031 C 
ATOM     51  C   UNL A   1      43.157  30.875  29.676  1.00  0.00     0.029 A 
ATOM     52  C   UNL A   1      42.254  31.601  30.565  1.00  0.00     0.049 A 
ATOM     53  H   UNL A   1      40.212  31.866  30.099  1.00  0.00     0.167 HD
ATOM     54  C   UNL A   1      42.281  25.266  28.282  1.00  0.00     0.034 A 
ATOM     55  C   UNL A   1      42.347  31.728  31.922  1.00  0.00     0.034 A 
ATOM     56  C   UNL A   1      43.389  25.958  28.945  1.00  0.00     0.049 A 
ATOM     57  C   UNL A   1      43.132  30.567  32.478  1.00  0.00     0.074 A 
ATOM     58  C   UNL A   1      44.308  26.878  28.465  1.00  0.00     0.029 A 
ATOM     59  N   UNL A   1      43.425  26.057  30.333  1.00  0.00    -0.354 N 
ATOM     60  N   UNL A   1      43.192  29.394  31.908  1.00  0.00    -0.248 NA
ATOM     61  C   UNL A   1      43.950  30.661  33.679  1.00  0.00     0.031 C 
ATOM     62  C   UNL A   1      44.833  27.594  29.571  1.00  0.00     0.029 A 
ATOM     63  C   UNL A   1      44.250  27.096  30.724  1.00  0.00     0.049 A 
ATOM     64  H   UNL A   1      42.934  25.469  30.951  1.00  0.00     0.167 HD
ATOM     65  C   UNL A   1      44.105  28.621  32.572  1.00  0.00     0.074 A 
ATOM     66  C   UNL A   1      44.530  29.449  33.690  1.00  0.00     0.031 C 
ATOM     67  C   UNL A   1      44.475  27.382  32.136  1.00  0.00     0.034 A 
BRANCH  54  68
ATOM     68  C   UNL A   1      42.461  24.285  27.137  1.00  0.00     0.023 A 
ATOM     69  C   UNL A   1      43.105  24.637  25.930  1.00  0.00     0.012 A 
ATOM     70  C   UNL A   1      42.005  22.949  27.221  1.00  0.00     0.148 A 
ATOM     71  C   UNL A   1      43.409  23.699  24.934  1.00  0.00     0.002 A 
ATOM     72  C   UNL A   1      42.275  22.022  26.211  1.00  0.00     0.091 A 
ATOM     73  F   UNL A   1      41.291  22.545  28.279  1.00  0.00    -0.205 F 
ATOM     74  C   UNL A   1      43.004  22.383  25.078  1.00  0.00     0.022 A 
BRANCH  72  75
ATOM     75  S   UNL A   1      41.657  20.343  26.376  1.00  0.00     0.127 S 
ATOM     76  O   UNL A   1      42.139  19.949  27.696  1.00  0.00    -0.237 OA
ATOM     77  O   UNL A   1      40.216  20.504  26.220  1.00  0.00    -0.237 OA
ATOM     78  O   UNL A   1      42.302  19.639  25.267  1.00  0.00    -0.744 OA
ENDBRANCH  72  75
ENDBRANCH  54  68
BRANCH  55  79
ATOM     79  C   UNL A   1      41.100  32.325  32.532  1.00  0.00     0.023 A 
ATOM     80  C   UNL A   1      41.043  33.677  32.918  1.00  0.00     0.012 A 
ATOM     81  C   UNL A   1      40.181  31.424  33.129  1.00  0.00     0.148 A 
ATOM     82  C   UNL A   1      40.162  34.092  33.932  1.00  0.00     0.002 A 
ATOM     83  C   UNL A   1      39.392  31.821  34.208  1.00  0.00     0.091 A 
ATOM     84  F   UNL A   1      40.183  30.146  32.716  1.00  0.00    -0.205 F 
ATOM     85  C   UNL A   1      39.368  33.160  34.606  1.00  0.00     0.022 A 
BRANCH  83  86
ATOM     86  S   UNL A   1      38.682  30.572  35.304  1.00  0.00     0.127 S 
ATOM     87  O   UNL A   1      37.938  29.723  34.382  1.00  0.00    -0.237 OA
ATOM     88  O   UNL A   1      39.842  29.971  35.955  1.00  0.00    -0.237 OA
ATOM     89  O   UNL A   1      37.856  31.354  36.230  1.00  0.00    -0.744 OA
ENDBRANCH  83  86
ENDBRANCH  55  79
BRANCH  67  90
ATOM     90  C   UNL A   1      45.234  26.360  32.941  1.00  0.00     0.023 A 
ATOM     91  C   UNL A   1      46.633  26.238  32.731  1.00  0.00     0.012 A 
ATOM     92  C   UNL A   1      44.647  25.432  33.809  1.00  0.00     0.148 A 
ATOM     93  C   UNL A   1      47.399  25.248  33.342  1.00  0.00     0.002 A 
ATOM     94  C   UNL A   1      45.435  24.528  34.516  1.00  0.00     0.091 A 
ATOM     95  F   UNL A   1      43.314  25.360  33.927  1.00  0.00    -0.205 F 
ATOM     96  C   UNL A   1      46.803  24.403  34.263  1.00  0.00     0.022 A 
BRANCH  94  97
ATOM     97  S   UNL A   1      44.678  23.623  35.864  1.00  0.00     0.127 S 
ATOM     98  O   UNL A   1      45.830  22.977  36.491  1.00  0.00    -0.237 OA
ATOM     99  O   UNL A   1      44.015  24.663  36.643  1.00  0.00    -0.237 OA
ATOM    100  O   UNL A   1      43.768  22.702  35.185  1.00  0.00    -0.744 OA
ENDBRANCH  94  97
ENDBRANCH  67  90
ENDBRANCH  41  42
ENDBRANCH  33  36
ENDBRANCH  31  32
ENDBRANCH   1  31
TORSDOF 16
ENDMDL
MODEL 2
REMARK VINA RESULT:     -14.0      1.706      4.267
REMARK SMILES Cc1ccc(C(=O)N2C[C@@H](C(=O)NCCCNC(=O)c3ccc(-c4c5nc(c(-c6cccc(S(=O)(=O)[O-])c6F)c6ccc([nH]6)c(-c6cccc(S(=O)(=O)[O-])c6F)c6nc(c(-c7cccc(S(=O)(=O)[O-])c7F)c7ccc4[nH]7)C=C6)C=C5)cc3)C[C@H](C(=O)N3CCOCC3)C2)cc1F
REMARK SMILES IDX 15 1 14 2 13 3 11 4 12 5 10 7 8 8 9 9 93 10 84 11 83 12 6 13
REMARK SMILES IDX 7 14 5 15 1 16 2 17 3 18 95 19 4 20 94 21 96 22 85 23 86 24
REMARK SMILES IDX 87 25 88 26 92 27 89 28 91 29 90 30 16 31 17 32 18 33 19 35
REMARK SMILES IDX 20 36 21 37 82 38 22 39 81 40 23 41 24 42 25 43 75 44 26 45
REMARK SMILES IDX 80 46 74 47 76 48 27 49 79 50 73 51 72 52 28 54 60 55 40 56
REMARK SMILES IDX 59 57 41 58 44 59 58 60 77 61 42 62 43 63 57 65 78 66 45 67
REMARK SMILES IDX 29 68 30 69 38 70 31 71 33 72 39 73 32 74 34 75 35 76 36 77
REMARK SMILES IDX 37 78 61 79 62 80 70 81 63 82 65 83 71 84 64 85 66 86 67 87
REMARK SMILES IDX 68 88 69 89 46 90 47 91 55 92 48 93 50 94 56 95 49 96 51 97
REMARK SMILES IDX 52 98 53 99 54 100
REMARK H PARENT 13 6 17 34 76 53 44 64
REMARK Flexibility Score: inf
ROOT
ATOM      1  C   UNL A   1      33.723  31.244  27.289  1.00  0.00     0.042 C 
ENDROOT
BRANCH   1   2
ATOM      2  C   UNL A   1      33.689  29.763  26.967  1.00  0.00     0.117 C 
BRANCH   2   3
ATOM      3  N   UNL A   1      32.642  29.063  27.696  1.00  0.00    -0.356 N 
ATOM      4  C   UNL A   1      31.935  27.963  27.333  1.00  0.00     0.224 C 
ATOM      5  O   UNL A   1      30.996  27.576  28.028  1.00  0.00    -0.275 OA
ATOM      6  H   UNL A   1      32.415  29.441  28.577  1.00  0.00     0.163 HD
BRANCH   4   7
ATOM      7  C   UNL A   1      32.298  27.223  26.064  1.00  0.00     0.099 C 
ATOM      8  N   UNL A   1      31.185  26.602  23.879  1.00  0.00    -0.337 N 
ATOM      9  C   UNL A   1      31.330  27.586  24.942  1.00  0.00     0.133 C 
ATOM     10  C   UNL A   1      31.237  25.184  24.229  1.00  0.00     0.133 C 
ATOM     11  C   UNL A   1      32.430  24.817  25.124  1.00  0.00     0.099 C 
ATOM     12  C   UNL A   1      32.573  25.738  26.325  1.00  0.00     0.030 C 
BRANCH   8  13
ATOM     13  C   UNL A   1      30.745  27.116  22.661  1.00  0.00     0.254 C 
ATOM     14  O   UNL A   1      31.242  26.778  21.586  1.00  0.00    -0.269 OA
BRANCH  13  15
ATOM     15  C   UNL A   1      29.712  28.169  22.592  1.00  0.00     0.042 A 
ATOM     16  C   UNL A   1      27.229  31.582  23.398  1.00  0.00     0.047 C 
ATOM     17  C   UNL A   1      28.036  30.371  23.040  1.00  0.00    -0.015 A 
ATOM     18  C   UNL A   1      27.606  29.080  23.374  1.00  0.00     0.007 A 
ATOM     19  C   UNL A   1      29.289  30.532  22.440  1.00  0.00     0.126 A 
ATOM     20  C   UNL A   1      28.445  27.980  23.158  1.00  0.00     0.014 A 
ATOM     21  C   UNL A   1      30.127  29.450  22.218  1.00  0.00     0.053 A 
ATOM     22  F   UNL A   1      29.725  31.761  22.130  1.00  0.00    -0.207 F 
ENDBRANCH  13  15
ENDBRANCH   8  13
BRANCH  11  23
ATOM     23  C   UNL A   1      33.643  24.486  24.247  1.00  0.00     0.227 C 
ATOM     24  O   UNL A   1      34.054  25.363  23.476  1.00  0.00    -0.275 OA
ATOM     25  N   UNL A   1      34.416  23.382  24.503  1.00  0.00    -0.338 N 
ATOM     26  C   UNL A   1      33.995  21.986  24.608  1.00  0.00     0.148 C 
ATOM     27  C   UNL A   1      35.868  23.524  24.500  1.00  0.00     0.148 C 
ATOM     28  C   UNL A   1      34.614  21.346  25.859  1.00  0.00     0.181 C 
ATOM     29  C   UNL A   1      36.428  22.866  25.766  1.00  0.00     0.181 C 
ATOM     30  O   UNL A   1      36.049  21.479  25.832  1.00  0.00    -0.378 OA
ENDBRANCH  11  23
ENDBRANCH   4   7
ENDBRANCH   2   3
ENDBRANCH   1   2
BRANCH   1  31
ATOM     31  C   UNL A   1      35.017  31.589  27.967  1.00  0.00     0.118 C 
BRANCH  31  32
ATOM     32  N   UNL A   1      34.818  32.309  29.228  1.00  0.00    -0.352 N 
ATOM     33  C   UNL A   1      35.396  31.992  30.449  1.00  0.00     0.251 C 
ATOM     34  H   UNL A   1      34.220  33.091  29.207  1.00  0.00     0.163 HD
ATOM     35  O   UNL A   1      34.944  32.364  31.508  1.00  0.00    -0.269 OA
BRANCH  33  36
ATOM     36  C   UNL A   1      36.617  31.176  30.360  1.00  0.00     0.039 A 
ATOM     37  C   UNL A   1      36.732  29.898  30.902  1.00  0.00     0.014 A 
ATOM     38  C   UNL A   1      37.638  31.735  29.602  1.00  0.00     0.014 A 
ATOM     39  C   UNL A   1      37.885  29.172  30.617  1.00  0.00     0.010 A 
ATOM     40  C   UNL A   1      38.571  30.918  29.062  1.00  0.00     0.010 A 
ATOM     41  C   UNL A   1      38.790  29.697  29.683  1.00  0.00    -0.014 A 
BRANCH  41  42
ATOM     42  C   UNL A   1      40.097  29.151  29.371  1.00  0.00     0.031 A 
ATOM     43  C   UNL A   1      40.229  27.751  28.990  1.00  0.00     0.074 A 
ATOM     44  C   UNL A   1      41.132  30.021  29.431  1.00  0.00     0.049 A 
ATOM     45  N   UNL A   1      41.168  26.974  29.396  1.00  0.00    -0.248 NA
ATOM     46  C   UNL A   1      39.248  27.084  28.138  1.00  0.00     0.031 C 
ATOM     47  C   UNL A   1      42.524  29.876  29.058  1.00  0.00     0.029 A 
ATOM     48  N   UNL A   1      41.089  31.273  30.038  1.00  0.00    -0.354 N 
ATOM     49  C   UNL A   1      41.151  25.882  28.558  1.00  0.00     0.074 A 
ATOM     50  C   UNL A   1      39.842  25.900  27.940  1.00  0.00     0.031 C 
ATOM     51  C   UNL A   1      43.237  30.840  29.682  1.00  0.00     0.029 A 
ATOM     52  C   UNL A   1      42.335  31.575  30.565  1.00  0.00     0.049 A 
ATOM     53  H   UNL A   1      40.297  31.855  30.085  1.00  0.00     0.167 HD
ATOM     54  C   UNL A   1      42.324  25.236  28.293  1.00  0.00     0.034 A 
ATOM     55  C   UNL A   1      42.420  31.703  31.922  1.00  0.00     0.034 A 
ATOM     56  C   UNL A   1      43.433  25.919  28.962  1.00  0.00     0.049 A 
ATOM     57  C   UNL A   1      43.191  30.537  32.485  1.00  0.00     0.074 A 
ATOM     58  C   UNL A   1      44.363  26.831  28.487  1.00  0.00     0.029 A 
ATOM     59  N   UNL A   1      43.462  26.021  30.350  1.00  0.00    -0.354 N 
ATOM     60  N   UNL A   1      43.246  29.362  31.918  1.00  0.00    -0.248 NA
ATOM     61  C   UNL A   1      44.002  30.626  33.691  1.00  0.00     0.031 C 
ATOM     62  C   UNL A   1      44.887  27.545  29.594  1.00  0.00     0.029 A 
ATOM     63  C   UNL A   1      44.293  27.054  30.745  1.00  0.00     0.049 A 
ATOM     64  H   UNL A   1      42.962  25.438  30.966  1.00  0.00     0.167 HD
ATOM     65  C   UNL A   1      44.148  28.584  32.589  1.00  0.00     0.074 A 
ATOM     66  C   UNL A   1      44.572  29.410  33.708  1.00  0.00     0.031 C 
ATOM     67  C   UNL A   1      44.511  27.341  32.158  1.00  0.00     0.034 A 
BRANCH  54  68
ATOM     68  C   UNL A   1      42.503  24.251  27.151  1.00  0.00     0.023 A 
ATOM     69  C   UNL A   1      43.190  24.585  25.962  1.00  0.00     0.012 A 
ATOM     70  C   UNL A   1      42.004  22.929  27.221  1.00  0.00     0.148 A 
ATOM     71  C   UNL A   1      43.490  23.639  24.972  1.00  0.00     0.002 A 
ATOM     72  C   UNL A   1      42.272  21.996  26.216  1.00  0.00     0.091 A 
ATOM     73  F   UNL A   1      41.252  22.546  28.259  1.00  0.00    -0.205 F 
ATOM     74  C   UNL A   1      43.041  22.335  25.103  1.00  0.00     0.022 A 
BRANCH  72  75
ATOM     75  S   UNL A   1      41.598  20.337  26.361  1.00  0.00     0.127 S 
ATOM     76  O   UNL A   1      42.067  19.911  27.676  1.00  0.00    -0.237 OA
ATOM     77  O   UNL A   1      40.163  20.547  26.208  1.00  0.00    -0.237 OA
ATOM     78  O   UNL A   1      42.220  19.624  25.243  1.00  0.00    -0.744 OA
ENDBRANCH  72  75
ENDBRANCH  54  68
BRANCH  55  79
ATOM     79  C   UNL A   1      41.173  32.311  32.523  1.00  0.00     0.023 A 
ATOM     80  C   UNL A   1      41.119  33.670  32.888  1.00  0.00     0.012 A 
ATOM     81  C   UNL A   1      40.253  31.422  33.133  1.00  0.00     0.148 A 
ATOM     82  C   UNL A   1      40.238  34.101  33.895  1.00  0.00     0.002 A 
ATOM     83  C   UNL A   1      39.465  31.836  34.206  1.00  0.00     0.091 A 
ATOM     84  F   UNL A   1      40.253  30.138  32.740  1.00  0.00    -0.205 F 
ATOM     85  C   UNL A   1      39.443  33.181  34.584  1.00  0.00     0.022 A 
BRANCH  83  86
ATOM     86  S   UNL A   1      38.753  30.605  35.321  1.00  0.00     0.127 S 
ATOM     87  O   UNL A   1      39.929  30.047  35.976  1.00  0.00    -0.237 OA
ATOM     88  O   UNL A   1      37.839  31.373  36.161  1.00  0.00    -0.237 OA
ATOM     89  O   UNL A   1      38.053  29.686  34.418  1.00  0.00    -0.744 OA
ENDBRANCH  83  86
ENDBRANCH  55  79
BRANCH  67  90
ATOM     90  C   UNL A   1      45.256  26.314  32.969  1.00  0.00     0.023 A 
ATOM     91  C   UNL A   1      46.673  26.283  32.881  1.00  0.00     0.012 A 
ATOM     92  C   UNL A   1      44.652  25.303  33.726  1.00  0.00     0.148 A 
ATOM     93  C   UNL A   1      47.440  25.300  33.503  1.00  0.00     0.002 A 
ATOM     94  C   UNL A   1      45.428  24.401  34.449  1.00  0.00     0.091 A 
ATOM     95  F   UNL A   1      43.321  25.150  33.716  1.00  0.00    -0.205 F 
ATOM     96  C   UNL A   1      46.818  24.368  34.316  1.00  0.00     0.022 A 
BRANCH  94  97
ATOM     97  S   UNL A   1      44.611  23.374  35.669  1.00  0.00     0.127 S 
ATOM     98  O   UNL A   1      45.734  22.878  36.461  1.00  0.00    -0.237 OA
ATOM     99  O   UNL A   1      43.703  24.299  36.340  1.00  0.00    -0.237 OA
ATOM    100  O   UNL A   1      43.946  22.353  34.861  1.00  0.00    -0.744 OA
ENDBRANCH  94  97
ENDBRANCH  67  90
ENDBRANCH  41  42
ENDBRANCH  33  36
ENDBRANCH  31  32
ENDBRANCH   1  31
TORSDOF 16
ENDMDL
MODEL 3
REMARK VINA RESULT:     -14.0      4.497      9.809
REMARK SMILES Cc1ccc(C(=O)N2C[C@@H](C(=O)NCCCNC(=O)c3ccc(-c4c5nc(c(-c6cccc(S(=O)(=O)[O-])c6F)c6ccc([nH]6)c(-c6cccc(S(=O)(=O)[O-])c6F)c6nc(c(-c7cccc(S(=O)(=O)[O-])c7F)c7ccc4[nH]7)C=C6)C=C5)cc3)C[C@H](C(=O)N3CCOCC3)C2)cc1F
REMARK SMILES IDX 15 1 14 2 13 3 11 4 12 5 10 7 8 8 9 9 93 10 84 11 83 12 6 13
REMARK SMILES IDX 7 14 5 15 1 16 2 17 3 18 95 19 4 20 94 21 96 22 85 23 86 24
REMARK SMILES IDX 87 25 88 26 92 27 89 28 91 29 90 30 16 31 17 32 18 33 19 35
REMARK SMILES IDX 20 36 21 37 82 38 22 39 81 40 23 41 24 42 25 43 75 44 26 45
REMARK SMILES IDX 80 46 74 47 76 48 27 49 79 50 73 51 72 52 28 54 60 55 40 56
REMARK SMILES IDX 59 57 41 58 44 59 58 60 77 61 42 62 43 63 57 65 78 66 45 67
REMARK SMILES IDX 29 68 30 69 38 70 31 71 33 72 39 73 32 74 34 75 35 76 36 77
REMARK SMILES IDX 37 78 61 79 62 80 70 81 63 82 65 83 71 84 64 85 66 86 67 87
REMARK SMILES IDX 68 88 69 89 46 90 47 91 55 92 48 93 50 94 56 95 49 96 51 97
REMARK SMILES IDX 52 98 53 99 54 100
REMARK H PARENT 13 6 17 34 76 53 44 64
REMARK Flexibility Score: inf
ROOT
ATOM      1  C   UNL A   1      38.837  21.525  25.938  1.00  0.00     0.042 C 
ENDROOT
BRANCH   1   2
ATOM      2  C   UNL A   1      37.651  22.450  25.748  1.00  0.00     0.117 C 
BRANCH   2   3
ATOM      3  N   UNL A   1      37.510  22.891  24.369  1.00  0.00    -0.356 N 
ATOM      4  C   UNL A   1      36.417  22.849  23.564  1.00  0.00     0.224 C 
ATOM      5  O   UNL A   1      36.513  23.158  22.377  1.00  0.00    -0.275 OA
ATOM      6  H   UNL A   1      38.320  23.274  23.962  1.00  0.00     0.163 HD
BRANCH   4   7
ATOM      7  C   UNL A   1      35.085  22.408  24.131  1.00  0.00     0.099 C 
ATOM      8  N   UNL A   1      33.515  23.117  25.982  1.00  0.00    -0.337 N 
ATOM      9  C   UNL A   1      34.461  23.529  24.956  1.00  0.00     0.133 C 
ATOM     10  C   UNL A   1      33.766  21.871  26.704  1.00  0.00     0.133 C 
ATOM     11  C   UNL A   1      34.093  20.686  25.785  1.00  0.00     0.099 C 
ATOM     12  C   UNL A   1      35.163  21.011  24.757  1.00  0.00     0.030 C 
BRANCH   8  13
ATOM     13  C   UNL A   1      32.595  24.094  26.358  1.00  0.00     0.254 C 
ATOM     14  O   UNL A   1      31.710  23.882  27.188  1.00  0.00    -0.269 OA
BRANCH  13  15
ATOM     15  C   UNL A   1      32.569  25.423  25.712  1.00  0.00     0.042 A 
ATOM     16  C   UNL A   1      33.257  28.760  23.094  1.00  0.00     0.047 C 
ATOM     17  C   UNL A   1      32.962  27.656  24.064  1.00  0.00    -0.015 A 
ATOM     18  C   UNL A   1      33.637  27.557  25.288  1.00  0.00     0.007 A 
ATOM     19  C   UNL A   1      32.060  26.649  23.707  1.00  0.00     0.126 A 
ATOM     20  C   UNL A   1      33.448  26.438  26.108  1.00  0.00     0.014 A 
ATOM     21  C   UNL A   1      31.861  25.539  24.513  1.00  0.00     0.053 A 
ATOM     22  F   UNL A   1      31.417  26.718  22.532  1.00  0.00    -0.207 F 
ENDBRANCH  13  15
ENDBRANCH   8  13
BRANCH  11  23
ATOM     23  C   UNL A   1      32.790  19.995  25.362  1.00  0.00     0.227 C 
ATOM     24  O   UNL A   1      31.762  20.683  25.316  1.00  0.00    -0.275 OA
ATOM     25  N   UNL A   1      32.808  18.751  24.786  1.00  0.00    -0.338 N 
ATOM     26  C   UNL A   1      33.399  17.519  25.308  1.00  0.00     0.148 C 
ATOM     27  C   UNL A   1      32.001  18.516  23.593  1.00  0.00     0.148 C 
ATOM     28  C   UNL A   1      34.223  16.830  24.212  1.00  0.00     0.181 C 
ATOM     29  C   UNL A   1      32.874  17.825  22.539  1.00  0.00     0.181 C 
ATOM     30  O   UNL A   1      33.408  16.589  23.048  1.00  0.00    -0.378 OA
ENDBRANCH  11  23
ENDBRANCH   4   7
ENDBRANCH   2   3
ENDBRANCH   1   2
BRANCH   1  31
ATOM     31  C   UNL A   1      39.957  22.264  26.609  1.00  0.00     0.118 C 
BRANCH  31  32
ATOM     32  N   UNL A   1      41.254  22.023  25.970  1.00  0.00    -0.352 N 
ATOM     33  C   UNL A   1      42.187  22.992  25.626  1.00  0.00     0.251 C 
ATOM     34  H   UNL A   1      41.485  21.088  25.765  1.00  0.00     0.163 HD
ATOM     35  O   UNL A   1      43.051  22.810  24.798  1.00  0.00    -0.269 OA
BRANCH  33  36
ATOM     36  C   UNL A   1      42.057  24.261  26.359  1.00  0.00     0.039 A 
ATOM     37  C   UNL A   1      41.908  25.498  25.737  1.00  0.00     0.014 A 
ATOM     38  C   UNL A   1      41.995  24.133  27.741  1.00  0.00     0.014 A 
ATOM     39  C   UNL A   1      41.641  26.603  26.543  1.00  0.00     0.010 A 
ATOM     40  C   UNL A   1      41.412  25.118  28.461  1.00  0.00     0.010 A 
ATOM     41  C   UNL A   1      41.384  26.388  27.905  1.00  0.00    -0.014 A 
BRANCH  41  42
ATOM     42  C   UNL A   1      41.227  27.422  28.910  1.00  0.00     0.031 A 
ATOM     43  C   UNL A   1      40.150  28.396  28.791  1.00  0.00     0.074 A 
ATOM     44  C   UNL A   1      42.108  27.388  29.937  1.00  0.00     0.049 A 
ATOM     45  N   UNL A   1      40.276  29.650  29.037  1.00  0.00    -0.248 NA
ATOM     46  C   UNL A   1      38.820  28.025  28.315  1.00  0.00     0.031 C 
ATOM     47  C   UNL A   1      42.172  28.152  31.167  1.00  0.00     0.029 A 
ATOM     48  N   UNL A   1      43.292  26.656  29.951  1.00  0.00    -0.354 N 
ATOM     49  C   UNL A   1      38.998  30.147  29.158  1.00  0.00     0.074 A 
ATOM     50  C   UNL A   1      38.150  29.167  28.513  1.00  0.00     0.031 C 
ATOM     51  C   UNL A   1      43.427  28.068  31.658  1.00  0.00     0.029 A 
ATOM     52  C   UNL A   1      44.244  27.330  30.699  1.00  0.00     0.049 A 
ATOM     53  H   UNL A   1      43.432  25.792  29.501  1.00  0.00     0.167 HD
ATOM     54  C   UNL A   1      38.775  31.196  30.003  1.00  0.00     0.034 A 
ATOM     55  C   UNL A   1      45.355  27.772  30.036  1.00  0.00     0.034 A 
ATOM     56  C   UNL A   1      40.019  31.561  30.684  1.00  0.00     0.049 A 
ATOM     57  C   UNL A   1      45.312  29.276  29.945  1.00  0.00     0.074 A 
ATOM     58  C   UNL A   1      40.494  31.243  31.947  1.00  0.00     0.029 A 
ATOM     59  N   UNL A   1      41.118  32.002  29.953  1.00  0.00    -0.354 N 
ATOM     60  N   UNL A   1      44.208  29.972  29.942  1.00  0.00    -0.248 NA
ATOM     61  C   UNL A   1      46.509  30.106  29.910  1.00  0.00     0.031 C 
ATOM     62  C   UNL A   1      41.902  31.412  31.943  1.00  0.00     0.029 A 
ATOM     63  C   UNL A   1      42.281  31.852  30.686  1.00  0.00     0.049 A 
ATOM     64  H   UNL A   1      41.074  32.371  29.042  1.00  0.00     0.167 HD
ATOM     65  C   UNL A   1      44.518  31.303  30.009  1.00  0.00     0.074 A 
ATOM     66  C   UNL A   1      45.970  31.336  29.958  1.00  0.00     0.031 C 
ATOM     67  C   UNL A   1      43.568  32.273  30.143  1.00  0.00     0.034 A 
BRANCH  54  68
ATOM     68  C   UNL A   1      37.395  31.615  30.479  1.00  0.00     0.023 A 
ATOM     69  C   UNL A   1      36.894  31.266  31.753  1.00  0.00     0.012 A 
ATOM     70  C   UNL A   1      36.534  32.398  29.674  1.00  0.00     0.148 A 
ATOM     71  C   UNL A   1      35.689  31.775  32.256  1.00  0.00     0.002 A 
ATOM     72  C   UNL A   1      35.315  32.875  30.163  1.00  0.00     0.091 A 
ATOM     73  F   UNL A   1      36.873  32.693  28.414  1.00  0.00    -0.205 F 
ATOM     74  C   UNL A   1      34.900  32.593  31.464  1.00  0.00     0.022 A 
BRANCH  72  75
ATOM     75  S   UNL A   1      34.264  33.855  29.084  1.00  0.00     0.127 S 
ATOM     76  O   UNL A   1      35.181  34.869  28.572  1.00  0.00    -0.237 OA
ATOM     77  O   UNL A   1      33.764  32.873  28.128  1.00  0.00    -0.237 OA
ATOM     78  O   UNL A   1      33.242  34.374  29.995  1.00  0.00    -0.744 OA
ENDBRANCH  72  75
ENDBRANCH  54  68
BRANCH  55  79
ATOM     79  C   UNL A   1      45.781  26.831  28.934  1.00  0.00     0.023 A 
ATOM     80  C   UNL A   1      46.810  25.890  29.126  1.00  0.00     0.012 A 
ATOM     81  C   UNL A   1      45.470  27.214  27.605  1.00  0.00     0.148 A 
ATOM     82  C   UNL A   1      47.561  25.423  28.032  1.00  0.00     0.002 A 
ATOM     83  C   UNL A   1      46.290  26.833  26.542  1.00  0.00     0.091 A 
ATOM     84  F   UNL A   1      44.445  28.059  27.409  1.00  0.00    -0.205 F 
ATOM     85  C   UNL A   1      47.331  25.925  26.749  1.00  0.00     0.022 A 
BRANCH  83  86
ATOM     86  S   UNL A   1      46.238  27.764  24.994  1.00  0.00     0.127 S 
ATOM     87  O   UNL A   1      46.957  26.894  24.072  1.00  0.00    -0.237 OA
ATOM     88  O   UNL A   1      44.813  27.950  24.740  1.00  0.00    -0.237 OA
ATOM     89  O   UNL A   1      46.923  29.018  25.322  1.00  0.00    -0.744 OA
ENDBRANCH  83  86
ENDBRANCH  55  79
BRANCH  67  90
ATOM     90  C   UNL A   1      43.785  33.748  29.934  1.00  0.00     0.023 A 
ATOM     91  C   UNL A   1      43.934  34.577  31.077  1.00  0.00     0.012 A 
ATOM     92  C   UNL A   1      43.741  34.394  28.693  1.00  0.00     0.148 A 
ATOM     93  C   UNL A   1      44.026  35.965  30.990  1.00  0.00     0.002 A 
ATOM     94  C   UNL A   1      43.961  35.765  28.600  1.00  0.00     0.091 A 
ATOM     95  F   UNL A   1      43.425  33.712  27.584  1.00  0.00    -0.205 F 
ATOM     96  C   UNL A   1      44.068  36.563  29.741  1.00  0.00     0.022 A 
BRANCH  94  97
ATOM     97  S   UNL A   1      44.249  36.466  26.977  1.00  0.00     0.127 S 
ATOM     98  O   UNL A   1      44.617  37.844  27.293  1.00  0.00    -0.237 OA
ATOM     99  O   UNL A   1      45.306  35.624  26.425  1.00  0.00    -0.237 OA
ATOM    100  O   UNL A   1      42.954  36.325  26.312  1.00  0.00    -0.744 OA
ENDBRANCH  94  97
ENDBRANCH  67  90
ENDBRANCH  41  42
ENDBRANCH  33  36
ENDBRANCH  31  32
ENDBRANCH   1  31
TORSDOF 16
ENDMDL
