MODEL 1
REMARK VINA RESULT:     -12.1      0.000      0.000
REMARK SMILES O=C(NCCCNC(=O)[C@H](CO)NC(=O)[C@H](Cc1c[nH]c2ccccc12)NC(=O)c1ccc(F)cc1)c1ccc(-c2c3nc(c(-c4cccc(S(=O)(=O)[O-])c4F)c4ccc([nH]4)c(-c4cccc(S(=O)(=O)[O-])c4F)c4nc(c(-c5cccc(S(=O)(=O)[O-])c5F)c5ccc2[nH]5)C=C4)C=C3)cc1
REMARK SMILES IDX 5 1 4 2 3 3 1 4 2 5 37 7 38 8 99 9 39 10 98 11 40 12 41 13
REMARK SMILES IDX 42 14 92 15 43 16 97 17 91 18 93 19 44 20 96 21 90 22 89 23
REMARK SMILES IDX 45 25 77 26 57 27 76 28 58 29 61 30 75 31 94 32 59 33 60 34
REMARK SMILES IDX 74 36 95 37 62 38 46 39 47 40 55 41 48 42 50 43 56 44 49 45
REMARK SMILES IDX 51 46 52 47 53 48 54 49 78 50 79 51 87 52 80 53 82 54 88 55
REMARK SMILES IDX 81 56 83 57 84 58 85 59 86 60 63 61 64 62 72 63 65 64 67 65
REMARK SMILES IDX 73 66 66 67 68 68 69 69 70 70 71 71 6 72 7 73 8 74 9 76
REMARK SMILES IDX 10 77 13 78 14 79 15 81 16 82 27 83 28 84 29 86 30 87 31 88
REMARK SMILES IDX 36 89 32 90 35 91 33 92 34 93 17 94 18 95 19 96 26 97 20 98
REMARK SMILES IDX 21 99 25 100 22 102 24 103 23 104 11 105 12 106
REMARK H PARENT 3 6 93 24 61 35 7 75 13 80 27 85 20 101 12 107
REMARK Flexibility Score: inf
ROOT
ATOM      1  C   UNL A   1      31.628  29.061  26.623  1.00  0.00     0.042 C 
ENDROOT
BRANCH   1   2
ATOM      2  C   UNL A   1      33.009  29.676  26.800  1.00  0.00     0.118 C 
BRANCH   2   3
ATOM      3  N   UNL A   1      32.978  31.131  26.758  1.00  0.00    -0.352 N 
ATOM      4  O   UNL A   1      33.450  33.224  27.432  1.00  0.00    -0.269 OA
ATOM      5  C   UNL A   1      33.775  32.039  27.412  1.00  0.00     0.251 C 
ATOM      6  H   UNL A   1      32.286  31.521  26.177  1.00  0.00     0.163 HD
BRANCH   5   7
ATOM      7  C   UNL A   1      35.000  31.578  28.095  1.00  0.00     0.039 A 
ATOM      8  C   UNL A   1      35.041  30.310  28.680  1.00  0.00     0.014 A 
ATOM      9  C   UNL A   1      36.120  32.412  28.143  1.00  0.00     0.014 A 
ATOM     10  C   UNL A   1      36.138  29.937  29.442  1.00  0.00     0.010 A 
ATOM     11  C   UNL A   1      37.267  31.989  28.819  1.00  0.00     0.010 A 
ATOM     12  C   UNL A   1      37.276  30.757  29.490  1.00  0.00    -0.014 A 
BRANCH  12  13
ATOM     13  C   UNL A   1      38.503  30.233  30.138  1.00  0.00     0.031 A 
ATOM     14  C   UNL A   1      38.900  30.644  31.523  1.00  0.00     0.074 A 
ATOM     15  C   UNL A   1      39.250  29.355  29.442  1.00  0.00     0.049 A 
ATOM     16  N   UNL A   1      39.923  30.238  32.230  1.00  0.00    -0.248 NA
ATOM     17  C   UNL A   1      38.056  31.637  32.203  1.00  0.00     0.031 C 
ATOM     18  C   UNL A   1      38.966  28.918  28.071  1.00  0.00     0.029 A 
ATOM     19  N   UNL A   1      40.380  28.661  29.783  1.00  0.00    -0.354 N 
ATOM     20  C   UNL A   1      39.867  30.947  33.424  1.00  0.00     0.074 A 
ATOM     21  C   UNL A   1      38.713  31.817  33.342  1.00  0.00     0.031 C 
ATOM     22  C   UNL A   1      39.862  27.994  27.709  1.00  0.00     0.029 A 
ATOM     23  C   UNL A   1      40.825  27.821  28.789  1.00  0.00     0.049 A 
ATOM     24  H   UNL A   1      40.830  28.754  30.653  1.00  0.00     0.167 HD
ATOM     25  C   UNL A   1      40.696  30.864  34.492  1.00  0.00     0.034 A 
ATOM     26  C   UNL A   1      41.896  27.005  28.743  1.00  0.00     0.034 A 
ATOM     27  C   UNL A   1      41.826  29.974  34.565  1.00  0.00     0.049 A 
ATOM     28  C   UNL A   1      42.786  26.921  29.944  1.00  0.00     0.074 A 
ATOM     29  C   UNL A   1      42.706  29.788  35.617  1.00  0.00     0.029 A 
ATOM     30  N   UNL A   1      42.236  29.124  33.548  1.00  0.00    -0.354 N 
ATOM     31  N   UNL A   1      42.667  27.533  31.097  1.00  0.00    -0.248 NA
ATOM     32  C   UNL A   1      43.946  26.026  29.851  1.00  0.00     0.031 C 
ATOM     33  C   UNL A   1      43.659  28.841  35.229  1.00  0.00     0.029 A 
ATOM     34  C   UNL A   1      43.359  28.416  33.943  1.00  0.00     0.049 A 
ATOM     35  H   UNL A   1      41.794  29.037  32.673  1.00  0.00     0.167 HD
ATOM     36  C   UNL A   1      43.723  27.085  31.878  1.00  0.00     0.074 A 
ATOM     37  C   UNL A   1      44.460  26.131  31.070  1.00  0.00     0.031 C 
ATOM     38  C   UNL A   1      44.058  27.442  33.141  1.00  0.00     0.034 A 
BRANCH  25  39
ATOM     39  C   UNL A   1      40.394  31.728  35.689  1.00  0.00     0.023 A 
ATOM     40  C   UNL A   1      41.256  32.797  36.008  1.00  0.00     0.012 A 
ATOM     41  C   UNL A   1      39.225  31.535  36.452  1.00  0.00     0.148 A 
ATOM     42  C   UNL A   1      40.974  33.644  37.080  1.00  0.00     0.002 A 
ATOM     43  C   UNL A   1      38.928  32.409  37.494  1.00  0.00     0.091 A 
ATOM     44  F   UNL A   1      38.427  30.500  36.152  1.00  0.00    -0.205 F 
ATOM     45  C   UNL A   1      39.807  33.457  37.814  1.00  0.00     0.022 A 
BRANCH  43  46
ATOM     46  S   UNL A   1      37.408  32.295  38.445  1.00  0.00     0.127 S 
ATOM     47  O   UNL A   1      36.481  33.058  37.611  1.00  0.00    -0.237 OA
ATOM     48  O   UNL A   1      37.161  30.853  38.467  1.00  0.00    -0.237 OA
ATOM     49  O   UNL A   1      37.709  32.876  39.745  1.00  0.00    -0.744 OA
ENDBRANCH  43  46
ENDBRANCH  25  39
BRANCH  26  50
ATOM     50  C   UNL A   1      42.106  26.167  27.530  1.00  0.00     0.023 A 
ATOM     51  C   UNL A   1      42.865  26.680  26.462  1.00  0.00     0.012 A 
ATOM     52  C   UNL A   1      41.681  24.823  27.493  1.00  0.00     0.148 A 
ATOM     53  C   UNL A   1      43.201  25.869  25.378  1.00  0.00     0.002 A 
ATOM     54  C   UNL A   1      42.073  24.005  26.441  1.00  0.00     0.091 A 
ATOM     55  F   UNL A   1      40.955  24.360  28.520  1.00  0.00    -0.205 F 
ATOM     56  C   UNL A   1      42.822  24.530  25.376  1.00  0.00     0.022 A 
BRANCH  54  57
ATOM     57  S   UNL A   1      41.779  22.232  26.436  1.00  0.00     0.127 S 
ATOM     58  O   UNL A   1      40.337  22.169  26.216  1.00  0.00    -0.237 OA
ATOM     59  O   UNL A   1      42.597  21.797  25.303  1.00  0.00    -0.237 OA
ATOM     60  O   UNL A   1      42.239  21.750  27.731  1.00  0.00    -0.744 OA
ENDBRANCH  54  57
ENDBRANCH  26  50
BRANCH  38  61
ATOM     61  C   UNL A   1      45.274  26.795  33.748  1.00  0.00     0.023 A 
ATOM     62  C   UNL A   1      46.525  27.435  33.652  1.00  0.00     0.012 A 
ATOM     63  C   UNL A   1      45.157  25.608  34.497  1.00  0.00     0.148 A 
ATOM     64  C   UNL A   1      47.647  26.893  34.277  1.00  0.00     0.002 A 
ATOM     65  C   UNL A   1      46.269  25.099  35.157  1.00  0.00     0.091 A 
ATOM     66  F   UNL A   1      43.962  25.004  34.557  1.00  0.00    -0.205 F 
ATOM     67  C   UNL A   1      47.516  25.735  35.040  1.00  0.00     0.022 A 
BRANCH  65  68
ATOM     68  S   UNL A   1      46.173  23.669  36.240  1.00  0.00     0.127 S 
ATOM     69  O   UNL A   1      45.862  24.292  37.526  1.00  0.00    -0.237 OA
ATOM     70  O   UNL A   1      45.074  22.905  35.650  1.00  0.00    -0.237 OA
ATOM     71  O   UNL A   1      47.473  23.017  36.159  1.00  0.00    -0.744 OA
ENDBRANCH  65  68
ENDBRANCH  38  61
ENDBRANCH  12  13
ENDBRANCH   5   7
ENDBRANCH   2   3
ENDBRANCH   1   2
BRANCH   1  72
ATOM     72  C   UNL A   1      31.604  27.898  25.646  1.00  0.00     0.117 C 
BRANCH  72  73
ATOM     73  N   UNL A   1      31.098  28.296  24.345  1.00  0.00    -0.354 N 
ATOM     74  C   UNL A   1      31.652  28.200  23.108  1.00  0.00     0.244 C 
ATOM     75  H   UNL A   1      30.203  28.705  24.362  1.00  0.00     0.163 HD
ATOM     76  O   UNL A   1      31.010  28.642  22.151  1.00  0.00    -0.273 OA
BRANCH  74  77
ATOM     77  C   UNL A   1      33.028  27.563  22.895  1.00  0.00     0.197 C 
BRANCH  77  78
ATOM     78  N   UNL A   1      33.072  26.872  21.602  1.00  0.00    -0.340 N 
ATOM     79  C   UNL A   1      32.852  25.553  21.318  1.00  0.00     0.243 C 
ATOM     80  H   UNL A   1      33.292  27.439  20.827  1.00  0.00     0.164 HD
ATOM     81  O   UNL A   1      32.899  25.208  20.136  1.00  0.00    -0.273 OA
BRANCH  79  82
ATOM     82  C   UNL A   1      32.604  24.557  22.466  1.00  0.00     0.176 C 
BRANCH  82  83
ATOM     83  N   UNL A   1      31.303  24.806  23.094  1.00  0.00    -0.340 N 
ATOM     84  C   UNL A   1      30.919  24.647  24.400  1.00  0.00     0.251 C 
ATOM     85  H   UNL A   1      30.601  25.135  22.488  1.00  0.00     0.164 HD
ATOM     86  O   UNL A   1      29.758  24.832  24.749  1.00  0.00    -0.269 OA
BRANCH  84  87
ATOM     87  C   UNL A   1      31.900  24.178  25.400  1.00  0.00     0.040 A 
ATOM     88  C   UNL A   1      33.135  24.820  25.566  1.00  0.00     0.017 A 
ATOM     89  C   UNL A   1      31.561  23.076  26.194  1.00  0.00     0.017 A 
ATOM     90  C   UNL A   1      34.057  24.310  26.482  1.00  0.00     0.040 A 
ATOM     91  C   UNL A   1      32.482  22.581  27.118  1.00  0.00     0.040 A 
ATOM     92  C   UNL A   1      33.725  23.193  27.244  1.00  0.00     0.123 A 
ATOM     93  F   UNL A   1      34.614  22.701  28.117  1.00  0.00    -0.207 F 
ENDBRANCH  84  87
ENDBRANCH  82  83
BRANCH  82  94
ATOM     94  C   UNL A   1      32.817  23.117  21.984  1.00  0.00     0.072 C 
BRANCH  94  95
ATOM     95  C   UNL A   1      33.253  22.134  23.020  1.00  0.00    -0.020 A 
ATOM     96  C   UNL A   1      32.534  21.058  23.503  1.00  0.00     0.087 A 
ATOM     97  C   UNL A   1      34.528  22.107  23.667  1.00  0.00     0.003 A 
ATOM     98  N   UNL A   1      33.325  20.381  24.394  1.00  0.00    -0.361 N 
ATOM     99  C   UNL A   1      34.554  20.989  24.498  1.00  0.00     0.046 A 
ATOM    100  C   UNL A   1      35.669  22.932  23.608  1.00  0.00     0.010 A 
ATOM    101  H   UNL A   1      33.051  19.574  24.887  1.00  0.00     0.166 HD
ATOM    102  C   UNL A   1      35.677  20.640  25.258  1.00  0.00     0.026 A 
ATOM    103  C   UNL A   1      36.797  22.604  24.366  1.00  0.00     0.001 A 
ATOM    104  C   UNL A   1      36.800  21.469  25.173  1.00  0.00     0.002 A 
ENDBRANCH  94  95
ENDBRANCH  82  94
ENDBRANCH  79  82
ENDBRANCH  77  78
BRANCH  77 105
ATOM    105  C   UNL A   1      34.170  28.573  23.090  1.00  0.00     0.191 C 
BRANCH 105 106
ATOM    106  O   UNL A   1      33.653  29.855  23.459  1.00  0.00    -0.394 OA
ATOM    107  H   UNL A   1      32.784  29.745  23.876  1.00  0.00     0.210 HD
ENDBRANCH 105 106
ENDBRANCH  77 105
ENDBRANCH  74  77
ENDBRANCH  72  73
ENDBRANCH   1  72
TORSDOF 21
ENDMDL
MODEL 2
REMARK VINA RESULT:     -11.9      5.155     10.172
REMARK SMILES O=C(NCCCNC(=O)[C@H](CO)NC(=O)[C@H](Cc1c[nH]c2ccccc12)NC(=O)c1ccc(F)cc1)c1ccc(-c2c3nc(c(-c4cccc(S(=O)(=O)[O-])c4F)c4ccc([nH]4)c(-c4cccc(S(=O)(=O)[O-])c4F)c4nc(c(-c5cccc(S(=O)(=O)[O-])c5F)c5ccc2[nH]5)C=C4)C=C3)cc1
REMARK SMILES IDX 5 1 4 2 3 3 1 4 2 5 37 7 38 8 99 9 39 10 98 11 40 12 41 13
REMARK SMILES IDX 42 14 92 15 43 16 97 17 91 18 93 19 44 20 96 21 90 22 89 23
REMARK SMILES IDX 45 25 77 26 57 27 76 28 58 29 61 30 75 31 94 32 59 33 60 34
REMARK SMILES IDX 74 36 95 37 62 38 46 39 47 40 55 41 48 42 50 43 56 44 49 45
REMARK SMILES IDX 51 46 52 47 53 48 54 49 78 50 79 51 87 52 80 53 82 54 88 55
REMARK SMILES IDX 81 56 83 57 84 58 85 59 86 60 63 61 64 62 72 63 65 64 67 65
REMARK SMILES IDX 73 66 66 67 68 68 69 69 70 70 71 71 6 72 7 73 8 74 9 76
REMARK SMILES IDX 10 77 13 78 14 79 15 81 16 82 27 83 28 84 29 86 30 87 31 88
REMARK SMILES IDX 36 89 32 90 35 91 33 92 34 93 17 94 18 95 19 96 26 97 20 98
REMARK SMILES IDX 21 99 25 100 22 102 24 103 23 104 11 105 12 106
REMARK H PARENT 3 6 93 24 61 35 7 75 13 80 27 85 20 101 12 107
REMARK Flexibility Score: inf
ROOT
ATOM      1  C   UNL A   1      37.548  19.759  24.978  1.00  0.00     0.042 C 
ENDROOT
BRANCH   1   2
ATOM      2  C   UNL A   1      38.734  20.351  25.726  1.00  0.00     0.118 C 
BRANCH   2   3
ATOM      3  N   UNL A   1      39.827  19.401  25.874  1.00  0.00    -0.352 N 
ATOM      4  O   UNL A   1      41.968  18.723  25.984  1.00  0.00    -0.269 OA
ATOM      5  C   UNL A   1      41.158  19.636  26.122  1.00  0.00     0.251 C 
ATOM      6  H   UNL A   1      39.577  18.454  25.785  1.00  0.00     0.163 HD
BRANCH   5   7
ATOM      7  C   UNL A   1      41.599  20.984  26.532  1.00  0.00     0.039 A 
ATOM      8  C   UNL A   1      41.809  21.976  25.571  1.00  0.00     0.014 A 
ATOM      9  C   UNL A   1      41.792  21.265  27.887  1.00  0.00     0.014 A 
ATOM     10  C   UNL A   1      42.357  23.193  25.944  1.00  0.00     0.010 A 
ATOM     11  C   UNL A   1      42.241  22.531  28.272  1.00  0.00     0.010 A 
ATOM     12  C   UNL A   1      42.546  23.496  27.301  1.00  0.00    -0.014 A 
BRANCH  12  13
ATOM     13  C   UNL A   1      42.935  24.878  27.674  1.00  0.00     0.031 A 
ATOM     14  C   UNL A   1      44.338  25.375  27.505  1.00  0.00     0.074 A 
ATOM     15  C   UNL A   1      41.975  25.687  28.159  1.00  0.00     0.049 A 
ATOM     16  N   UNL A   1      44.814  26.568  27.751  1.00  0.00    -0.248 NA
ATOM     17  C   UNL A   1      45.339  24.420  27.006  1.00  0.00     0.031 C 
ATOM     18  C   UNL A   1      40.584  25.286  28.395  1.00  0.00     0.029 A 
ATOM     19  N   UNL A   1      42.005  27.006  28.527  1.00  0.00    -0.354 N 
ATOM     20  C   UNL A   1      46.173  26.503  27.469  1.00  0.00     0.074 A 
ATOM     21  C   UNL A   1      46.449  25.147  27.043  1.00  0.00     0.031 C 
ATOM     22  C   UNL A   1      39.884  26.347  28.813  1.00  0.00     0.029 A 
ATOM     23  C   UNL A   1      40.785  27.484  28.944  1.00  0.00     0.049 A 
ATOM     24  H   UNL A   1      42.820  27.558  28.495  1.00  0.00     0.167 HD
ATOM     25  C   UNL A   1      47.098  27.490  27.547  1.00  0.00     0.034 A 
ATOM     26  C   UNL A   1      40.427  28.702  29.394  1.00  0.00     0.034 A 
ATOM     27  C   UNL A   1      46.800  28.840  27.951  1.00  0.00     0.049 A 
ATOM     28  C   UNL A   1      41.465  29.779  29.455  1.00  0.00     0.074 A 
ATOM     29  C   UNL A   1      47.658  29.923  28.027  1.00  0.00     0.029 A 
ATOM     30  N   UNL A   1      45.551  29.294  28.349  1.00  0.00    -0.354 N 
ATOM     31  N   UNL A   1      42.726  29.723  29.100  1.00  0.00    -0.248 NA
ATOM     32  C   UNL A   1      41.036  31.090  29.957  1.00  0.00     0.031 C 
ATOM     33  C   UNL A   1      46.933  31.025  28.490  1.00  0.00     0.029 A 
ATOM     34  C   UNL A   1      45.615  30.638  28.679  1.00  0.00     0.049 A 
ATOM     35  H   UNL A   1      44.737  28.741  28.392  1.00  0.00     0.167 HD
ATOM     36  C   UNL A   1      43.241  30.993  29.317  1.00  0.00     0.074 A 
ATOM     37  C   UNL A   1      42.146  31.805  29.814  1.00  0.00     0.031 C 
ATOM     38  C   UNL A   1      44.507  31.440  29.135  1.00  0.00     0.034 A 
BRANCH  25  39
ATOM     39  C   UNL A   1      48.515  27.163  27.151  1.00  0.00     0.023 A 
ATOM     40  C   UNL A   1      49.342  26.463  28.053  1.00  0.00     0.012 A 
ATOM     41  C   UNL A   1      49.005  27.479  25.869  1.00  0.00     0.148 A 
ATOM     42  C   UNL A   1      50.641  26.103  27.694  1.00  0.00     0.002 A 
ATOM     43  C   UNL A   1      50.287  27.080  25.502  1.00  0.00     0.091 A 
ATOM     44  F   UNL A   1      48.215  28.167  25.032  1.00  0.00    -0.205 F 
ATOM     45  C   UNL A   1      51.109  26.401  26.417  1.00  0.00     0.022 A 
BRANCH  43  46
ATOM     46  S   UNL A   1      50.947  27.350  23.853  1.00  0.00     0.127 S 
ATOM     47  O   UNL A   1      52.224  26.643  23.927  1.00  0.00    -0.237 OA
ATOM     48  O   UNL A   1      49.942  26.707  23.006  1.00  0.00    -0.237 OA
ATOM     49  O   UNL A   1      51.035  28.795  23.693  1.00  0.00    -0.744 OA
ENDBRANCH  43  46
ENDBRANCH  25  39
BRANCH  26  50
ATOM     50  C   UNL A   1      39.000  28.947  29.740  1.00  0.00     0.023 A 
ATOM     51  C   UNL A   1      38.552  28.674  31.047  1.00  0.00     0.012 A 
ATOM     52  C   UNL A   1      38.128  29.577  28.829  1.00  0.00     0.148 A 
ATOM     53  C   UNL A   1      37.261  29.029  31.441  1.00  0.00     0.002 A 
ATOM     54  C   UNL A   1      36.867  29.983  29.248  1.00  0.00     0.091 A 
ATOM     55  F   UNL A   1      38.576  29.820  27.589  1.00  0.00    -0.205 F 
ATOM     56  C   UNL A   1      36.427  29.698  30.550  1.00  0.00     0.022 A 
BRANCH  54  57
ATOM     57  S   UNL A   1      35.792  30.999  28.228  1.00  0.00     0.127 S 
ATOM     58  O   UNL A   1      34.720  31.331  29.163  1.00  0.00    -0.237 OA
ATOM     59  O   UNL A   1      36.674  32.112  27.880  1.00  0.00    -0.237 OA
ATOM     60  O   UNL A   1      35.405  30.160  27.101  1.00  0.00    -0.744 OA
ENDBRANCH  54  57
ENDBRANCH  26  50
BRANCH  38  61
ATOM     61  C   UNL A   1      44.790  32.882  29.461  1.00  0.00     0.023 A 
ATOM     62  C   UNL A   1      45.253  33.227  30.745  1.00  0.00     0.012 A 
ATOM     63  C   UNL A   1      44.692  33.876  28.468  1.00  0.00     0.148 A 
ATOM     64  C   UNL A   1      45.599  34.545  31.043  1.00  0.00     0.002 A 
ATOM     65  C   UNL A   1      45.082  35.178  28.757  1.00  0.00     0.091 A 
ATOM     66  F   UNL A   1      44.227  33.529  27.259  1.00  0.00    -0.205 F 
ATOM     67  C   UNL A   1      45.526  35.516  30.047  1.00  0.00     0.022 A 
BRANCH  65  68
ATOM     68  S   UNL A   1      45.116  36.471  27.511  1.00  0.00     0.127 S 
ATOM     69  O   UNL A   1      43.706  36.556  27.133  1.00  0.00    -0.237 OA
ATOM     70  O   UNL A   1      45.616  37.620  28.267  1.00  0.00    -0.237 OA
ATOM     71  O   UNL A   1      46.015  35.998  26.468  1.00  0.00    -0.744 OA
ENDBRANCH  65  68
ENDBRANCH  38  61
ENDBRANCH  12  13
ENDBRANCH   5   7
ENDBRANCH   2   3
ENDBRANCH   1   2
BRANCH   1  72
ATOM     72  C   UNL A   1      36.324  20.659  24.972  1.00  0.00     0.117 C 
BRANCH  72  73
ATOM     73  N   UNL A   1      35.092  19.896  25.035  1.00  0.00    -0.354 N 
ATOM     74  C   UNL A   1      33.830  20.271  25.371  1.00  0.00     0.244 C 
ATOM     75  H   UNL A   1      35.186  18.946  24.794  1.00  0.00     0.163 HD
ATOM     76  O   UNL A   1      32.949  19.406  25.365  1.00  0.00    -0.273 OA
BRANCH  74  77
ATOM     77  C   UNL A   1      33.498  21.718  25.745  1.00  0.00     0.197 C 
BRANCH  77  78
ATOM     78  N   UNL A   1      32.129  21.807  26.262  1.00  0.00    -0.340 N 
ATOM     79  C   UNL A   1      31.118  22.651  25.894  1.00  0.00     0.243 C 
ATOM     80  H   UNL A   1      31.904  21.167  26.977  1.00  0.00     0.164 HD
ATOM     81  O   UNL A   1      30.024  22.506  26.443  1.00  0.00    -0.273 OA
BRANCH  79  82
ATOM     82  C   UNL A   1      31.388  23.759  24.860  1.00  0.00     0.176 C 
BRANCH  82  83
ATOM     83  N   UNL A   1      31.983  23.198  23.643  1.00  0.00    -0.340 N 
ATOM     84  C   UNL A   1      32.843  23.773  22.746  1.00  0.00     0.251 C 
ATOM     85  H   UNL A   1      31.725  22.270  23.441  1.00  0.00     0.164 HD
ATOM     86  O   UNL A   1      33.191  23.183  21.728  1.00  0.00    -0.269 OA
BRANCH  84  87
ATOM     87  C   UNL A   1      33.312  25.157  22.965  1.00  0.00     0.040 A 
ATOM     88  C   UNL A   1      33.939  25.533  24.161  1.00  0.00     0.017 A 
ATOM     89  C   UNL A   1      33.127  26.090  21.937  1.00  0.00     0.017 A 
ATOM     90  C   UNL A   1      34.316  26.865  24.351  1.00  0.00     0.040 A 
ATOM     91  C   UNL A   1      33.519  27.415  22.129  1.00  0.00     0.040 A 
ATOM     92  C   UNL A   1      34.097  27.793  23.337  1.00  0.00     0.123 A 
ATOM     93  F   UNL A   1      34.452  29.071  23.524  1.00  0.00    -0.207 F 
ENDBRANCH  84  87
ENDBRANCH  82  83
BRANCH  82  94
ATOM     94  C   UNL A   1      30.125  24.598  24.628  1.00  0.00     0.072 C 
BRANCH  94  95
ATOM     95  C   UNL A   1      30.337  26.061  24.413  1.00  0.00    -0.020 A 
ATOM     96  C   UNL A   1      29.956  26.805  23.314  1.00  0.00     0.087 A 
ATOM     97  C   UNL A   1      30.938  26.966  25.342  1.00  0.00     0.003 A 
ATOM     98  N   UNL A   1      30.284  28.114  23.550  1.00  0.00    -0.361 N 
ATOM     99  C   UNL A   1      30.868  28.244  24.789  1.00  0.00     0.046 A 
ATOM    100  C   UNL A   1      31.525  26.812  26.614  1.00  0.00     0.010 A 
ATOM    101  H   UNL A   1      30.124  28.855  22.922  1.00  0.00     0.166 HD
ATOM    102  C   UNL A   1      31.336  29.381  25.456  1.00  0.00     0.026 A 
ATOM    103  C   UNL A   1      32.005  27.937  27.292  1.00  0.00     0.001 A 
ATOM    104  C   UNL A   1      31.904  29.203  26.722  1.00  0.00     0.002 A 
ENDBRANCH  94  95
ENDBRANCH  82  94
ENDBRANCH  79  82
ENDBRANCH  77  78
BRANCH  77 105
ATOM    105  C   UNL A   1      34.549  22.329  26.685  1.00  0.00     0.191 C 
BRANCH 105 106
ATOM    106  O   UNL A   1      34.688  21.538  27.869  1.00  0.00    -0.394 OA
ATOM    107  H   UNL A   1      35.482  20.986  27.798  1.00  0.00     0.210 HD
ENDBRANCH 105 106
ENDBRANCH  77 105
ENDBRANCH  74  77
ENDBRANCH  72  73
ENDBRANCH   1  72
TORSDOF 21
ENDMDL
MODEL 3
REMARK VINA RESULT:     -11.8      2.472      3.552
REMARK SMILES O=C(NCCCNC(=O)[C@H](CO)NC(=O)[C@H](Cc1c[nH]c2ccccc12)NC(=O)c1ccc(F)cc1)c1ccc(-c2c3nc(c(-c4cccc(S(=O)(=O)[O-])c4F)c4ccc([nH]4)c(-c4cccc(S(=O)(=O)[O-])c4F)c4nc(c(-c5cccc(S(=O)(=O)[O-])c5F)c5ccc2[nH]5)C=C4)C=C3)cc1
REMARK SMILES IDX 5 1 4 2 3 3 1 4 2 5 37 7 38 8 99 9 39 10 98 11 40 12 41 13
REMARK SMILES IDX 42 14 92 15 43 16 97 17 91 18 93 19 44 20 96 21 90 22 89 23
REMARK SMILES IDX 45 25 77 26 57 27 76 28 58 29 61 30 75 31 94 32 59 33 60 34
REMARK SMILES IDX 74 36 95 37 62 38 46 39 47 40 55 41 48 42 50 43 56 44 49 45
REMARK SMILES IDX 51 46 52 47 53 48 54 49 78 50 79 51 87 52 80 53 82 54 88 55
REMARK SMILES IDX 81 56 83 57 84 58 85 59 86 60 63 61 64 62 72 63 65 64 67 65
REMARK SMILES IDX 73 66 66 67 68 68 69 69 70 70 71 71 6 72 7 73 8 74 9 76
REMARK SMILES IDX 10 77 13 78 14 79 15 81 16 82 27 83 28 84 29 86 30 87 31 88
REMARK SMILES IDX 36 89 32 90 35 91 33 92 34 93 17 94 18 95 19 96 26 97 20 98
REMARK SMILES IDX 21 99 25 100 22 102 24 103 23 104 11 105 12 106
REMARK H PARENT 3 6 93 24 61 35 7 75 13 80 27 85 20 101 12 107
REMARK Flexibility Score: inf
ROOT
ATOM      1  C   UNL A   1      31.711  32.313  26.721  1.00  0.00     0.042 C 
ENDROOT
BRANCH   1   2
ATOM      2  C   UNL A   1      32.944  33.024  27.261  1.00  0.00     0.118 C 
BRANCH   2   3
ATOM      3  N   UNL A   1      32.628  34.325  27.834  1.00  0.00    -0.352 N 
ATOM      4  O   UNL A   1      32.575  35.923  29.414  1.00  0.00    -0.269 OA
ATOM      5  C   UNL A   1      33.130  34.925  28.963  1.00  0.00     0.251 C 
ATOM      6  H   UNL A   1      31.958  34.850  27.341  1.00  0.00     0.163 HD
BRANCH   5   7
ATOM      7  C   UNL A   1      34.318  34.353  29.628  1.00  0.00     0.039 A 
ATOM      8  C   UNL A   1      34.169  33.571  30.776  1.00  0.00     0.014 A 
ATOM      9  C   UNL A   1      35.588  34.588  29.096  1.00  0.00     0.014 A 
ATOM     10  C   UNL A   1      35.291  33.155  31.478  1.00  0.00     0.010 A 
ATOM     11  C   UNL A   1      36.714  34.075  29.745  1.00  0.00     0.010 A 
ATOM     12  C   UNL A   1      36.574  33.372  30.951  1.00  0.00    -0.014 A 
BRANCH  12  13
ATOM     13  C   UNL A   1      37.734  32.733  31.619  1.00  0.00     0.031 A 
ATOM     14  C   UNL A   1      38.202  33.168  32.974  1.00  0.00     0.074 A 
ATOM     15  C   UNL A   1      38.351  31.728  30.970  1.00  0.00     0.049 A 
ATOM     16  N   UNL A   1      39.176  32.676  33.695  1.00  0.00    -0.248 NA
ATOM     17  C   UNL A   1      37.502  34.300  33.601  1.00  0.00     0.031 C 
ATOM     18  C   UNL A   1      37.992  31.253  29.630  1.00  0.00     0.029 A 
ATOM     19  N   UNL A   1      39.389  30.915  31.342  1.00  0.00    -0.354 N 
ATOM     20  C   UNL A   1      39.229  33.454  34.845  1.00  0.00     0.074 A 
ATOM     21  C   UNL A   1      38.195  34.459  34.721  1.00  0.00     0.031 C 
ATOM     22  C   UNL A   1      38.758  30.202  29.315  1.00  0.00     0.029 A 
ATOM     23  C   UNL A   1      39.707  29.969  30.396  1.00  0.00     0.049 A 
ATOM     24  H   UNL A   1      39.861  31.000  32.201  1.00  0.00     0.167 HD
ATOM     25  C   UNL A   1      40.058  33.327  35.910  1.00  0.00     0.034 A 
ATOM     26  C   UNL A   1      40.664  29.022  30.389  1.00  0.00     0.034 A 
ATOM     27  C   UNL A   1      41.067  32.305  36.026  1.00  0.00     0.049 A 
ATOM     28  C   UNL A   1      41.556  28.893  31.585  1.00  0.00     0.074 A 
ATOM     29  C   UNL A   1      41.931  32.069  37.080  1.00  0.00     0.029 A 
ATOM     30  N   UNL A   1      41.348  31.352  35.057  1.00  0.00    -0.354 N 
ATOM     31  N   UNL A   1      41.534  29.580  32.701  1.00  0.00    -0.248 NA
ATOM     32  C   UNL A   1      42.590  27.853  31.536  1.00  0.00     0.031 C 
ATOM     33  C   UNL A   1      42.750  30.986  36.740  1.00  0.00     0.029 A 
ATOM     34  C   UNL A   1      42.378  30.530  35.484  1.00  0.00     0.049 A 
ATOM     35  H   UNL A   1      40.885  31.273  34.192  1.00  0.00     0.167 HD
ATOM     36  C   UNL A   1      42.536  29.046  33.498  1.00  0.00     0.074 A 
ATOM     37  C   UNL A   1      43.133  27.961  32.742  1.00  0.00     0.031 C 
ATOM     38  C   UNL A   1      42.934  29.430  34.735  1.00  0.00     0.034 A 
BRANCH  25  39
ATOM     39  C   UNL A   1      39.887  34.291  37.056  1.00  0.00     0.023 A 
ATOM     40  C   UNL A   1      40.249  35.643  36.885  1.00  0.00     0.012 A 
ATOM     41  C   UNL A   1      39.305  33.882  38.272  1.00  0.00     0.148 A 
ATOM     42  C   UNL A   1      40.055  36.566  37.912  1.00  0.00     0.002 A 
ATOM     43  C   UNL A   1      39.076  34.817  39.277  1.00  0.00     0.091 A 
ATOM     44  F   UNL A   1      38.989  32.588  38.429  1.00  0.00    -0.205 F 
ATOM     45  C   UNL A   1      39.460  36.157  39.101  1.00  0.00     0.022 A 
BRANCH  43  46
ATOM     46  S   UNL A   1      38.242  34.399  40.813  1.00  0.00     0.127 S 
ATOM     47  O   UNL A   1      37.111  33.610  40.329  1.00  0.00    -0.237 OA
ATOM     48  O   UNL A   1      39.263  33.627  41.522  1.00  0.00    -0.237 OA
ATOM     49  O   UNL A   1      37.903  35.669  41.438  1.00  0.00    -0.744 OA
ENDBRANCH  43  46
ENDBRANCH  25  39
BRANCH  26  50
ATOM     50  C   UNL A   1      40.747  28.095  29.227  1.00  0.00     0.023 A 
ATOM     51  C   UNL A   1      39.813  27.048  29.114  1.00  0.00     0.012 A 
ATOM     52  C   UNL A   1      41.650  28.331  28.171  1.00  0.00     0.148 A 
ATOM     53  C   UNL A   1      39.775  26.255  27.967  1.00  0.00     0.002 A 
ATOM     54  C   UNL A   1      41.563  27.578  27.007  1.00  0.00     0.091 A 
ATOM     55  F   UNL A   1      42.533  29.331  28.305  1.00  0.00    -0.205 F 
ATOM     56  C   UNL A   1      40.635  26.531  26.908  1.00  0.00     0.022 A 
BRANCH  54  57
ATOM     57  S   UNL A   1      42.510  27.970  25.531  1.00  0.00     0.127 S 
ATOM     58  O   UNL A   1      42.252  26.803  24.692  1.00  0.00    -0.237 OA
ATOM     59  O   UNL A   1      41.868  29.206  25.083  1.00  0.00    -0.237 OA
ATOM     60  O   UNL A   1      43.889  28.133  25.974  1.00  0.00    -0.744 OA
ENDBRANCH  54  57
ENDBRANCH  26  50
BRANCH  38  61
ATOM     61  C   UNL A   1      44.067  28.668  35.370  1.00  0.00     0.023 A 
ATOM     62  C   UNL A   1      45.397  29.052  35.109  1.00  0.00     0.012 A 
ATOM     63  C   UNL A   1      43.810  27.641  36.299  1.00  0.00     0.148 A 
ATOM     64  C   UNL A   1      46.456  28.412  35.750  1.00  0.00     0.002 A 
ATOM     65  C   UNL A   1      44.869  27.040  36.969  1.00  0.00     0.091 A 
ATOM     66  F   UNL A   1      42.538  27.278  36.516  1.00  0.00    -0.205 F 
ATOM     67  C   UNL A   1      46.192  27.417  36.688  1.00  0.00     0.022 A 
BRANCH  65  68
ATOM     68  S   UNL A   1      44.618  25.821  38.264  1.00  0.00     0.127 S 
ATOM     69  O   UNL A   1      43.898  24.769  37.547  1.00  0.00    -0.237 OA
ATOM     70  O   UNL A   1      45.991  25.476  38.637  1.00  0.00    -0.237 OA
ATOM     71  O   UNL A   1      43.861  26.496  39.309  1.00  0.00    -0.744 OA
ENDBRANCH  65  68
ENDBRANCH  38  61
ENDBRANCH  12  13
ENDBRANCH   5   7
ENDBRANCH   2   3
ENDBRANCH   1   2
BRANCH   1  72
ATOM     72  C   UNL A   1      31.792  30.799  26.824  1.00  0.00     0.117 C 
BRANCH  72  73
ATOM     73  N   UNL A   1      33.141  30.348  27.114  1.00  0.00    -0.354 N 
ATOM     74  C   UNL A   1      33.827  29.259  26.681  1.00  0.00     0.244 C 
ATOM     75  H   UNL A   1      33.643  30.930  27.729  1.00  0.00     0.163 HD
ATOM     76  O   UNL A   1      34.975  29.093  27.104  1.00  0.00    -0.273 OA
BRANCH  74  77
ATOM     77  C   UNL A   1      33.207  28.263  25.697  1.00  0.00     0.197 C 
BRANCH  77  78
ATOM     78  N   UNL A   1      31.924  27.774  26.211  1.00  0.00    -0.340 N 
ATOM     79  C   UNL A   1      31.431  26.499  26.238  1.00  0.00     0.243 C 
ATOM     80  H   UNL A   1      31.331  28.462  26.593  1.00  0.00     0.164 HD
ATOM     81  O   UNL A   1      30.334  26.322  26.771  1.00  0.00    -0.273 OA
BRANCH  79  82
ATOM     82  C   UNL A   1      32.227  25.359  25.576  1.00  0.00     0.176 C 
BRANCH  82  83
ATOM     83  N   UNL A   1      32.090  25.413  24.117  1.00  0.00    -0.340 N 
ATOM     84  C   UNL A   1      32.034  24.391  23.207  1.00  0.00     0.251 C 
ATOM     85  H   UNL A   1      32.032  26.318  23.735  1.00  0.00     0.164 HD
ATOM     86  O   UNL A   1      31.993  24.613  22.001  1.00  0.00    -0.269 OA
BRANCH  84  87
ATOM     87  C   UNL A   1      32.091  22.990  23.674  1.00  0.00     0.040 A 
ATOM     88  C   UNL A   1      31.392  22.573  24.814  1.00  0.00     0.017 A 
ATOM     89  C   UNL A   1      32.858  22.078  22.938  1.00  0.00     0.017 A 
ATOM     90  C   UNL A   1      31.519  21.253  25.255  1.00  0.00     0.040 A 
ATOM     91  C   UNL A   1      32.969  20.758  23.377  1.00  0.00     0.040 A 
ATOM     92  C   UNL A   1      32.310  20.362  24.536  1.00  0.00     0.123 A 
ATOM     93  F   UNL A   1      32.438  19.099  24.965  1.00  0.00    -0.207 F 
ENDBRANCH  84  87
ENDBRANCH  82  83
BRANCH  82  94
ATOM     94  C   UNL A   1      33.674  25.348  26.084  1.00  0.00     0.072 C 
BRANCH  94  95
ATOM     95  C   UNL A   1      34.284  24.002  26.301  1.00  0.00    -0.020 A 
ATOM     96  C   UNL A   1      34.023  23.127  27.337  1.00  0.00     0.087 A 
ATOM     97  C   UNL A   1      35.221  23.357  25.435  1.00  0.00     0.003 A 
ATOM     98  N   UNL A   1      34.747  21.983  27.122  1.00  0.00    -0.361 N 
ATOM     99  C   UNL A   1      35.472  22.090  25.958  1.00  0.00     0.046 A 
ATOM    100  C   UNL A   1      35.870  23.737  24.243  1.00  0.00     0.010 A 
ATOM    101  H   UNL A   1      34.746  21.198  27.717  1.00  0.00     0.166 HD
ATOM    102  C   UNL A   1      36.324  21.171  25.334  1.00  0.00     0.026 A 
ATOM    103  C   UNL A   1      36.731  22.835  23.610  1.00  0.00     0.001 A 
ATOM    104  C   UNL A   1      36.947  21.568  24.146  1.00  0.00     0.002 A 
ENDBRANCH  94  95
ENDBRANCH  82  94
ENDBRANCH  79  82
ENDBRANCH  77  78
BRANCH  77 105
ATOM    105  C   UNL A   1      33.119  28.834  24.273  1.00  0.00     0.191 C 
BRANCH 105 106
ATOM    106  O   UNL A   1      34.392  28.769  23.623  1.00  0.00    -0.394 OA
ATOM    107  H   UNL A   1      35.042  29.274  24.136  1.00  0.00     0.210 HD
ENDBRANCH 105 106
ENDBRANCH  77 105
ENDBRANCH  74  77
ENDBRANCH  72  73
ENDBRANCH   1  72
TORSDOF 21
ENDMDL
