MODEL 1
REMARK VINA RESULT:     -12.9      0.000      0.000
REMARK SMILES Cc1cccc(C[C@H](C(=O)NCCCNC(=O)c2ccc(-c3c4nc(c(-c5cccc(S(=O)(=O)[O-])c5F)c5ccc([nH]5)c(-c5cccc(S(=O)(=O)[O-])c5F)c5nc(c(-c6cccc(S(=O)(=O)[O-])c6F)c6ccc3[nH]6)C=C5)C=C4)cc2)[C@@H]2CCCC[C@@H]2O)c1
REMARK SMILES IDX 13 1 12 2 11 3 9 4 10 5 8 7 7 8 6 9 1 10 2 11 3 12 88 13
REMARK SMILES IDX 4 14 5 15 81 16 82 17 86 18 83 19 85 20 84 21 87 22 14 24
REMARK SMILES IDX 15 25 16 26 17 28 18 29 19 30 80 31 20 32 79 33 21 34 22 35
REMARK SMILES IDX 23 36 73 37 24 38 78 39 72 40 74 41 25 42 77 43 71 44 70 45
REMARK SMILES IDX 26 47 58 48 38 49 57 50 39 51 42 52 56 53 75 54 40 55 41 56
REMARK SMILES IDX 55 58 76 59 43 60 27 61 28 62 36 63 29 64 31 65 37 66 30 67
REMARK SMILES IDX 32 68 33 69 34 70 35 71 59 72 60 73 68 74 61 75 63 76 69 77
REMARK SMILES IDX 62 78 64 79 65 80 66 81 67 82 44 83 45 84 53 85 46 86 48 87
REMARK SMILES IDX 54 88 47 89 49 90 50 91 51 92 52 93
REMARK H PARENT 11 6 87 23 15 27 74 46 42 57
REMARK Flexibility Score: inf
ROOT
ATOM      1  C   UNL A   1      31.902  30.020  26.761  1.00  0.00     0.042 C 
ENDROOT
BRANCH   1   2
ATOM      2  C   UNL A   1      31.587  29.502  25.359  1.00  0.00     0.117 C 
BRANCH   2   3
ATOM      3  N   UNL A   1      32.624  29.655  24.356  1.00  0.00    -0.356 N 
ATOM      4  C   UNL A   1      33.416  28.714  23.759  1.00  0.00     0.223 C 
ATOM      5  O   UNL A   1      34.442  29.106  23.199  1.00  0.00    -0.275 OA
ATOM      6  H   UNL A   1      32.783  30.581  24.060  1.00  0.00     0.163 HD
BRANCH   4   7
ATOM      7  C   UNL A   1      33.020  27.233  23.779  1.00  0.00     0.088 C 
BRANCH   7   8
ATOM      8  C   UNL A   1      33.006  26.587  25.175  1.00  0.00     0.049 C 
BRANCH   8   9
ATOM      9  C   UNL A   1      33.536  25.225  25.564  1.00  0.00    -0.047 A 
ATOM     10  C   UNL A   1      37.014  23.660  25.293  1.00  0.00     0.044 C 
ATOM     11  C   UNL A   1      35.575  23.855  25.660  1.00  0.00    -0.051 A 
ATOM     12  C   UNL A   1      34.938  22.980  26.538  1.00  0.00     0.003 A 
ATOM     13  C   UNL A   1      34.876  24.975  25.197  1.00  0.00     0.007 A 
ATOM     14  C   UNL A   1      33.600  23.176  26.867  1.00  0.00     0.001 A 
ATOM     15  C   UNL A   1      32.895  24.273  26.359  1.00  0.00     0.004 A 
ENDBRANCH   8   9
ENDBRANCH   7   8
BRANCH   7  16
ATOM     16  C   UNL A   1      31.757  26.936  22.872  1.00  0.00     0.030 C 
ATOM     17  C   UNL A   1      30.439  26.509  23.553  1.00  0.00     0.007 C 
ATOM     18  C   UNL A   1      32.094  25.902  21.771  1.00  0.00     0.118 C 
ATOM     19  C   UNL A   1      30.322  25.037  23.974  1.00  0.00     0.001 C 
ATOM     20  C   UNL A   1      32.222  24.495  22.351  1.00  0.00     0.032 C 
ATOM     21  C   UNL A   1      30.923  24.033  22.997  1.00  0.00     0.003 C 
BRANCH  18  22
ATOM     22  O   UNL A   1      33.306  26.237  21.101  1.00  0.00    -0.393 OA
ATOM     23  H   UNL A   1      33.835  25.435  20.970  1.00  0.00     0.210 HD
ENDBRANCH  18  22
ENDBRANCH   7  16
ENDBRANCH   4   7
ENDBRANCH   2   3
ENDBRANCH   1   2
BRANCH   1  24
ATOM     24  C   UNL A   1      33.341  29.850  27.212  1.00  0.00     0.118 C 
BRANCH  24  25
ATOM     25  N   UNL A   1      33.826  31.088  27.835  1.00  0.00    -0.352 N 
ATOM     26  C   UNL A   1      35.003  31.368  28.509  1.00  0.00     0.251 C 
ATOM     27  H   UNL A   1      33.208  31.851  27.762  1.00  0.00     0.163 HD
ATOM     28  O   UNL A   1      35.209  32.491  28.934  1.00  0.00    -0.269 OA
BRANCH  26  29
ATOM     29  C   UNL A   1      36.032  30.310  28.597  1.00  0.00     0.039 A 
ATOM     30  C   UNL A   1      36.245  29.669  29.824  1.00  0.00     0.014 A 
ATOM     31  C   UNL A   1      36.914  30.131  27.542  1.00  0.00     0.014 A 
ATOM     32  C   UNL A   1      37.467  29.043  30.070  1.00  0.00     0.010 A 
ATOM     33  C   UNL A   1      38.161  29.629  27.817  1.00  0.00     0.010 A 
ATOM     34  C   UNL A   1      38.455  29.129  29.096  1.00  0.00    -0.014 A 
BRANCH  34  35
ATOM     35  C   UNL A   1      39.852  28.761  29.262  1.00  0.00     0.031 A 
ATOM     36  C   UNL A   1      40.249  27.350  29.072  1.00  0.00     0.074 A 
ATOM     37  C   UNL A   1      40.775  29.748  29.199  1.00  0.00     0.049 A 
ATOM     38  N   UNL A   1      41.462  26.925  29.144  1.00  0.00    -0.248 NA
ATOM     39  C   UNL A   1      39.279  26.289  28.808  1.00  0.00     0.031 C 
ATOM     40  C   UNL A   1      42.152  29.630  28.731  1.00  0.00     0.029 A 
ATOM     41  N   UNL A   1      40.714  31.026  29.763  1.00  0.00    -0.354 N 
ATOM     42  C   UNL A   1      41.477  25.650  28.625  1.00  0.00     0.074 A 
ATOM     43  C   UNL A   1      40.093  25.257  28.568  1.00  0.00     0.031 C 
ATOM     44  C   UNL A   1      42.873  30.625  29.263  1.00  0.00     0.029 A 
ATOM     45  C   UNL A   1      42.018  31.312  30.214  1.00  0.00     0.049 A 
ATOM     46  H   UNL A   1      39.923  31.607  29.830  1.00  0.00     0.167 HD
ATOM     47  C   UNL A   1      42.663  25.153  28.175  1.00  0.00     0.034 A 
ATOM     48  C   UNL A   1      42.323  31.515  31.529  1.00  0.00     0.034 A 
ATOM     49  C   UNL A   1      43.788  25.950  28.692  1.00  0.00     0.049 A 
ATOM     50  C   UNL A   1      43.235  30.443  32.114  1.00  0.00     0.074 A 
ATOM     51  C   UNL A   1      44.682  26.872  28.176  1.00  0.00     0.029 A 
ATOM     52  N   UNL A   1      43.940  26.013  30.069  1.00  0.00    -0.354 N 
ATOM     53  N   UNL A   1      43.875  29.536  31.424  1.00  0.00    -0.248 NA
ATOM     54  C   UNL A   1      43.417  30.264  33.557  1.00  0.00     0.031 C 
ATOM     55  C   UNL A   1      45.275  27.571  29.278  1.00  0.00     0.029 A 
ATOM     56  C   UNL A   1      44.768  27.049  30.456  1.00  0.00     0.049 A 
ATOM     57  H   UNL A   1      43.507  25.391  30.697  1.00  0.00     0.167 HD
ATOM     58  C   UNL A   1      44.355  28.577  32.281  1.00  0.00     0.074 A 
ATOM     59  C   UNL A   1      44.103  29.110  33.607  1.00  0.00     0.031 C 
ATOM     60  C   UNL A   1      44.853  27.368  31.878  1.00  0.00     0.034 A 
BRANCH  47  61
ATOM     61  C   UNL A   1      42.833  24.034  27.159  1.00  0.00     0.023 A 
ATOM     62  C   UNL A   1      43.448  24.373  25.932  1.00  0.00     0.012 A 
ATOM     63  C   UNL A   1      42.343  22.707  27.252  1.00  0.00     0.148 A 
ATOM     64  C   UNL A   1      43.547  23.473  24.862  1.00  0.00     0.002 A 
ATOM     65  C   UNL A   1      42.474  21.794  26.199  1.00  0.00     0.091 A 
ATOM     66  F   UNL A   1      41.677  22.306  28.332  1.00  0.00    -0.205 F 
ATOM     67  C   UNL A   1      43.065  22.180  24.997  1.00  0.00     0.022 A 
BRANCH  65  68
ATOM     68  S   UNL A   1      41.864  20.098  26.303  1.00  0.00     0.127 S 
ATOM     69  O   UNL A   1      40.419  20.288  26.186  1.00  0.00    -0.237 OA
ATOM     70  O   UNL A   1      42.492  19.471  25.140  1.00  0.00    -0.237 OA
ATOM     71  O   UNL A   1      42.307  19.573  27.589  1.00  0.00    -0.744 OA
ENDBRANCH  65  68
ENDBRANCH  47  61
BRANCH  48  72
ATOM     72  C   UNL A   1      41.260  32.249  32.271  1.00  0.00     0.023 A 
ATOM     73  C   UNL A   1      41.218  33.652  32.098  1.00  0.00     0.012 A 
ATOM     74  C   UNL A   1      40.130  31.589  32.783  1.00  0.00     0.148 A 
ATOM     75  C   UNL A   1      40.047  34.371  32.346  1.00  0.00     0.002 A 
ATOM     76  C   UNL A   1      38.958  32.309  33.003  1.00  0.00     0.091 A 
ATOM     77  F   UNL A   1      40.182  30.259  32.926  1.00  0.00    -0.205 F 
ATOM     78  C   UNL A   1      38.912  33.694  32.771  1.00  0.00     0.022 A 
BRANCH  76  79
ATOM     79  S   UNL A   1      37.398  31.515  33.404  1.00  0.00     0.127 S 
ATOM     80  O   UNL A   1      37.129  32.050  34.735  1.00  0.00    -0.237 OA
ATOM     81  O   UNL A   1      36.531  32.027  32.343  1.00  0.00    -0.237 OA
ATOM     82  O   UNL A   1      37.662  30.086  33.334  1.00  0.00    -0.744 OA
ENDBRANCH  76  79
ENDBRANCH  48  72
BRANCH  60  83
ATOM     83  C   UNL A   1      45.464  26.383  32.850  1.00  0.00     0.023 A 
ATOM     84  C   UNL A   1      46.848  26.120  32.796  1.00  0.00     0.012 A 
ATOM     85  C   UNL A   1      44.685  25.572  33.708  1.00  0.00     0.148 A 
ATOM     86  C   UNL A   1      47.435  25.113  33.572  1.00  0.00     0.002 A 
ATOM     87  C   UNL A   1      45.255  24.501  34.392  1.00  0.00     0.091 A 
ATOM     88  F   UNL A   1      43.395  25.869  33.911  1.00  0.00    -0.205 F 
ATOM     89  C   UNL A   1      46.633  24.283  34.345  1.00  0.00     0.022 A 
BRANCH  87  90
ATOM     90  S   UNL A   1      44.245  23.261  35.218  1.00  0.00     0.127 S 
ATOM     91  O   UNL A   1      45.249  22.274  35.624  1.00  0.00    -0.237 OA
ATOM     92  O   UNL A   1      43.665  24.027  36.317  1.00  0.00    -0.237 OA
ATOM     93  O   UNL A   1      43.314  22.782  34.206  1.00  0.00    -0.744 OA
ENDBRANCH  87  90
ENDBRANCH  60  83
ENDBRANCH  34  35
ENDBRANCH  26  29
ENDBRANCH  24  25
ENDBRANCH   1  24
TORSDOF 17
ENDMDL
MODEL 2
REMARK VINA RESULT:     -12.5      3.803      9.245
REMARK SMILES Cc1cccc(C[C@H](C(=O)NCCCNC(=O)c2ccc(-c3c4nc(c(-c5cccc(S(=O)(=O)[O-])c5F)c5ccc([nH]5)c(-c5cccc(S(=O)(=O)[O-])c5F)c5nc(c(-c6cccc(S(=O)(=O)[O-])c6F)c6ccc3[nH]6)C=C5)C=C4)cc2)[C@@H]2CCCC[C@@H]2O)c1
REMARK SMILES IDX 13 1 12 2 11 3 9 4 10 5 8 7 7 8 6 9 1 10 2 11 3 12 88 13
REMARK SMILES IDX 4 14 5 15 81 16 82 17 86 18 83 19 85 20 84 21 87 22 14 24
REMARK SMILES IDX 15 25 16 26 17 28 18 29 19 30 80 31 20 32 79 33 21 34 22 35
REMARK SMILES IDX 23 36 73 37 24 38 78 39 72 40 74 41 25 42 77 43 71 44 70 45
REMARK SMILES IDX 26 47 58 48 38 49 57 50 39 51 42 52 56 53 75 54 40 55 41 56
REMARK SMILES IDX 55 58 76 59 43 60 27 61 28 62 36 63 29 64 31 65 37 66 30 67
REMARK SMILES IDX 32 68 33 69 34 70 35 71 59 72 60 73 68 74 61 75 63 76 69 77
REMARK SMILES IDX 62 78 64 79 65 80 66 81 67 82 44 83 45 84 53 85 46 86 48 87
REMARK SMILES IDX 54 88 47 89 49 90 50 91 51 92 52 93
REMARK H PARENT 11 6 87 23 15 27 74 46 42 57
REMARK Flexibility Score: inf
ROOT
ATOM      1  C   UNL A   1      37.232  21.337  24.976  1.00  0.00     0.042 C 
ENDROOT
BRANCH   1   2
ATOM      2  C   UNL A   1      35.729  21.199  25.208  1.00  0.00     0.117 C 
BRANCH   2   3
ATOM      3  N   UNL A   1      35.252  21.420  26.561  1.00  0.00    -0.356 N 
ATOM      4  C   UNL A   1      34.433  22.396  27.056  1.00  0.00     0.223 C 
ATOM      5  O   UNL A   1      34.441  22.581  28.275  1.00  0.00    -0.275 OA
ATOM      6  H   UNL A   1      35.569  20.766  27.225  1.00  0.00     0.163 HD
BRANCH   4   7
ATOM      7  C   UNL A   1      33.534  23.211  26.120  1.00  0.00     0.088 C 
BRANCH   7   8
ATOM      8  C   UNL A   1      34.273  24.236  25.244  1.00  0.00     0.049 C 
BRANCH   8   9
ATOM      9  C   UNL A   1      33.862  25.662  24.951  1.00  0.00    -0.047 A 
ATOM     10  C   UNL A   1      32.839  28.551  27.237  1.00  0.00     0.044 C 
ATOM     11  C   UNL A   1      33.227  27.790  26.007  1.00  0.00    -0.051 A 
ATOM     12  C   UNL A   1      33.472  28.452  24.806  1.00  0.00     0.003 A 
ATOM     13  C   UNL A   1      33.441  26.409  26.073  1.00  0.00     0.007 A 
ATOM     14  C   UNL A   1      33.831  27.728  23.673  1.00  0.00     0.001 A 
ATOM     15  C   UNL A   1      33.995  26.339  23.737  1.00  0.00     0.004 A 
ENDBRANCH   8   9
ENDBRANCH   7   8
BRANCH   7  16
ATOM     16  C   UNL A   1      32.471  22.307  25.371  1.00  0.00     0.030 C 
ATOM     17  C   UNL A   1      32.525  22.222  23.830  1.00  0.00     0.007 C 
ATOM     18  C   UNL A   1      31.029  22.682  25.788  1.00  0.00     0.118 C 
ATOM     19  C   UNL A   1      31.896  23.385  23.050  1.00  0.00     0.001 C 
ATOM     20  C   UNL A   1      30.597  24.007  25.163  1.00  0.00     0.032 C 
ATOM     21  C   UNL A   1      30.605  23.940  23.642  1.00  0.00     0.003 C 
BRANCH  18  22
ATOM     22  O   UNL A   1      30.910  22.780  27.204  1.00  0.00    -0.393 OA
ATOM     23  H   UNL A   1      30.086  23.239  27.428  1.00  0.00     0.210 HD
ENDBRANCH  18  22
ENDBRANCH   7  16
ENDBRANCH   4   7
ENDBRANCH   2   3
ENDBRANCH   1   2
BRANCH   1  24
ATOM     24  C   UNL A   1      37.900  22.496  25.692  1.00  0.00     0.118 C 
BRANCH  24  25
ATOM     25  N   UNL A   1      39.314  22.188  25.945  1.00  0.00    -0.352 N 
ATOM     26  C   UNL A   1      40.351  22.984  26.403  1.00  0.00     0.251 C 
ATOM     27  H   UNL A   1      39.568  21.256  25.757  1.00  0.00     0.163 HD
ATOM     28  O   UNL A   1      41.460  22.506  26.560  1.00  0.00    -0.269 OA
BRANCH  26  29
ATOM     29  C   UNL A   1      40.050  24.377  26.794  1.00  0.00     0.039 A 
ATOM     30  C   UNL A   1      40.609  25.427  26.053  1.00  0.00     0.014 A 
ATOM     31  C   UNL A   1      39.417  24.622  28.003  1.00  0.00     0.014 A 
ATOM     32  C   UNL A   1      40.745  26.685  26.639  1.00  0.00     0.010 A 
ATOM     33  C   UNL A   1      39.660  25.817  28.632  1.00  0.00     0.010 A 
ATOM     34  C   UNL A   1      40.367  26.834  27.968  1.00  0.00    -0.014 A 
BRANCH  34  35
ATOM     35  C   UNL A   1      40.656  27.979  28.815  1.00  0.00     0.031 A 
ATOM     36  C   UNL A   1      39.781  29.168  28.736  1.00  0.00     0.074 A 
ATOM     37  C   UNL A   1      41.449  27.783  29.893  1.00  0.00     0.049 A 
ATOM     38  N   UNL A   1      39.913  30.214  29.475  1.00  0.00    -0.248 NA
ATOM     39  C   UNL A   1      38.684  29.274  27.777  1.00  0.00     0.031 C 
ATOM     40  C   UNL A   1      41.402  28.507  31.158  1.00  0.00     0.029 A 
ATOM     41  N   UNL A   1      42.619  27.022  29.978  1.00  0.00    -0.354 N 
ATOM     42  C   UNL A   1      38.767  30.961  29.332  1.00  0.00     0.074 A 
ATOM     43  C   UNL A   1      38.110  30.414  28.173  1.00  0.00     0.031 C 
ATOM     44  C   UNL A   1      42.594  28.399  31.759  1.00  0.00     0.029 A 
ATOM     45  C   UNL A   1      43.487  27.742  30.823  1.00  0.00     0.049 A 
ATOM     46  H   UNL A   1      42.799  26.161  29.538  1.00  0.00     0.167 HD
ATOM     47  C   UNL A   1      38.455  31.856  30.311  1.00  0.00     0.034 A 
ATOM     48  C   UNL A   1      44.684  28.246  30.405  1.00  0.00     0.034 A 
ATOM     49  C   UNL A   1      39.629  32.123  31.160  1.00  0.00     0.049 A 
ATOM     50  C   UNL A   1      44.738  29.769  30.410  1.00  0.00     0.074 A 
ATOM     51  C   UNL A   1      40.033  31.793  32.442  1.00  0.00     0.029 A 
ATOM     52  N   UNL A   1      40.747  32.661  30.543  1.00  0.00    -0.354 N 
ATOM     53  N   UNL A   1      43.852  30.554  30.964  1.00  0.00    -0.248 NA
ATOM     54  C   UNL A   1      45.770  30.525  29.696  1.00  0.00     0.031 C 
ATOM     55  C   UNL A   1      41.444  32.030  32.530  1.00  0.00     0.029 A 
ATOM     56  C   UNL A   1      41.884  32.535  31.318  1.00  0.00     0.049 A 
ATOM     57  H   UNL A   1      40.733  33.085  29.654  1.00  0.00     0.167 HD
ATOM     58  C   UNL A   1      44.058  31.841  30.530  1.00  0.00     0.074 A 
ATOM     59  C   UNL A   1      45.309  31.783  29.795  1.00  0.00     0.031 C 
ATOM     60  C   UNL A   1      43.170  32.864  30.714  1.00  0.00     0.034 A 
BRANCH  47  61
ATOM     61  C   UNL A   1      37.068  32.402  30.612  1.00  0.00     0.023 A 
ATOM     62  C   UNL A   1      36.519  32.090  31.877  1.00  0.00     0.012 A 
ATOM     63  C   UNL A   1      36.207  33.098  29.726  1.00  0.00     0.148 A 
ATOM     64  C   UNL A   1      35.203  32.417  32.231  1.00  0.00     0.002 A 
ATOM     65  C   UNL A   1      34.905  33.459  30.090  1.00  0.00     0.091 A 
ATOM     66  F   UNL A   1      36.594  33.372  28.483  1.00  0.00    -0.205 F 
ATOM     67  C   UNL A   1      34.396  33.107  31.340  1.00  0.00     0.022 A 
BRANCH  65  68
ATOM     68  S   UNL A   1      33.799  34.352  28.978  1.00  0.00     0.127 S 
ATOM     69  O   UNL A   1      34.662  35.427  28.491  1.00  0.00    -0.237 OA
ATOM     70  O   UNL A   1      33.472  33.334  27.981  1.00  0.00    -0.237 OA
ATOM     71  O   UNL A   1      32.668  34.798  29.784  1.00  0.00    -0.744 OA
ENDBRANCH  65  68
ENDBRANCH  47  61
BRANCH  48  72
ATOM     72  C   UNL A   1      45.391  27.357  29.441  1.00  0.00     0.023 A 
ATOM     73  C   UNL A   1      46.097  26.260  29.988  1.00  0.00     0.012 A 
ATOM     74  C   UNL A   1      45.066  27.347  28.074  1.00  0.00     0.148 A 
ATOM     75  C   UNL A   1      46.395  25.139  29.212  1.00  0.00     0.002 A 
ATOM     76  C   UNL A   1      45.343  26.214  27.313  1.00  0.00     0.091 A 
ATOM     77  F   UNL A   1      44.384  28.386  27.576  1.00  0.00    -0.205 F 
ATOM     78  C   UNL A   1      45.993  25.107  27.883  1.00  0.00     0.022 A 
BRANCH  76  79
ATOM     79  S   UNL A   1      44.735  26.005  25.636  1.00  0.00     0.127 S 
ATOM     80  O   UNL A   1      43.949  24.781  25.759  1.00  0.00    -0.237 OA
ATOM     81  O   UNL A   1      43.955  27.228  25.456  1.00  0.00    -0.237 OA
ATOM     82  O   UNL A   1      45.923  25.916  24.801  1.00  0.00    -0.744 OA
ENDBRANCH  76  79
ENDBRANCH  48  72
BRANCH  60  83
ATOM     83  C   UNL A   1      43.485  34.288  30.307  1.00  0.00     0.023 A 
ATOM     84  C   UNL A   1      43.697  35.265  31.302  1.00  0.00     0.012 A 
ATOM     85  C   UNL A   1      43.408  34.735  28.968  1.00  0.00     0.148 A 
ATOM     86  C   UNL A   1      43.846  36.619  30.981  1.00  0.00     0.002 A 
ATOM     87  C   UNL A   1      43.444  36.094  28.665  1.00  0.00     0.091 A 
ATOM     88  F   UNL A   1      43.354  33.841  27.972  1.00  0.00    -0.205 F 
ATOM     89  C   UNL A   1      43.687  37.037  29.666  1.00  0.00     0.022 A 
BRANCH  87  90
ATOM     90  S   UNL A   1      43.017  36.710  27.028  1.00  0.00     0.127 S 
ATOM     91  O   UNL A   1      41.561  36.545  27.012  1.00  0.00    -0.237 OA
ATOM     92  O   UNL A   1      43.472  38.095  27.098  1.00  0.00    -0.237 OA
ATOM     93  O   UNL A   1      43.724  35.847  26.093  1.00  0.00    -0.744 OA
ENDBRANCH  87  90
ENDBRANCH  60  83
ENDBRANCH  34  35
ENDBRANCH  26  29
ENDBRANCH  24  25
ENDBRANCH   1  24
TORSDOF 17
ENDMDL
MODEL 3
REMARK VINA RESULT:     -12.4      1.070      1.674
REMARK SMILES Cc1cccc(C[C@H](C(=O)NCCCNC(=O)c2ccc(-c3c4nc(c(-c5cccc(S(=O)(=O)[O-])c5F)c5ccc([nH]5)c(-c5cccc(S(=O)(=O)[O-])c5F)c5nc(c(-c6cccc(S(=O)(=O)[O-])c6F)c6ccc3[nH]6)C=C5)C=C4)cc2)[C@@H]2CCCC[C@@H]2O)c1
REMARK SMILES IDX 13 1 12 2 11 3 9 4 10 5 8 7 7 8 6 9 1 10 2 11 3 12 88 13
REMARK SMILES IDX 4 14 5 15 81 16 82 17 86 18 83 19 85 20 84 21 87 22 14 24
REMARK SMILES IDX 15 25 16 26 17 28 18 29 19 30 80 31 20 32 79 33 21 34 22 35
REMARK SMILES IDX 23 36 73 37 24 38 78 39 72 40 74 41 25 42 77 43 71 44 70 45
REMARK SMILES IDX 26 47 58 48 38 49 57 50 39 51 42 52 56 53 75 54 40 55 41 56
REMARK SMILES IDX 55 58 76 59 43 60 27 61 28 62 36 63 29 64 31 65 37 66 30 67
REMARK SMILES IDX 32 68 33 69 34 70 35 71 59 72 60 73 68 74 61 75 63 76 69 77
REMARK SMILES IDX 62 78 64 79 65 80 66 81 67 82 44 83 45 84 53 85 46 86 48 87
REMARK SMILES IDX 54 88 47 89 49 90 50 91 51 92 52 93
REMARK H PARENT 11 6 87 23 15 27 74 46 42 57
REMARK Flexibility Score: inf
ROOT
ATOM      1  C   UNL A   1      33.502  29.279  26.004  1.00  0.00     0.042 C 
ENDROOT
BRANCH   1   2
ATOM      2  C   UNL A   1      33.538  27.772  25.759  1.00  0.00     0.117 C 
BRANCH   2   3
ATOM      3  N   UNL A   1      32.618  26.961  26.535  1.00  0.00    -0.356 N 
ATOM      4  C   UNL A   1      32.080  25.734  26.261  1.00  0.00     0.223 C 
ATOM      5  O   UNL A   1      31.076  25.398  26.892  1.00  0.00    -0.275 OA
ATOM      6  H   UNL A   1      32.336  27.356  27.391  1.00  0.00     0.163 HD
BRANCH   4   7
ATOM      7  C   UNL A   1      32.723  24.815  25.215  1.00  0.00     0.088 C 
BRANCH   7   8
ATOM      8  C   UNL A   1      33.213  23.462  25.756  1.00  0.00     0.049 C 
BRANCH   8   9
ATOM      9  C   UNL A   1      34.513  22.759  25.436  1.00  0.00    -0.047 A 
ATOM     10  C   UNL A   1      38.161  23.714  26.068  1.00  0.00     0.044 C 
ATOM     11  C   UNL A   1      36.954  22.912  25.689  1.00  0.00    -0.051 A 
ATOM     12  C   UNL A   1      37.065  21.558  25.379  1.00  0.00     0.003 A 
ATOM     13  C   UNL A   1      35.682  23.493  25.732  1.00  0.00     0.007 A 
ATOM     14  C   UNL A   1      35.932  20.830  25.028  1.00  0.00     0.001 A 
ATOM     15  C   UNL A   1      34.669  21.433  25.026  1.00  0.00     0.004 A 
ENDBRANCH   8   9
ENDBRANCH   7   8
BRANCH   7  16
ATOM     16  C   UNL A   1      31.886  24.756  23.872  1.00  0.00     0.030 C 
ATOM     17  C   UNL A   1      31.029  23.502  23.588  1.00  0.00     0.007 C 
ATOM     18  C   UNL A   1      32.787  25.019  22.642  1.00  0.00     0.118 C 
ATOM     19  C   UNL A   1      31.763  22.273  23.034  1.00  0.00     0.001 C 
ATOM     20  C   UNL A   1      33.680  23.817  22.340  1.00  0.00     0.032 C 
ATOM     21  C   UNL A   1      32.860  22.575  22.019  1.00  0.00     0.003 C 
BRANCH  18  22
ATOM     22  O   UNL A   1      33.609  26.165  22.840  1.00  0.00    -0.393 OA
ATOM     23  H   UNL A   1      33.502  26.487  23.749  1.00  0.00     0.210 HD
ENDBRANCH  18  22
ENDBRANCH   7  16
ENDBRANCH   4   7
ENDBRANCH   2   3
ENDBRANCH   1   2
BRANCH   1  24
ATOM     24  C   UNL A   1      33.189  29.702  27.426  1.00  0.00     0.118 C 
BRANCH  24  25
ATOM     25  N   UNL A   1      33.769  31.024  27.701  1.00  0.00    -0.352 N 
ATOM     26  C   UNL A   1      35.026  31.390  28.152  1.00  0.00     0.251 C 
ATOM     27  H   UNL A   1      33.160  31.780  27.535  1.00  0.00     0.163 HD
ATOM     28  O   UNL A   1      35.303  32.567  28.294  1.00  0.00    -0.269 OA
BRANCH  26  29
ATOM     29  C   UNL A   1      36.040  30.331  28.349  1.00  0.00     0.039 A 
ATOM     30  C   UNL A   1      36.235  29.807  29.633  1.00  0.00     0.014 A 
ATOM     31  C   UNL A   1      36.926  30.041  27.322  1.00  0.00     0.014 A 
ATOM     32  C   UNL A   1      37.446  29.190  29.946  1.00  0.00     0.010 A 
ATOM     33  C   UNL A   1      38.164  29.550  27.654  1.00  0.00     0.010 A 
ATOM     34  C   UNL A   1      38.442  29.170  28.977  1.00  0.00    -0.014 A 
BRANCH  34  35
ATOM     35  C   UNL A   1      39.832  28.801  29.189  1.00  0.00     0.031 A 
ATOM     36  C   UNL A   1      40.233  27.389  29.017  1.00  0.00     0.074 A 
ATOM     37  C   UNL A   1      40.759  29.786  29.150  1.00  0.00     0.049 A 
ATOM     38  N   UNL A   1      41.442  26.962  29.128  1.00  0.00    -0.248 NA
ATOM     39  C   UNL A   1      39.271  26.328  28.727  1.00  0.00     0.031 C 
ATOM     40  C   UNL A   1      42.149  29.664  28.726  1.00  0.00     0.029 A 
ATOM     41  N   UNL A   1      40.682  31.067  29.706  1.00  0.00    -0.354 N 
ATOM     42  C   UNL A   1      41.472  25.685  28.616  1.00  0.00     0.074 A 
ATOM     43  C   UNL A   1      40.090  25.294  28.517  1.00  0.00     0.031 C 
ATOM     44  C   UNL A   1      42.855  30.660  29.276  1.00  0.00     0.029 A 
ATOM     45  C   UNL A   1      41.972  31.352  30.197  1.00  0.00     0.049 A 
ATOM     46  H   UNL A   1      39.890  31.649  29.746  1.00  0.00     0.167 HD
ATOM     47  C   UNL A   1      42.670  25.184  28.205  1.00  0.00     0.034 A 
ATOM     48  C   UNL A   1      42.235  31.561  31.520  1.00  0.00     0.034 A 
ATOM     49  C   UNL A   1      43.780  25.982  28.754  1.00  0.00     0.049 A 
ATOM     50  C   UNL A   1      43.127  30.490  32.138  1.00  0.00     0.074 A 
ATOM     51  C   UNL A   1      44.691  26.900  28.262  1.00  0.00     0.029 A 
ATOM     52  N   UNL A   1      43.889  26.051  30.134  1.00  0.00    -0.354 N 
ATOM     53  N   UNL A   1      43.787  29.580  31.472  1.00  0.00    -0.248 NA
ATOM     54  C   UNL A   1      43.263  30.317  33.586  1.00  0.00     0.031 C 
ATOM     55  C   UNL A   1      45.251  27.603  29.379  1.00  0.00     0.029 A 
ATOM     56  C   UNL A   1      44.706  27.087  30.543  1.00  0.00     0.049 A 
ATOM     57  H   UNL A   1      43.435  25.432  30.751  1.00  0.00     0.167 HD
ATOM     58  C   UNL A   1      44.239  28.623  32.347  1.00  0.00     0.074 A 
ATOM     59  C   UNL A   1      43.946  29.163  33.663  1.00  0.00     0.031 C 
ATOM     60  C   UNL A   1      44.747  27.412  31.965  1.00  0.00     0.034 A 
BRANCH  47  61
ATOM     61  C   UNL A   1      42.871  24.060  27.199  1.00  0.00     0.023 A 
ATOM     62  C   UNL A   1      43.576  24.379  26.017  1.00  0.00     0.012 A 
ATOM     63  C   UNL A   1      42.332  22.750  27.257  1.00  0.00     0.148 A 
ATOM     64  C   UNL A   1      43.716  23.477  24.954  1.00  0.00     0.002 A 
ATOM     65  C   UNL A   1      42.502  21.834  26.213  1.00  0.00     0.091 A 
ATOM     66  F   UNL A   1      41.583  22.371  28.289  1.00  0.00    -0.205 F 
ATOM     67  C   UNL A   1      43.184  22.201  25.053  1.00  0.00     0.022 A 
BRANCH  65  68
ATOM     68  S   UNL A   1      41.832  20.159  26.272  1.00  0.00     0.127 S 
ATOM     69  O   UNL A   1      42.290  19.695  27.581  1.00  0.00    -0.237 OA
ATOM     70  O   UNL A   1      40.391  20.398  26.180  1.00  0.00    -0.237 OA
ATOM     71  O   UNL A   1      42.401  19.441  25.138  1.00  0.00    -0.744 OA
ENDBRANCH  65  68
ENDBRANCH  47  61
BRANCH  48  72
ATOM     72  C   UNL A   1      41.151  32.300  32.225  1.00  0.00     0.023 A 
ATOM     73  C   UNL A   1      41.100  33.699  32.023  1.00  0.00     0.012 A 
ATOM     74  C   UNL A   1      40.017  31.640  32.727  1.00  0.00     0.148 A 
ATOM     75  C   UNL A   1      39.918  34.411  32.232  1.00  0.00     0.002 A 
ATOM     76  C   UNL A   1      38.834  32.353  32.909  1.00  0.00     0.091 A 
ATOM     77  F   UNL A   1      40.078  30.313  32.898  1.00  0.00    -0.205 F 
ATOM     78  C   UNL A   1      38.780  33.732  32.648  1.00  0.00     0.022 A 
BRANCH  76  79
ATOM     79  S   UNL A   1      37.273  31.553  33.294  1.00  0.00     0.127 S 
ATOM     80  O   UNL A   1      37.641  30.141  33.221  1.00  0.00    -0.237 OA
ATOM     81  O   UNL A   1      37.013  32.058  34.641  1.00  0.00    -0.237 OA
ATOM     82  O   UNL A   1      36.339  32.019  32.281  1.00  0.00    -0.744 OA
ENDBRANCH  76  79
ENDBRANCH  48  72
BRANCH  60  83
ATOM     83  C   UNL A   1      45.326  26.430  32.960  1.00  0.00     0.023 A 
ATOM     84  C   UNL A   1      46.715  26.187  32.971  1.00  0.00     0.012 A 
ATOM     85  C   UNL A   1      44.519  25.603  33.776  1.00  0.00     0.148 A 
ATOM     86  C   UNL A   1      47.279  25.185  33.769  1.00  0.00     0.002 A 
ATOM     87  C   UNL A   1      45.071  24.536  34.480  1.00  0.00     0.091 A 
ATOM     88  F   UNL A   1      43.216  25.880  33.919  1.00  0.00    -0.205 F 
ATOM     89  C   UNL A   1      46.453  24.339  34.498  1.00  0.00     0.022 A 
BRANCH  87  90
ATOM     90  S   UNL A   1      44.042  23.277  35.251  1.00  0.00     0.127 S 
ATOM     91  O   UNL A   1      43.098  24.088  36.024  1.00  0.00    -0.237 OA
ATOM     92  O   UNL A   1      43.461  22.608  34.091  1.00  0.00    -0.237 OA
ATOM     93  O   UNL A   1      44.948  22.481  36.066  1.00  0.00    -0.744 OA
ENDBRANCH  87  90
ENDBRANCH  60  83
ENDBRANCH  34  35
ENDBRANCH  26  29
ENDBRANCH  24  25
ENDBRANCH   1  24
TORSDOF 17
ENDMDL
