MODEL 1
REMARK VINA RESULT:     -13.1      0.000      0.000
REMARK SMILES CN1C(=O)C[C@@H](C(=O)NCCCNC(=O)c2ccc(-c3c4nc(c(-c5cccc(S(=O)(=O)[O-])c5F)c5ccc([nH]5)c(-c5cccc(S(=O)(=O)[O-])c5F)c5nc(c(-c6cccc(S(=O)(=O)[O-])c6F)c6ccc3[nH]6)C=C5)C=C4)cc2)C12CCN(c1ccc(Cl)cn1)CC2
REMARK SMILES IDX 12 1 11 2 10 3 9 4 7 5 8 6 6 8 1 9 2 10 3 11 79 12 4 13 5 14
REMARK SMILES IDX 80 15 91 16 81 17 90 18 82 19 83 20 84 21 89 22 85 23 88 24
REMARK SMILES IDX 86 25 87 26 13 27 14 28 15 30 16 31 17 32 78 33 18 34 77 35
REMARK SMILES IDX 19 36 20 37 21 38 71 39 22 40 76 41 70 42 72 43 23 44 75 45
REMARK SMILES IDX 69 46 68 47 24 49 56 50 36 51 55 52 37 53 40 54 54 55 73 56
REMARK SMILES IDX 38 57 39 58 53 60 74 61 41 62 25 63 26 64 34 65 27 66 29 67
REMARK SMILES IDX 35 68 28 69 30 70 31 71 32 72 33 73 57 74 58 75 66 76 59 77
REMARK SMILES IDX 61 78 67 79 60 80 62 81 63 82 64 83 65 84 42 85 43 86 51 87
REMARK SMILES IDX 44 88 46 89 52 90 45 91 47 92 48 93 49 94 50 95
REMARK H PARENT 9 7 13 29 72 48 40 59
REMARK Flexibility Score: inf
ROOT
ATOM      1  C   UNL A   1      32.948  29.783  26.763  1.00  0.00     0.118 C 
ENDROOT
BRANCH   1   2
ATOM      2  C   UNL A   1      31.607  29.337  26.198  1.00  0.00     0.042 C 
BRANCH   2   3
ATOM      3  C   UNL A   1      31.428  29.672  24.720  1.00  0.00     0.117 C 
BRANCH   3   4
ATOM      4  N   UNL A   1      32.575  29.327  23.892  1.00  0.00    -0.356 N 
ATOM      5  C   UNL A   1      32.833  28.337  23.006  1.00  0.00     0.226 C 
ATOM      6  O   UNL A   1      33.916  28.416  22.413  1.00  0.00    -0.275 OA
ATOM      7  H   UNL A   1      33.329  29.951  24.001  1.00  0.00     0.163 HD
BRANCH   5   8
ATOM      8  C   UNL A   1      31.922  27.149  22.708  1.00  0.00     0.113 C 
ATOM      9  C   UNL A   1      29.979  25.897  25.644  1.00  0.00     0.147 C 
ATOM     10  N   UNL A   1      30.458  26.394  24.365  1.00  0.00    -0.339 N 
ATOM     11  C   UNL A   1      29.669  27.145  23.509  1.00  0.00     0.223 C 
ATOM     12  C   UNL A   1      31.773  26.055  23.793  1.00  0.00     0.058 C 
ATOM     13  O   UNL A   1      28.502  27.471  23.679  1.00  0.00    -0.275 OA
ATOM     14  C   UNL A   1      30.500  27.556  22.326  1.00  0.00     0.116 C 
ATOM     15  C   UNL A   1      32.908  26.031  24.839  1.00  0.00     0.051 C 
ATOM     16  C   UNL A   1      31.663  24.646  23.120  1.00  0.00     0.051 C 
ATOM     17  C   UNL A   1      34.211  25.494  24.272  1.00  0.00     0.120 C 
ATOM     18  C   UNL A   1      33.010  24.073  22.651  1.00  0.00     0.120 C 
ATOM     19  N   UNL A   1      33.932  24.169  23.762  1.00  0.00    -0.356 N 
BRANCH  19  20
ATOM     20  C   UNL A   1      34.789  23.141  24.078  1.00  0.00     0.128 A 
ATOM     21  C   UNL A   1      36.139  23.243  23.723  1.00  0.00     0.048 A 
ATOM     22  N   UNL A   1      34.315  22.059  24.729  1.00  0.00    -0.238 NA
ATOM     23  C   UNL A   1      37.024  22.209  24.014  1.00  0.00     0.026 A 
ATOM     24  C   UNL A   1      35.189  21.048  24.975  1.00  0.00     0.134 A 
ATOM     25  C   UNL A   1      36.534  21.078  24.642  1.00  0.00     0.059 A 
ATOM     26  Cl  UNL A   1      37.567  19.757  25.001  1.00  0.00    -0.083 Cl
ENDBRANCH  19  20
ENDBRANCH   5   8
ENDBRANCH   3   4
ENDBRANCH   2   3
ENDBRANCH   1   2
BRANCH   1  27
ATOM     27  N   UNL A   1      33.033  31.234  26.835  1.00  0.00    -0.352 N 
ATOM     28  C   UNL A   1      33.860  32.016  27.604  1.00  0.00     0.251 C 
ATOM     29  H   UNL A   1      32.411  31.724  26.250  1.00  0.00     0.163 HD
ATOM     30  O   UNL A   1      33.584  33.201  27.777  1.00  0.00    -0.269 OA
BRANCH  28  31
ATOM     31  C   UNL A   1      35.073  31.435  28.218  1.00  0.00     0.039 A 
ATOM     32  C   UNL A   1      36.253  32.182  28.241  1.00  0.00     0.014 A 
ATOM     33  C   UNL A   1      35.054  30.140  28.742  1.00  0.00     0.014 A 
ATOM     34  C   UNL A   1      37.400  31.645  28.832  1.00  0.00     0.010 A 
ATOM     35  C   UNL A   1      36.166  29.648  29.417  1.00  0.00     0.010 A 
ATOM     36  C   UNL A   1      37.359  30.384  29.449  1.00  0.00    -0.014 A 
BRANCH  36  37
ATOM     37  C   UNL A   1      38.553  29.808  30.121  1.00  0.00     0.031 A 
ATOM     38  C   UNL A   1      38.943  30.274  31.500  1.00  0.00     0.074 A 
ATOM     39  C   UNL A   1      39.334  28.933  29.460  1.00  0.00     0.049 A 
ATOM     40  N   UNL A   1      39.981  29.939  32.221  1.00  0.00    -0.248 NA
ATOM     41  C   UNL A   1      38.072  31.275  32.139  1.00  0.00     0.031 C 
ATOM     42  C   UNL A   1      39.109  28.465  28.090  1.00  0.00     0.029 A 
ATOM     43  N   UNL A   1      40.491  28.300  29.840  1.00  0.00    -0.354 N 
ATOM     44  C   UNL A   1      39.912  30.714  33.373  1.00  0.00     0.074 A 
ATOM     45  C   UNL A   1      38.753  31.568  33.238  1.00  0.00     0.031 C 
ATOM     46  C   UNL A   1      40.090  27.616  27.749  1.00  0.00     0.029 A 
ATOM     47  C   UNL A   1      41.033  27.506  28.857  1.00  0.00     0.049 A 
ATOM     48  H   UNL A   1      40.895  28.406  30.731  1.00  0.00     0.167 HD
ATOM     49  C   UNL A   1      40.722  30.698  34.458  1.00  0.00     0.034 A 
ATOM     50  C   UNL A   1      42.168  26.779  28.843  1.00  0.00     0.034 A 
ATOM     51  C   UNL A   1      41.848  29.818  34.605  1.00  0.00     0.049 A 
ATOM     52  C   UNL A   1      43.029  26.745  30.076  1.00  0.00     0.074 A 
ATOM     53  C   UNL A   1      42.673  29.653  35.704  1.00  0.00     0.029 A 
ATOM     54  N   UNL A   1      42.319  28.964  33.620  1.00  0.00    -0.354 N 
ATOM     55  N   UNL A   1      42.859  27.368  31.217  1.00  0.00    -0.248 NA
ATOM     56  C   UNL A   1      44.218  25.881  30.034  1.00  0.00     0.031 C 
ATOM     57  C   UNL A   1      43.666  28.728  35.367  1.00  0.00     0.029 A 
ATOM     58  C   UNL A   1      43.433  28.282  34.076  1.00  0.00     0.049 A 
ATOM     59  H   UNL A   1      41.918  28.859  32.726  1.00  0.00     0.167 HD
ATOM     60  C   UNL A   1      43.895  26.943  32.042  1.00  0.00     0.074 A 
ATOM     61  C   UNL A   1      44.678  25.997  31.272  1.00  0.00     0.031 C 
ATOM     62  C   UNL A   1      44.177  27.310  33.316  1.00  0.00     0.034 A 
BRANCH  49  63
ATOM     63  C   UNL A   1      40.393  31.640  35.589  1.00  0.00     0.023 A 
ATOM     64  C   UNL A   1      41.231  32.744  35.852  1.00  0.00     0.012 A 
ATOM     65  C   UNL A   1      39.231  31.458  36.366  1.00  0.00     0.148 A 
ATOM     66  C   UNL A   1      40.945  33.623  36.896  1.00  0.00     0.002 A 
ATOM     67  C   UNL A   1      38.925  32.368  37.371  1.00  0.00     0.091 A 
ATOM     68  F   UNL A   1      38.457  30.392  36.117  1.00  0.00    -0.205 F 
ATOM     69  C   UNL A   1      39.788  33.441  37.647  1.00  0.00     0.022 A 
BRANCH  67  70
ATOM     70  S   UNL A   1      37.415  32.269  38.339  1.00  0.00     0.127 S 
ATOM     71  O   UNL A   1      37.833  32.882  39.599  1.00  0.00    -0.237 OA
ATOM     72  O   UNL A   1      36.490  33.077  37.544  1.00  0.00    -0.237 OA
ATOM     73  O   UNL A   1      37.077  30.855  38.414  1.00  0.00    -0.744 OA
ENDBRANCH  67  70
ENDBRANCH  49  63
BRANCH  50  74
ATOM     74  C   UNL A   1      42.520  25.979  27.636  1.00  0.00     0.023 A 
ATOM     75  C   UNL A   1      43.325  26.551  26.633  1.00  0.00     0.012 A 
ATOM     76  C   UNL A   1      42.096  24.643  27.500  1.00  0.00     0.148 A 
ATOM     77  C   UNL A   1      43.677  25.817  25.500  1.00  0.00     0.002 A 
ATOM     78  C   UNL A   1      42.498  23.898  26.397  1.00  0.00     0.091 A 
ATOM     79  F   UNL A   1      41.325  24.120  28.464  1.00  0.00    -0.205 F 
ATOM     80  C   UNL A   1      43.273  24.488  25.387  1.00  0.00     0.022 A 
BRANCH  78  81
ATOM     81  S   UNL A   1      42.141  22.145  26.237  1.00  0.00     0.127 S 
ATOM     82  O   UNL A   1      40.684  22.146  26.130  1.00  0.00    -0.237 OA
ATOM     83  O   UNL A   1      42.850  21.808  25.003  1.00  0.00    -0.237 OA
ATOM     84  O   UNL A   1      42.685  21.518  27.433  1.00  0.00    -0.744 OA
ENDBRANCH  78  81
ENDBRANCH  50  74
BRANCH  62  85
ATOM     85  C   UNL A   1      45.358  26.658  33.987  1.00  0.00     0.023 A 
ATOM     86  C   UNL A   1      46.632  27.256  33.918  1.00  0.00     0.012 A 
ATOM     87  C   UNL A   1      45.184  25.490  34.755  1.00  0.00     0.148 A 
ATOM     88  C   UNL A   1      47.720  26.682  34.574  1.00  0.00     0.002 A 
ATOM     89  C   UNL A   1      46.260  24.954  35.450  1.00  0.00     0.091 A 
ATOM     90  F   UNL A   1      43.967  24.926  34.794  1.00  0.00    -0.205 F 
ATOM     91  C   UNL A   1      47.532  25.540  35.349  1.00  0.00     0.022 A 
BRANCH  89  92
ATOM     92  S   UNL A   1      46.091  23.547  36.553  1.00  0.00     0.127 S 
ATOM     93  O   UNL A   1      47.449  23.417  37.079  1.00  0.00    -0.237 OA
ATOM     94  O   UNL A   1      45.106  24.030  37.521  1.00  0.00    -0.237 OA
ATOM     95  O   UNL A   1      45.635  22.438  35.727  1.00  0.00    -0.744 OA
ENDBRANCH  89  92
ENDBRANCH  62  85
ENDBRANCH  36  37
ENDBRANCH  28  31
ENDBRANCH   1  27
TORSDOF 14
ENDMDL
MODEL 2
REMARK VINA RESULT:     -13.0      5.334     10.424
REMARK SMILES CN1C(=O)C[C@@H](C(=O)NCCCNC(=O)c2ccc(-c3c4nc(c(-c5cccc(S(=O)(=O)[O-])c5F)c5ccc([nH]5)c(-c5cccc(S(=O)(=O)[O-])c5F)c5nc(c(-c6cccc(S(=O)(=O)[O-])c6F)c6ccc3[nH]6)C=C5)C=C4)cc2)C12CCN(c1ccc(Cl)cn1)CC2
REMARK SMILES IDX 12 1 11 2 10 3 9 4 7 5 8 6 6 8 1 9 2 10 3 11 79 12 4 13 5 14
REMARK SMILES IDX 80 15 91 16 81 17 90 18 82 19 83 20 84 21 89 22 85 23 88 24
REMARK SMILES IDX 86 25 87 26 13 27 14 28 15 30 16 31 17 32 78 33 18 34 77 35
REMARK SMILES IDX 19 36 20 37 21 38 71 39 22 40 76 41 70 42 72 43 23 44 75 45
REMARK SMILES IDX 69 46 68 47 24 49 56 50 36 51 55 52 37 53 40 54 54 55 73 56
REMARK SMILES IDX 38 57 39 58 53 60 74 61 41 62 25 63 26 64 34 65 27 66 29 67
REMARK SMILES IDX 35 68 28 69 30 70 31 71 32 72 33 73 57 74 58 75 66 76 59 77
REMARK SMILES IDX 61 78 67 79 60 80 62 81 63 82 64 83 65 84 42 85 43 86 51 87
REMARK SMILES IDX 44 88 46 89 52 90 45 91 47 92 48 93 49 94 50 95
REMARK H PARENT 9 7 13 29 72 48 40 59
REMARK Flexibility Score: inf
ROOT
ATOM      1  C   UNL A   1      37.434  22.255  25.171  1.00  0.00     0.118 C 
ENDROOT
BRANCH   1   2
ATOM      2  C   UNL A   1      36.292  21.593  24.414  1.00  0.00     0.042 C 
BRANCH   2   3
ATOM      3  C   UNL A   1      35.395  20.731  25.297  1.00  0.00     0.117 C 
BRANCH   3   4
ATOM      4  N   UNL A   1      34.922  21.405  26.498  1.00  0.00    -0.356 N 
ATOM      5  C   UNL A   1      33.749  21.979  26.856  1.00  0.00     0.226 C 
ATOM      6  O   UNL A   1      33.686  22.389  28.022  1.00  0.00    -0.275 OA
ATOM      7  H   UNL A   1      35.606  21.456  27.204  1.00  0.00     0.163 HD
BRANCH   5   8
ATOM      8  C   UNL A   1      32.539  22.175  25.946  1.00  0.00     0.113 C 
ATOM      9  C   UNL A   1      33.370  22.913  22.380  1.00  0.00     0.147 C 
ATOM     10  N   UNL A   1      32.870  22.403  23.646  1.00  0.00    -0.339 N 
ATOM     11  C   UNL A   1      32.463  21.090  23.816  1.00  0.00     0.223 C 
ATOM     12  C   UNL A   1      32.630  23.243  24.831  1.00  0.00     0.058 C 
ATOM     13  O   UNL A   1      32.442  20.209  22.968  1.00  0.00    -0.275 OA
ATOM     14  C   UNL A   1      32.086  20.888  25.257  1.00  0.00     0.116 C 
ATOM     15  C   UNL A   1      33.722  24.312  25.056  1.00  0.00     0.051 C 
ATOM     16  C   UNL A   1      31.245  23.952  24.655  1.00  0.00     0.051 C 
ATOM     17  C   UNL A   1      33.361  25.289  26.163  1.00  0.00     0.120 C 
ATOM     18  C   UNL A   1      30.948  25.015  25.725  1.00  0.00     0.120 C 
ATOM     19  N   UNL A   1      32.097  25.891  25.796  1.00  0.00    -0.356 N 
BRANCH  19  20
ATOM     20  C   UNL A   1      31.958  27.255  25.892  1.00  0.00     0.128 A 
ATOM     21  C   UNL A   1      32.192  27.881  27.122  1.00  0.00     0.048 A 
ATOM     22  N   UNL A   1      31.606  27.964  24.800  1.00  0.00    -0.238 NA
ATOM     23  C   UNL A   1      32.041  29.259  27.252  1.00  0.00     0.026 A 
ATOM     24  C   UNL A   1      31.432  29.303  24.957  1.00  0.00     0.134 A 
ATOM     25  C   UNL A   1      31.637  29.985  26.146  1.00  0.00     0.059 A 
ATOM     26  Cl  UNL A   1      31.402  31.681  26.250  1.00  0.00    -0.083 Cl
ENDBRANCH  19  20
ENDBRANCH   5   8
ENDBRANCH   3   4
ENDBRANCH   2   3
ENDBRANCH   1   2
BRANCH   1  27
ATOM     27  N   UNL A   1      38.264  21.265  25.842  1.00  0.00    -0.352 N 
ATOM     28  C   UNL A   1      39.489  21.426  26.444  1.00  0.00     0.251 C 
ATOM     29  H   UNL A   1      37.897  20.352  25.867  1.00  0.00     0.163 HD
ATOM     30  O   UNL A   1      40.184  20.440  26.674  1.00  0.00    -0.269 OA
BRANCH  28  31
ATOM     31  C   UNL A   1      39.963  22.778  26.812  1.00  0.00     0.039 A 
ATOM     32  C   UNL A   1      40.905  22.917  27.834  1.00  0.00     0.014 A 
ATOM     33  C   UNL A   1      39.455  23.909  26.169  1.00  0.00     0.014 A 
ATOM     34  C   UNL A   1      41.369  24.190  28.178  1.00  0.00     0.010 A 
ATOM     35  C   UNL A   1      39.990  25.163  26.444  1.00  0.00     0.010 A 
ATOM     36  C   UNL A   1      40.935  25.321  27.467  1.00  0.00    -0.014 A 
BRANCH  36  37
ATOM     37  C   UNL A   1      41.445  26.680  27.785  1.00  0.00     0.031 A 
ATOM     38  C   UNL A   1      42.875  27.044  27.477  1.00  0.00     0.074 A 
ATOM     39  C   UNL A   1      40.651  27.557  28.429  1.00  0.00     0.049 A 
ATOM     40  N   UNL A   1      43.518  28.152  27.735  1.00  0.00    -0.248 NA
ATOM     41  C   UNL A   1      43.701  26.014  26.823  1.00  0.00     0.031 C 
ATOM     42  C   UNL A   1      39.275  27.297  28.856  1.00  0.00     0.029 A 
ATOM     43  N   UNL A   1      40.896  28.837  28.861  1.00  0.00    -0.354 N 
ATOM     44  C   UNL A   1      44.827  27.940  27.318  1.00  0.00     0.074 A 
ATOM     45  C   UNL A   1      44.898  26.582  26.826  1.00  0.00     0.031 C 
ATOM     46  C   UNL A   1      38.795  28.383  29.480  1.00  0.00     0.029 A 
ATOM     47  C   UNL A   1      39.838  29.403  29.533  1.00  0.00     0.049 A 
ATOM     48  H   UNL A   1      41.748  29.304  28.706  1.00  0.00     0.167 HD
ATOM     49  C   UNL A   1      45.870  28.804  27.316  1.00  0.00     0.034 A 
ATOM     50  C   UNL A   1      39.722  30.604  30.134  1.00  0.00     0.034 A 
ATOM     51  C   UNL A   1      45.783  30.165  27.767  1.00  0.00     0.049 A 
ATOM     52  C   UNL A   1      40.880  31.561  30.083  1.00  0.00     0.074 A 
ATOM     53  C   UNL A   1      46.753  31.151  27.717  1.00  0.00     0.029 A 
ATOM     54  N   UNL A   1      44.668  30.731  28.366  1.00  0.00    -0.354 N 
ATOM     55  N   UNL A   1      42.063  31.395  29.541  1.00  0.00    -0.248 NA
ATOM     56  C   UNL A   1      40.678  32.884  30.692  1.00  0.00     0.031 C 
ATOM     57  C   UNL A   1      46.236  32.302  28.321  1.00  0.00     0.029 A 
ATOM     58  C   UNL A   1      44.929  32.047  28.706  1.00  0.00     0.049 A 
ATOM     59  H   UNL A   1      43.816  30.265  28.524  1.00  0.00     0.167 HD
ATOM     60  C   UNL A   1      42.732  32.603  29.709  1.00  0.00     0.074 A 
ATOM     61  C   UNL A   1      41.815  33.496  30.389  1.00  0.00     0.031 C 
ATOM     62  C   UNL A   1      43.993  32.938  29.342  1.00  0.00     0.034 A 
BRANCH  49  63
ATOM     63  C   UNL A   1      47.187  28.309  26.774  1.00  0.00     0.023 A 
ATOM     64  C   UNL A   1      48.250  28.026  27.658  1.00  0.00     0.012 A 
ATOM     65  C   UNL A   1      47.361  28.080  25.395  1.00  0.00     0.148 A 
ATOM     66  C   UNL A   1      49.476  27.571  27.175  1.00  0.00     0.002 A 
ATOM     67  C   UNL A   1      48.569  27.577  24.926  1.00  0.00     0.091 A 
ATOM     68  F   UNL A   1      46.348  28.374  24.566  1.00  0.00    -0.205 F 
ATOM     69  C   UNL A   1      49.631  27.337  25.812  1.00  0.00     0.022 A 
BRANCH  67  70
ATOM     70  S   UNL A   1      48.839  27.162  23.200  1.00  0.00     0.127 S 
ATOM     71  O   UNL A   1      48.254  25.824  23.125  1.00  0.00    -0.237 OA
ATOM     72  O   UNL A   1      48.074  28.202  22.511  1.00  0.00    -0.237 OA
ATOM     73  O   UNL A   1      50.278  27.227  22.991  1.00  0.00    -0.744 OA
ENDBRANCH  67  70
ENDBRANCH  49  63
BRANCH  50  74
ATOM     74  C   UNL A   1      38.437  30.983  30.786  1.00  0.00     0.023 A 
ATOM     75  C   UNL A   1      38.266  30.768  32.167  1.00  0.00     0.012 A 
ATOM     76  C   UNL A   1      37.402  31.596  30.052  1.00  0.00     0.148 A 
ATOM     77  C   UNL A   1      37.076  31.128  32.800  1.00  0.00     0.002 A 
ATOM     78  C   UNL A   1      36.242  32.004  30.700  1.00  0.00     0.091 A 
ATOM     79  F   UNL A   1      37.583  31.786  28.737  1.00  0.00    -0.205 F 
ATOM     80  C   UNL A   1      36.070  31.755  32.070  1.00  0.00     0.022 A 
BRANCH  78  81
ATOM     81  S   UNL A   1      34.954  32.941  29.869  1.00  0.00     0.127 S 
ATOM     82  O   UNL A   1      34.028  33.212  30.966  1.00  0.00    -0.237 OA
ATOM     83  O   UNL A   1      35.697  34.105  29.386  1.00  0.00    -0.237 OA
ATOM     84  O   UNL A   1      34.448  32.072  28.816  1.00  0.00    -0.744 OA
ENDBRANCH  78  81
ENDBRANCH  50  74
BRANCH  62  85
ATOM     85  C   UNL A   1      44.453  34.345  29.624  1.00  0.00     0.023 A 
ATOM     86  C   UNL A   1      45.023  34.668  30.871  1.00  0.00     0.012 A 
ATOM     87  C   UNL A   1      44.392  35.329  28.616  1.00  0.00     0.148 A 
ATOM     88  C   UNL A   1      45.492  35.957  31.123  1.00  0.00     0.002 A 
ATOM     89  C   UNL A   1      44.910  36.594  28.855  1.00  0.00     0.091 A 
ATOM     90  F   UNL A   1      43.830  35.006  27.442  1.00  0.00    -0.205 F 
ATOM     91  C   UNL A   1      45.447  36.915  30.112  1.00  0.00     0.022 A 
BRANCH  89  92
ATOM     92  S   UNL A   1      44.990  37.859  27.583  1.00  0.00     0.127 S 
ATOM     93  O   UNL A   1      45.406  39.030  28.354  1.00  0.00    -0.237 OA
ATOM     94  O   UNL A   1      46.012  37.327  26.681  1.00  0.00    -0.237 OA
ATOM     95  O   UNL A   1      43.655  37.937  27.007  1.00  0.00    -0.744 OA
ENDBRANCH  89  92
ENDBRANCH  62  85
ENDBRANCH  36  37
ENDBRANCH  28  31
ENDBRANCH   1  27
TORSDOF 14
ENDMDL
MODEL 3
REMARK VINA RESULT:     -13.0      5.157     10.098
REMARK SMILES CN1C(=O)C[C@@H](C(=O)NCCCNC(=O)c2ccc(-c3c4nc(c(-c5cccc(S(=O)(=O)[O-])c5F)c5ccc([nH]5)c(-c5cccc(S(=O)(=O)[O-])c5F)c5nc(c(-c6cccc(S(=O)(=O)[O-])c6F)c6ccc3[nH]6)C=C5)C=C4)cc2)C12CCN(c1ccc(Cl)cn1)CC2
REMARK SMILES IDX 12 1 11 2 10 3 9 4 7 5 8 6 6 8 1 9 2 10 3 11 79 12 4 13 5 14
REMARK SMILES IDX 80 15 91 16 81 17 90 18 82 19 83 20 84 21 89 22 85 23 88 24
REMARK SMILES IDX 86 25 87 26 13 27 14 28 15 30 16 31 17 32 78 33 18 34 77 35
REMARK SMILES IDX 19 36 20 37 21 38 71 39 22 40 76 41 70 42 72 43 23 44 75 45
REMARK SMILES IDX 69 46 68 47 24 49 56 50 36 51 55 52 37 53 40 54 54 55 73 56
REMARK SMILES IDX 38 57 39 58 53 60 74 61 41 62 25 63 26 64 34 65 27 66 29 67
REMARK SMILES IDX 35 68 28 69 30 70 31 71 32 72 33 73 57 74 58 75 66 76 59 77
REMARK SMILES IDX 61 78 67 79 60 80 62 81 63 82 64 83 65 84 42 85 43 86 51 87
REMARK SMILES IDX 44 88 46 89 52 90 45 91 47 92 48 93 49 94 50 95
REMARK H PARENT 9 7 13 29 72 48 40 59
REMARK Flexibility Score: inf
ROOT
ATOM      1  C   UNL A   1      37.359  21.978  25.583  1.00  0.00     0.118 C 
ENDROOT
BRANCH   1   2
ATOM      2  C   UNL A   1      37.184  21.856  24.076  1.00  0.00     0.042 C 
BRANCH   2   3
ATOM      3  C   UNL A   1      36.377  22.996  23.464  1.00  0.00     0.117 C 
BRANCH   3   4
ATOM      4  N   UNL A   1      35.898  23.971  24.433  1.00  0.00    -0.356 N 
ATOM      5  C   UNL A   1      34.674  24.429  24.782  1.00  0.00     0.226 C 
ATOM      6  O   UNL A   1      34.647  25.218  25.735  1.00  0.00    -0.275 OA
ATOM      7  H   UNL A   1      36.626  24.389  24.949  1.00  0.00     0.163 HD
BRANCH   5   8
ATOM      8  C   UNL A   1      33.360  24.075  24.090  1.00  0.00     0.113 C 
ATOM      9  C   UNL A   1      30.389  23.946  26.351  1.00  0.00     0.147 C 
ATOM     10  N   UNL A   1      31.368  24.187  25.304  1.00  0.00    -0.339 N 
ATOM     11  C   UNL A   1      31.389  25.350  24.552  1.00  0.00     0.223 C 
ATOM     12  C   UNL A   1      32.349  23.186  24.853  1.00  0.00     0.058 C 
ATOM     13  O   UNL A   1      30.617  26.295  24.634  1.00  0.00    -0.275 OA
ATOM     14  C   UNL A   1      32.571  25.300  23.625  1.00  0.00     0.116 C 
ATOM     15  C   UNL A   1      32.964  22.366  26.008  1.00  0.00     0.051 C 
ATOM     16  C   UNL A   1      31.633  22.214  23.856  1.00  0.00     0.051 C 
ATOM     17  C   UNL A   1      33.823  21.215  25.512  1.00  0.00     0.120 C 
ATOM     18  C   UNL A   1      32.481  20.998  23.453  1.00  0.00     0.120 C 
ATOM     19  N   UNL A   1      32.980  20.394  24.670  1.00  0.00    -0.356 N 
BRANCH  19  20
ATOM     20  C   UNL A   1      32.989  19.031  24.846  1.00  0.00     0.128 A 
ATOM     21  C   UNL A   1      33.466  18.212  23.817  1.00  0.00     0.048 A 
ATOM     22  N   UNL A   1      32.546  18.511  26.009  1.00  0.00    -0.238 NA
ATOM     23  C   UNL A   1      33.469  16.827  23.963  1.00  0.00     0.026 A 
ATOM     24  C   UNL A   1      32.527  17.156  26.117  1.00  0.00     0.134 A 
ATOM     25  C   UNL A   1      32.974  16.286  25.135  1.00  0.00     0.059 A 
ATOM     26  Cl  UNL A   1      32.922  14.587  25.363  1.00  0.00    -0.083 Cl
ENDBRANCH  19  20
ENDBRANCH   5   8
ENDBRANCH   3   4
ENDBRANCH   2   3
ENDBRANCH   1   2
BRANCH   1  27
ATOM     27  N   UNL A   1      38.335  21.020  26.080  1.00  0.00    -0.352 N 
ATOM     28  C   UNL A   1      39.625  21.235  26.501  1.00  0.00     0.251 C 
ATOM     29  H   UNL A   1      38.028  20.085  26.119  1.00  0.00     0.163 HD
ATOM     30  O   UNL A   1      40.402  20.287  26.582  1.00  0.00    -0.269 OA
BRANCH  28  31
ATOM     31  C   UNL A   1      40.073  22.600  26.853  1.00  0.00     0.039 A 
ATOM     32  C   UNL A   1      40.978  22.773  27.903  1.00  0.00     0.014 A 
ATOM     33  C   UNL A   1      39.575  23.711  26.168  1.00  0.00     0.014 A 
ATOM     34  C   UNL A   1      41.416  24.059  28.233  1.00  0.00     0.010 A 
ATOM     35  C   UNL A   1      40.087  24.976  26.432  1.00  0.00     0.010 A 
ATOM     36  C   UNL A   1      40.995  25.169  27.482  1.00  0.00    -0.014 A 
BRANCH  36  37
ATOM     37  C   UNL A   1      41.480  26.540  27.785  1.00  0.00     0.031 A 
ATOM     38  C   UNL A   1      42.899  26.930  27.463  1.00  0.00     0.074 A 
ATOM     39  C   UNL A   1      40.673  27.406  28.428  1.00  0.00     0.049 A 
ATOM     40  N   UNL A   1      43.522  28.053  27.708  1.00  0.00    -0.248 NA
ATOM     41  C   UNL A   1      43.741  25.913  26.810  1.00  0.00     0.031 C 
ATOM     42  C   UNL A   1      39.306  27.121  28.868  1.00  0.00     0.029 A 
ATOM     43  N   UNL A   1      40.895  28.694  28.849  1.00  0.00    -0.354 N 
ATOM     44  C   UNL A   1      44.831  27.864  27.282  1.00  0.00     0.074 A 
ATOM     45  C   UNL A   1      44.926  26.504  26.800  1.00  0.00     0.031 C 
ATOM     46  C   UNL A   1      38.809  28.202  29.489  1.00  0.00     0.029 A 
ATOM     47  C   UNL A   1      39.831  29.243  29.525  1.00  0.00     0.049 A 
ATOM     48  H   UNL A   1      41.736  29.177  28.684  1.00  0.00     0.167 HD
ATOM     49  C   UNL A   1      45.857  28.749  27.265  1.00  0.00     0.034 A 
ATOM     50  C   UNL A   1      39.695  30.446  30.118  1.00  0.00     0.034 A 
ATOM     51  C   UNL A   1      45.746  30.112  27.707  1.00  0.00     0.049 A 
ATOM     52  C   UNL A   1      40.833  31.426  30.050  1.00  0.00     0.074 A 
ATOM     53  C   UNL A   1      46.695  31.117  27.641  1.00  0.00     0.029 A 
ATOM     54  N   UNL A   1      44.624  30.660  28.309  1.00  0.00    -0.354 N 
ATOM     55  N   UNL A   1      42.015  31.281  29.500  1.00  0.00    -0.248 NA
ATOM     56  C   UNL A   1      40.609  32.749  30.650  1.00  0.00     0.031 C 
ATOM     57  C   UNL A   1      46.159  32.262  28.240  1.00  0.00     0.029 A 
ATOM     58  C   UNL A   1      44.860  31.984  28.637  1.00  0.00     0.049 A 
ATOM     59  H   UNL A   1      43.783  30.178  28.478  1.00  0.00     0.167 HD
ATOM     60  C   UNL A   1      42.660  32.503  29.654  1.00  0.00     0.074 A 
ATOM     61  C   UNL A   1      41.731  33.382  30.333  1.00  0.00     0.031 C 
ATOM     62  C   UNL A   1      43.912  32.861  29.274  1.00  0.00     0.034 A 
BRANCH  49  63
ATOM     63  C   UNL A   1      47.180  28.277  26.717  1.00  0.00     0.023 A 
ATOM     64  C   UNL A   1      48.256  28.025  27.594  1.00  0.00     0.012 A 
ATOM     65  C   UNL A   1      47.346  28.040  25.338  1.00  0.00     0.148 A 
ATOM     66  C   UNL A   1      49.486  27.590  27.105  1.00  0.00     0.002 A 
ATOM     67  C   UNL A   1      48.561  27.558  24.864  1.00  0.00     0.091 A 
ATOM     68  F   UNL A   1      46.321  28.304  24.515  1.00  0.00    -0.205 F 
ATOM     69  C   UNL A   1      49.636  27.347  25.743  1.00  0.00     0.022 A 
BRANCH  67  70
ATOM     70  S   UNL A   1      48.826  27.133  23.139  1.00  0.00     0.127 S 
ATOM     71  O   UNL A   1      48.099  28.203  22.458  1.00  0.00    -0.237 OA
ATOM     72  O   UNL A   1      50.282  27.215  23.024  1.00  0.00    -0.237 OA
ATOM     73  O   UNL A   1      48.277  25.796  22.965  1.00  0.00    -0.744 OA
ENDBRANCH  67  70
ENDBRANCH  49  63
BRANCH  50  74
ATOM     74  C   UNL A   1      38.408  30.805  30.777  1.00  0.00     0.023 A 
ATOM     75  C   UNL A   1      38.216  30.505  32.139  1.00  0.00     0.012 A 
ATOM     76  C   UNL A   1      37.393  31.480  30.071  1.00  0.00     0.148 A 
ATOM     77  C   UNL A   1      37.023  30.843  32.780  1.00  0.00     0.002 A 
ATOM     78  C   UNL A   1      36.231  31.866  30.729  1.00  0.00     0.091 A 
ATOM     79  F   UNL A   1      37.594  31.751  28.774  1.00  0.00    -0.205 F 
ATOM     80  C   UNL A   1      36.037  31.532  32.078  1.00  0.00     0.022 A 
BRANCH  78  81
ATOM     81  S   UNL A   1      34.969  32.875  29.945  1.00  0.00     0.127 S 
ATOM     82  O   UNL A   1      34.456  31.968  28.921  1.00  0.00    -0.237 OA
ATOM     83  O   UNL A   1      34.055  33.129  31.059  1.00  0.00    -0.237 OA
ATOM     84  O   UNL A   1      35.658  34.059  29.451  1.00  0.00    -0.744 OA
ENDBRANCH  78  81
ENDBRANCH  50  74
BRANCH  62  85
ATOM     85  C   UNL A   1      44.345  34.278  29.541  1.00  0.00     0.023 A 
ATOM     86  C   UNL A   1      44.984  34.608  30.753  1.00  0.00     0.012 A 
ATOM     87  C   UNL A   1      44.189  35.269  28.551  1.00  0.00     0.148 A 
ATOM     88  C   UNL A   1      45.428  35.909  30.988  1.00  0.00     0.002 A 
ATOM     89  C   UNL A   1      44.682  36.548  28.770  1.00  0.00     0.091 A 
ATOM     90  F   UNL A   1      43.563  34.939  27.411  1.00  0.00    -0.205 F 
ATOM     91  C   UNL A   1      45.289  36.874  29.994  1.00  0.00     0.022 A 
BRANCH  89  92
ATOM     92  S   UNL A   1      44.640  37.826  27.510  1.00  0.00     0.127 S 
ATOM     93  O   UNL A   1      45.043  39.008  28.271  1.00  0.00    -0.237 OA
ATOM     94  O   UNL A   1      45.638  37.349  26.552  1.00  0.00    -0.237 OA
ATOM     95  O   UNL A   1      43.276  37.849  27.002  1.00  0.00    -0.744 OA
ENDBRANCH  89  92
ENDBRANCH  62  85
ENDBRANCH  36  37
ENDBRANCH  28  31
ENDBRANCH   1  27
TORSDOF 14
ENDMDL
