MODEL 1
REMARK VINA RESULT:     -12.2      0.000      0.000
REMARK SMILES CC[C@@H]1CCCN1C(=O)N[C@H]1C=C[C@@H](C(=O)NCCCNC(=O)c2ccc(-c3c4nc(c(-c5cccc(S(=O)(=O)[O-])c5F)c5ccc([nH]5)c(-c5cccc(S(=O)(=O)[O-])c5F)c5nc(c(-c6cccc(S(=O)(=O)[O-])c6F)c6ccc3[nH]6)C=C5)C=C4)cc2)C1
REMARK SMILES IDX 19 1 18 2 17 3 15 4 16 5 14 7 11 8 12 9 87 10 13 11 10 12
REMARK SMILES IDX 8 13 9 14 7 16 3 17 4 18 5 19 6 20 2 21 1 22 20 23 21 24
REMARK SMILES IDX 22 25 23 27 24 28 25 29 86 30 26 31 85 32 27 33 28 34 29 35
REMARK SMILES IDX 79 36 30 37 84 38 78 39 80 40 31 41 83 42 77 43 76 44 32 46
REMARK SMILES IDX 64 47 44 48 63 49 45 50 48 51 62 52 81 53 46 54 47 55 61 57
REMARK SMILES IDX 82 58 49 59 33 60 34 61 42 62 35 63 37 64 43 65 36 66 38 67
REMARK SMILES IDX 39 68 40 69 41 70 65 71 66 72 74 73 67 74 69 75 75 76 68 77
REMARK SMILES IDX 70 78 71 79 72 80 73 81 50 82 51 83 59 84 52 85 54 86 60 87
REMARK SMILES IDX 53 88 55 89 56 90 57 91 58 92
REMARK H PARENT 17 6 10 15 21 26 80 45 48 56
REMARK Flexibility Score: inf
ROOT
ATOM      1  C   UNL A   1      35.689  21.286  25.300  1.00  0.00     0.042 C 
ENDROOT
BRANCH   1   2
ATOM      2  C   UNL A   1      35.287  19.873  24.901  1.00  0.00     0.117 C 
BRANCH   2   3
ATOM      3  N   UNL A   1      34.082  19.255  25.446  1.00  0.00    -0.356 N 
ATOM      4  C   UNL A   1      32.765  19.412  25.081  1.00  0.00     0.227 C 
ATOM      5  O   UNL A   1      32.090  18.368  25.139  1.00  0.00    -0.274 OA
ATOM      6  H   UNL A   1      34.236  18.628  26.190  1.00  0.00     0.163 HD
BRANCH   4   7
ATOM      7  C   UNL A   1      32.019  20.738  24.671  1.00  0.00     0.103 C 
ATOM      8  C   UNL A   1      32.454  23.199  24.579  1.00  0.00     0.107 C 
ATOM      9  C   UNL A   1      32.592  22.587  23.241  1.00  0.00    -0.006 C 
ATOM     10  C   UNL A   1      32.005  22.031  25.503  1.00  0.00     0.047 C 
ATOM     11  C   UNL A   1      32.350  21.266  23.276  1.00  0.00    -0.016 C 
BRANCH   8  12
ATOM     12  N   UNL A   1      33.552  24.087  25.031  1.00  0.00    -0.332 N 
ATOM     13  C   UNL A   1      34.199  25.242  25.126  1.00  0.00     0.318 C 
ATOM     14  O   UNL A   1      35.382  25.019  25.454  1.00  0.00    -0.249 OA
ATOM     15  H   UNL A   1      34.121  23.477  25.555  1.00  0.00     0.165 HD
BRANCH  13  16
ATOM     16  N   UNL A   1      33.832  26.531  24.897  1.00  0.00    -0.322 N 
ATOM     17  C   UNL A   1      33.788  27.837  25.633  1.00  0.00     0.086 C 
ATOM     18  C   UNL A   1      33.016  28.778  24.665  1.00  0.00     0.027 C 
ATOM     19  C   UNL A   1      33.440  28.320  23.301  1.00  0.00     0.024 C 
ATOM     20  C   UNL A   1      33.532  26.816  23.477  1.00  0.00     0.122 C 
BRANCH  17  21
ATOM     21  C   UNL A   1      33.039  27.948  26.941  1.00  0.00     0.022 C 
ATOM     22  C   UNL A   1      31.602  27.938  26.610  1.00  0.00     0.006 C 
ENDBRANCH  17  21
ENDBRANCH  13  16
ENDBRANCH   8  12
ENDBRANCH   4   7
ENDBRANCH   2   3
ENDBRANCH   1   2
BRANCH   1  23
ATOM     23  C   UNL A   1      37.089  21.672  24.769  1.00  0.00     0.118 C 
BRANCH  23  24
ATOM     24  N   UNL A   1      38.217  20.813  25.191  1.00  0.00    -0.352 N 
ATOM     25  C   UNL A   1      39.315  21.002  26.011  1.00  0.00     0.251 C 
ATOM     26  H   UNL A   1      38.177  19.908  24.803  1.00  0.00     0.163 HD
ATOM     27  O   UNL A   1      40.086  20.061  26.201  1.00  0.00    -0.269 OA
BRANCH  25  28
ATOM     28  C   UNL A   1      39.618  22.320  26.615  1.00  0.00     0.039 A 
ATOM     29  C   UNL A   1      40.650  22.439  27.557  1.00  0.00     0.014 A 
ATOM     30  C   UNL A   1      38.928  23.456  26.225  1.00  0.00     0.014 A 
ATOM     31  C   UNL A   1      41.084  23.708  27.960  1.00  0.00     0.010 A 
ATOM     32  C   UNL A   1      39.465  24.708  26.485  1.00  0.00     0.010 A 
ATOM     33  C   UNL A   1      40.556  24.858  27.352  1.00  0.00    -0.014 A 
BRANCH  33  34
ATOM     34  C   UNL A   1      41.123  26.222  27.558  1.00  0.00     0.031 A 
ATOM     35  C   UNL A   1      42.522  26.541  27.090  1.00  0.00     0.074 A 
ATOM     36  C   UNL A   1      40.459  27.115  28.322  1.00  0.00     0.049 A 
ATOM     37  N   UNL A   1      43.260  27.592  27.342  1.00  0.00    -0.248 NA
ATOM     38  C   UNL A   1      43.206  25.514  26.286  1.00  0.00     0.031 C 
ATOM     39  C   UNL A   1      39.152  26.895  28.945  1.00  0.00     0.029 A 
ATOM     40  N   UNL A   1      40.815  28.373  28.746  1.00  0.00    -0.354 N 
ATOM     41  C   UNL A   1      44.511  27.316  26.799  1.00  0.00     0.074 A 
ATOM     42  C   UNL A   1      44.445  25.981  26.250  1.00  0.00     0.031 C 
ATOM     43  C   UNL A   1      38.813  27.977  29.661  1.00  0.00     0.029 A 
ATOM     44  C   UNL A   1      39.896  28.952  29.591  1.00  0.00     0.049 A 
ATOM     45  H   UNL A   1      41.649  28.819  28.470  1.00  0.00     0.167 HD
ATOM     46  C   UNL A   1      45.606  28.109  26.731  1.00  0.00     0.034 A 
ATOM     47  C   UNL A   1      39.922  30.125  30.254  1.00  0.00     0.034 A 
ATOM     48  C   UNL A   1      45.642  29.463  27.209  1.00  0.00     0.049 A 
ATOM     49  C   UNL A   1      41.103  31.036  30.081  1.00  0.00     0.074 A 
ATOM     50  C   UNL A   1      46.644  30.404  27.059  1.00  0.00     0.029 A 
ATOM     51  N   UNL A   1      44.631  30.069  27.941  1.00  0.00    -0.354 N 
ATOM     52  N   UNL A   1      42.209  30.831  29.406  1.00  0.00    -0.248 NA
ATOM     53  C   UNL A   1      41.029  32.355  30.726  1.00  0.00     0.031 C 
ATOM     54  C   UNL A   1      46.255  31.567  27.733  1.00  0.00     0.029 A 
ATOM     55  C   UNL A   1      44.993  31.365  28.267  1.00  0.00     0.049 A 
ATOM     56  H   UNL A   1      43.781  29.639  28.192  1.00  0.00     0.167 HD
ATOM     57  C   UNL A   1      42.950  32.000  29.522  1.00  0.00     0.074 A 
ATOM     58  C   UNL A   1      42.158  32.918  30.314  1.00  0.00     0.031 C 
ATOM     59  C   UNL A   1      44.181  32.283  29.026  1.00  0.00     0.034 A 
BRANCH  46  60
ATOM     60  C   UNL A   1      46.841  27.539  26.073  1.00  0.00     0.023 A 
ATOM     61  C   UNL A   1      47.047  27.712  24.688  1.00  0.00     0.012 A 
ATOM     62  C   UNL A   1      47.806  26.846  26.829  1.00  0.00     0.148 A 
ATOM     63  C   UNL A   1      48.154  27.149  24.056  1.00  0.00     0.002 A 
ATOM     64  C   UNL A   1      48.937  26.336  26.201  1.00  0.00     0.091 A 
ATOM     65  F   UNL A   1      47.591  26.673  28.141  1.00  0.00    -0.205 F 
ATOM     66  C   UNL A   1      49.102  26.468  24.812  1.00  0.00     0.022 A 
BRANCH  64  67
ATOM     67  S   UNL A   1      50.259  25.523  27.105  1.00  0.00     0.127 S 
ATOM     68  O   UNL A   1      51.246  25.303  26.049  1.00  0.00    -0.237 OA
ATOM     69  O   UNL A   1      50.633  26.544  28.086  1.00  0.00    -0.237 OA
ATOM     70  O   UNL A   1      49.671  24.322  27.678  1.00  0.00    -0.744 OA
ENDBRANCH  64  67
ENDBRANCH  46  60
BRANCH  47  71
ATOM     71  C   UNL A   1      38.754  30.518  31.093  1.00  0.00     0.023 A 
ATOM     72  C   UNL A   1      38.788  30.287  32.482  1.00  0.00     0.012 A 
ATOM     73  C   UNL A   1      37.648  31.189  30.535  1.00  0.00     0.148 A 
ATOM     74  C   UNL A   1      37.734  30.698  33.298  1.00  0.00     0.002 A 
ATOM     75  C   UNL A   1      36.627  31.647  31.362  1.00  0.00     0.091 A 
ATOM     76  F   UNL A   1      37.635  31.395  29.211  1.00  0.00    -0.205 F 
ATOM     77  C   UNL A   1      36.661  31.390  32.740  1.00  0.00     0.022 A 
BRANCH  75  78
ATOM     78  S   UNL A   1      35.279  32.666  30.749  1.00  0.00     0.127 S 
ATOM     79  O   UNL A   1      34.849  31.909  29.569  1.00  0.00    -0.237 OA
ATOM     80  O   UNL A   1      34.340  32.622  31.876  1.00  0.00    -0.237 OA
ATOM     81  O   UNL A   1      35.848  33.969  30.486  1.00  0.00    -0.744 OA
ENDBRANCH  75  78
ENDBRANCH  47  71
BRANCH  59  82
ATOM     82  C   UNL A   1      44.746  33.653  29.293  1.00  0.00     0.023 A 
ATOM     83  C   UNL A   1      45.456  33.904  30.483  1.00  0.00     0.012 A 
ATOM     84  C   UNL A   1      44.642  34.669  28.321  1.00  0.00     0.148 A 
ATOM     85  C   UNL A   1      46.027  35.155  30.716  1.00  0.00     0.002 A 
ATOM     86  C   UNL A   1      45.260  35.894  28.537  1.00  0.00     0.091 A 
ATOM     87  F   UNL A   1      43.947  34.416  27.203  1.00  0.00    -0.205 F 
ATOM     88  C   UNL A   1      45.941  36.143  29.739  1.00  0.00     0.022 A 
BRANCH  86  89
ATOM     89  S   UNL A   1      45.289  37.190  27.293  1.00  0.00     0.127 S 
ATOM     90  O   UNL A   1      46.081  36.567  26.234  1.00  0.00    -0.237 OA
ATOM     91  O   UNL A   1      43.869  37.349  26.979  1.00  0.00    -0.237 OA
ATOM     92  O   UNL A   1      45.901  38.347  27.932  1.00  0.00    -0.744 OA
ENDBRANCH  86  89
ENDBRANCH  59  82
ENDBRANCH  33  34
ENDBRANCH  25  28
ENDBRANCH  23  24
ENDBRANCH   1  23
TORSDOF 16
ENDMDL
MODEL 2
REMARK VINA RESULT:     -12.1      5.693     12.054
REMARK SMILES CC[C@@H]1CCCN1C(=O)N[C@H]1C=C[C@@H](C(=O)NCCCNC(=O)c2ccc(-c3c4nc(c(-c5cccc(S(=O)(=O)[O-])c5F)c5ccc([nH]5)c(-c5cccc(S(=O)(=O)[O-])c5F)c5nc(c(-c6cccc(S(=O)(=O)[O-])c6F)c6ccc3[nH]6)C=C5)C=C4)cc2)C1
REMARK SMILES IDX 19 1 18 2 17 3 15 4 16 5 14 7 11 8 12 9 87 10 13 11 10 12
REMARK SMILES IDX 8 13 9 14 7 16 3 17 4 18 5 19 6 20 2 21 1 22 20 23 21 24
REMARK SMILES IDX 22 25 23 27 24 28 25 29 86 30 26 31 85 32 27 33 28 34 29 35
REMARK SMILES IDX 79 36 30 37 84 38 78 39 80 40 31 41 83 42 77 43 76 44 32 46
REMARK SMILES IDX 64 47 44 48 63 49 45 50 48 51 62 52 81 53 46 54 47 55 61 57
REMARK SMILES IDX 82 58 49 59 33 60 34 61 42 62 35 63 37 64 43 65 36 66 38 67
REMARK SMILES IDX 39 68 40 69 41 70 65 71 66 72 74 73 67 74 69 75 75 76 68 77
REMARK SMILES IDX 70 78 71 79 72 80 73 81 50 82 51 83 59 84 52 85 54 86 60 87
REMARK SMILES IDX 53 88 55 89 56 90 57 91 58 92
REMARK H PARENT 17 6 10 15 21 26 80 45 48 56
REMARK Flexibility Score: inf
ROOT
ATOM      1  C   UNL A   1      34.025  36.092  28.628  1.00  0.00     0.042 C 
ENDROOT
BRANCH   1   2
ATOM      2  C   UNL A   1      32.633  35.866  29.203  1.00  0.00     0.117 C 
BRANCH   2   3
ATOM      3  N   UNL A   1      32.267  36.397  30.512  1.00  0.00    -0.356 N 
ATOM      4  C   UNL A   1      32.954  36.361  31.704  1.00  0.00     0.227 C 
ATOM      5  O   UNL A   1      32.839  37.392  32.391  1.00  0.00    -0.274 OA
ATOM      6  H   UNL A   1      31.394  36.850  30.549  1.00  0.00     0.163 HD
BRANCH   4   7
ATOM      7  C   UNL A   1      33.795  35.175  32.309  1.00  0.00     0.103 C 
ATOM      8  C   UNL A   1      36.031  34.096  32.003  1.00  0.00     0.107 C 
ATOM      9  C   UNL A   1      36.037  35.002  33.171  1.00  0.00    -0.006 C 
ATOM     10  C   UNL A   1      34.566  34.133  31.480  1.00  0.00     0.047 C 
ATOM     11  C   UNL A   1      34.837  35.579  33.351  1.00  0.00    -0.016 C 
BRANCH   8  12
ATOM     12  N   UNL A   1      37.141  34.241  31.031  1.00  0.00    -0.332 N 
ATOM     13  C   UNL A   1      38.414  34.357  30.672  1.00  0.00     0.318 C 
ATOM     14  O   UNL A   1      38.468  34.835  29.521  1.00  0.00    -0.249 OA
ATOM     15  H   UNL A   1      36.670  34.267  30.168  1.00  0.00     0.165 HD
BRANCH  13  16
ATOM     16  N   UNL A   1      39.585  34.105  31.315  1.00  0.00    -0.322 N 
ATOM     17  C   UNL A   1      40.967  33.622  30.989  1.00  0.00     0.086 C 
ATOM     18  C   UNL A   1      41.626  33.427  32.385  1.00  0.00     0.027 C 
ATOM     19  C   UNL A   1      41.032  34.522  33.221  1.00  0.00     0.024 C 
ATOM     20  C   UNL A   1      39.602  34.578  32.716  1.00  0.00     0.122 C 
BRANCH  17  21
ATOM     21  C   UNL A   1      41.165  32.296  30.292  1.00  0.00     0.022 C 
ATOM     22  C   UNL A   1      42.331  31.653  30.926  1.00  0.00     0.006 C 
ENDBRANCH  17  21
ENDBRANCH  13  16
ENDBRANCH   8  12
ENDBRANCH   4   7
ENDBRANCH   2   3
ENDBRANCH   1   2
BRANCH   1  23
ATOM     23  C   UNL A   1      34.614  34.811  27.993  1.00  0.00     0.118 C 
BRANCH  23  24
ATOM     24  N   UNL A   1      33.654  33.739  27.652  1.00  0.00    -0.352 N 
ATOM     25  C   UNL A   1      33.717  32.356  27.652  1.00  0.00     0.251 C 
ATOM     26  H   UNL A   1      32.779  34.084  27.360  1.00  0.00     0.163 HD
ATOM     27  O   UNL A   1      32.714  31.715  27.337  1.00  0.00    -0.269 OA
BRANCH  25  28
ATOM     28  C   UNL A   1      34.972  31.634  27.960  1.00  0.00     0.039 A 
ATOM     29  C   UNL A   1      36.175  32.342  28.090  1.00  0.00     0.014 A 
ATOM     30  C   UNL A   1      34.971  30.265  28.176  1.00  0.00     0.014 A 
ATOM     31  C   UNL A   1      37.312  31.700  28.596  1.00  0.00     0.010 A 
ATOM     32  C   UNL A   1      36.036  29.673  28.836  1.00  0.00     0.010 A 
ATOM     33  C   UNL A   1      37.224  30.380  29.065  1.00  0.00    -0.014 A 
BRANCH  33  34
ATOM     34  C   UNL A   1      38.321  29.710  29.822  1.00  0.00     0.031 A 
ATOM     35  C   UNL A   1      38.546  30.034  31.279  1.00  0.00     0.074 A 
ATOM     36  C   UNL A   1      39.224  28.952  29.164  1.00  0.00     0.049 A 
ATOM     37  N   UNL A   1      39.549  29.712  32.054  1.00  0.00    -0.248 NA
ATOM     38  C   UNL A   1      37.542  30.891  31.934  1.00  0.00     0.031 C 
ATOM     39  C   UNL A   1      39.201  28.657  27.730  1.00  0.00     0.029 A 
ATOM     40  N   UNL A   1      40.367  28.331  29.607  1.00  0.00    -0.354 N 
ATOM     41  C   UNL A   1      39.336  30.387  33.251  1.00  0.00     0.074 A 
ATOM     42  C   UNL A   1      38.137  31.175  33.081  1.00  0.00     0.031 C 
ATOM     43  C   UNL A   1      40.269  27.910  27.413  1.00  0.00     0.029 A 
ATOM     44  C   UNL A   1      41.081  27.709  28.608  1.00  0.00     0.049 A 
ATOM     45  H   UNL A   1      40.649  28.331  30.551  1.00  0.00     0.167 HD
ATOM     46  C   UNL A   1      40.050  30.333  34.401  1.00  0.00     0.034 A 
ATOM     47  C   UNL A   1      42.265  27.066  28.638  1.00  0.00     0.034 A 
ATOM     48  C   UNL A   1      41.197  29.489  34.589  1.00  0.00     0.049 A 
ATOM     49  C   UNL A   1      42.989  26.930  29.946  1.00  0.00     0.074 A 
ATOM     50  C   UNL A   1      41.904  29.243  35.751  1.00  0.00     0.029 A 
ATOM     51  N   UNL A   1      41.812  28.757  33.584  1.00  0.00    -0.354 N 
ATOM     52  N   UNL A   1      42.673  27.426  31.118  1.00  0.00    -0.248 NA
ATOM     53  C   UNL A   1      44.213  26.115  29.949  1.00  0.00     0.031 C 
ATOM     54  C   UNL A   1      42.971  28.391  35.442  1.00  0.00     0.029 A 
ATOM     55  C   UNL A   1      42.903  28.074  34.094  1.00  0.00     0.049 A 
ATOM     56  H   UNL A   1      41.516  28.728  32.645  1.00  0.00     0.167 HD
ATOM     57  C   UNL A   1      43.640  26.964  32.002  1.00  0.00     0.074 A 
ATOM     58  C   UNL A   1      44.542  26.130  31.235  1.00  0.00     0.031 C 
ATOM     59  C   UNL A   1      43.774  27.218  33.329  1.00  0.00     0.034 A 
BRANCH  46  60
ATOM     60  C   UNL A   1      39.578  31.183  35.556  1.00  0.00     0.023 A 
ATOM     61  C   UNL A   1      38.338  30.910  36.173  1.00  0.00     0.012 A 
ATOM     62  C   UNL A   1      40.367  32.243  36.043  1.00  0.00     0.148 A 
ATOM     63  C   UNL A   1      37.862  31.716  37.206  1.00  0.00     0.002 A 
ATOM     64  C   UNL A   1      39.912  33.007  37.112  1.00  0.00     0.091 A 
ATOM     65  F   UNL A   1      41.535  32.504  35.438  1.00  0.00    -0.205 F 
ATOM     66  C   UNL A   1      38.652  32.759  37.681  1.00  0.00     0.022 A 
BRANCH  64  67
ATOM     67  S   UNL A   1      40.897  34.313  37.853  1.00  0.00     0.127 S 
ATOM     68  O   UNL A   1      40.981  35.278  36.758  1.00  0.00    -0.237 OA
ATOM     69  O   UNL A   1      40.055  34.735  38.974  1.00  0.00    -0.237 OA
ATOM     70  O   UNL A   1      42.155  33.693  38.243  1.00  0.00    -0.744 OA
ENDBRANCH  64  67
ENDBRANCH  46  60
BRANCH  47  71
ATOM     71  C   UNL A   1      42.797  26.453  27.387  1.00  0.00     0.023 A 
ATOM     72  C   UNL A   1      43.621  27.216  26.537  1.00  0.00     0.012 A 
ATOM     73  C   UNL A   1      42.554  25.100  27.079  1.00  0.00     0.148 A 
ATOM     74  C   UNL A   1      44.180  26.647  25.392  1.00  0.00     0.002 A 
ATOM     75  C   UNL A   1      43.160  24.525  25.966  1.00  0.00     0.091 A 
ATOM     76  F   UNL A   1      41.764  24.395  27.899  1.00  0.00    -0.205 F 
ATOM     77  C   UNL A   1      43.961  25.300  25.114  1.00  0.00     0.022 A 
BRANCH  75  78
ATOM     78  S   UNL A   1      43.046  22.767  25.611  1.00  0.00     0.127 S 
ATOM     79  O   UNL A   1      43.727  22.682  24.315  1.00  0.00    -0.237 OA
ATOM     80  O   UNL A   1      43.797  22.190  26.732  1.00  0.00    -0.237 OA
ATOM     81  O   UNL A   1      41.636  22.449  25.601  1.00  0.00    -0.744 OA
ENDBRANCH  75  78
ENDBRANCH  47  71
BRANCH  59  82
ATOM     82  C   UNL A   1      44.919  26.564  34.055  1.00  0.00     0.023 A 
ATOM     83  C   UNL A   1      46.207  27.132  33.998  1.00  0.00     0.012 A 
ATOM     84  C   UNL A   1      44.698  25.430  34.863  1.00  0.00     0.148 A 
ATOM     85  C   UNL A   1      47.264  26.563  34.708  1.00  0.00     0.002 A 
ATOM     86  C   UNL A   1      45.743  24.902  35.610  1.00  0.00     0.091 A 
ATOM     87  F   UNL A   1      43.469  24.894  34.890  1.00  0.00    -0.205 F 
ATOM     88  C   UNL A   1      47.029  25.458  35.523  1.00  0.00     0.022 A 
BRANCH  86  89
ATOM     89  S   UNL A   1      45.511  23.545  36.764  1.00  0.00     0.127 S 
ATOM     90  O   UNL A   1      44.553  24.118  37.708  1.00  0.00    -0.237 OA
ATOM     91  O   UNL A   1      44.967  22.495  35.903  1.00  0.00    -0.237 OA
ATOM     92  O   UNL A   1      46.829  23.255  37.314  1.00  0.00    -0.744 OA
ENDBRANCH  86  89
ENDBRANCH  59  82
ENDBRANCH  33  34
ENDBRANCH  25  28
ENDBRANCH  23  24
ENDBRANCH   1  23
TORSDOF 16
ENDMDL
MODEL 3
REMARK VINA RESULT:     -12.0      5.097     10.323
REMARK SMILES CC[C@@H]1CCCN1C(=O)N[C@H]1C=C[C@@H](C(=O)NCCCNC(=O)c2ccc(-c3c4nc(c(-c5cccc(S(=O)(=O)[O-])c5F)c5ccc([nH]5)c(-c5cccc(S(=O)(=O)[O-])c5F)c5nc(c(-c6cccc(S(=O)(=O)[O-])c6F)c6ccc3[nH]6)C=C5)C=C4)cc2)C1
REMARK SMILES IDX 19 1 18 2 17 3 15 4 16 5 14 7 11 8 12 9 87 10 13 11 10 12
REMARK SMILES IDX 8 13 9 14 7 16 3 17 4 18 5 19 6 20 2 21 1 22 20 23 21 24
REMARK SMILES IDX 22 25 23 27 24 28 25 29 86 30 26 31 85 32 27 33 28 34 29 35
REMARK SMILES IDX 79 36 30 37 84 38 78 39 80 40 31 41 83 42 77 43 76 44 32 46
REMARK SMILES IDX 64 47 44 48 63 49 45 50 48 51 62 52 81 53 46 54 47 55 61 57
REMARK SMILES IDX 82 58 49 59 33 60 34 61 42 62 35 63 37 64 43 65 36 66 38 67
REMARK SMILES IDX 39 68 40 69 41 70 65 71 66 72 74 73 67 74 69 75 75 76 68 77
REMARK SMILES IDX 70 78 71 79 72 80 73 81 50 82 51 83 59 84 52 85 54 86 60 87
REMARK SMILES IDX 53 88 55 89 56 90 57 91 58 92
REMARK H PARENT 17 6 10 15 21 26 80 45 48 56
REMARK Flexibility Score: inf
ROOT
ATOM      1  C   UNL A   1      31.528  29.534  25.689  1.00  0.00     0.042 C 
ENDROOT
BRANCH   1   2
ATOM      2  C   UNL A   1      32.453  29.150  24.541  1.00  0.00     0.117 C 
BRANCH   2   3
ATOM      3  N   UNL A   1      32.061  29.380  23.154  1.00  0.00    -0.356 N 
ATOM      4  C   UNL A   1      30.958  28.937  22.462  1.00  0.00     0.227 C 
ATOM      5  O   UNL A   1      30.494  29.765  21.656  1.00  0.00    -0.274 OA
ATOM      6  H   UNL A   1      32.684  29.937  22.633  1.00  0.00     0.163 HD
BRANCH   4   7
ATOM      7  C   UNL A   1      30.270  27.521  22.526  1.00  0.00     0.103 C 
ATOM      8  C   UNL A   1      30.158  25.544  24.053  1.00  0.00     0.107 C 
ATOM      9  C   UNL A   1      28.956  26.391  24.196  1.00  0.00    -0.006 C 
ATOM     10  C   UNL A   1      30.983  26.217  22.919  1.00  0.00     0.047 C 
ATOM     11  C   UNL A   1      29.000  27.452  23.372  1.00  0.00    -0.016 C 
BRANCH   8  12
ATOM     12  N   UNL A   1      30.852  25.141  25.300  1.00  0.00    -0.332 N 
ATOM     13  C   UNL A   1      31.634  24.365  26.041  1.00  0.00     0.318 C 
ATOM     14  O   UNL A   1      31.393  24.580  27.246  1.00  0.00    -0.249 OA
ATOM     15  H   UNL A   1      30.581  25.843  25.934  1.00  0.00     0.165 HD
BRANCH  13  16
ATOM     16  N   UNL A   1      32.552  23.411  25.734  1.00  0.00    -0.322 N 
ATOM     17  C   UNL A   1      34.038  23.218  25.794  1.00  0.00     0.086 C 
ATOM     18  C   UNL A   1      34.266  21.883  25.029  1.00  0.00     0.027 C 
ATOM     19  C   UNL A   1      33.054  21.063  25.363  1.00  0.00     0.024 C 
ATOM     20  C   UNL A   1      31.952  22.106  25.383  1.00  0.00     0.122 C 
BRANCH  17  21
ATOM     21  C   UNL A   1      34.962  24.202  25.115  1.00  0.00     0.022 C 
ATOM     22  C   UNL A   1      34.872  23.939  23.667  1.00  0.00     0.006 C 
ENDBRANCH  17  21
ENDBRANCH  13  16
ENDBRANCH   8  12
ENDBRANCH   4   7
ENDBRANCH   2   3
ENDBRANCH   1   2
BRANCH   1  23
ATOM     23  C   UNL A   1      32.306  29.893  26.976  1.00  0.00     0.118 C 
BRANCH  23  24
ATOM     24  N   UNL A   1      32.516  31.332  27.243  1.00  0.00    -0.352 N 
ATOM     25  C   UNL A   1      33.614  32.092  27.606  1.00  0.00     0.251 C 
ATOM     26  H   UNL A   1      31.696  31.867  27.139  1.00  0.00     0.163 HD
ATOM     27  O   UNL A   1      33.482  33.310  27.728  1.00  0.00    -0.269 OA
BRANCH  25  28
ATOM     28  C   UNL A   1      34.924  31.471  27.912  1.00  0.00     0.039 A 
ATOM     29  C   UNL A   1      36.052  32.278  28.116  1.00  0.00     0.014 A 
ATOM     30  C   UNL A   1      35.045  30.098  28.053  1.00  0.00     0.014 A 
ATOM     31  C   UNL A   1      37.231  31.715  28.620  1.00  0.00     0.010 A 
ATOM     32  C   UNL A   1      36.144  29.570  28.711  1.00  0.00     0.010 A 
ATOM     33  C   UNL A   1      37.255  30.368  29.013  1.00  0.00    -0.014 A 
BRANCH  33  34
ATOM     34  C   UNL A   1      38.390  29.760  29.766  1.00  0.00     0.031 A 
ATOM     35  C   UNL A   1      38.706  30.220  31.168  1.00  0.00     0.074 A 
ATOM     36  C   UNL A   1      39.246  28.930  29.132  1.00  0.00     0.049 A 
ATOM     37  N   UNL A   1      39.752  29.960  31.909  1.00  0.00    -0.248 NA
ATOM     38  C   UNL A   1      37.750  31.150  31.795  1.00  0.00     0.031 C 
ATOM     39  C   UNL A   1      39.134  28.498  27.737  1.00  0.00     0.029 A 
ATOM     40  N   UNL A   1      40.409  28.339  29.564  1.00  0.00    -0.354 N 
ATOM     41  C   UNL A   1      39.618  30.751  33.046  1.00  0.00     0.074 A 
ATOM     42  C   UNL A   1      38.416  31.535  32.872  1.00  0.00     0.031 C 
ATOM     43  C   UNL A   1      40.174  27.708  27.431  1.00  0.00     0.029 A 
ATOM     44  C   UNL A   1      41.056  27.613  28.589  1.00  0.00     0.049 A 
ATOM     45  H   UNL A   1      40.747  28.426  30.485  1.00  0.00     0.167 HD
ATOM     46  C   UNL A   1      40.400  30.799  34.151  1.00  0.00     0.034 A 
ATOM     47  C   UNL A   1      42.234  26.960  28.611  1.00  0.00     0.034 A 
ATOM     48  C   UNL A   1      41.549  29.961  34.351  1.00  0.00     0.049 A 
ATOM     49  C   UNL A   1      43.036  26.941  29.881  1.00  0.00     0.074 A 
ATOM     50  C   UNL A   1      42.324  29.819  35.488  1.00  0.00     0.029 A 
ATOM     51  N   UNL A   1      42.096  29.127  33.388  1.00  0.00    -0.354 N 
ATOM     52  N   UNL A   1      42.795  27.552  31.015  1.00  0.00    -0.248 NA
ATOM     53  C   UNL A   1      44.251  26.113  29.890  1.00  0.00     0.031 C 
ATOM     54  C   UNL A   1      43.363  28.927  35.199  1.00  0.00     0.029 A 
ATOM     55  C   UNL A   1      43.210  28.482  33.896  1.00  0.00     0.049 A 
ATOM     56  H   UNL A   1      41.744  29.012  32.475  1.00  0.00     0.167 HD
ATOM     57  C   UNL A   1      43.810  27.164  31.881  1.00  0.00     0.074 A 
ATOM     58  C   UNL A   1      44.657  26.248  31.146  1.00  0.00     0.031 C 
ATOM     59  C   UNL A   1      44.026  27.543  33.166  1.00  0.00     0.034 A 
BRANCH  46  60
ATOM     60  C   UNL A   1      40.005  31.763  35.244  1.00  0.00     0.023 A 
ATOM     61  C   UNL A   1      40.572  33.054  35.285  1.00  0.00     0.012 A 
ATOM     62  C   UNL A   1      39.060  31.397  36.223  1.00  0.00     0.148 A 
ATOM     63  C   UNL A   1      40.259  33.939  36.316  1.00  0.00     0.002 A 
ATOM     64  C   UNL A   1      38.708  32.306  37.215  1.00  0.00     0.091 A 
ATOM     65  F   UNL A   1      38.541  30.162  36.183  1.00  0.00    -0.205 F 
ATOM     66  C   UNL A   1      39.322  33.568  37.275  1.00  0.00     0.022 A 
BRANCH  64  67
ATOM     67  S   UNL A   1      37.445  31.954  38.442  1.00  0.00     0.127 S 
ATOM     68  O   UNL A   1      37.149  30.549  38.167  1.00  0.00    -0.237 OA
ATOM     69  O   UNL A   1      38.161  32.192  39.697  1.00  0.00    -0.237 OA
ATOM     70  O   UNL A   1      36.361  32.889  38.178  1.00  0.00    -0.744 OA
ENDBRANCH  64  67
ENDBRANCH  46  60
BRANCH  47  71
ATOM     71  C   UNL A   1      42.684  26.221  27.396  1.00  0.00     0.023 A 
ATOM     72  C   UNL A   1      43.555  26.851  26.485  1.00  0.00     0.012 A 
ATOM     73  C   UNL A   1      42.318  24.878  27.183  1.00  0.00     0.148 A 
ATOM     74  C   UNL A   1      44.037  26.161  25.372  1.00  0.00     0.002 A 
ATOM     75  C   UNL A   1      42.848  24.180  26.102  1.00  0.00     0.091 A 
ATOM     76  F   UNL A   1      41.487  24.301  28.061  1.00  0.00    -0.205 F 
ATOM     77  C   UNL A   1      43.696  24.824  25.189  1.00  0.00     0.022 A 
BRANCH  75  78
ATOM     78  S   UNL A   1      42.574  22.419  25.868  1.00  0.00     0.127 S 
ATOM     79  O   UNL A   1      43.241  22.184  24.584  1.00  0.00    -0.237 OA
ATOM     80  O   UNL A   1      43.271  21.855  27.029  1.00  0.00    -0.237 OA
ATOM     81  O   UNL A   1      41.140  22.232  25.874  1.00  0.00    -0.744 OA
ENDBRANCH  75  78
ENDBRANCH  47  71
BRANCH  59  82
ATOM     82  C   UNL A   1      45.208  26.947  33.883  1.00  0.00     0.023 A 
ATOM     83  C   UNL A   1      46.452  27.608  33.864  1.00  0.00     0.012 A 
ATOM     84  C   UNL A   1      45.062  25.770  34.646  1.00  0.00     0.148 A 
ATOM     85  C   UNL A   1      47.540  27.091  34.567  1.00  0.00     0.002 A 
ATOM     86  C   UNL A   1      46.135  25.291  35.386  1.00  0.00     0.091 A 
ATOM     87  F   UNL A   1      43.875  25.146  34.636  1.00  0.00    -0.205 F 
ATOM     88  C   UNL A   1      47.377  25.942  35.337  1.00  0.00     0.022 A 
BRANCH  86  89
ATOM     89  S   UNL A   1      45.990  23.879  36.486  1.00  0.00     0.127 S 
ATOM     90  O   UNL A   1      45.729  22.793  35.543  1.00  0.00    -0.237 OA
ATOM     91  O   UNL A   1      47.312  23.838  37.113  1.00  0.00    -0.237 OA
ATOM     92  O   UNL A   1      44.897  24.189  37.398  1.00  0.00    -0.744 OA
ENDBRANCH  86  89
ENDBRANCH  59  82
ENDBRANCH  33  34
ENDBRANCH  25  28
ENDBRANCH  23  24
ENDBRANCH   1  23
TORSDOF 16
ENDMDL
