MODEL 1
REMARK VINA RESULT:     -10.3      0.000      0.000
REMARK SMILES O=C(NCCCNC(=O)c1ccc(Cl)nc1C(F)(F)F)c1ccc(-c2c3nc(c(-c4cccc(S(=O)(=O)[O-])c4F)c4ccc([nH]4)c(-c4cccc(S(=O)(=O)[O-])c4F)c4nc(c(-c5cccc(S(=O)(=O)[O-])c5F)c5ccc2[nH]5)C=C4)C=C3)cc1
REMARK SMILES IDX 4 1 3 2 1 3 2 4 21 6 22 7 83 8 23 9 82 10 24 11 25 12 26 13
REMARK SMILES IDX 76 14 27 15 81 16 75 17 77 18 28 19 80 20 74 21 73 22 29 24
REMARK SMILES IDX 61 25 41 26 60 27 42 28 45 29 59 30 78 31 43 32 44 33 58 35
REMARK SMILES IDX 79 36 46 37 30 38 31 39 39 40 32 41 34 42 40 43 33 44 35 45
REMARK SMILES IDX 36 46 37 47 38 48 62 49 63 50 71 51 64 52 66 53 72 54 65 55
REMARK SMILES IDX 67 56 68 57 69 58 70 59 47 60 48 61 56 62 49 63 51 64 57 65
REMARK SMILES IDX 50 66 52 67 53 68 54 69 55 70 5 71 6 72 7 73 8 74 9 76 10 77
REMARK SMILES IDX 11 78 16 79 12 80 15 81 13 82 14 83 17 84 18 85 19 86 20 87
REMARK H PARENT 3 5 77 23 45 34 7 75
REMARK Flexibility Score: inf
ROOT
ATOM      1  C   UNL A   1      34.646  33.123  28.315  1.00  0.00     0.118 C 
ENDROOT
BRANCH   1   2
ATOM      2  N   UNL A   1      33.942  31.959  27.797  1.00  0.00    -0.352 N 
ATOM      3  O   UNL A   1      33.655  29.907  26.943  1.00  0.00    -0.269 OA
ATOM      4  C   UNL A   1      34.370  30.670  27.588  1.00  0.00     0.251 C 
ATOM      5  H   UNL A   1      33.001  32.122  27.556  1.00  0.00     0.163 HD
BRANCH   4   6
ATOM      6  C   UNL A   1      35.677  30.209  28.105  1.00  0.00     0.039 A 
ATOM      7  C   UNL A   1      36.843  30.330  27.345  1.00  0.00     0.014 A 
ATOM      8  C   UNL A   1      35.744  29.684  29.398  1.00  0.00     0.014 A 
ATOM      9  C   UNL A   1      38.039  29.792  27.809  1.00  0.00     0.010 A 
ATOM     10  C   UNL A   1      36.965  29.224  29.900  1.00  0.00     0.010 A 
ATOM     11  C   UNL A   1      38.115  29.242  29.096  1.00  0.00    -0.014 A 
BRANCH  11  12
ATOM     12  C   UNL A   1      39.408  28.737  29.622  1.00  0.00     0.031 A 
ATOM     13  C   UNL A   1      40.119  29.459  30.731  1.00  0.00     0.074 A 
ATOM     14  C   UNL A   1      39.971  27.655  29.052  1.00  0.00     0.049 A 
ATOM     15  N   UNL A   1      41.297  29.222  31.248  1.00  0.00    -0.248 NA
ATOM     16  C   UNL A   1      39.420  30.606  31.332  1.00  0.00     0.031 C 
ATOM     17  C   UNL A   1      39.390  26.887  27.949  1.00  0.00     0.029 A 
ATOM     18  N   UNL A   1      41.170  27.033  29.294  1.00  0.00    -0.354 N 
ATOM     19  C   UNL A   1      41.505  30.216  32.196  1.00  0.00     0.074 A 
ATOM     20  C   UNL A   1      40.331  31.063  32.181  1.00  0.00     0.031 C 
ATOM     21  C   UNL A   1      40.237  25.909  27.599  1.00  0.00     0.029 A 
ATOM     22  C   UNL A   1      41.445  26.018  28.410  1.00  0.00     0.049 A 
ATOM     23  H   UNL A   1      41.774  27.290  30.029  1.00  0.00     0.167 HD
ATOM     24  C   UNL A   1      42.574  30.403  33.008  1.00  0.00     0.034 A 
ATOM     25  C   UNL A   1      42.560  25.282  28.235  1.00  0.00     0.034 A 
ATOM     26  C   UNL A   1      43.731  29.547  33.023  1.00  0.00     0.049 A 
ATOM     27  C   UNL A   1      43.735  25.509  29.139  1.00  0.00     0.074 A 
ATOM     28  C   UNL A   1      44.835  29.608  33.856  1.00  0.00     0.029 A 
ATOM     29  N   UNL A   1      43.944  28.487  32.154  1.00  0.00    -0.354 N 
ATOM     30  N   UNL A   1      43.869  26.379  30.110  1.00  0.00    -0.248 NA
ATOM     31  C   UNL A   1      44.902  24.636  28.949  1.00  0.00     0.031 C 
ATOM     32  C   UNL A   1      45.735  28.615  33.459  1.00  0.00     0.029 A 
ATOM     33  C   UNL A   1      45.170  27.899  32.416  1.00  0.00     0.049 A 
ATOM     34  H   UNL A   1      43.317  28.196  31.453  1.00  0.00     0.167 HD
ATOM     35  C   UNL A   1      45.115  26.134  30.673  1.00  0.00     0.074 A 
ATOM     36  C   UNL A   1      45.697  25.031  29.935  1.00  0.00     0.031 C 
ATOM     37  C   UNL A   1      45.718  26.769  31.708  1.00  0.00     0.034 A 
BRANCH  24  38
ATOM     38  C   UNL A   1      42.542  31.582  33.946  1.00  0.00     0.023 A 
ATOM     39  C   UNL A   1      43.067  32.825  33.538  1.00  0.00     0.012 A 
ATOM     40  C   UNL A   1      41.959  31.469  35.225  1.00  0.00     0.148 A 
ATOM     41  C   UNL A   1      43.062  33.919  34.402  1.00  0.00     0.002 A 
ATOM     42  C   UNL A   1      41.915  32.577  36.063  1.00  0.00     0.091 A 
ATOM     43  F   UNL A   1      41.480  30.276  35.607  1.00  0.00    -0.205 F 
ATOM     44  C   UNL A   1      42.478  33.797  35.661  1.00  0.00     0.022 A 
BRANCH  42  45
ATOM     45  S   UNL A   1      41.109  32.537  37.669  1.00  0.00     0.127 S 
ATOM     46  O   UNL A   1      41.973  31.618  38.408  1.00  0.00    -0.237 OA
ATOM     47  O   UNL A   1      41.200  33.935  38.096  1.00  0.00    -0.237 OA
ATOM     48  O   UNL A   1      39.753  32.067  37.424  1.00  0.00    -0.744 OA
ENDBRANCH  42  45
ENDBRANCH  24  38
BRANCH  25  49
ATOM     49  C   UNL A   1      42.585  24.251  27.161  1.00  0.00     0.023 A 
ATOM     50  C   UNL A   1      43.280  24.509  25.964  1.00  0.00     0.012 A 
ATOM     51  C   UNL A   1      41.996  22.987  27.359  1.00  0.00     0.148 A 
ATOM     52  C   UNL A   1      43.374  23.530  24.976  1.00  0.00     0.002 A 
ATOM     53  C   UNL A   1      42.143  21.998  26.397  1.00  0.00     0.091 A 
ATOM     54  F   UNL A   1      41.340  22.767  28.508  1.00  0.00    -0.205 F 
ATOM     55  C   UNL A   1      42.819  22.271  25.197  1.00  0.00     0.022 A 
BRANCH  53  56
ATOM     56  S   UNL A   1      41.586  20.309  26.650  1.00  0.00     0.127 S 
ATOM     57  O   UNL A   1      42.320  19.931  27.855  1.00  0.00    -0.237 OA
ATOM     58  O   UNL A   1      40.147  20.496  26.838  1.00  0.00    -0.237 OA
ATOM     59  O   UNL A   1      41.949  19.584  25.441  1.00  0.00    -0.744 OA
ENDBRANCH  53  56
ENDBRANCH  25  49
BRANCH  37  60
ATOM     60  C   UNL A   1      47.058  26.257  32.166  1.00  0.00     0.023 A 
ATOM     61  C   UNL A   1      47.145  25.357  33.245  1.00  0.00     0.012 A 
ATOM     62  C   UNL A   1      48.222  26.585  31.441  1.00  0.00     0.148 A 
ATOM     63  C   UNL A   1      48.374  24.804  33.607  1.00  0.00     0.002 A 
ATOM     64  C   UNL A   1      49.432  25.990  31.772  1.00  0.00     0.091 A 
ATOM     65  F   UNL A   1      48.117  27.460  30.430  1.00  0.00    -0.205 F 
ATOM     66  C   UNL A   1      49.512  25.107  32.861  1.00  0.00     0.022 A 
BRANCH  64  67
ATOM     67  S   UNL A   1      50.925  26.239  30.806  1.00  0.00     0.127 S 
ATOM     68  O   UNL A   1      51.130  27.681  30.941  1.00  0.00    -0.237 OA
ATOM     69  O   UNL A   1      51.897  25.415  31.525  1.00  0.00    -0.237 OA
ATOM     70  O   UNL A   1      50.618  25.781  29.459  1.00  0.00    -0.744 OA
ENDBRANCH  64  67
ENDBRANCH  37  60
ENDBRANCH  11  12
ENDBRANCH   4   6
ENDBRANCH   1   2
BRANCH   1  71
ATOM     71  C   UNL A   1      33.751  34.029  29.149  1.00  0.00     0.042 C 
BRANCH  71  72
ATOM     72  C   UNL A   1      34.310  34.373  30.522  1.00  0.00     0.118 C 
BRANCH  72  73
ATOM     73  N   UNL A   1      34.604  33.200  31.340  1.00  0.00    -0.352 N 
ATOM     74  C   UNL A   1      35.809  32.632  31.655  1.00  0.00     0.253 C 
ATOM     75  H   UNL A   1      33.817  32.750  31.723  1.00  0.00     0.163 HD
ATOM     76  O   UNL A   1      35.888  31.645  32.382  1.00  0.00    -0.269 OA
BRANCH  74  77
ATOM     77  C   UNL A   1      37.049  33.215  31.132  1.00  0.00     0.070 A 
ATOM     78  C   UNL A   1      37.364  33.020  29.780  1.00  0.00     0.019 A 
ATOM     79  C   UNL A   1      37.898  33.984  31.929  1.00  0.00     0.158 A 
ATOM     80  C   UNL A   1      38.553  33.523  29.270  1.00  0.00     0.042 A 
ATOM     81  N   UNL A   1      39.063  34.500  31.416  1.00  0.00    -0.231 NA
ATOM     82  C   UNL A   1      39.362  34.243  30.126  1.00  0.00     0.129 A 
ATOM     83  Cl  UNL A   1      40.855  34.889  29.593  1.00  0.00    -0.062 Cl
BRANCH  79  84
ATOM     84  C   UNL A   1      37.570  34.317  33.378  1.00  0.00     0.434 C 
ATOM     85  F   UNL A   1      37.584  33.207  34.178  1.00  0.00    -0.164 F 
ATOM     86  F   UNL A   1      38.474  35.173  33.936  1.00  0.00    -0.164 F 
ATOM     87  F   UNL A   1      36.340  34.865  33.587  1.00  0.00    -0.164 F 
ENDBRANCH  79  84
ENDBRANCH  74  77
ENDBRANCH  72  73
ENDBRANCH  71  72
ENDBRANCH   1  71
TORSDOF 14
ENDMDL
MODEL 2
REMARK VINA RESULT:     -10.2      4.827     10.309
REMARK SMILES O=C(NCCCNC(=O)c1ccc(Cl)nc1C(F)(F)F)c1ccc(-c2c3nc(c(-c4cccc(S(=O)(=O)[O-])c4F)c4ccc([nH]4)c(-c4cccc(S(=O)(=O)[O-])c4F)c4nc(c(-c5cccc(S(=O)(=O)[O-])c5F)c5ccc2[nH]5)C=C4)C=C3)cc1
REMARK SMILES IDX 4 1 3 2 1 3 2 4 21 6 22 7 83 8 23 9 82 10 24 11 25 12 26 13
REMARK SMILES IDX 76 14 27 15 81 16 75 17 77 18 28 19 80 20 74 21 73 22 29 24
REMARK SMILES IDX 61 25 41 26 60 27 42 28 45 29 59 30 78 31 43 32 44 33 58 35
REMARK SMILES IDX 79 36 46 37 30 38 31 39 39 40 32 41 34 42 40 43 33 44 35 45
REMARK SMILES IDX 36 46 37 47 38 48 62 49 63 50 71 51 64 52 66 53 72 54 65 55
REMARK SMILES IDX 67 56 68 57 69 58 70 59 47 60 48 61 56 62 49 63 51 64 57 65
REMARK SMILES IDX 50 66 52 67 53 68 54 69 55 70 5 71 6 72 7 73 8 74 9 76 10 77
REMARK SMILES IDX 11 78 16 79 12 80 15 81 13 82 14 83 17 84 18 85 19 86 20 87
REMARK H PARENT 3 5 77 23 45 34 7 75
REMARK Flexibility Score: inf
ROOT
ATOM      1  C   UNL A   1      32.651  32.435  27.255  1.00  0.00     0.118 C 
ENDROOT
BRANCH   1   2
ATOM      2  N   UNL A   1      32.509  33.827  27.660  1.00  0.00    -0.352 N 
ATOM      3  O   UNL A   1      32.742  35.663  28.922  1.00  0.00    -0.269 OA
ATOM      4  C   UNL A   1      33.178  34.558  28.611  1.00  0.00     0.251 C 
ATOM      5  H   UNL A   1      31.817  34.328  27.169  1.00  0.00     0.163 HD
BRANCH   4   6
ATOM      6  C   UNL A   1      34.389  34.021  29.271  1.00  0.00     0.039 A 
ATOM      7  C   UNL A   1      35.664  34.479  28.933  1.00  0.00     0.014 A 
ATOM      8  C   UNL A   1      34.239  33.070  30.284  1.00  0.00     0.014 A 
ATOM      9  C   UNL A   1      36.792  33.884  29.491  1.00  0.00     0.010 A 
ATOM     10  C   UNL A   1      35.369  32.536  30.909  1.00  0.00     0.010 A 
ATOM     11  C   UNL A   1      36.655  32.912  30.493  1.00  0.00    -0.014 A 
BRANCH  11  12
ATOM     12  C   UNL A   1      37.857  32.331  31.143  1.00  0.00     0.031 A 
ATOM     13  C   UNL A   1      38.587  31.178  30.516  1.00  0.00     0.074 A 
ATOM     14  C   UNL A   1      38.253  32.812  32.337  1.00  0.00     0.049 A 
ATOM     15  N   UNL A   1      39.590  30.483  30.986  1.00  0.00    -0.248 NA
ATOM     16  C   UNL A   1      38.121  30.740  29.190  1.00  0.00     0.031 C 
ATOM     17  C   UNL A   1      37.607  33.910  33.059  1.00  0.00     0.029 A 
ATOM     18  N   UNL A   1      39.269  32.417  33.172  1.00  0.00    -0.354 N 
ATOM     19  C   UNL A   1      39.843  29.494  30.043  1.00  0.00     0.074 A 
ATOM     20  C   UNL A   1      38.885  29.678  28.974  1.00  0.00     0.031 C 
ATOM     21  C   UNL A   1      38.230  34.092  34.232  1.00  0.00     0.029 A 
ATOM     22  C   UNL A   1      39.277  33.086  34.372  1.00  0.00     0.049 A 
ATOM     23  H   UNL A   1      39.926  31.724  32.934  1.00  0.00     0.167 HD
ATOM     24  C   UNL A   1      40.791  28.526  30.065  1.00  0.00     0.034 A 
ATOM     25  C   UNL A   1      40.012  32.888  35.483  1.00  0.00     0.034 A 
ATOM     26  C   UNL A   1      41.748  28.361  31.127  1.00  0.00     0.049 A 
ATOM     27  C   UNL A   1      41.052  31.806  35.491  1.00  0.00     0.074 A 
ATOM     28  C   UNL A   1      42.792  27.457  31.212  1.00  0.00     0.029 A 
ATOM     29  N   UNL A   1      41.765  29.101  32.300  1.00  0.00    -0.354 N 
ATOM     30  N   UNL A   1      41.357  30.955  34.542  1.00  0.00    -0.248 NA
ATOM     31  C   UNL A   1      41.870  31.675  36.704  1.00  0.00     0.031 C 
ATOM     32  C   UNL A   1      43.412  27.620  32.454  1.00  0.00     0.029 A 
ATOM     33  C   UNL A   1      42.788  28.662  33.123  1.00  0.00     0.049 A 
ATOM     34  H   UNL A   1      41.141  29.831  32.517  1.00  0.00     0.167 HD
ATOM     35  C   UNL A   1      42.427  30.212  35.026  1.00  0.00     0.074 A 
ATOM     36  C   UNL A   1      42.719  30.718  36.352  1.00  0.00     0.031 C 
ATOM     37  C   UNL A   1      43.103  29.205  34.421  1.00  0.00     0.034 A 
BRANCH  24  38
ATOM     38  C   UNL A   1      40.838  27.567  28.903  1.00  0.00     0.023 A 
ATOM     39  C   UNL A   1      39.917  26.501  28.828  1.00  0.00     0.012 A 
ATOM     40  C   UNL A   1      41.775  27.740  27.864  1.00  0.00     0.148 A 
ATOM     41  C   UNL A   1      39.961  25.595  27.769  1.00  0.00     0.002 A 
ATOM     42  C   UNL A   1      41.781  26.861  26.787  1.00  0.00     0.091 A 
ATOM     43  F   UNL A   1      42.656  28.747  27.957  1.00  0.00    -0.205 F 
ATOM     44  C   UNL A   1      40.887  25.780  26.745  1.00  0.00     0.022 A 
BRANCH  42  45
ATOM     45  S   UNL A   1      42.881  27.068  25.382  1.00  0.00     0.127 S 
ATOM     46  O   UNL A   1      42.272  28.208  24.697  1.00  0.00    -0.237 OA
ATOM     47  O   UNL A   1      44.161  27.360  26.030  1.00  0.00    -0.237 OA
ATOM     48  O   UNL A   1      42.846  25.806  24.656  1.00  0.00    -0.744 OA
ENDBRANCH  42  45
ENDBRANCH  24  38
BRANCH  25  49
ATOM     49  C   UNL A   1      39.784  33.763  36.667  1.00  0.00     0.023 A 
ATOM     50  C   UNL A   1      40.109  35.130  36.596  1.00  0.00     0.012 A 
ATOM     51  C   UNL A   1      39.168  33.258  37.830  1.00  0.00     0.148 A 
ATOM     52  C   UNL A   1      39.838  35.978  37.669  1.00  0.00     0.002 A 
ATOM     53  C   UNL A   1      38.849  34.119  38.871  1.00  0.00     0.091 A 
ATOM     54  F   UNL A   1      38.870  31.952  37.872  1.00  0.00    -0.205 F 
ATOM     55  C   UNL A   1      39.196  35.477  38.799  1.00  0.00     0.022 A 
BRANCH  53  56
ATOM     56  S   UNL A   1      37.900  33.596  40.303  1.00  0.00     0.127 S 
ATOM     57  O   UNL A   1      38.768  32.571  40.878  1.00  0.00    -0.237 OA
ATOM     58  O   UNL A   1      37.816  34.836  41.074  1.00  0.00    -0.237 OA
ATOM     59  O   UNL A   1      36.626  33.119  39.783  1.00  0.00    -0.744 OA
ENDBRANCH  53  56
ENDBRANCH  25  49
BRANCH  37  60
ATOM     60  C   UNL A   1      44.278  28.607  35.148  1.00  0.00     0.023 A 
ATOM     61  C   UNL A   1      45.573  29.124  34.954  1.00  0.00     0.012 A 
ATOM     62  C   UNL A   1      44.070  27.603  36.116  1.00  0.00     0.148 A 
ATOM     63  C   UNL A   1      46.647  28.639  35.701  1.00  0.00     0.002 A 
ATOM     64  C   UNL A   1      45.133  27.163  36.893  1.00  0.00     0.091 A 
ATOM     65  F   UNL A   1      42.830  27.112  36.269  1.00  0.00    -0.205 F 
ATOM     66  C   UNL A   1      46.424  27.672  36.680  1.00  0.00     0.022 A 
BRANCH  64  67
ATOM     67  S   UNL A   1      44.921  25.999  38.245  1.00  0.00     0.127 S 
ATOM     68  O   UNL A   1      44.544  24.780  37.532  1.00  0.00    -0.237 OA
ATOM     69  O   UNL A   1      46.259  25.971  38.838  1.00  0.00    -0.237 OA
ATOM     70  O   UNL A   1      43.888  26.559  39.104  1.00  0.00    -0.744 OA
ENDBRANCH  64  67
ENDBRANCH  37  60
ENDBRANCH  11  12
ENDBRANCH   4   6
ENDBRANCH   1   2
BRANCH   1  71
ATOM     71  C   UNL A   1      31.422  31.905  26.531  1.00  0.00     0.042 C 
BRANCH  71  72
ATOM     72  C   UNL A   1      31.495  30.429  26.167  1.00  0.00     0.118 C 
BRANCH  72  73
ATOM     73  N   UNL A   1      32.295  30.163  24.976  1.00  0.00    -0.352 N 
ATOM     74  C   UNL A   1      32.560  28.977  24.344  1.00  0.00     0.253 C 
ATOM     75  H   UNL A   1      32.706  30.956  24.563  1.00  0.00     0.163 HD
ATOM     76  O   UNL A   1      33.244  28.926  23.326  1.00  0.00    -0.269 OA
BRANCH  74  77
ATOM     77  C   UNL A   1      32.004  27.729  24.877  1.00  0.00     0.070 A 
ATOM     78  C   UNL A   1      32.708  27.059  25.888  1.00  0.00     0.019 A 
ATOM     79  C   UNL A   1      30.786  27.213  24.434  1.00  0.00     0.158 A 
ATOM     80  C   UNL A   1      32.227  25.852  26.378  1.00  0.00     0.042 A 
ATOM     81  N   UNL A   1      30.301  26.030  24.937  1.00  0.00    -0.231 NA
ATOM     82  C   UNL A   1      31.034  25.384  25.867  1.00  0.00     0.129 A 
ATOM     83  Cl  UNL A   1      30.370  23.898  26.398  1.00  0.00    -0.062 Cl
BRANCH  79  84
ATOM     84  C   UNL A   1      29.923  27.937  23.410  1.00  0.00     0.434 C 
ATOM     85  F   UNL A   1      28.731  27.299  23.197  1.00  0.00    -0.164 F 
ATOM     86  F   UNL A   1      29.588  29.200  23.806  1.00  0.00    -0.164 F 
ATOM     87  F   UNL A   1      30.466  28.054  22.166  1.00  0.00    -0.164 F 
ENDBRANCH  79  84
ENDBRANCH  74  77
ENDBRANCH  72  73
ENDBRANCH  71  72
ENDBRANCH   1  71
TORSDOF 14
ENDMDL
MODEL 3
REMARK VINA RESULT:     -10.2      4.337     10.922
REMARK SMILES O=C(NCCCNC(=O)c1ccc(Cl)nc1C(F)(F)F)c1ccc(-c2c3nc(c(-c4cccc(S(=O)(=O)[O-])c4F)c4ccc([nH]4)c(-c4cccc(S(=O)(=O)[O-])c4F)c4nc(c(-c5cccc(S(=O)(=O)[O-])c5F)c5ccc2[nH]5)C=C4)C=C3)cc1
REMARK SMILES IDX 4 1 3 2 1 3 2 4 21 6 22 7 83 8 23 9 82 10 24 11 25 12 26 13
REMARK SMILES IDX 76 14 27 15 81 16 75 17 77 18 28 19 80 20 74 21 73 22 29 24
REMARK SMILES IDX 61 25 41 26 60 27 42 28 45 29 59 30 78 31 43 32 44 33 58 35
REMARK SMILES IDX 79 36 46 37 30 38 31 39 39 40 32 41 34 42 40 43 33 44 35 45
REMARK SMILES IDX 36 46 37 47 38 48 62 49 63 50 71 51 64 52 66 53 72 54 65 55
REMARK SMILES IDX 67 56 68 57 69 58 70 59 47 60 48 61 56 62 49 63 51 64 57 65
REMARK SMILES IDX 50 66 52 67 53 68 54 69 55 70 5 71 6 72 7 73 8 74 9 76 10 77
REMARK SMILES IDX 11 78 16 79 12 80 15 81 13 82 14 83 17 84 18 85 19 86 20 87
REMARK H PARENT 3 5 77 23 45 34 7 75
REMARK Flexibility Score: inf
ROOT
ATOM      1  C   UNL A   1      40.952  21.345  26.969  1.00  0.00     0.118 C 
ENDROOT
BRANCH   1   2
ATOM      2  N   UNL A   1      39.680  21.560  26.293  1.00  0.00    -0.352 N 
ATOM      3  O   UNL A   1      37.744  22.557  25.763  1.00  0.00    -0.269 OA
ATOM      4  C   UNL A   1      38.879  22.674  26.218  1.00  0.00     0.251 C 
ATOM      5  H   UNL A   1      39.336  20.774  25.808  1.00  0.00     0.163 HD
BRANCH   4   6
ATOM      6  C   UNL A   1      39.358  23.989  26.698  1.00  0.00     0.039 A 
ATOM      7  C   UNL A   1      39.224  24.367  28.036  1.00  0.00     0.014 A 
ATOM      8  C   UNL A   1      39.996  24.845  25.796  1.00  0.00     0.014 A 
ATOM      9  C   UNL A   1      39.584  25.649  28.439  1.00  0.00     0.010 A 
ATOM     10  C   UNL A   1      40.440  26.100  26.222  1.00  0.00     0.010 A 
ATOM     11  C   UNL A   1      40.205  26.526  27.539  1.00  0.00    -0.014 A 
BRANCH  11  12
ATOM     12  C   UNL A   1      40.660  27.866  27.988  1.00  0.00     0.031 A 
ATOM     13  C   UNL A   1      42.123  28.200  28.047  1.00  0.00     0.074 A 
ATOM     14  C   UNL A   1      39.745  28.764  28.402  1.00  0.00     0.049 A 
ATOM     15  N   UNL A   1      42.706  29.278  28.503  1.00  0.00    -0.248 NA
ATOM     16  C   UNL A   1      43.057  27.183  27.535  1.00  0.00     0.031 C 
ATOM     17  C   UNL A   1      38.298  28.544  28.419  1.00  0.00     0.029 A 
ATOM     18  N   UNL A   1      39.897  30.026  28.921  1.00  0.00    -0.354 N 
ATOM     19  C   UNL A   1      44.071  29.053  28.384  1.00  0.00     0.074 A 
ATOM     20  C   UNL A   1      44.231  27.732  27.815  1.00  0.00     0.031 C 
ATOM     21  C   UNL A   1      37.695  29.625  28.935  1.00  0.00     0.029 A 
ATOM     22  C   UNL A   1      38.715  30.586  29.341  1.00  0.00     0.049 A 
ATOM     23  H   UNL A   1      40.767  30.484  28.985  1.00  0.00     0.167 HD
ATOM     24  C   UNL A   1      45.098  29.874  28.715  1.00  0.00     0.034 A 
ATOM     25  C   UNL A   1      38.474  31.724  30.020  1.00  0.00     0.034 A 
ATOM     26  C   UNL A   1      44.927  31.191  29.268  1.00  0.00     0.049 A 
ATOM     27  C   UNL A   1      39.624  32.617  30.384  1.00  0.00     0.074 A 
ATOM     28  C   UNL A   1      45.898  32.130  29.571  1.00  0.00     0.029 A 
ATOM     29  N   UNL A   1      43.707  31.751  29.621  1.00  0.00    -0.354 N 
ATOM     30  N   UNL A   1      40.903  32.441  30.158  1.00  0.00    -0.248 NA
ATOM     31  C   UNL A   1      39.301  33.878  31.065  1.00  0.00     0.031 C 
ATOM     32  C   UNL A   1      45.270  33.236  30.150  1.00  0.00     0.029 A 
ATOM     33  C   UNL A   1      43.902  33.012  30.158  1.00  0.00     0.049 A 
ATOM     34  H   UNL A   1      42.832  31.315  29.508  1.00  0.00     0.167 HD
ATOM     35  C   UNL A   1      41.535  33.583  30.632  1.00  0.00     0.074 A 
ATOM     36  C   UNL A   1      40.496  34.447  31.157  1.00  0.00     0.031 C 
ATOM     37  C   UNL A   1      42.857  33.885  30.631  1.00  0.00     0.034 A 
BRANCH  24  38
ATOM     38  C   UNL A   1      46.499  29.368  28.487  1.00  0.00     0.023 A 
ATOM     39  C   UNL A   1      47.195  29.716  27.311  1.00  0.00     0.012 A 
ATOM     40  C   UNL A   1      47.143  28.572  29.456  1.00  0.00     0.148 A 
ATOM     41  C   UNL A   1      48.484  29.239  27.078  1.00  0.00     0.002 A 
ATOM     42  C   UNL A   1      48.447  28.140  29.239  1.00  0.00     0.091 A 
ATOM     43  F   UNL A   1      46.464  28.233  30.562  1.00  0.00    -0.205 F 
ATOM     44  C   UNL A   1      49.113  28.459  28.045  1.00  0.00     0.022 A 
BRANCH  42  45
ATOM     45  S   UNL A   1      49.366  27.201  30.464  1.00  0.00     0.127 S 
ATOM     46  O   UNL A   1      48.470  26.071  30.701  1.00  0.00    -0.237 OA
ATOM     47  O   UNL A   1      50.593  26.864  29.739  1.00  0.00    -0.237 OA
ATOM     48  O   UNL A   1      49.559  28.099  31.594  1.00  0.00    -0.744 OA
ENDBRANCH  42  45
ENDBRANCH  24  38
BRANCH  25  49
ATOM     49  C   UNL A   1      37.070  32.074  30.373  1.00  0.00     0.023 A 
ATOM     50  C   UNL A   1      36.586  31.789  31.664  1.00  0.00     0.012 A 
ATOM     51  C   UNL A   1      36.246  32.763  29.462  1.00  0.00     0.148 A 
ATOM     52  C   UNL A   1      35.297  32.172  32.035  1.00  0.00     0.002 A 
ATOM     53  C   UNL A   1      34.987  33.191  29.857  1.00  0.00     0.091 A 
ATOM     54  F   UNL A   1      36.732  33.021  28.239  1.00  0.00    -0.205 F 
ATOM     55  C   UNL A   1      34.503  32.884  31.139  1.00  0.00     0.022 A 
BRANCH  53  56
ATOM     56  S   UNL A   1      33.950  34.232  28.824  1.00  0.00     0.127 S 
ATOM     57  O   UNL A   1      33.536  33.298  27.780  1.00  0.00    -0.237 OA
ATOM     58  O   UNL A   1      32.894  34.621  29.758  1.00  0.00    -0.237 OA
ATOM     59  O   UNL A   1      34.801  35.328  28.383  1.00  0.00    -0.744 OA
ENDBRANCH  53  56
ENDBRANCH  25  49
BRANCH  37  60
ATOM     60  C   UNL A   1      43.274  35.234  31.153  1.00  0.00     0.023 A 
ATOM     61  C   UNL A   1      43.642  35.393  32.503  1.00  0.00     0.012 A 
ATOM     62  C   UNL A   1      43.409  36.321  30.265  1.00  0.00     0.148 A 
ATOM     63  C   UNL A   1      44.125  36.618  32.964  1.00  0.00     0.002 A 
ATOM     64  C   UNL A   1      43.940  37.521  30.718  1.00  0.00     0.091 A 
ATOM     65  F   UNL A   1      43.032  36.151  28.988  1.00  0.00    -0.205 F 
ATOM     66  C   UNL A   1      44.289  37.675  32.069  1.00  0.00     0.022 A 
BRANCH  64  67
ATOM     67  S   UNL A   1      44.284  38.899  29.619  1.00  0.00     0.127 S 
ATOM     68  O   UNL A   1      42.938  39.284  29.195  1.00  0.00    -0.237 OA
ATOM     69  O   UNL A   1      44.936  39.853  30.518  1.00  0.00    -0.237 OA
ATOM     70  O   UNL A   1      45.139  38.374  28.565  1.00  0.00    -0.744 OA
ENDBRANCH  64  67
ENDBRANCH  37  60
ENDBRANCH  11  12
ENDBRANCH   4   6
ENDBRANCH   1   2
BRANCH   1  71
ATOM     71  C   UNL A   1      41.868  20.396  26.210  1.00  0.00     0.042 C 
BRANCH  71  72
ATOM     72  C   UNL A   1      43.229  20.981  25.861  1.00  0.00     0.118 C 
BRANCH  72  73
ATOM     73  N   UNL A   1      43.149  22.221  25.096  1.00  0.00    -0.352 N 
ATOM     74  C   UNL A   1      43.422  23.507  25.478  1.00  0.00     0.253 C 
ATOM     75  H   UNL A   1      42.854  22.117  24.162  1.00  0.00     0.163 HD
ATOM     76  O   UNL A   1      43.323  24.449  24.697  1.00  0.00    -0.269 OA
BRANCH  74  77
ATOM     77  C   UNL A   1      43.862  23.780  26.851  1.00  0.00     0.070 A 
ATOM     78  C   UNL A   1      42.906  23.766  27.877  1.00  0.00     0.019 A 
ATOM     79  C   UNL A   1      45.201  24.015  27.165  1.00  0.00     0.158 A 
ATOM     80  C   UNL A   1      43.289  24.065  29.178  1.00  0.00     0.042 A 
ATOM     81  N   UNL A   1      45.580  24.289  28.457  1.00  0.00    -0.231 NA
ATOM     82  C   UNL A   1      44.624  24.324  29.408  1.00  0.00     0.129 A 
ATOM     83  Cl  UNL A   1      45.187  24.719  30.976  1.00  0.00    -0.062 Cl
BRANCH  79  84
ATOM     84  C   UNL A   1      46.304  23.950  26.118  1.00  0.00     0.434 C 
ATOM     85  F   UNL A   1      46.360  22.728  25.504  1.00  0.00    -0.164 F 
ATOM     86  F   UNL A   1      46.122  24.850  25.108  1.00  0.00    -0.164 F 
ATOM     87  F   UNL A   1      47.568  24.147  26.587  1.00  0.00    -0.164 F 
ENDBRANCH  79  84
ENDBRANCH  74  77
ENDBRANCH  72  73
ENDBRANCH  71  72
ENDBRANCH   1  71
TORSDOF 14
ENDMDL
