MODEL 1
REMARK VINA RESULT:     -12.3      0.000      0.000
REMARK SMILES O=C(C[C@@H](Br)C(=O)c1ccc2c(c1)CCC2)NCCCNC(=O)c1ccc(-c2c3nc(c(-c4cccc(S(=O)(=O)[O-])c4F)c4ccc([nH]4)c(-c4cccc(S(=O)(=O)[O-])c4F)c4nc(c(-c5cccc(S(=O)(=O)[O-])c5F)c5ccc2[nH]5)C=C4)C=C3)cc1
REMARK SMILES IDX 19 1 18 2 17 3 1 4 2 5 3 7 4 8 5 9 6 10 7 11 8 12 9 13 13 14
REMARK SMILES IDX 10 15 12 16 11 17 14 18 16 19 15 20 20 21 21 22 22 23 23 25
REMARK SMILES IDX 24 26 25 27 86 28 26 29 85 30 27 31 28 32 29 33 79 34 30 35
REMARK SMILES IDX 84 36 78 37 80 38 31 39 83 40 77 41 76 42 32 44 64 45 44 46
REMARK SMILES IDX 63 47 45 48 48 49 62 50 81 51 46 52 47 53 61 55 82 56 49 57
REMARK SMILES IDX 33 58 34 59 42 60 35 61 37 62 43 63 36 64 38 65 39 66 40 67
REMARK SMILES IDX 41 68 65 69 66 70 74 71 67 72 69 73 75 74 68 75 70 76 71 77
REMARK SMILES IDX 72 78 73 79 50 80 51 81 59 82 52 83 54 84 60 85 53 86 55 87
REMARK SMILES IDX 56 88 57 89 58 90
REMARK H PARENT 17 6 21 24 80 43 48 54
REMARK Flexibility Score: inf
ROOT
ATOM      1  C   UNL A   1      36.042  21.358  25.751  1.00  0.00     0.042 C 
ENDROOT
BRANCH   1   2
ATOM      2  C   UNL A   1      34.850  20.759  25.007  1.00  0.00     0.117 C 
BRANCH   2   3
ATOM      3  N   UNL A   1      33.616  21.432  25.354  1.00  0.00    -0.356 N 
ATOM      4  O   UNL A   1      32.152  19.730  24.844  1.00  0.00    -0.275 OA
ATOM      5  C   UNL A   1      32.368  20.888  25.179  1.00  0.00     0.221 C 
ATOM      6  H   UNL A   1      33.676  22.336  25.739  1.00  0.00     0.163 HD
BRANCH   5   7
ATOM      7  C   UNL A   1      31.256  21.892  25.376  1.00  0.00     0.123 C 
BRANCH   7   8
ATOM      8  C   UNL A   1      31.664  23.314  25.051  1.00  0.00     0.138 C 
ATOM      9  Br  UNL A   1      30.652  24.027  23.527  1.00  0.00    -0.080 Br
BRANCH   8  10
ATOM     10  C   UNL A   1      31.492  24.311  26.192  1.00  0.00     0.176 C 
ATOM     11  O   UNL A   1      30.805  24.041  27.180  1.00  0.00    -0.293 OA
BRANCH  10  12
ATOM     12  C   UNL A   1      32.225  25.610  26.187  1.00  0.00     0.019 A 
ATOM     13  C   UNL A   1      33.531  25.731  25.681  1.00  0.00     0.012 A 
ATOM     14  C   UNL A   1      31.562  26.733  26.705  1.00  0.00     0.015 A 
ATOM     15  C   UNL A   1      34.217  26.946  25.749  1.00  0.00     0.005 A 
ATOM     16  C   UNL A   1      32.240  27.942  26.733  1.00  0.00    -0.044 A 
ATOM     17  C   UNL A   1      33.559  28.040  26.276  1.00  0.00    -0.045 A 
ATOM     18  C   UNL A   1      31.762  29.263  27.250  1.00  0.00     0.036 C 
ATOM     19  C   UNL A   1      34.090  29.425  26.471  1.00  0.00     0.036 C 
ATOM     20  C   UNL A   1      32.783  30.217  26.610  1.00  0.00     0.010 C 
ENDBRANCH  10  12
ENDBRANCH   8  10
ENDBRANCH   7   8
ENDBRANCH   5   7
ENDBRANCH   2   3
ENDBRANCH   1   2
BRANCH   1  21
ATOM     21  C   UNL A   1      37.352  21.384  24.961  1.00  0.00     0.118 C 
BRANCH  21  22
ATOM     22  N   UNL A   1      38.304  20.370  25.390  1.00  0.00    -0.352 N 
ATOM     23  C   UNL A   1      39.506  20.507  26.044  1.00  0.00     0.251 C 
ATOM     24  H   UNL A   1      38.049  19.444  25.180  1.00  0.00     0.163 HD
ATOM     25  O   UNL A   1      40.228  19.523  26.190  1.00  0.00    -0.269 OA
BRANCH  23  26
ATOM     26  C   UNL A   1      39.950  21.827  26.545  1.00  0.00     0.039 A 
ATOM     27  C   UNL A   1      40.927  21.870  27.544  1.00  0.00     0.014 A 
ATOM     28  C   UNL A   1      39.408  23.015  26.048  1.00  0.00     0.014 A 
ATOM     29  C   UNL A   1      41.420  23.102  27.983  1.00  0.00     0.010 A 
ATOM     30  C   UNL A   1      39.948  24.242  26.440  1.00  0.00     0.010 A 
ATOM     31  C   UNL A   1      40.969  24.298  27.402  1.00  0.00    -0.014 A 
BRANCH  31  32
ATOM     32  C   UNL A   1      41.593  25.604  27.741  1.00  0.00     0.031 A 
ATOM     33  C   UNL A   1      40.818  26.665  28.473  1.00  0.00     0.074 A 
ATOM     34  C   UNL A   1      42.839  25.874  27.298  1.00  0.00     0.049 A 
ATOM     35  N   UNL A   1      41.177  27.885  28.778  1.00  0.00    -0.248 NA
ATOM     36  C   UNL A   1      39.453  26.317  28.899  1.00  0.00     0.031 C 
ATOM     37  C   UNL A   1      43.675  24.958  26.517  1.00  0.00     0.029 A 
ATOM     38  N   UNL A   1      43.607  27.007  27.412  1.00  0.00    -0.354 N 
ATOM     39  C   UNL A   1      40.077  28.463  29.401  1.00  0.00     0.074 A 
ATOM     40  C   UNL A   1      39.027  27.466  29.408  1.00  0.00     0.031 C 
ATOM     41  C   UNL A   1      44.833  25.565  26.218  1.00  0.00     0.029 A 
ATOM     42  C   UNL A   1      44.812  26.923  26.751  1.00  0.00     0.049 A 
ATOM     43  H   UNL A   1      43.324  27.802  27.916  1.00  0.00     0.167 HD
ATOM     44  C   UNL A   1      39.957  29.702  29.938  1.00  0.00     0.034 A 
ATOM     45  C   UNL A   1      45.783  27.841  26.573  1.00  0.00     0.034 A 
ATOM     46  C   UNL A   1      41.011  30.681  29.958  1.00  0.00     0.049 A 
ATOM     47  C   UNL A   1      45.628  29.204  27.190  1.00  0.00     0.074 A 
ATOM     48  C   UNL A   1      41.012  31.930  30.557  1.00  0.00     0.029 A 
ATOM     49  N   UNL A   1      42.243  30.538  29.340  1.00  0.00    -0.354 N 
ATOM     50  N   UNL A   1      44.642  29.675  27.914  1.00  0.00    -0.248 NA
ATOM     51  C   UNL A   1      46.733  30.153  26.990  1.00  0.00     0.031 C 
ATOM     52  C   UNL A   1      42.232  32.552  30.273  1.00  0.00     0.029 A 
ATOM     53  C   UNL A   1      43.004  31.680  29.525  1.00  0.00     0.049 A 
ATOM     54  H   UNL A   1      42.535  29.739  28.843  1.00  0.00     0.167 HD
ATOM     55  C   UNL A   1      45.021  30.963  28.280  1.00  0.00     0.074 A 
ATOM     56  C   UNL A   1      46.338  31.186  27.720  1.00  0.00     0.031 C 
ATOM     57  C   UNL A   1      44.332  31.881  29.001  1.00  0.00     0.034 A 
BRANCH  44  58
ATOM     58  C   UNL A   1      38.647  30.059  30.592  1.00  0.00     0.023 A 
ATOM     59  C   UNL A   1      38.352  29.561  31.878  1.00  0.00     0.012 A 
ATOM     60  C   UNL A   1      37.741  30.939  29.968  1.00  0.00     0.148 A 
ATOM     61  C   UNL A   1      37.162  29.905  32.517  1.00  0.00     0.002 A 
ATOM     62  C   UNL A   1      36.578  31.313  30.631  1.00  0.00     0.091 A 
ATOM     63  F   UNL A   1      38.030  31.389  28.739  1.00  0.00    -0.205 F 
ATOM     64  C   UNL A   1      36.280  30.788  31.899  1.00  0.00     0.022 A 
BRANCH  62  65
ATOM     65  S   UNL A   1      35.416  32.505  29.954  1.00  0.00     0.127 S 
ATOM     66  O   UNL A   1      34.403  32.558  31.007  1.00  0.00    -0.237 OA
ATOM     67  O   UNL A   1      36.241  33.708  29.841  1.00  0.00    -0.237 OA
ATOM     68  O   UNL A   1      34.968  31.954  28.684  1.00  0.00    -0.744 OA
ENDBRANCH  62  65
ENDBRANCH  44  58
BRANCH  45  69
ATOM     69  C   UNL A   1      47.012  27.485  25.810  1.00  0.00     0.023 A 
ATOM     70  C   UNL A   1      48.067  26.818  26.464  1.00  0.00     0.012 A 
ATOM     71  C   UNL A   1      47.134  27.783  24.438  1.00  0.00     0.148 A 
ATOM     72  C   UNL A   1      49.232  26.484  25.774  1.00  0.00     0.002 A 
ATOM     73  C   UNL A   1      48.274  27.395  23.743  1.00  0.00     0.091 A 
ATOM     74  F   UNL A   1      46.125  28.428  23.837  1.00  0.00    -0.205 F 
ATOM     75  C   UNL A   1      49.331  26.762  24.413  1.00  0.00     0.022 A 
BRANCH  73  76
ATOM     76  S   UNL A   1      48.432  27.593  21.966  1.00  0.00     0.127 S 
ATOM     77  O   UNL A   1      47.153  28.204  21.617  1.00  0.00    -0.237 OA
ATOM     78  O   UNL A   1      49.590  28.482  21.864  1.00  0.00    -0.237 OA
ATOM     79  O   UNL A   1      48.658  26.253  21.439  1.00  0.00    -0.744 OA
ENDBRANCH  73  76
ENDBRANCH  45  69
BRANCH  57  80
ATOM     80  C   UNL A   1      44.994  33.211  29.252  1.00  0.00     0.023 A 
ATOM     81  C   UNL A   1      45.794  33.390  30.398  1.00  0.00     0.012 A 
ATOM     82  C   UNL A   1      44.879  34.263  28.320  1.00  0.00     0.148 A 
ATOM     83  C   UNL A   1      46.439  34.605  30.632  1.00  0.00     0.002 A 
ATOM     84  C   UNL A   1      45.566  35.452  28.533  1.00  0.00     0.091 A 
ATOM     85  F   UNL A   1      44.099  34.080  27.243  1.00  0.00    -0.205 F 
ATOM     86  C   UNL A   1      46.335  35.630  29.694  1.00  0.00     0.022 A 
BRANCH  84  87
ATOM     87  S   UNL A   1      45.568  36.793  27.338  1.00  0.00     0.127 S 
ATOM     88  O   UNL A   1      46.524  37.724  27.936  1.00  0.00    -0.237 OA
ATOM     89  O   UNL A   1      46.044  36.126  26.125  1.00  0.00    -0.237 OA
ATOM     90  O   UNL A   1      44.194  37.270  27.265  1.00  0.00    -0.744 OA
ENDBRANCH  84  87
ENDBRANCH  57  80
ENDBRANCH  31  32
ENDBRANCH  23  26
ENDBRANCH  21  22
ENDBRANCH   1  21
TORSDOF 16
ENDMDL
MODEL 2
REMARK VINA RESULT:     -12.0      5.448      7.968
REMARK SMILES O=C(C[C@@H](Br)C(=O)c1ccc2c(c1)CCC2)NCCCNC(=O)c1ccc(-c2c3nc(c(-c4cccc(S(=O)(=O)[O-])c4F)c4ccc([nH]4)c(-c4cccc(S(=O)(=O)[O-])c4F)c4nc(c(-c5cccc(S(=O)(=O)[O-])c5F)c5ccc2[nH]5)C=C4)C=C3)cc1
REMARK SMILES IDX 19 1 18 2 17 3 1 4 2 5 3 7 4 8 5 9 6 10 7 11 8 12 9 13 13 14
REMARK SMILES IDX 10 15 12 16 11 17 14 18 16 19 15 20 20 21 21 22 22 23 23 25
REMARK SMILES IDX 24 26 25 27 86 28 26 29 85 30 27 31 28 32 29 33 79 34 30 35
REMARK SMILES IDX 84 36 78 37 80 38 31 39 83 40 77 41 76 42 32 44 64 45 44 46
REMARK SMILES IDX 63 47 45 48 48 49 62 50 81 51 46 52 47 53 61 55 82 56 49 57
REMARK SMILES IDX 33 58 34 59 42 60 35 61 37 62 43 63 36 64 38 65 39 66 40 67
REMARK SMILES IDX 41 68 65 69 66 70 74 71 67 72 69 73 75 74 68 75 70 76 71 77
REMARK SMILES IDX 72 78 73 79 50 80 51 81 59 82 52 83 54 84 60 85 53 86 55 87
REMARK SMILES IDX 56 88 57 89 58 90
REMARK H PARENT 17 6 21 24 80 43 48 54
REMARK Flexibility Score: inf
ROOT
ATOM      1  C   UNL A   1      31.385  29.152  25.972  1.00  0.00     0.042 C 
ENDROOT
BRANCH   1   2
ATOM      2  C   UNL A   1      31.592  28.173  27.126  1.00  0.00     0.117 C 
BRANCH   2   3
ATOM      3  N   UNL A   1      31.828  26.829  26.643  1.00  0.00    -0.356 N 
ATOM      4  O   UNL A   1      34.065  27.044  26.138  1.00  0.00    -0.275 OA
ATOM      5  C   UNL A   1      33.025  26.397  26.125  1.00  0.00     0.221 C 
ATOM      6  H   UNL A   1      31.085  26.185  26.687  1.00  0.00     0.163 HD
BRANCH   5   7
ATOM      7  C   UNL A   1      32.923  25.044  25.461  1.00  0.00     0.123 C 
BRANCH   7   8
ATOM      8  C   UNL A   1      32.942  25.113  23.948  1.00  0.00     0.138 C 
ATOM      9  Br  UNL A   1      34.093  23.723  23.173  1.00  0.00    -0.080 Br
BRANCH   8  10
ATOM     10  C   UNL A   1      31.578  24.970  23.279  1.00  0.00     0.176 C 
ATOM     11  O   UNL A   1      31.213  23.897  22.793  1.00  0.00    -0.293 OA
BRANCH  10  12
ATOM     12  C   UNL A   1      30.607  26.103  23.276  1.00  0.00     0.019 A 
ATOM     13  C   UNL A   1      29.339  26.004  23.874  1.00  0.00     0.012 A 
ATOM     14  C   UNL A   1      31.004  27.296  22.654  1.00  0.00     0.015 A 
ATOM     15  C   UNL A   1      28.426  27.060  23.798  1.00  0.00     0.005 A 
ATOM     16  C   UNL A   1      30.103  28.350  22.618  1.00  0.00    -0.044 A 
ATOM     17  C   UNL A   1      28.824  28.223  23.169  1.00  0.00    -0.045 A 
ATOM     18  C   UNL A   1      30.280  29.702  22.001  1.00  0.00     0.036 C 
ATOM     19  C   UNL A   1      28.021  29.466  22.946  1.00  0.00     0.036 C 
ATOM     20  C   UNL A   1      29.137  30.482  22.669  1.00  0.00     0.010 C 
ENDBRANCH  10  12
ENDBRANCH   8  10
ENDBRANCH   7   8
ENDBRANCH   5   7
ENDBRANCH   2   3
ENDBRANCH   1   2
BRANCH   1  21
ATOM     21  C   UNL A   1      32.558  30.098  25.706  1.00  0.00     0.118 C 
BRANCH  21  22
ATOM     22  N   UNL A   1      32.356  31.434  26.246  1.00  0.00    -0.352 N 
ATOM     23  C   UNL A   1      33.063  32.113  27.211  1.00  0.00     0.251 C 
ATOM     24  H   UNL A   1      31.597  31.929  25.862  1.00  0.00     0.163 HD
ATOM     25  O   UNL A   1      32.637  33.189  27.625  1.00  0.00    -0.269 OA
BRANCH  23  26
ATOM     26  C   UNL A   1      34.309  31.548  27.776  1.00  0.00     0.039 A 
ATOM     27  C   UNL A   1      35.371  32.413  28.052  1.00  0.00     0.014 A 
ATOM     28  C   UNL A   1      34.441  30.179  28.025  1.00  0.00     0.014 A 
ATOM     29  C   UNL A   1      36.532  31.920  28.656  1.00  0.00     0.010 A 
ATOM     30  C   UNL A   1      35.573  29.700  28.687  1.00  0.00     0.010 A 
ATOM     31  C   UNL A   1      36.625  30.568  29.021  1.00  0.00    -0.014 A 
BRANCH  31  32
ATOM     32  C   UNL A   1      37.782  30.059  29.805  1.00  0.00     0.031 A 
ATOM     33  C   UNL A   1      38.028  30.528  31.213  1.00  0.00     0.074 A 
ATOM     34  C   UNL A   1      38.674  29.241  29.209  1.00  0.00     0.049 A 
ATOM     35  N   UNL A   1      39.026  30.251  32.011  1.00  0.00    -0.248 NA
ATOM     36  C   UNL A   1      37.034  31.446  31.792  1.00  0.00     0.031 C 
ATOM     37  C   UNL A   1      38.590  28.764  27.826  1.00  0.00     0.029 A 
ATOM     38  N   UNL A   1      39.842  28.691  29.677  1.00  0.00    -0.354 N 
ATOM     39  C   UNL A   1      38.803  30.981  33.172  1.00  0.00     0.074 A 
ATOM     40  C   UNL A   1      37.583  31.735  32.964  1.00  0.00     0.031 C 
ATOM     41  C   UNL A   1      39.660  28.002  27.557  1.00  0.00     0.029 A 
ATOM     42  C   UNL A   1      40.526  27.961  28.731  1.00  0.00     0.049 A 
ATOM     43  H   UNL A   1      40.161  28.808  30.600  1.00  0.00     0.167 HD
ATOM     44  C   UNL A   1      39.530  31.007  34.315  1.00  0.00     0.034 A 
ATOM     45  C   UNL A   1      41.724  27.347  28.790  1.00  0.00     0.034 A 
ATOM     46  C   UNL A   1      40.725  30.235  34.531  1.00  0.00     0.049 A 
ATOM     47  C   UNL A   1      42.505  27.383  30.075  1.00  0.00     0.074 A 
ATOM     48  C   UNL A   1      41.481  30.127  35.687  1.00  0.00     0.029 A 
ATOM     49  N   UNL A   1      41.351  29.452  33.575  1.00  0.00    -0.354 N 
ATOM     50  N   UNL A   1      42.194  27.951  31.215  1.00  0.00    -0.248 NA
ATOM     51  C   UNL A   1      43.791  26.669  30.091  1.00  0.00     0.031 C 
ATOM     52  C   UNL A   1      42.581  29.307  35.418  1.00  0.00     0.029 A 
ATOM     53  C   UNL A   1      42.494  28.876  34.104  1.00  0.00     0.049 A 
ATOM     54  H   UNL A   1      41.030  29.324  32.652  1.00  0.00     0.167 HD
ATOM     55  C   UNL A   1      43.228  27.636  32.090  1.00  0.00     0.074 A 
ATOM     56  C   UNL A   1      44.161  26.808  31.356  1.00  0.00     0.031 C 
ATOM     57  C   UNL A   1      43.397  28.016  33.381  1.00  0.00     0.034 A 
BRANCH  44  58
ATOM     58  C   UNL A   1      39.032  31.871  35.445  1.00  0.00     0.023 A 
ATOM     59  C   UNL A   1      39.208  33.268  35.384  1.00  0.00     0.012 A 
ATOM     60  C   UNL A   1      38.331  31.310  36.531  1.00  0.00     0.148 A 
ATOM     61  C   UNL A   1      38.726  34.091  36.401  1.00  0.00     0.002 A 
ATOM     62  C   UNL A   1      37.814  32.141  37.519  1.00  0.00     0.091 A 
ATOM     63  F   UNL A   1      38.188  29.979  36.582  1.00  0.00    -0.205 F 
ATOM     64  C   UNL A   1      38.020  33.529  37.462  1.00  0.00     0.022 A 
BRANCH  62  65
ATOM     65  S   UNL A   1      36.824  31.523  38.885  1.00  0.00     0.127 S 
ATOM     66  O   UNL A   1      37.777  31.590  39.992  1.00  0.00    -0.237 OA
ATOM     67  O   UNL A   1      35.743  32.508  38.952  1.00  0.00    -0.237 OA
ATOM     68  O   UNL A   1      36.403  30.184  38.504  1.00  0.00    -0.744 OA
ENDBRANCH  62  65
ENDBRANCH  44  58
BRANCH  45  69
ATOM     69  C   UNL A   1      42.240  26.607  27.605  1.00  0.00     0.023 A 
ATOM     70  C   UNL A   1      43.020  27.285  26.648  1.00  0.00     0.012 A 
ATOM     71  C   UNL A   1      41.982  25.232  27.431  1.00  0.00     0.148 A 
ATOM     72  C   UNL A   1      43.506  26.618  25.524  1.00  0.00     0.002 A 
ATOM     73  C   UNL A   1      42.519  24.560  26.339  1.00  0.00     0.091 A 
ATOM     74  F   UNL A   1      41.229  24.608  28.345  1.00  0.00    -0.205 F 
ATOM     75  C   UNL A   1      43.265  25.254  25.375  1.00  0.00     0.022 A 
BRANCH  73  76
ATOM     76  S   UNL A   1      42.371  22.782  26.136  1.00  0.00     0.127 S 
ATOM     77  O   UNL A   1      40.922  22.600  26.129  1.00  0.00    -0.237 OA
ATOM     78  O   UNL A   1      43.026  22.572  24.844  1.00  0.00    -0.237 OA
ATOM     79  O   UNL A   1      43.078  22.197  27.268  1.00  0.00    -0.744 OA
ENDBRANCH  73  76
ENDBRANCH  45  69
BRANCH  57  80
ATOM     80  C   UNL A   1      44.625  27.521  34.100  1.00  0.00     0.023 A 
ATOM     81  C   UNL A   1      45.798  28.303  34.103  1.00  0.00     0.012 A 
ATOM     82  C   UNL A   1      44.598  26.315  34.830  1.00  0.00     0.148 A 
ATOM     83  C   UNL A   1      46.935  27.875  34.788  1.00  0.00     0.002 A 
ATOM     84  C   UNL A   1      45.717  25.921  35.553  1.00  0.00     0.091 A 
ATOM     85  F   UNL A   1      43.478  25.577  34.801  1.00  0.00    -0.205 F 
ATOM     86  C   UNL A   1      46.891  26.692  35.522  1.00  0.00     0.022 A 
BRANCH  84  87
ATOM     87  S   UNL A   1      45.725  24.462  36.602  1.00  0.00     0.127 S 
ATOM     88  O   UNL A   1      47.087  24.484  37.132  1.00  0.00    -0.237 OA
ATOM     89  O   UNL A   1      44.684  24.780  37.580  1.00  0.00    -0.237 OA
ATOM     90  O   UNL A   1      45.412  23.338  35.730  1.00  0.00    -0.744 OA
ENDBRANCH  84  87
ENDBRANCH  57  80
ENDBRANCH  31  32
ENDBRANCH  23  26
ENDBRANCH  21  22
ENDBRANCH   1  21
TORSDOF 16
ENDMDL
MODEL 3
REMARK VINA RESULT:     -12.0      1.884      2.308
REMARK SMILES O=C(C[C@@H](Br)C(=O)c1ccc2c(c1)CCC2)NCCCNC(=O)c1ccc(-c2c3nc(c(-c4cccc(S(=O)(=O)[O-])c4F)c4ccc([nH]4)c(-c4cccc(S(=O)(=O)[O-])c4F)c4nc(c(-c5cccc(S(=O)(=O)[O-])c5F)c5ccc2[nH]5)C=C4)C=C3)cc1
REMARK SMILES IDX 19 1 18 2 17 3 1 4 2 5 3 7 4 8 5 9 6 10 7 11 8 12 9 13 13 14
REMARK SMILES IDX 10 15 12 16 11 17 14 18 16 19 15 20 20 21 21 22 22 23 23 25
REMARK SMILES IDX 24 26 25 27 86 28 26 29 85 30 27 31 28 32 29 33 79 34 30 35
REMARK SMILES IDX 84 36 78 37 80 38 31 39 83 40 77 41 76 42 32 44 64 45 44 46
REMARK SMILES IDX 63 47 45 48 48 49 62 50 81 51 46 52 47 53 61 55 82 56 49 57
REMARK SMILES IDX 33 58 34 59 42 60 35 61 37 62 43 63 36 64 38 65 39 66 40 67
REMARK SMILES IDX 41 68 65 69 66 70 74 71 67 72 69 73 75 74 68 75 70 76 71 77
REMARK SMILES IDX 72 78 73 79 50 80 51 81 59 82 52 83 54 84 60 85 53 86 55 87
REMARK SMILES IDX 56 88 57 89 58 90
REMARK H PARENT 17 6 21 24 80 43 48 54
REMARK Flexibility Score: inf
ROOT
ATOM      1  C   UNL A   1      35.394  21.527  26.108  1.00  0.00     0.042 C 
ENDROOT
BRANCH   1   2
ATOM      2  C   UNL A   1      34.109  22.037  25.458  1.00  0.00     0.117 C 
BRANCH   2   3
ATOM      3  N   UNL A   1      33.841  23.412  25.825  1.00  0.00    -0.356 N 
ATOM      4  O   UNL A   1      33.851  24.329  23.712  1.00  0.00    -0.275 OA
ATOM      5  C   UNL A   1      33.803  24.453  24.930  1.00  0.00     0.221 C 
ATOM      6  H   UNL A   1      33.676  23.613  26.775  1.00  0.00     0.163 HD
BRANCH   5   7
ATOM      7  C   UNL A   1      33.765  25.805  25.603  1.00  0.00     0.123 C 
BRANCH   7   8
ATOM      8  C   UNL A   1      32.428  26.504  25.473  1.00  0.00     0.138 C 
ATOM      9  Br  UNL A   1      31.955  27.474  27.115  1.00  0.00    -0.080 Br
BRANCH   8  10
ATOM     10  C   UNL A   1      32.335  27.512  24.332  1.00  0.00     0.176 C 
ATOM     11  O   UNL A   1      33.325  27.816  23.664  1.00  0.00    -0.293 OA
BRANCH  10  12
ATOM     12  C   UNL A   1      31.019  28.092  23.931  1.00  0.00     0.019 A 
ATOM     13  C   UNL A   1      29.975  27.299  23.424  1.00  0.00     0.012 A 
ATOM     14  C   UNL A   1      30.846  29.475  24.084  1.00  0.00     0.015 A 
ATOM     15  C   UNL A   1      28.778  27.879  22.997  1.00  0.00     0.005 A 
ATOM     16  C   UNL A   1      29.639  30.034  23.691  1.00  0.00    -0.044 A 
ATOM     17  C   UNL A   1      28.625  29.244  23.138  1.00  0.00    -0.045 A 
ATOM     18  C   UNL A   1      29.223  31.472  23.733  1.00  0.00     0.036 C 
ATOM     19  C   UNL A   1      27.454  30.084  22.735  1.00  0.00     0.036 C 
ATOM     20  C   UNL A   1      27.700  31.342  23.577  1.00  0.00     0.010 C 
ENDBRANCH  10  12
ENDBRANCH   8  10
ENDBRANCH   7   8
ENDBRANCH   5   7
ENDBRANCH   2   3
ENDBRANCH   1   2
BRANCH   1  21
ATOM     21  C   UNL A   1      36.674  21.800  25.315  1.00  0.00     0.118 C 
BRANCH  21  22
ATOM     22  N   UNL A   1      37.678  20.757  25.465  1.00  0.00    -0.352 N 
ATOM     23  C   UNL A   1      38.975  20.838  25.916  1.00  0.00     0.251 C 
ATOM     24  H   UNL A   1      37.385  19.856  25.203  1.00  0.00     0.163 HD
ATOM     25  O   UNL A   1      39.705  19.853  25.831  1.00  0.00    -0.269 OA
BRANCH  23  26
ATOM     26  C   UNL A   1      39.506  22.102  26.473  1.00  0.00     0.039 A 
ATOM     27  C   UNL A   1      40.549  22.039  27.401  1.00  0.00     0.014 A 
ATOM     28  C   UNL A   1      38.981  23.342  26.098  1.00  0.00     0.014 A 
ATOM     29  C   UNL A   1      41.122  23.218  27.887  1.00  0.00     0.010 A 
ATOM     30  C   UNL A   1      39.596  24.517  26.533  1.00  0.00     0.010 A 
ATOM     31  C   UNL A   1      40.682  24.468  27.422  1.00  0.00    -0.014 A 
BRANCH  31  32
ATOM     32  C   UNL A   1      41.381  25.723  27.803  1.00  0.00     0.031 A 
ATOM     33  C   UNL A   1      40.663  26.809  28.557  1.00  0.00     0.074 A 
ATOM     34  C   UNL A   1      42.646  25.927  27.381  1.00  0.00     0.049 A 
ATOM     35  N   UNL A   1      41.093  27.996  28.900  1.00  0.00    -0.248 NA
ATOM     36  C   UNL A   1      39.274  26.536  28.959  1.00  0.00     0.031 C 
ATOM     37  C   UNL A   1      43.434  24.984  26.584  1.00  0.00     0.029 A 
ATOM     38  N   UNL A   1      43.482  27.007  27.535  1.00  0.00    -0.354 N 
ATOM     39  C   UNL A   1      40.024  28.624  29.527  1.00  0.00     0.074 A 
ATOM     40  C   UNL A   1      38.914  27.694  29.495  1.00  0.00     0.031 C 
ATOM     41  C   UNL A   1      44.630  25.525  26.315  1.00  0.00     0.029 A 
ATOM     42  C   UNL A   1      44.687  26.868  26.885  1.00  0.00     0.049 A 
ATOM     43  H   UNL A   1      43.241  27.804  28.059  1.00  0.00     0.167 HD
ATOM     44  C   UNL A   1      39.973  29.852  30.097  1.00  0.00     0.034 A 
ATOM     45  C   UNL A   1      45.715  27.728  26.743  1.00  0.00     0.034 A 
ATOM     46  C   UNL A   1      41.085  30.764  30.156  1.00  0.00     0.049 A 
ATOM     47  C   UNL A   1      45.636  29.081  27.396  1.00  0.00     0.074 A 
ATOM     48  C   UNL A   1      41.156  31.994  30.790  1.00  0.00     0.029 A 
ATOM     49  N   UNL A   1      42.314  30.562  29.547  1.00  0.00    -0.354 N 
ATOM     50  N   UNL A   1      44.672  29.592  28.122  1.00  0.00    -0.248 NA
ATOM     51  C   UNL A   1      46.800  29.965  27.234  1.00  0.00     0.031 C 
ATOM     52  C   UNL A   1      42.415  32.547  30.536  1.00  0.00     0.029 A 
ATOM     53  C   UNL A   1      43.141  31.649  29.771  1.00  0.00     0.049 A 
ATOM     54  H   UNL A   1      42.562  29.760  29.031  1.00  0.00     0.167 HD
ATOM     55  C   UNL A   1      45.125  30.843  28.529  1.00  0.00     0.074 A 
ATOM     56  C   UNL A   1      46.460  31.000  27.989  1.00  0.00     0.031 C 
ATOM     57  C   UNL A   1      44.485  31.782  29.267  1.00  0.00     0.034 A 
BRANCH  44  58
ATOM     58  C   UNL A   1      38.680  30.272  30.747  1.00  0.00     0.023 A 
ATOM     59  C   UNL A   1      38.461  29.987  32.111  1.00  0.00     0.012 A 
ATOM     60  C   UNL A   1      37.714  31.007  30.031  1.00  0.00     0.148 A 
ATOM     61  C   UNL A   1      37.287  30.394  32.742  1.00  0.00     0.002 A 
ATOM     62  C   UNL A   1      36.566  31.448  30.680  1.00  0.00     0.091 A 
ATOM     63  F   UNL A   1      37.931  31.254  28.733  1.00  0.00    -0.205 F 
ATOM     64  C   UNL A   1      36.345  31.133  32.031  1.00  0.00     0.022 A 
BRANCH  62  65
ATOM     65  S   UNL A   1      35.330  32.473  29.874  1.00  0.00     0.127 S 
ATOM     66  O   UNL A   1      34.856  31.584  28.814  1.00  0.00    -0.237 OA
ATOM     67  O   UNL A   1      34.368  32.701  30.953  1.00  0.00    -0.237 OA
ATOM     68  O   UNL A   1      36.029  33.666  29.421  1.00  0.00    -0.744 OA
ENDBRANCH  62  65
ENDBRANCH  44  58
BRANCH  45  69
ATOM     69  C   UNL A   1      46.929  27.318  25.983  1.00  0.00     0.023 A 
ATOM     70  C   UNL A   1      47.904  26.519  26.611  1.00  0.00     0.012 A 
ATOM     71  C   UNL A   1      47.112  27.694  24.637  1.00  0.00     0.148 A 
ATOM     72  C   UNL A   1      49.055  26.131  25.925  1.00  0.00     0.002 A 
ATOM     73  C   UNL A   1      48.233  27.255  23.942  1.00  0.00     0.091 A 
ATOM     74  F   UNL A   1      46.179  28.464  24.061  1.00  0.00    -0.205 F 
ATOM     75  C   UNL A   1      49.214  26.489  24.589  1.00  0.00     0.022 A 
BRANCH  73  76
ATOM     76  S   UNL A   1      48.455  27.556  22.186  1.00  0.00     0.127 S 
ATOM     77  O   UNL A   1      47.185  28.180  21.826  1.00  0.00    -0.237 OA
ATOM     78  O   UNL A   1      49.609  28.457  22.179  1.00  0.00    -0.237 OA
ATOM     79  O   UNL A   1      48.711  26.251  21.592  1.00  0.00    -0.744 OA
ENDBRANCH  73  76
ENDBRANCH  45  69
BRANCH  57  80
ATOM     80  C   UNL A   1      45.224  33.062  29.563  1.00  0.00     0.023 A 
ATOM     81  C   UNL A   1      46.048  33.148  30.703  1.00  0.00     0.012 A 
ATOM     82  C   UNL A   1      45.157  34.156  28.676  1.00  0.00     0.148 A 
ATOM     83  C   UNL A   1      46.764  34.313  30.976  1.00  0.00     0.002 A 
ATOM     84  C   UNL A   1      45.913  35.295  28.927  1.00  0.00     0.091 A 
ATOM     85  F   UNL A   1      44.355  34.062  27.605  1.00  0.00    -0.205 F 
ATOM     86  C   UNL A   1      46.706  35.380  30.083  1.00  0.00     0.022 A 
BRANCH  84  87
ATOM     87  S   UNL A   1      45.977  36.682  27.788  1.00  0.00     0.127 S 
ATOM     88  O   UNL A   1      44.599  37.170  27.834  1.00  0.00    -0.237 OA
ATOM     89  O   UNL A   1      46.957  37.562  28.426  1.00  0.00    -0.237 OA
ATOM     90  O   UNL A   1      46.401  36.133  26.508  1.00  0.00    -0.744 OA
ENDBRANCH  84  87
ENDBRANCH  57  80
ENDBRANCH  31  32
ENDBRANCH  23  26
ENDBRANCH  21  22
ENDBRANCH   1  21
TORSDOF 16
ENDMDL
